# generated using pymatgen
data_Nd2Y2Al18(CoPt)3
_symmetry_space_group_name_H-M   'P 1'
_cell_length_a   7.54055736
_cell_length_b   7.54389971
_cell_length_c   9.46319209
_cell_angle_alpha   89.88248662
_cell_angle_beta   89.87547091
_cell_angle_gamma   119.50077162
_symmetry_Int_Tables_number   1
_chemical_formula_structural   Nd2Y2Al18(CoPt)3
_chemical_formula_sum   'Nd2 Y2 Al18 Co3 Pt3'
_cell_volume   468.51840684
_cell_formula_units_Z   1
loop_
 _symmetry_equiv_pos_site_id
 _symmetry_equiv_pos_as_xyz
  1  'x, y, z'
loop_
 _atom_site_type_symbol
 _atom_site_label
 _atom_site_symmetry_multiplicity
 _atom_site_fract_x
 _atom_site_fract_y
 _atom_site_fract_z
 _atom_site_occupancy
  Nd  Nd0  1  0.990045  0.667449  0.250717  1
  Nd  Nd1  1  0.673761  0.998128  0.250743  1
  Y  Y2  1  0.000488  0.324212  0.749340  1
  Y  Y3  1  0.332199  0.010625  0.749157  1
  Al  Al4  1  0.655073  0.987596  0.922365  1
  Al  Al5  1  0.012510  0.672615  0.573869  1
  Al  Al6  1  0.130805  0.128331  0.258226  1
  Al  Al7  1  0.656921  0.665201  0.048345  1
  Al  Al8  1  0.325449  0.332318  0.549635  1
  Al  Al9  1  0.333741  0.341815  0.944825  1
  Al  Al10  1  0.665938  0.673132  0.457831  1
  Al  Al11  1  0.334170  0.990123  0.071247  1
  Al  Al12  1  0.010012  0.336159  0.431694  1
  Al  Al13  1  0.340749  0.556132  0.251877  1
  Al  Al14  1  0.014205  0.344643  0.072037  1
  Al  Al15  1  0.539202  0.339495  0.250709  1
  Al  Al16  1  0.660210  0.459847  0.749203  1
  Al  Al17  1  0.875094  0.872391  0.741865  1
  Al  Al18  1  0.012144  0.665609  0.922940  1
  Al  Al19  1  0.663337  0.991801  0.574186  1
  Al  Al20  1  0.326715  0.989771  0.432081  1
  Al  Al21  1  0.438578  0.658746  0.748030  1
  Co  Co22  1  0.329784  0.669250  0.501902  1
  Co  Co23  1  0.002201  0.000796  0.502215  1
  Co  Co24  1  0.330238  0.669165  0.997754  1
  Pt  Pt25  1  0.671946  0.327115  0.502097  1
  Pt  Pt26  1  0.672499  0.326935  0.997726  1
  Pt  Pt27  1  0.001985  0.000604  0.997386  1
