# generated using pymatgen
data_La10CeIn9Rh4
_symmetry_space_group_name_H-M   'P 1'
_cell_length_a   13.63636400
_cell_length_b   13.63636283
_cell_length_c   3.87144800
_cell_angle_alpha   90.00000000
_cell_angle_beta   90.00000000
_cell_angle_gamma   111.41636794
_symmetry_Int_Tables_number   1
_chemical_formula_structural   La10CeIn9Rh4
_chemical_formula_sum   'La10 Ce1 In9 Rh4'
_cell_volume   670.18953110
_cell_formula_units_Z   1
loop_
 _symmetry_equiv_pos_site_id
 _symmetry_equiv_pos_as_xyz
  1  'x, y, z'
loop_
 _atom_site_type_symbol
 _atom_site_label
 _atom_site_symmetry_multiplicity
 _atom_site_fract_x
 _atom_site_fract_y
 _atom_site_fract_z
 _atom_site_occupancy
  La  La0  1  0.685988  0.685988  0.000000  1
  La  La1  1  0.000630  0.000630  0.000000  1
  La  La2  1  0.079462  0.418519  0.000000  1
  La  La3  1  0.922303  0.580085  0.000000  1
  La  La4  1  0.418519  0.079462  0.000000  1
  La  La5  1  0.580085  0.922303  0.000000  1
  La  La6  1  0.843696  0.158194  0.000000  1
  La  La7  1  0.158194  0.843696  0.000000  1
  La  La8  1  0.627743  0.375945  0.000000  1
  La  La9  1  0.375945  0.627743  0.000000  1
  Ce  Ce10  1  0.316715  0.316715  0.000000  1
  In  In11  1  0.835770  0.363714  0.500000  1
  In  In12  1  0.163738  0.635745  0.500000  1
  In  In13  1  0.363714  0.835770  0.500000  1
  In  In14  1  0.635745  0.163738  0.500000  1
  In  In15  1  0.083207  0.220923  0.500000  1
  In  In16  1  0.919685  0.780592  0.500000  1
  In  In17  1  0.220923  0.083207  0.500000  1
  In  In18  1  0.780592  0.919685  0.500000  1
  In  In19  1  0.496465  0.496465  0.500000  1
  Rh  Rh20  1  0.247387  0.429923  0.500000  1
  Rh  Rh21  1  0.760963  0.552610  0.500000  1
  Rh  Rh22  1  0.429923  0.247387  0.500000  1
  Rh  Rh23  1  0.552610  0.760963  0.500000  1
