# generated using pymatgen
data_DyY7(B2C)8
_symmetry_space_group_name_H-M   'P 1'
_cell_length_a   6.80320100
_cell_length_b   6.80320100
_cell_length_c   7.48687700
_cell_angle_alpha   90.00096217
_cell_angle_beta   89.99903783
_cell_angle_gamma   89.99774294
_symmetry_Int_Tables_number   1
_chemical_formula_structural   DyY7(B2C)8
_chemical_formula_sum   'Dy1 Y7 B16 C8'
_cell_volume   346.51919972
_cell_formula_units_Z   1
loop_
 _symmetry_equiv_pos_site_id
 _symmetry_equiv_pos_as_xyz
  1  'x, y, z'
loop_
 _atom_site_type_symbol
 _atom_site_label
 _atom_site_symmetry_multiplicity
 _atom_site_fract_x
 _atom_site_fract_y
 _atom_site_fract_z
 _atom_site_occupancy
  Dy  Dy0  1  0.309578  0.809578  0.250000  1
  Y  Y1  1  0.309564  0.809564  0.750000  1
  Y  Y2  1  0.190449  0.309559  0.249997  1
  Y  Y3  1  0.809559  0.690449  0.250003  1
  Y  Y4  1  0.690444  0.190444  0.750000  1
  Y  Y5  1  0.690413  0.190413  0.250000  1
  Y  Y6  1  0.809565  0.690428  0.750007  1
  Y  Y7  1  0.190428  0.309565  0.749993  1
  B  B8  1  0.151853  0.034729  0.000055  1
  B  B9  1  0.534729  0.651853  0.499945  1
  B  B10  1  0.848186  0.965243  0.999994  1
  B  B11  1  0.348155  0.534782  0.000043  1
  B  B12  1  0.651821  0.465254  0.999987  1
  B  B13  1  0.034782  0.848155  0.499957  1
  B  B14  1  0.965254  0.151821  0.500013  1
  B  B15  1  0.465243  0.348186  0.500006  1
  B  B16  1  0.097156  0.594844  0.000026  1
  B  B17  1  0.405179  0.097104  0.499967  1
  B  B18  1  0.594791  0.902864  0.499955  1
  B  B19  1  0.597104  0.905179  0.000033  1
  B  B20  1  0.402864  0.094791  0.000045  1
  B  B21  1  0.902871  0.405176  0.999996  1
  B  B22  1  0.094844  0.597156  0.499974  1
  B  B23  1  0.905176  0.402871  0.500004  1
  C  C24  1  0.177266  0.040372  0.499930  1
  C  C25  1  0.677239  0.459579  0.500002  1
  C  C26  1  0.322739  0.540459  0.499953  1
  C  C27  1  0.959579  0.177239  0.999998  1
  C  C28  1  0.040459  0.822739  0.000047  1
  C  C29  1  0.540372  0.677266  0.000070  1
  C  C30  1  0.822755  0.959582  0.500008  1
  C  C31  1  0.459582  0.322755  0.999992  1
