# generated using pymatgen
data_TbYEr2(Mo2O7)2
_symmetry_space_group_name_H-M   'P 1'
_cell_length_a   7.33658267
_cell_length_b   7.33658237
_cell_length_c   7.38382248
_cell_angle_alpha   60.11748047
_cell_angle_beta   60.11748277
_cell_angle_gamma   59.97100755
_symmetry_Int_Tables_number   1
_chemical_formula_structural   TbYEr2(Mo2O7)2
_chemical_formula_sum   'Tb1 Y1 Er2 Mo4 O14'
_cell_volume   281.46680981
_cell_formula_units_Z   1
loop_
 _symmetry_equiv_pos_site_id
 _symmetry_equiv_pos_as_xyz
  1  'x, y, z'
loop_
 _atom_site_type_symbol
 _atom_site_label
 _atom_site_symmetry_multiplicity
 _atom_site_fract_x
 _atom_site_fract_y
 _atom_site_fract_z
 _atom_site_occupancy
  Tb  Tb0  1  0.125000  0.125000  0.625000  1
  Y  Y1  1  0.125000  0.125000  0.125000  1
  Er  Er2  1  0.625000  0.125000  0.125000  1
  Er  Er3  1  0.125000  0.625000  0.125000  1
  Mo  Mo4  1  0.625000  0.625000  0.625000  1
  Mo  Mo5  1  0.125000  0.625000  0.625000  1
  Mo  Mo6  1  0.625000  0.125000  0.625000  1
  Mo  Mo7  1  0.625000  0.625000  0.125000  1
  O  O8  1  0.251580  0.251580  0.249138  1
  O  O9  1  0.998420  0.998420  0.000862  1
  O  O10  1  0.533223  0.968103  0.536818  1
  O  O11  1  0.287202  0.707527  0.281399  1
  O  O12  1  0.536275  0.536275  0.957356  1
  O  O13  1  0.968103  0.533223  0.536818  1
  O  O14  1  0.542473  0.962798  0.968601  1
  O  O15  1  0.963851  0.963851  0.523175  1
  O  O16  1  0.962798  0.542473  0.968601  1
  O  O17  1  0.707527  0.287202  0.281399  1
  O  O18  1  0.281897  0.716777  0.713182  1
  O  O19  1  0.713725  0.713725  0.292644  1
  O  O20  1  0.286149  0.286149  0.726825  1
  O  O21  1  0.716777  0.281897  0.713182  1
