# generated using pymatgen
data_Cr2Co4Mo6C
_symmetry_space_group_name_H-M   'P 1'
_cell_length_a   7.76217548
_cell_length_b   7.76217499
_cell_length_c   7.76217500
_cell_angle_alpha   59.99999570
_cell_angle_beta   59.99999777
_cell_angle_gamma   59.99999644
_symmetry_Int_Tables_number   1
_chemical_formula_structural   Cr2Co4Mo6C
_chemical_formula_sum   'Cr4 Co8 Mo12 C2'
_cell_volume   330.70082972
_cell_formula_units_Z   2
loop_
 _symmetry_equiv_pos_site_id
 _symmetry_equiv_pos_as_xyz
  1  'x, y, z'
loop_
 _atom_site_type_symbol
 _atom_site_label
 _atom_site_symmetry_multiplicity
 _atom_site_fract_x
 _atom_site_fract_y
 _atom_site_fract_z
 _atom_site_occupancy
  Cr  Cr0  1  0.625000  0.625000  0.125000  1
  Cr  Cr1  1  0.625000  0.125000  0.625000  1
  Cr  Cr2  1  0.125000  0.625000  0.625000  1
  Cr  Cr3  1  0.625000  0.625000  0.625000  1
  Co  Co4  1  0.420673  0.420673  0.737982  1
  Co  Co5  1  0.420673  0.737982  0.420673  1
  Co  Co6  1  0.737982  0.420673  0.420673  1
  Co  Co7  1  0.420673  0.420673  0.420673  1
  Co  Co8  1  0.829327  0.829327  0.512018  1
  Co  Co9  1  0.829327  0.512018  0.829327  1
  Co  Co10  1  0.512018  0.829327  0.829327  1
  Co  Co11  1  0.829327  0.829327  0.829327  1
  Mo  Mo12  1  0.055458  0.055458  0.444542  1
  Mo  Mo13  1  0.444542  0.055458  0.444542  1
  Mo  Mo14  1  0.055458  0.444542  0.444542  1
  Mo  Mo15  1  0.444542  0.444542  0.055458  1
  Mo  Mo16  1  0.055458  0.444542  0.055458  1
  Mo  Mo17  1  0.444542  0.055458  0.055458  1
  Mo  Mo18  1  0.194542  0.194542  0.805458  1
  Mo  Mo19  1  0.805458  0.194542  0.805458  1
  Mo  Mo20  1  0.194542  0.805458  0.805458  1
  Mo  Mo21  1  0.805458  0.805458  0.194542  1
  Mo  Mo22  1  0.194542  0.805458  0.194542  1
  Mo  Mo23  1  0.805458  0.194542  0.194542  1
  C  C24  1  0.250000  0.250000  0.250000  1
  C  C25  1  0.000000  0.000000  0.000000  1
