# generated using pymatgen
data_La8MgIn7Rh8
_symmetry_space_group_name_H-M   'P 1'
_cell_length_a   4.25697000
_cell_length_b   7.82863865
_cell_length_c   16.97130927
_cell_angle_alpha   90.51728463
_cell_angle_beta   90.00000000
_cell_angle_gamma   90.00000000
_symmetry_Int_Tables_number   1
_chemical_formula_structural   La8MgIn7Rh8
_chemical_formula_sum   'La8 Mg1 In7 Rh8'
_cell_volume   565.56755195
_cell_formula_units_Z   1
loop_
 _symmetry_equiv_pos_site_id
 _symmetry_equiv_pos_as_xyz
  1  'x, y, z'
loop_
 _atom_site_type_symbol
 _atom_site_label
 _atom_site_symmetry_multiplicity
 _atom_site_fract_x
 _atom_site_fract_y
 _atom_site_fract_z
 _atom_site_occupancy
  La  La0  1  0.750000  0.833795  0.062138  1
  La  La1  1  0.750000  0.944086  0.283639  1
  La  La2  1  0.250000  0.551511  0.783753  1
  La  La3  1  0.750000  0.447399  0.214628  1
  La  La4  1  0.250000  0.163063  0.940852  1
  La  La5  1  0.250000  0.057556  0.718017  1
  La  La6  1  0.250000  0.664646  0.562232  1
  La  La7  1  0.750000  0.335584  0.437727  1
  Mg  Mg8  1  0.750000  0.500795  0.936575  1
  In  In9  1  0.750000  0.000471  0.565139  1
  In  In10  1  0.250000  0.000143  0.435999  1
  In  In11  1  0.750000  0.380205  0.653377  1
  In  In12  1  0.250000  0.502757  0.061120  1
  In  In13  1  0.250000  0.620900  0.345590  1
  In  In14  1  0.750000  0.872126  0.848473  1
  In  In15  1  0.250000  0.124563  0.152142  1
  Rh  Rh16  1  0.250000  0.245983  0.566007  1
  Rh  Rh17  1  0.250000  0.761614  0.183129  1
  Rh  Rh18  1  0.750000  0.755428  0.434213  1
  Rh  Rh19  1  0.250000  0.252508  0.317329  1
  Rh  Rh20  1  0.750000  0.748080  0.684020  1
  Rh  Rh21  1  0.750000  0.259406  0.062995  1
  Rh  Rh22  1  0.250000  0.737446  0.933334  1
  Rh  Rh23  1  0.750000  0.239933  0.817569  1
