# generated using pymatgen
data_Y10OsRu2Rh
_symmetry_space_group_name_H-M   'P 1'
_cell_length_a   6.40226161
_cell_length_b   7.35249351
_cell_length_c   8.53361330
_cell_angle_alpha   96.68923237
_cell_angle_beta   112.09775449
_cell_angle_gamma   90.13736044
_symmetry_Int_Tables_number   1
_chemical_formula_structural   Y10OsRu2Rh
_chemical_formula_sum   'Y10 Os1 Ru2 Rh1'
_cell_volume   369.19160486
_cell_formula_units_Z   1
loop_
 _symmetry_equiv_pos_site_id
 _symmetry_equiv_pos_as_xyz
  1  'x, y, z'
loop_
 _atom_site_type_symbol
 _atom_site_label
 _atom_site_symmetry_multiplicity
 _atom_site_fract_x
 _atom_site_fract_y
 _atom_site_fract_z
 _atom_site_occupancy
  Y  Y0  1  0.979007  0.917141  0.183501  1
  Y  Y1  1  0.793476  0.584922  0.812179  1
  Y  Y2  1  0.020993  0.085327  0.813733  1
  Y  Y3  1  0.208029  0.413114  0.185499  1
  Y  Y4  1  0.639796  0.818012  0.437248  1
  Y  Y5  1  0.210285  0.685194  0.568137  1
  Y  Y6  1  0.357728  0.183857  0.565231  1
  Y  Y7  1  0.793418  0.314037  0.435712  1
  Y  Y8  1  0.420688  0.751217  0.998856  1
  Y  Y9  1  0.576997  0.247434  0.998162  1
  Os  Os10  1  0.603977  0.922152  0.780634  1
  Ru  Ru11  1  0.175180  0.424309  0.778764  1
  Ru  Ru12  1  0.397113  0.077101  0.220875  1
  Rh  Rh13  1  0.823314  0.576186  0.221468  1
