# generated using pymatgen
data_ZrTiSe
_symmetry_space_group_name_H-M   'P 1'
_cell_length_a   7.00720200
_cell_length_b   3.60220500
_cell_length_c   8.44060900
_cell_angle_alpha   90.00000000
_cell_angle_beta   90.00000000
_cell_angle_gamma   90.00000000
_symmetry_Int_Tables_number   1
_chemical_formula_structural   ZrTiSe
_chemical_formula_sum   'Zr4 Ti4 Se4'
_cell_volume   213.05260300
_cell_formula_units_Z   4
loop_
 _symmetry_equiv_pos_site_id
 _symmetry_equiv_pos_as_xyz
  1  'x, y, z'
loop_
 _atom_site_type_symbol
 _atom_site_label
 _atom_site_symmetry_multiplicity
 _atom_site_fract_x
 _atom_site_fract_y
 _atom_site_fract_z
 _atom_site_occupancy
  Zr  Zr0  1  0.962315  0.749999  0.170074  1
  Zr  Zr1  1  0.462314  0.749999  0.329926  1
  Zr  Zr2  1  0.537686  0.250000  0.670074  1
  Zr  Zr3  1  0.037685  0.250000  0.829926  1
  Ti  Ti4  1  0.636719  0.250000  0.062147  1
  Ti  Ti5  1  0.136719  0.250000  0.437853  1
  Ti  Ti6  1  0.863281  0.749999  0.562147  1
  Ti  Ti7  1  0.363281  0.749999  0.937853  1
  Se  Se8  1  0.262167  0.250000  0.138554  1
  Se  Se9  1  0.762167  0.250000  0.361446  1
  Se  Se10  1  0.237833  0.749999  0.638554  1
  Se  Se11  1  0.737833  0.749999  0.861446  1
