# generated using pymatgen
data_Zr4Si2GeWN
_symmetry_space_group_name_H-M   'P 1'
_cell_length_a   7.84142844
_cell_length_b   7.83557724
_cell_length_c   5.54542718
_cell_angle_alpha   90.06122536
_cell_angle_beta   89.87763327
_cell_angle_gamma   120.02470533
_symmetry_Int_Tables_number   1
_chemical_formula_structural   Zr4Si2GeWN
_chemical_formula_sum   'Zr8 Si4 Ge2 W2 N2'
_cell_volume   295.00043561
_cell_formula_units_Z   2
loop_
 _symmetry_equiv_pos_site_id
 _symmetry_equiv_pos_as_xyz
  1  'x, y, z'
loop_
 _atom_site_type_symbol
 _atom_site_label
 _atom_site_symmetry_multiplicity
 _atom_site_fract_x
 _atom_site_fract_y
 _atom_site_fract_z
 _atom_site_occupancy
  Zr  Zr0  1  0.232950  0.000000  0.746425  1
  Zr  Zr1  1  0.767050  0.000000  0.253575  1
  Zr  Zr2  1  0.002783  0.236255  0.748318  1
  Zr  Zr3  1  0.997217  0.763745  0.251682  1
  Zr  Zr4  1  0.766528  0.763745  0.748318  1
  Zr  Zr5  1  0.233472  0.236255  0.251682  1
  Zr  Zr6  1  0.670098  0.340194  0.000000  1
  Zr  Zr7  1  0.329902  0.659806  0.000000  1
  Si  Si8  1  0.000946  0.589707  0.718564  1
  Si  Si9  1  0.999054  0.410293  0.281436  1
  Si  Si10  1  0.411238  0.410293  0.718564  1
  Si  Si11  1  0.588762  0.589707  0.281436  1
  Ge  Ge12  1  0.591841  0.000000  0.733998  1
  Ge  Ge13  1  0.408159  0.000000  0.266002  1
  W  W14  1  0.330053  0.660106  0.500000  1
  W  W15  1  0.669947  0.339894  0.500000  1
  N  N16  1  0.000000  0.000000  0.500000  1
  N  N17  1  0.000000  0.000000  0.000000  1
