# generated using pymatgen
data_Y2Ho2Ir3PdO14
_symmetry_space_group_name_H-M   'P 1'
_cell_length_a   7.26156426
_cell_length_b   7.23647719
_cell_length_c   7.26156428
_cell_angle_alpha   59.85669447
_cell_angle_beta   59.97753703
_cell_angle_gamma   59.85669748
_symmetry_Int_Tables_number   1
_chemical_formula_structural   Y2Ho2Ir3PdO14
_chemical_formula_sum   'Y2 Ho2 Ir3 Pd1 O14'
_cell_volume   269.18757314
_cell_formula_units_Z   1
loop_
 _symmetry_equiv_pos_site_id
 _symmetry_equiv_pos_as_xyz
  1  'x, y, z'
loop_
 _atom_site_type_symbol
 _atom_site_label
 _atom_site_symmetry_multiplicity
 _atom_site_fract_x
 _atom_site_fract_y
 _atom_site_fract_z
 _atom_site_occupancy
  Y  Y0  1  0.625000  0.125000  0.125000  1
  Y  Y1  1  0.125000  0.125000  0.625000  1
  Ho  Ho2  1  0.125000  0.625000  0.125000  1
  Ho  Ho3  1  0.125000  0.125000  0.125000  1
  Ir  Ir4  1  0.125000  0.625000  0.625000  1
  Ir  Ir5  1  0.625000  0.625000  0.125000  1
  Ir  Ir6  1  0.625000  0.625000  0.625000  1
  Pd  Pd7  1  0.625000  0.125000  0.625000  1
  O  O8  1  0.717357  0.704519  0.288922  1
  O  O9  1  0.279524  0.287632  0.717571  1
  O  O10  1  0.716086  0.287805  0.716086  1
  O  O11  1  0.288797  0.705880  0.288797  1
  O  O12  1  0.288922  0.704519  0.717357  1
  O  O13  1  0.717571  0.287632  0.279524  1
  O  O14  1  0.532643  0.545481  0.961078  1
  O  O15  1  0.970476  0.962368  0.532429  1
  O  O16  1  0.533914  0.962195  0.533914  1
  O  O17  1  0.961203  0.544120  0.961203  1
  O  O18  1  0.961078  0.545481  0.532643  1
  O  O19  1  0.532429  0.962368  0.970476  1
  O  O20  1  0.248617  0.251527  0.248617  1
  O  O21  1  0.001383  0.998473  0.001383  1
