# generated using pymatgen
data_Y4Ho4Ir3WO24
_symmetry_space_group_name_H-M   'P 1'
_cell_length_a   5.28818412
_cell_length_b   9.16314414
_cell_length_c   9.90843710
_cell_angle_alpha   90.05965749
_cell_angle_beta   90.02938887
_cell_angle_gamma   90.09255869
_symmetry_Int_Tables_number   1
_chemical_formula_structural   Y4Ho4Ir3WO24
_chemical_formula_sum   'Y4 Ho4 Ir3 W1 O24'
_cell_volume   480.12617473
_cell_formula_units_Z   1
loop_
 _symmetry_equiv_pos_site_id
 _symmetry_equiv_pos_as_xyz
  1  'x, y, z'
loop_
 _atom_site_type_symbol
 _atom_site_label
 _atom_site_symmetry_multiplicity
 _atom_site_fract_x
 _atom_site_fract_y
 _atom_site_fract_z
 _atom_site_occupancy
  Y  Y0  1  0.460905  0.781060  0.869177  1
  Y  Y1  1  0.960397  0.719238  0.130196  1
  Y  Y2  1  0.041018  0.218320  0.369404  1
  Y  Y3  1  0.540604  0.281571  0.630153  1
  Ho  Ho4  1  0.983288  0.601211  0.534311  1
  Ho  Ho5  1  0.483655  0.895906  0.467266  1
  Ho  Ho6  1  0.020475  0.102299  0.962581  1
  Ho  Ho7  1  0.516997  0.398502  0.034016  1
  Ir  Ir8  1  0.959129  0.995970  0.647302  1
  Ir  Ir9  1  0.458886  0.503933  0.351963  1
  Ir  Ir10  1  0.041319  0.495965  0.851924  1
  W  W11  1  0.540062  0.005399  0.151115  1
  O  O12  1  0.751153  0.087348  0.501712  1
  O  O13  1  0.250643  0.411355  0.497243  1
  O  O14  1  0.248598  0.587799  0.998002  1
  O  O15  1  0.747562  0.912357  0.004183  1
  O  O16  1  0.234686  0.115404  0.569845  1
  O  O17  1  0.734601  0.384253  0.429970  1
  O  O18  1  0.764660  0.614260  0.930980  1
  O  O19  1  0.267915  0.886274  0.067292  1
  O  O20  1  0.085506  0.843042  0.527567  1
  O  O21  1  0.585301  0.655045  0.474354  1
  O  O22  1  0.913532  0.343367  0.971580  1
  O  O23  1  0.411320  0.158121  0.030095  1
  O  O24  1  0.691653  0.859797  0.265753  1
  O  O25  1  0.186976  0.643003  0.735412  1
  O  O26  1  0.312646  0.357322  0.235516  1
  O  O27  1  0.812862  0.142719  0.763945  1
  O  O28  1  0.328849  0.047568  0.300460  1
  O  O29  1  0.834550  0.446964  0.700500  1
  O  O30  1  0.673176  0.864882  0.681170  1
  O  O31  1  0.167308  0.947224  0.798029  1
  O  O32  1  0.823130  0.137509  0.178304  1
  O  O33  1  0.326901  0.365344  0.818457  1
  O  O34  1  0.174440  0.635731  0.319141  1
  O  O35  1  0.665295  0.553935  0.201078  1
