# generated using pymatgen
data_Er2Sc3Nb3(Co4P3)4
_symmetry_space_group_name_H-M   'P 1'
_cell_length_a   12.07251200
_cell_length_b   12.07251193
_cell_length_c   3.64803000
_cell_angle_alpha   90.00000000
_cell_angle_beta   90.00000000
_cell_angle_gamma   120.00000019
_symmetry_Int_Tables_number   1
_chemical_formula_structural   Er2Sc3Nb3(Co4P3)4
_chemical_formula_sum   'Er2 Sc3 Nb3 Co16 P12'
_cell_volume   460.45195479
_cell_formula_units_Z   1
loop_
 _symmetry_equiv_pos_site_id
 _symmetry_equiv_pos_as_xyz
  1  'x, y, z'
loop_
 _atom_site_type_symbol
 _atom_site_label
 _atom_site_symmetry_multiplicity
 _atom_site_fract_x
 _atom_site_fract_y
 _atom_site_fract_z
 _atom_site_occupancy
  Er  Er0  1  0.333333  0.666667  0.000000  1
  Er  Er1  1  0.666667  0.333333  0.000000  1
  Sc  Sc2  1  0.817942  0.000000  0.500000  1
  Sc  Sc3  1  0.000000  0.817942  0.500000  1
  Sc  Sc4  1  0.182058  0.182058  0.500000  1
  Nb  Nb5  1  0.446370  0.000000  0.000000  1
  Nb  Nb6  1  0.000000  0.446370  0.000000  1
  Nb  Nb7  1  0.553630  0.553630  0.000000  1
  Co  Co8  1  0.276552  0.000000  0.500000  1
  Co  Co9  1  0.000000  0.276552  0.500000  1
  Co  Co10  1  0.723448  0.723448  0.500000  1
  Co  Co11  1  0.629842  0.805673  0.000000  1
  Co  Co12  1  0.194327  0.824170  0.000000  1
  Co  Co13  1  0.175830  0.370158  0.000000  1
  Co  Co14  1  0.370158  0.175830  0.000000  1
  Co  Co15  1  0.805673  0.629842  0.000000  1
  Co  Co16  1  0.824170  0.194327  0.000000  1
  Co  Co17  1  0.520890  0.873285  0.500000  1
  Co  Co18  1  0.126715  0.647605  0.500000  1
  Co  Co19  1  0.352395  0.479110  0.500000  1
  Co  Co20  1  0.479110  0.352395  0.500000  1
  Co  Co21  1  0.873285  0.520890  0.500000  1
  Co  Co22  1  0.647605  0.126715  0.500000  1
  Co  Co23  1  0.000000  0.000000  0.000000  1
  P  P24  1  0.174526  0.000000  0.000000  1
  P  P25  1  0.000000  0.174526  0.000000  1
  P  P26  1  0.825474  0.825474  0.000000  1
  P  P27  1  0.520865  0.688503  0.500000  1
  P  P28  1  0.311497  0.832362  0.500000  1
  P  P29  1  0.167638  0.479135  0.500000  1
  P  P30  1  0.479135  0.167638  0.500000  1
  P  P31  1  0.688503  0.520865  0.500000  1
  P  P32  1  0.832362  0.311497  0.500000  1
  P  P33  1  0.649349  0.000000  0.000000  1
  P  P34  1  0.000000  0.649349  0.000000  1
  P  P35  1  0.350651  0.350651  0.000000  1
