# generated using pymatgen
data_Tb3Dy3Al24Ru3Rh5
_symmetry_space_group_name_H-M   'P 1'
_cell_length_a   8.82480596
_cell_length_b   8.78017699
_cell_length_c   9.55190034
_cell_angle_alpha   89.99999881
_cell_angle_beta   90.13262694
_cell_angle_gamma   119.83285152
_symmetry_Int_Tables_number   1
_chemical_formula_structural   Tb3Dy3Al24Ru3Rh5
_chemical_formula_sum   'Tb3 Dy3 Al24 Ru3 Rh5'
_cell_volume   642.03148101
_cell_formula_units_Z   1
loop_
 _symmetry_equiv_pos_site_id
 _symmetry_equiv_pos_as_xyz
  1  'x, y, z'
loop_
 _atom_site_type_symbol
 _atom_site_label
 _atom_site_symmetry_multiplicity
 _atom_site_fract_x
 _atom_site_fract_y
 _atom_site_fract_z
 _atom_site_occupancy
  Tb  Tb0  1  0.189916  0.805887  0.249538  1
  Tb  Tb1  1  0.189916  0.384028  0.249538  1
  Tb  Tb2  1  0.616845  0.808422  0.249591  1
  Dy  Dy3  1  0.809756  0.194542  0.750501  1
  Dy  Dy4  1  0.809756  0.615214  0.750501  1
  Dy  Dy5  1  0.383878  0.191939  0.750407  1
  Al  Al6  1  0.561228  0.437175  0.250433  1
  Al  Al7  1  0.561228  0.124053  0.250433  1
  Al  Al8  1  0.874365  0.437183  0.249230  1
  Al  Al9  1  0.439000  0.562617  0.749583  1
  Al  Al10  1  0.439000  0.876383  0.749583  1
  Al  Al11  1  0.125188  0.562594  0.750723  1
  Al  Al12  1  0.325688  0.162844  0.423137  1
  Al  Al13  1  0.835456  0.162424  0.423145  1
  Al  Al14  1  0.835456  0.673031  0.423145  1
  Al  Al15  1  0.674498  0.837249  0.577378  1
  Al  Al16  1  0.164474  0.837693  0.577368  1
  Al  Al17  1  0.164474  0.326781  0.577368  1
  Al  Al18  1  0.674196  0.837099  0.922923  1
  Al  Al19  1  0.162446  0.835352  0.922978  1
  Al  Al20  1  0.162446  0.327093  0.922978  1
  Al  Al21  1  0.325969  0.162984  0.076551  1
  Al  Al22  1  0.837445  0.164743  0.076501  1
  Al  Al23  1  0.837445  0.672702  0.076501  1
  Al  Al24  1  0.666812  0.333406  0.527959  1
  Al  Al25  1  0.333186  0.666593  0.472785  1
  Al  Al26  1  0.331074  0.665537  0.026389  1
  Al  Al27  1  0.668869  0.334434  0.972882  1
  Al  Al28  1  0.998390  0.999195  0.249955  1
  Al  Al29  1  0.001605  0.000803  0.750048  1
  Ru  Ru30  1  0.000014  0.000007  0.500042  1
  Ru  Ru31  1  0.999996  0.999998  0.999963  1
  Ru  Ru32  1  0.999738  0.499869  0.999689  1
  Rh  Rh33  1  0.500134  0.499893  0.500233  1
  Rh  Rh34  1  0.500134  0.000241  0.500233  1
  Rh  Rh35  1  0.999764  0.499882  0.500238  1
  Rh  Rh36  1  0.500108  0.499879  0.999775  1
  Rh  Rh37  1  0.500108  0.000230  0.999775  1
