# generated using pymatgen
data_Sb(S8F)3
_symmetry_space_group_name_H-M   'P 1'
_cell_length_a   14.73836618
_cell_length_b   14.73836577
_cell_length_c   14.73836665
_cell_angle_alpha   118.76854827
_cell_angle_beta   118.76854705
_cell_angle_gamma   118.76854445
_symmetry_Int_Tables_number   1
_chemical_formula_structural   Sb(S8F)3
_chemical_formula_sum   'Sb1 S24 F3'
_cell_volume   917.77758245
_cell_formula_units_Z   1
loop_
 _symmetry_equiv_pos_site_id
 _symmetry_equiv_pos_as_xyz
  1  'x, y, z'
loop_
 _atom_site_type_symbol
 _atom_site_label
 _atom_site_symmetry_multiplicity
 _atom_site_fract_x
 _atom_site_fract_y
 _atom_site_fract_z
 _atom_site_occupancy
  Sb  Sb0  1  0.241481  0.241481  0.241481  1
  S  S1  1  0.010237  0.610393  0.610393  1
  S  S2  1  0.610393  0.610393  0.010237  1
  S  S3  1  0.610393  0.010237  0.610393  1
  S  S4  1  0.235944  0.850573  0.719042  1
  S  S5  1  0.850573  0.719042  0.235944  1
  S  S6  1  0.719042  0.235944  0.850573  1
  S  S7  1  0.850573  0.235944  0.719042  1
  S  S8  1  0.235944  0.719042  0.850573  1
  S  S9  1  0.719042  0.850573  0.235944  1
  S  S10  1  0.098095  0.628324  0.441988  1
  S  S11  1  0.628324  0.441988  0.098095  1
  S  S12  1  0.441988  0.098095  0.628324  1
  S  S13  1  0.628324  0.098095  0.441988  1
  S  S14  1  0.098095  0.441988  0.628324  1
  S  S15  1  0.441988  0.628324  0.098095  1
  S  S16  1  0.360577  0.746532  0.613833  1
  S  S17  1  0.746532  0.613833  0.360577  1
  S  S18  1  0.613833  0.360577  0.746532  1
  S  S19  1  0.746532  0.360577  0.613833  1
  S  S20  1  0.360577  0.613833  0.746532  1
  S  S21  1  0.613833  0.746532  0.360577  1
  S  S22  1  0.187535  0.462238  0.462238  1
  S  S23  1  0.462238  0.462238  0.187535  1
  S  S24  1  0.462238  0.187535  0.462238  1
  F  F25  1  0.097227  0.987772  0.987772  1
  F  F26  1  0.987772  0.987772  0.097227  1
  F  F27  1  0.987772  0.097227  0.987772  1
