# generated using pymatgen
data_LiMnRhS4
_symmetry_space_group_name_H-M   'P 1'
_cell_length_a   7.07053808
_cell_length_b   7.07053733
_cell_length_c   6.94567000
_cell_angle_alpha   60.58248701
_cell_angle_beta   60.58249042
_cell_angle_gamma   61.45638473
_symmetry_Int_Tables_number   1
_chemical_formula_structural   LiMnRhS4
_chemical_formula_sum   'Li2 Mn2 Rh2 S8'
_cell_volume   250.32826893
_cell_formula_units_Z   2
loop_
 _symmetry_equiv_pos_site_id
 _symmetry_equiv_pos_as_xyz
  1  'x, y, z'
loop_
 _atom_site_type_symbol
 _atom_site_label
 _atom_site_symmetry_multiplicity
 _atom_site_fract_x
 _atom_site_fract_y
 _atom_site_fract_z
 _atom_site_occupancy
  Li  Li0  1  0.249635  0.249635  0.250365  1
  Li  Li1  1  0.000365  0.000365  0.999635  1
  Mn  Mn2  1  0.625000  0.625000  0.125000  1
  Mn  Mn3  1  0.625000  0.625000  0.625000  1
  Rh  Rh4  1  0.125000  0.625000  0.625000  1
  Rh  Rh5  1  0.625000  0.125000  0.625000  1
  S  S6  1  0.414116  0.857250  0.864318  1
  S  S7  1  0.859745  0.859745  0.415426  1
  S  S8  1  0.859745  0.859745  0.865084  1
  S  S9  1  0.835884  0.392750  0.385682  1
  S  S10  1  0.392750  0.835884  0.385682  1
  S  S11  1  0.390255  0.390255  0.834574  1
  S  S12  1  0.857250  0.414116  0.864318  1
  S  S13  1  0.390255  0.390255  0.384916  1
