# generated using pymatgen
data_LiMg3Ga2(B2Rh5)2
_symmetry_space_group_name_H-M   'P 1'
_cell_length_a   9.43415371
_cell_length_b   9.43415371
_cell_length_c   2.91489300
_cell_angle_alpha   90.00000000
_cell_angle_beta   90.00000000
_cell_angle_gamma   89.60973353
_symmetry_Int_Tables_number   1
_chemical_formula_structural   LiMg3Ga2(B2Rh5)2
_chemical_formula_sum   'Li1 Mg3 Ga2 B4 Rh10'
_cell_volume   259.42895040
_cell_formula_units_Z   1
loop_
 _symmetry_equiv_pos_site_id
 _symmetry_equiv_pos_as_xyz
  1  'x, y, z'
loop_
 _atom_site_type_symbol
 _atom_site_label
 _atom_site_symmetry_multiplicity
 _atom_site_fract_x
 _atom_site_fract_y
 _atom_site_fract_z
 _atom_site_occupancy
  Li  Li0  1  0.324164  0.175835  0.000000  1
  Mg  Mg1  1  0.824828  0.323335  0.000000  1
  Mg  Mg2  1  0.176664  0.675174  0.000000  1
  Mg  Mg3  1  0.674103  0.825899  0.000000  1
  Ga  Ga4  1  0.001035  0.000915  0.000000  1
  Ga  Ga5  1  0.499085  0.498965  0.000000  1
  B  B6  1  0.622576  0.125245  0.000000  1
  B  B7  1  0.129241  0.370758  0.000000  1
  B  B8  1  0.875033  0.624968  0.000000  1
  B  B9  1  0.374754  0.877425  0.000000  1
  Rh  Rh10  1  0.498906  0.001094  0.499998  1
  Rh  Rh11  1  0.784295  0.071146  0.499998  1
  Rh  Rh12  1  0.071573  0.215345  0.499998  1
  Rh  Rh13  1  0.573226  0.285177  0.499998  1
  Rh  Rh14  1  0.284655  0.428429  0.499998  1
  Rh  Rh15  1  0.999969  0.500031  0.499998  1
  Rh  Rh16  1  0.714958  0.572741  0.499998  1
  Rh  Rh17  1  0.428856  0.715706  0.499998  1
  Rh  Rh18  1  0.927259  0.785043  0.499998  1
  Rh  Rh19  1  0.214823  0.926774  0.499998  1
