# generated using pymatgen
data_CaTbNd5OsBr12
_symmetry_space_group_name_H-M   'P 1'
_cell_length_a   9.61272479
_cell_length_b   9.53935829
_cell_length_c   9.51084489
_cell_angle_alpha   107.08731155
_cell_angle_beta   107.18166282
_cell_angle_gamma   106.85126615
_symmetry_Int_Tables_number   1
_chemical_formula_structural   CaTbNd5OsBr12
_chemical_formula_sum   'Ca1 Tb1 Nd5 Os1 Br12'
_cell_volume   725.52360410
_cell_formula_units_Z   1
loop_
 _symmetry_equiv_pos_site_id
 _symmetry_equiv_pos_as_xyz
  1  'x, y, z'
loop_
 _atom_site_type_symbol
 _atom_site_label
 _atom_site_symmetry_multiplicity
 _atom_site_fract_x
 _atom_site_fract_y
 _atom_site_fract_z
 _atom_site_occupancy
  Ca  Ca0  1  0.500833  0.499294  0.498121  1
  Tb  Tb1  1  0.314968  0.107075  0.027072  1
  Nd  Nd2  1  0.023218  0.310888  0.105143  1
  Nd  Nd3  1  0.107283  0.027514  0.313742  1
  Nd  Nd4  1  0.896722  0.973909  0.688285  1
  Nd  Nd5  1  0.974586  0.689531  0.895535  1
  Nd  Nd6  1  0.676546  0.890830  0.973708  1
  Os  Os7  1  0.000078  0.000685  0.001308  1
  Br  Br8  1  0.677425  0.218184  0.068608  1
  Br  Br9  1  0.377545  0.449698  0.159118  1
  Br  Br10  1  0.070680  0.683789  0.221263  1
  Br  Br11  1  0.782069  0.931111  0.318140  1
  Br  Br12  1  0.458633  0.164480  0.372430  1
  Br  Br13  1  0.169023  0.380768  0.459978  1
  Br  Br14  1  0.833839  0.619993  0.540715  1
  Br  Br15  1  0.542597  0.833654  0.618808  1
  Br  Br16  1  0.225142  0.071687  0.692026  1
  Br  Br17  1  0.930473  0.316386  0.779574  1
  Br  Br18  1  0.621844  0.542096  0.834442  1
  Br  Br19  1  0.316500  0.788433  0.931989  1
