# generated using pymatgen
data_Al8Co3Ir4Ru
_symmetry_space_group_name_H-M   'P 1'
_cell_length_a   5.92378500
_cell_length_b   4.18483100
_cell_length_c   8.37050800
_cell_angle_alpha   90.00000000
_cell_angle_beta   90.00002336
_cell_angle_gamma   90.00000000
_symmetry_Int_Tables_number   1
_chemical_formula_structural   Al8Co3Ir4Ru
_chemical_formula_sum   'Al8 Co3 Ir4 Ru1'
_cell_volume   207.50522065
_cell_formula_units_Z   1
loop_
 _symmetry_equiv_pos_site_id
 _symmetry_equiv_pos_as_xyz
  1  'x, y, z'
loop_
 _atom_site_type_symbol
 _atom_site_label
 _atom_site_symmetry_multiplicity
 _atom_site_fract_x
 _atom_site_fract_y
 _atom_site_fract_z
 _atom_site_occupancy
  Al  Al0  1  0.497548  0.750000  0.125032  1
  Al  Al1  1  0.002452  0.750000  0.125034  1
  Al  Al2  1  0.499015  0.250001  0.376209  1
  Al  Al3  1  0.000975  0.250001  0.376213  1
  Al  Al4  1  0.000050  0.750000  0.624974  1
  Al  Al5  1  0.499961  0.750000  0.624977  1
  Al  Al6  1  0.000927  0.250001  0.873785  1
  Al  Al7  1  0.499072  0.250001  0.873789  1
  Co  Co8  1  0.249998  0.750000  0.377050  1
  Co  Co9  1  0.750003  0.250001  0.624986  1
  Co  Co10  1  0.250003  0.750000  0.872945  1
  Ir  Ir11  1  0.249996  0.250001  0.124958  1
  Ir  Ir12  1  0.749997  0.750000  0.379698  1
  Ir  Ir13  1  0.250005  0.250001  0.625039  1
  Ir  Ir14  1  0.750004  0.750000  0.870303  1
  Ru  Ru15  1  0.749997  0.250001  0.125007  1
