# generated using pymatgen
data_Nd2Al20Re2OsRh
_symmetry_space_group_name_H-M   'P 1'
_cell_length_a   6.92402295
_cell_length_b   6.91956314
_cell_length_c   9.24519182
_cell_angle_alpha   89.47680123
_cell_angle_beta   89.59244205
_cell_angle_gamma   96.81066163
_symmetry_Int_Tables_number   1
_chemical_formula_structural   Nd2Al20Re2OsRh
_chemical_formula_sum   'Nd2 Al20 Re2 Os1 Rh1'
_cell_volume   439.78935881
_cell_formula_units_Z   1
loop_
 _symmetry_equiv_pos_site_id
 _symmetry_equiv_pos_as_xyz
  1  'x, y, z'
loop_
 _atom_site_type_symbol
 _atom_site_label
 _atom_site_symmetry_multiplicity
 _atom_site_fract_x
 _atom_site_fract_y
 _atom_site_fract_z
 _atom_site_occupancy
  Nd  Nd0  1  0.871634  0.124844  0.749871  1
  Nd  Nd1  1  0.128366  0.875156  0.250129  1
  Al  Al2  1  0.622465  0.377766  0.544507  1
  Al  Al3  1  0.377535  0.622234  0.455493  1
  Al  Al4  1  0.380620  0.623138  0.046354  1
  Al  Al5  1  0.619380  0.376862  0.953646  1
  Al  Al6  1  0.223891  0.223420  0.499639  1
  Al  Al7  1  0.776109  0.776580  0.500361  1
  Al  Al8  1  0.774161  0.774597  0.998735  1
  Al  Al9  1  0.225839  0.225403  0.001265  1
  Al  Al10  1  0.839979  0.157407  0.101657  1
  Al  Al11  1  0.160021  0.842593  0.898343  1
  Al  Al12  1  0.157104  0.840521  0.600000  1
  Al  Al13  1  0.842896  0.159479  0.400000  1
  Al  Al14  1  0.858659  0.591381  0.749664  1
  Al  Al15  1  0.141341  0.408619  0.250336  1
  Al  Al16  1  0.407539  0.139972  0.749642  1
  Al  Al17  1  0.592461  0.860028  0.250358  1
  Al  Al18  1  0.220511  0.479068  0.745999  1
  Al  Al19  1  0.779489  0.520932  0.254001  1
  Al  Al20  1  0.520197  0.780880  0.751126  1
  Al  Al21  1  0.479803  0.219120  0.248874  1
  Re  Re22  1  0.000000  0.500000  0.500000  1
  Re  Re23  1  0.500000  0.000000  0.000000  1
  Os  Os24  1  0.500000  0.000000  0.500000  1
  Rh  Rh25  1  0.000000  0.500000  0.000000  1
