# generated using pymatgen
data_Tb3Th4Zr(ReB6)4
_symmetry_space_group_name_H-M   'P 1'
_cell_length_a   3.76227700
_cell_length_b   9.25328345
_cell_length_c   11.67984108
_cell_angle_alpha   89.91673427
_cell_angle_beta   90.00000000
_cell_angle_gamma   90.00000000
_symmetry_Int_Tables_number   1
_chemical_formula_structural   Tb3Th4Zr(ReB6)4
_chemical_formula_sum   'Tb3 Th4 Zr1 Re4 B24'
_cell_volume   406.61473090
_cell_formula_units_Z   1
loop_
 _symmetry_equiv_pos_site_id
 _symmetry_equiv_pos_as_xyz
  1  'x, y, z'
loop_
 _atom_site_type_symbol
 _atom_site_label
 _atom_site_symmetry_multiplicity
 _atom_site_fract_x
 _atom_site_fract_y
 _atom_site_fract_z
 _atom_site_occupancy
  Tb  Tb0  1  0.000000  0.054616  0.625359  1
  Tb  Tb1  1  0.000000  0.444583  0.127466  1
  Tb  Tb2  1  0.000000  0.554946  0.873403  1
  Th  Th3  1  0.000000  0.321695  0.413577  1
  Th  Th4  1  0.000000  0.678422  0.586393  1
  Th  Th5  1  0.000000  0.822007  0.086393  1
  Th  Th6  1  0.000000  0.177691  0.913032  1
  Zr  Zr7  1  0.000000  0.944659  0.373126  1
  Re  Re8  1  0.000000  0.643638  0.320920  1
  Re  Re9  1  0.000000  0.360316  0.678911  1
  Re  Re10  1  0.000000  0.136120  0.182636  1
  Re  Re11  1  0.000000  0.860931  0.819450  1
  B  B12  1  0.500000  0.557605  0.430318  1
  B  B13  1  0.500000  0.444451  0.569455  1
  B  B14  1  0.500000  0.055464  0.070721  1
  B  B15  1  0.500000  0.944016  0.930042  1
  B  B16  1  0.500000  0.752828  0.417402  1
  B  B17  1  0.500000  0.251012  0.582700  1
  B  B18  1  0.500000  0.248354  0.083149  1
  B  B19  1  0.500000  0.751028  0.917402  1
  B  B20  1  0.500000  0.793688  0.267153  1
  B  B21  1  0.500000  0.208912  0.732877  1
  B  B22  1  0.500000  0.289786  0.233978  1
  B  B23  1  0.500000  0.709212  0.766829  1
  B  B24  1  0.500000  0.632334  0.186758  1
  B  B25  1  0.500000  0.368418  0.813344  1
  B  B26  1  0.500000  0.128420  0.315029  1
  B  B27  1  0.500000  0.869225  0.686785  1
  B  B28  1  0.500000  0.983481  0.215151  1
  B  B29  1  0.500000  0.014599  0.786235  1
  B  B30  1  0.500000  0.486818  0.286758  1
  B  B31  1  0.500000  0.514064  0.713687  1
  B  B32  1  0.500000  0.605907  0.029493  1
  B  B33  1  0.500000  0.393993  0.971470  1
  B  B34  1  0.500000  0.099773  0.468429  1
  B  B35  1  0.500000  0.896988  0.524169  1
