# generated using pymatgen
data_Ta3Ti2Ga2SiB
_symmetry_space_group_name_H-M   'P 1'
_cell_length_a   7.66571500
_cell_length_b   7.72366407
_cell_length_c   5.22938000
_cell_angle_alpha   90.00000000
_cell_angle_beta   90.00000000
_cell_angle_gamma   119.75212261
_symmetry_Int_Tables_number   1
_chemical_formula_structural   Ta3Ti2Ga2SiB
_chemical_formula_sum   'Ta6 Ti4 Ga4 Si2 B2'
_cell_volume   268.80431704
_cell_formula_units_Z   2
loop_
 _symmetry_equiv_pos_site_id
 _symmetry_equiv_pos_as_xyz
  1  'x, y, z'
loop_
 _atom_site_type_symbol
 _atom_site_label
 _atom_site_symmetry_multiplicity
 _atom_site_fract_x
 _atom_site_fract_y
 _atom_site_fract_z
 _atom_site_occupancy
  Ta  Ta0  1  0.248064  0.000000  0.250000  1
  Ta  Ta1  1  0.751936  0.000000  0.750000  1
  Ta  Ta2  1  0.992077  0.236660  0.250000  1
  Ta  Ta3  1  0.007923  0.763340  0.750000  1
  Ta  Ta4  1  0.755417  0.763340  0.250000  1
  Ta  Ta5  1  0.244583  0.236660  0.750000  1
  Ti  Ti6  1  0.337715  0.675429  0.000000  1
  Ti  Ti7  1  0.662285  0.324571  0.000000  1
  Ti  Ti8  1  0.662285  0.324571  0.500000  1
  Ti  Ti9  1  0.337715  0.675429  0.500000  1
  Ga  Ga10  1  0.996510  0.596164  0.250000  1
  Ga  Ga11  1  0.003490  0.403836  0.750000  1
  Ga  Ga12  1  0.400346  0.403836  0.250000  1
  Ga  Ga13  1  0.599654  0.596164  0.750000  1
  Si  Si14  1  0.594216  0.000000  0.250000  1
  Si  Si15  1  0.405784  0.000000  0.750000  1
  B  B16  1  0.000000  0.000000  0.000000  1
  B  B17  1  0.000000  0.000000  0.500000  1
