# generated using pymatgen
data_TmSi(GeRh2)3
_symmetry_space_group_name_H-M   'P 1'
_cell_length_a   7.16168100
_cell_length_b   7.16168153
_cell_length_c   3.82085200
_cell_angle_alpha   90.00000000
_cell_angle_beta   90.00000000
_cell_angle_gamma   120.00000218
_symmetry_Int_Tables_number   1
_chemical_formula_structural   TmSi(GeRh2)3
_chemical_formula_sum   'Tm1 Si1 Ge3 Rh6'
_cell_volume   169.71522913
_cell_formula_units_Z   1
loop_
 _symmetry_equiv_pos_site_id
 _symmetry_equiv_pos_as_xyz
  1  'x, y, z'
loop_
 _atom_site_type_symbol
 _atom_site_label
 _atom_site_symmetry_multiplicity
 _atom_site_fract_x
 _atom_site_fract_y
 _atom_site_fract_z
 _atom_site_occupancy
  Tm  Tm0  1  0.000000  0.000000  0.000000  1
  Si  Si1  1  0.333333  0.666667  0.000000  1
  Ge  Ge2  1  0.393456  0.196727  0.500000  1
  Ge  Ge3  1  0.803273  0.196727  0.500000  1
  Ge  Ge4  1  0.803272  0.606544  0.500000  1
  Rh  Rh5  1  0.530605  0.061213  0.000000  1
  Rh  Rh6  1  0.530607  0.469394  0.000000  1
  Rh  Rh7  1  0.938786  0.469394  0.000000  1
  Rh  Rh8  1  0.200944  0.401889  0.500000  1
  Rh  Rh9  1  0.200945  0.799056  0.500000  1
  Rh  Rh10  1  0.598111  0.799056  0.500000  1
