# generated using pymatgen
data_Ba5Hg2Sb5F
_symmetry_space_group_name_H-M   'P 1'
_cell_length_a   11.97665419
_cell_length_b   11.97665372
_cell_length_c   15.41311300
_cell_angle_alpha   90.00000000
_cell_angle_beta   90.00000000
_cell_angle_gamma   155.41479234
_symmetry_Int_Tables_number   1
_chemical_formula_structural   Ba5Hg2Sb5F
_chemical_formula_sum   'Ba10 Hg4 Sb10 F2'
_cell_volume   919.81980033
_cell_formula_units_Z   2
loop_
 _symmetry_equiv_pos_site_id
 _symmetry_equiv_pos_as_xyz
  1  'x, y, z'
loop_
 _atom_site_type_symbol
 _atom_site_label
 _atom_site_symmetry_multiplicity
 _atom_site_fract_x
 _atom_site_fract_y
 _atom_site_fract_z
 _atom_site_occupancy
  Ba  Ba0  1  0.901305  0.098695  0.250000  1
  Ba  Ba1  1  0.098695  0.901305  0.750000  1
  Ba  Ba2  1  0.101351  0.898649  0.250000  1
  Ba  Ba3  1  0.898649  0.101351  0.750000  1
  Ba  Ba4  1  0.726286  0.273714  0.615005  1
  Ba  Ba5  1  0.273714  0.726286  0.115005  1
  Ba  Ba6  1  0.273714  0.726286  0.384995  1
  Ba  Ba7  1  0.726286  0.273714  0.884995  1
  Ba  Ba8  1  0.000000  0.000000  0.000000  1
  Ba  Ba9  1  0.000000  0.000000  0.500000  1
  Hg  Hg10  1  0.630057  0.369943  0.089934  1
  Hg  Hg11  1  0.369943  0.630057  0.589934  1
  Hg  Hg12  1  0.369943  0.630057  0.910066  1
  Hg  Hg13  1  0.630057  0.369943  0.410066  1
  Sb  Sb14  1  0.507244  0.492756  0.157445  1
  Sb  Sb15  1  0.492756  0.507244  0.657445  1
  Sb  Sb16  1  0.492756  0.507244  0.842555  1
  Sb  Sb17  1  0.507244  0.492756  0.342555  1
  Sb  Sb18  1  0.707423  0.292577  0.250000  1
  Sb  Sb19  1  0.292577  0.707423  0.750000  1
  Sb  Sb20  1  0.851305  0.148695  0.015646  1
  Sb  Sb21  1  0.148695  0.851305  0.515646  1
  Sb  Sb22  1  0.148695  0.851305  0.984354  1
  Sb  Sb23  1  0.851305  0.148695  0.484354  1
  F  F24  1  0.346734  0.653266  0.250000  1
  F  F25  1  0.653266  0.346734  0.750000  1
