# generated using pymatgen
data_Sm5Te2Cl3O10
_symmetry_space_group_name_H-M   'P 1'
_cell_length_a   5.66448201
_cell_length_b   6.87654942
_cell_length_c   10.20005531
_cell_angle_alpha   89.53346499
_cell_angle_beta   89.99576782
_cell_angle_gamma   114.32529896
_symmetry_Int_Tables_number   1
_chemical_formula_structural   Sm5Te2Cl3O10
_chemical_formula_sum   'Sm5 Te2 Cl3 O10'
_cell_volume   362.02601252
_cell_formula_units_Z   1
loop_
 _symmetry_equiv_pos_site_id
 _symmetry_equiv_pos_as_xyz
  1  'x, y, z'
loop_
 _atom_site_type_symbol
 _atom_site_label
 _atom_site_symmetry_multiplicity
 _atom_site_fract_x
 _atom_site_fract_y
 _atom_site_fract_z
 _atom_site_occupancy
  Sm  Sm0  1  0.500000  0.000000  0.000000  1
  Sm  Sm1  1  0.789410  0.578790  0.102258  1
  Sm  Sm2  1  0.097896  0.195711  0.228645  1
  Sm  Sm3  1  0.902103  0.804289  0.771356  1
  Sm  Sm4  1  0.210589  0.421210  0.897742  1
  Te  Te5  1  0.411780  0.823534  0.329619  1
  Te  Te6  1  0.588218  0.176465  0.670380  1
  Cl  Cl7  1  0.658518  0.317107  0.344893  1
  Cl  Cl8  1  0.000001  0.000000  0.500000  1
  Cl  Cl9  1  0.341482  0.682892  0.655106  1
  O  O10  1  0.391016  0.289891  0.058393  1
  O  O11  1  0.898920  0.289916  0.058415  1
  O  O12  1  0.200045  0.886413  0.201997  1
  O  O13  1  0.686445  0.886427  0.202002  1
  O  O14  1  0.266878  0.533893  0.294506  1
  O  O15  1  0.733123  0.466107  0.705493  1
  O  O16  1  0.313554  0.113573  0.797998  1
  O  O17  1  0.799954  0.113587  0.798003  1
  O  O18  1  0.101079  0.710083  0.941585  1
  O  O19  1  0.608984  0.710108  0.941606  1
