# generated using pymatgen
data_Hf2Be9Ir
_symmetry_space_group_name_H-M   'P 1'
_cell_length_a   7.60193122
_cell_length_b   7.60193162
_cell_length_c   7.60193090
_cell_angle_alpha   34.58131234
_cell_angle_beta   34.58130629
_cell_angle_gamma   34.58130420
_symmetry_Int_Tables_number   1
_chemical_formula_structural   Hf2Be9Ir
_chemical_formula_sum   'Hf2 Be9 Ir1'
_cell_volume   126.27082379
_cell_formula_units_Z   1
loop_
 _symmetry_equiv_pos_site_id
 _symmetry_equiv_pos_as_xyz
  1  'x, y, z'
loop_
 _atom_site_type_symbol
 _atom_site_label
 _atom_site_symmetry_multiplicity
 _atom_site_fract_x
 _atom_site_fract_y
 _atom_site_fract_z
 _atom_site_occupancy
  Hf  Hf0  1  0.144764  0.144764  0.144764  1
  Hf  Hf1  1  0.998448  0.998448  0.998448  1
  Be  Be2  1  0.417395  0.920433  0.417395  1
  Be  Be3  1  0.417395  0.417395  0.920433  1
  Be  Be4  1  0.920433  0.417395  0.417395  1
  Be  Be5  1  0.581359  0.080525  0.581359  1
  Be  Be6  1  0.581359  0.581359  0.080525  1
  Be  Be7  1  0.080525  0.581359  0.581359  1
  Be  Be8  1  0.666429  0.666429  0.666429  1
  Be  Be9  1  0.332345  0.332345  0.332345  1
  Be  Be10  1  0.500896  0.500896  0.500896  1
  Ir  Ir11  1  0.858653  0.858653  0.858653  1
