# generated using pymatgen
data_Ho3Er3FeBi2
_symmetry_space_group_name_H-M   'P 1'
_cell_length_a   8.29046700
_cell_length_b   8.29046809
_cell_length_c   4.18831600
_cell_angle_alpha   90.00000000
_cell_angle_beta   90.00000000
_cell_angle_gamma   119.99999964
_symmetry_Int_Tables_number   1
_chemical_formula_structural   Ho3Er3FeBi2
_chemical_formula_sum   'Ho3 Er3 Fe1 Bi2'
_cell_volume   249.30335385
_cell_formula_units_Z   1
loop_
 _symmetry_equiv_pos_site_id
 _symmetry_equiv_pos_as_xyz
  1  'x, y, z'
loop_
 _atom_site_type_symbol
 _atom_site_label
 _atom_site_symmetry_multiplicity
 _atom_site_fract_x
 _atom_site_fract_y
 _atom_site_fract_z
 _atom_site_occupancy
  Ho  Ho0  1  0.000000  0.610573  0.500000  1
  Ho  Ho1  1  0.389427  0.389427  0.500000  1
  Ho  Ho2  1  0.610573  0.000000  0.500000  1
  Er  Er3  1  0.229084  0.000000  0.000000  1
  Er  Er4  1  0.770916  0.770916  0.000000  1
  Er  Er5  1  0.000000  0.229084  0.000000  1
  Fe  Fe6  1  0.000000  0.000000  0.500000  1
  Bi  Bi7  1  0.333333  0.666667  0.000000  1
  Bi  Bi8  1  0.666667  0.333333  0.000000  1
