# generated using pymatgen
data_DySb5(ClO4)2
_symmetry_space_group_name_H-M   'P 1'
_cell_length_a   9.01338126
_cell_length_b   5.67220300
_cell_length_c   5.65331803
_cell_angle_alpha   89.99977788
_cell_angle_beta   92.95426404
_cell_angle_gamma   90.00005675
_symmetry_Int_Tables_number   1
_chemical_formula_structural   DySb5(ClO4)2
_chemical_formula_sum   'Dy1 Sb5 Cl2 O8'
_cell_volume   288.64587854
_cell_formula_units_Z   1
loop_
 _symmetry_equiv_pos_site_id
 _symmetry_equiv_pos_as_xyz
  1  'x, y, z'
loop_
 _atom_site_type_symbol
 _atom_site_label
 _atom_site_symmetry_multiplicity
 _atom_site_fract_x
 _atom_site_fract_y
 _atom_site_fract_z
 _atom_site_occupancy
  Dy  Dy0  1  0.500002  0.226633  0.249998  1
  Sb  Sb1  1  0.787399  0.690867  0.195087  1
  Sb  Sb2  1  0.212601  0.690868  0.304912  1
  Sb  Sb3  1  0.789202  0.309064  0.702141  1
  Sb  Sb4  1  0.499998  0.834686  0.749999  1
  Sb  Sb5  1  0.210796  0.309066  0.797863  1
  Cl  Cl6  1  0.999997  0.244743  0.249999  1
  Cl  Cl7  1  0.000005  0.743004  0.749997  1
  O  O8  1  0.325771  0.512242  0.052927  1
  O  O9  1  0.632929  0.926900  0.087413  1
  O  O10  1  0.367074  0.926896  0.412585  1
  O  O11  1  0.674229  0.512245  0.447076  1
  O  O12  1  0.320570  0.450520  0.526548  1
  O  O13  1  0.625434  0.085875  0.594214  1
  O  O14  1  0.374564  0.085873  0.905786  1
  O  O15  1  0.679427  0.450520  0.973453  1
