# generated using pymatgen
data_Tb3Yb2Ir3
_symmetry_space_group_name_H-M   'P 1'
_cell_length_a   10.89908100
_cell_length_b   11.05283200
_cell_length_c   6.27248400
_cell_angle_alpha   90.00000000
_cell_angle_beta   90.00000000
_cell_angle_gamma   90.00000000
_symmetry_Int_Tables_number   1
_chemical_formula_structural   Tb3Yb2Ir3
_chemical_formula_sum   'Tb12 Yb8 Ir12'
_cell_volume   755.61924635
_cell_formula_units_Z   4
loop_
 _symmetry_equiv_pos_site_id
 _symmetry_equiv_pos_as_xyz
  1  'x, y, z'
loop_
 _atom_site_type_symbol
 _atom_site_label
 _atom_site_symmetry_multiplicity
 _atom_site_fract_x
 _atom_site_fract_y
 _atom_site_fract_z
 _atom_site_occupancy
  Tb  Tb0  1  0.588977  0.795791  0.881255  1
  Tb  Tb1  1  0.588977  0.204209  0.381255  1
  Tb  Tb2  1  0.411023  0.795791  0.381255  1
  Tb  Tb3  1  0.411023  0.204209  0.881255  1
  Tb  Tb4  1  0.211659  0.411870  0.622589  1
  Tb  Tb5  1  0.211659  0.588130  0.122589  1
  Tb  Tb6  1  0.788341  0.411870  0.122589  1
  Tb  Tb7  1  0.788341  0.588130  0.622589  1
  Tb  Tb8  1  0.911003  0.710340  0.124854  1
  Tb  Tb9  1  0.911003  0.289660  0.624854  1
  Tb  Tb10  1  0.088997  0.710340  0.624854  1
  Tb  Tb11  1  0.088997  0.289660  0.124854  1
  Yb  Yb12  1  0.288612  0.086619  0.377896  1
  Yb  Yb13  1  0.288612  0.913381  0.877896  1
  Yb  Yb14  1  0.711388  0.086619  0.877896  1
  Yb  Yb15  1  0.711388  0.913381  0.377896  1
  Yb  Yb16  1  0.000000  0.000000  0.496862  1
  Yb  Yb17  1  0.000000  0.000000  0.996862  1
  Yb  Yb18  1  0.500000  0.500000  0.990994  1
  Yb  Yb19  1  0.500000  0.500000  0.490994  1
  Ir  Ir20  1  0.849916  0.165982  0.250808  1
  Ir  Ir21  1  0.849916  0.834018  0.750808  1
  Ir  Ir22  1  0.150084  0.165982  0.750808  1
  Ir  Ir23  1  0.150084  0.834018  0.250808  1
  Ir  Ir24  1  0.657587  0.346392  0.744645  1
  Ir  Ir25  1  0.657587  0.653608  0.244645  1
  Ir  Ir26  1  0.342413  0.346392  0.244645  1
  Ir  Ir27  1  0.342413  0.653608  0.744645  1
  Ir  Ir28  1  0.500000  0.000000  0.123932  1
  Ir  Ir29  1  0.500000  0.000000  0.623932  1
  Ir  Ir30  1  0.000000  0.500000  0.884116  1
  Ir  Ir31  1  0.000000  0.500000  0.384116  1
