# generated using pymatgen
data_Y5Tm3Hg4
_symmetry_space_group_name_H-M   'P 1'
_cell_length_a   5.07223400
_cell_length_b   7.11997894
_cell_length_c   9.16213467
_cell_angle_alpha   89.94792075
_cell_angle_beta   90.00000000
_cell_angle_gamma   90.00000000
_symmetry_Int_Tables_number   1
_chemical_formula_structural   Y5Tm3Hg4
_chemical_formula_sum   'Y5 Tm3 Hg4'
_cell_volume   330.88302043
_cell_formula_units_Z   1
loop_
 _symmetry_equiv_pos_site_id
 _symmetry_equiv_pos_as_xyz
  1  'x, y, z'
loop_
 _atom_site_type_symbol
 _atom_site_label
 _atom_site_symmetry_multiplicity
 _atom_site_fract_x
 _atom_site_fract_y
 _atom_site_fract_z
 _atom_site_occupancy
  Y  Y0  1  0.750000  0.667069  0.424718  1
  Y  Y1  1  0.250000  0.984871  0.308525  1
  Y  Y2  1  0.250000  0.482408  0.189688  1
  Y  Y3  1  0.750000  0.017236  0.692566  1
  Y  Y4  1  0.750000  0.516497  0.808873  1
  Tm  Tm5  1  0.250000  0.835768  0.926306  1
  Tm  Tm6  1  0.250000  0.333271  0.574748  1
  Tm  Tm7  1  0.750000  0.165480  0.074562  1
  Hg  Hg8  1  0.250000  0.256972  0.897869  1
  Hg  Hg9  1  0.250000  0.757089  0.605054  1
  Hg  Hg10  1  0.750000  0.744050  0.099096  1
  Hg  Hg11  1  0.750000  0.239290  0.397997  1
