# generated using pymatgen
data_Li4PrTm3Si8
_symmetry_space_group_name_H-M   'P 1'
_cell_length_a   3.79012500
_cell_length_b   7.65034707
_cell_length_c   10.17010759
_cell_angle_alpha   89.76527237
_cell_angle_beta   90.00000000
_cell_angle_gamma   90.00000000
_symmetry_Int_Tables_number   1
_chemical_formula_structural   Li4PrTm3Si8
_chemical_formula_sum   'Li4 Pr1 Tm3 Si8'
_cell_volume   294.88764305
_cell_formula_units_Z   1
loop_
 _symmetry_equiv_pos_site_id
 _symmetry_equiv_pos_as_xyz
  1  'x, y, z'
loop_
 _atom_site_type_symbol
 _atom_site_label
 _atom_site_symmetry_multiplicity
 _atom_site_fract_x
 _atom_site_fract_y
 _atom_site_fract_z
 _atom_site_occupancy
  Li  Li0  1  0.250000  0.994151  0.393597  1
  Li  Li1  1  0.750000  0.013125  0.609184  1
  Li  Li2  1  0.250000  0.486589  0.106153  1
  Li  Li3  1  0.750000  0.512317  0.895375  1
  Pr  Pr4  1  0.750000  0.360162  0.363041  1
  Tm  Tm5  1  0.250000  0.131172  0.862344  1
  Tm  Tm6  1  0.750000  0.862480  0.134883  1
  Tm  Tm7  1  0.250000  0.637454  0.637083  1
  Si  Si8  1  0.750000  0.257950  0.059694  1
  Si  Si9  1  0.250000  0.733866  0.933007  1
  Si  Si10  1  0.750000  0.773965  0.433386  1
  Si  Si11  1  0.250000  0.233518  0.576154  1
  Si  Si12  1  0.750000  0.842115  0.818078  1
  Si  Si13  1  0.250000  0.149376  0.173019  1
  Si  Si14  1  0.750000  0.345278  0.686741  1
  Si  Si15  1  0.250000  0.666480  0.318260  1
