# generated using pymatgen
data_DyHo3Tm16(CoSb2)4
_symmetry_space_group_name_H-M   'P 1'
_cell_length_a   7.79552927
_cell_length_b   8.72870400
_cell_length_c   12.07239142
_cell_angle_alpha   90.00000000
_cell_angle_beta   90.03011202
_cell_angle_gamma   90.00000000
_symmetry_Int_Tables_number   1
_chemical_formula_structural   DyHo3Tm16(CoSb2)4
_chemical_formula_sum   'Dy1 Ho3 Tm16 Co4 Sb8'
_cell_volume   821.46416108
_cell_formula_units_Z   1
loop_
 _symmetry_equiv_pos_site_id
 _symmetry_equiv_pos_as_xyz
  1  'x, y, z'
loop_
 _atom_site_type_symbol
 _atom_site_label
 _atom_site_symmetry_multiplicity
 _atom_site_fract_x
 _atom_site_fract_y
 _atom_site_fract_z
 _atom_site_occupancy
  Dy  Dy0  1  0.122187  0.250000  0.192720  1
  Ho  Ho1  1  0.621728  0.750000  0.307710  1
  Ho  Ho2  1  0.878237  0.750000  0.807759  1
  Ho  Ho3  1  0.378300  0.250000  0.692160  1
  Tm  Tm4  1  0.155523  0.750000  0.203446  1
  Tm  Tm5  1  0.344518  0.750000  0.703404  1
  Tm  Tm6  1  0.844455  0.250000  0.796421  1
  Tm  Tm7  1  0.655423  0.250000  0.296603  1
  Tm  Tm8  1  0.450139  0.750000  0.998024  1
  Tm  Tm9  1  0.050096  0.750000  0.498100  1
  Tm  Tm10  1  0.550089  0.250000  0.001944  1
  Tm  Tm11  1  0.949967  0.250000  0.501979  1
  Tm  Tm12  1  0.823429  0.536692  0.065215  1
  Tm  Tm13  1  0.676292  0.963868  0.565239  1
  Tm  Tm14  1  0.176409  0.035891  0.934583  1
  Tm  Tm15  1  0.323715  0.463736  0.434782  1
  Tm  Tm16  1  0.176409  0.464109  0.934583  1
  Tm  Tm17  1  0.323715  0.036264  0.434782  1
  Tm  Tm18  1  0.823429  0.963308  0.065215  1
  Tm  Tm19  1  0.676292  0.536132  0.565239  1
  Co  Co20  1  0.433452  0.750000  0.491315  1
  Co  Co21  1  0.066558  0.750000  0.991309  1
  Co  Co22  1  0.566563  0.250000  0.508687  1
  Co  Co23  1  0.933278  0.250000  0.008536  1
  Sb  Sb24  1  0.929982  0.508792  0.328147  1
  Sb  Sb25  1  0.569629  0.991549  0.827978  1
  Sb  Sb26  1  0.069618  0.008506  0.672001  1
  Sb  Sb27  1  0.430669  0.491718  0.171997  1
  Sb  Sb28  1  0.069618  0.491494  0.672001  1
  Sb  Sb29  1  0.430669  0.008282  0.171997  1
  Sb  Sb30  1  0.929982  0.991208  0.328147  1
  Sb  Sb31  1  0.569629  0.508451  0.827978  1
