# generated using pymatgen
data_TbCe7Os6
_symmetry_space_group_name_H-M   'P 1'
_cell_length_a   8.25564604
_cell_length_b   8.38543273
_cell_length_c   6.04062547
_cell_angle_alpha   77.77819076
_cell_angle_beta   72.42248758
_cell_angle_gamma   119.11984643
_symmetry_Int_Tables_number   1
_chemical_formula_structural   TbCe7Os6
_chemical_formula_sum   'Tb1 Ce7 Os6'
_cell_volume   314.31197722
_cell_formula_units_Z   1
loop_
 _symmetry_equiv_pos_site_id
 _symmetry_equiv_pos_as_xyz
  1  'x, y, z'
loop_
 _atom_site_type_symbol
 _atom_site_label
 _atom_site_symmetry_multiplicity
 _atom_site_fract_x
 _atom_site_fract_y
 _atom_site_fract_z
 _atom_site_occupancy
  Tb  Tb0  1  0.883258  0.608111  0.170060  1
  Ce  Ce1  1  0.349598  0.335171  0.280303  1
  Ce  Ce2  1  0.121620  0.397237  0.817598  1
  Ce  Ce3  1  0.389333  0.126788  0.825079  1
  Ce  Ce4  1  0.161243  0.828711  0.500837  1
  Ce  Ce5  1  0.653264  0.665651  0.717212  1
  Ce  Ce6  1  0.835954  0.172720  0.492989  1
  Ce  Ce7  1  0.611496  0.872648  0.173956  1
  Os  Os8  1  0.802496  0.419276  0.758073  1
  Os  Os9  1  0.004349  0.002425  0.238080  1
  Os  Os10  1  0.399888  0.808249  0.756272  1
  Os  Os11  1  0.587533  0.177402  0.256127  1
  Os  Os12  1  0.996046  0.004838  0.763115  1
  Os  Os13  1  0.203922  0.580771  0.250299  1
