# generated using pymatgen
data_Dy10Cd3Fe
_symmetry_space_group_name_H-M   'P 1'
_cell_length_a   9.54131900
_cell_length_b   9.54132043
_cell_length_c   9.82728500
_cell_angle_alpha   90.00000000
_cell_angle_beta   90.00000000
_cell_angle_gamma   119.99999852
_symmetry_Int_Tables_number   1
_chemical_formula_structural   Dy10Cd3Fe
_chemical_formula_sum   'Dy20 Cd6 Fe2'
_cell_volume   774.78479027
_cell_formula_units_Z   2
loop_
 _symmetry_equiv_pos_site_id
 _symmetry_equiv_pos_as_xyz
  1  'x, y, z'
loop_
 _atom_site_type_symbol
 _atom_site_label
 _atom_site_symmetry_multiplicity
 _atom_site_fract_x
 _atom_site_fract_y
 _atom_site_fract_z
 _atom_site_occupancy
  Dy  Dy0  1  0.000000  0.000000  0.500000  1
  Dy  Dy1  1  0.000000  0.000000  0.000000  1
  Dy  Dy2  1  0.541376  0.458624  0.250000  1
  Dy  Dy3  1  0.541376  0.082751  0.250000  1
  Dy  Dy4  1  0.917249  0.458624  0.250000  1
  Dy  Dy5  1  0.458624  0.541376  0.750000  1
  Dy  Dy6  1  0.458624  0.917249  0.750000  1
  Dy  Dy7  1  0.082751  0.541376  0.750000  1
  Dy  Dy8  1  0.212033  0.787967  0.436487  1
  Dy  Dy9  1  0.212033  0.424068  0.436487  1
  Dy  Dy10  1  0.575932  0.787967  0.436487  1
  Dy  Dy11  1  0.787967  0.212033  0.563513  1
  Dy  Dy12  1  0.787967  0.575932  0.563513  1
  Dy  Dy13  1  0.424068  0.212033  0.563513  1
  Dy  Dy14  1  0.787967  0.212033  0.936487  1
  Dy  Dy15  1  0.787967  0.575932  0.936487  1
  Dy  Dy16  1  0.424068  0.212033  0.936487  1
  Dy  Dy17  1  0.212033  0.787967  0.063513  1
  Dy  Dy18  1  0.212033  0.424068  0.063513  1
  Dy  Dy19  1  0.575932  0.787967  0.063513  1
  Cd  Cd20  1  0.885599  0.114401  0.250000  1
  Cd  Cd21  1  0.885599  0.771197  0.250000  1
  Cd  Cd22  1  0.228803  0.114401  0.250000  1
  Cd  Cd23  1  0.114401  0.885599  0.750000  1
  Cd  Cd24  1  0.114401  0.228803  0.750000  1
  Cd  Cd25  1  0.771197  0.885599  0.750000  1
  Fe  Fe26  1  0.333333  0.666667  0.250000  1
  Fe  Fe27  1  0.666667  0.333333  0.750000  1
