# generated using pymatgen
data_LaDy4(CoB3)2
_symmetry_space_group_name_H-M   'P 1'
_cell_length_a   5.44352090
_cell_length_b   5.44352066
_cell_length_c   8.29050371
_cell_angle_alpha   70.83445895
_cell_angle_beta   70.83445745
_cell_angle_gamma   59.99998362
_symmetry_Int_Tables_number   1
_chemical_formula_structural   LaDy4(CoB3)2
_chemical_formula_sum   'La1 Dy4 Co2 B6'
_cell_volume   196.87135859
_cell_formula_units_Z   1
loop_
 _symmetry_equiv_pos_site_id
 _symmetry_equiv_pos_as_xyz
  1  'x, y, z'
loop_
 _atom_site_type_symbol
 _atom_site_label
 _atom_site_symmetry_multiplicity
 _atom_site_fract_x
 _atom_site_fract_y
 _atom_site_fract_z
 _atom_site_occupancy
  La  La0  1  0.000000  0.000000  0.000000  1
  Dy  Dy1  1  0.251473  0.251473  0.245582  1
  Dy  Dy2  1  0.748527  0.748527  0.754418  1
  Dy  Dy3  1  0.416253  0.416253  0.751239  1
  Dy  Dy4  1  0.583747  0.583747  0.248761  1
  Co  Co5  1  0.117955  0.117955  0.646135  1
  Co  Co6  1  0.882045  0.882045  0.353865  1
  B  B7  1  0.168186  0.831814  0.500000  1
  B  B8  1  0.831814  0.500000  0.500000  1
  B  B9  1  0.500000  0.168186  0.500000  1
  B  B10  1  0.168186  0.500000  0.500000  1
  B  B11  1  0.500000  0.831814  0.500000  1
  B  B12  1  0.831814  0.168186  0.500000  1
