# generated using pymatgen
data_Ca4PrU5O18
_symmetry_space_group_name_H-M   'P 1'
_cell_length_a   6.90950788
_cell_length_b   7.59425365
_cell_length_c   8.56283900
_cell_angle_alpha   100.29056539
_cell_angle_beta   98.89192874
_cell_angle_gamma   107.10585959
_symmetry_Int_Tables_number   1
_chemical_formula_structural   Ca4PrU5O18
_chemical_formula_sum   'Ca4 Pr1 U5 O18'
_cell_volume   412.15456562
_cell_formula_units_Z   1
loop_
 _symmetry_equiv_pos_site_id
 _symmetry_equiv_pos_as_xyz
  1  'x, y, z'
loop_
 _atom_site_type_symbol
 _atom_site_label
 _atom_site_symmetry_multiplicity
 _atom_site_fract_x
 _atom_site_fract_y
 _atom_site_fract_z
 _atom_site_occupancy
  Ca  Ca0  1  0.797908  0.104696  0.580315  1
  Ca  Ca1  1  0.596776  0.700969  0.197844  1
  Ca  Ca2  1  0.403224  0.299031  0.802156  1
  Ca  Ca3  1  0.202092  0.895304  0.419685  1
  Pr  Pr4  1  0.000000  0.500000  0.000000  1
  U  U5  1  0.000000  0.000000  0.000000  1
  U  U6  1  0.788813  0.578402  0.585949  1
  U  U7  1  0.622623  0.198686  0.195858  1
  U  U8  1  0.377377  0.801314  0.804142  1
  U  U9  1  0.211187  0.421598  0.414051  1
  O  O10  1  0.819672  0.792230  0.469379  1
  O  O11  1  0.004219  0.251579  0.168082  1
  O  O12  1  0.667373  0.410729  0.066916  1
  O  O13  1  0.457632  0.003667  0.679746  1
  O  O14  1  0.861048  0.340520  0.423322  1
  O  O15  1  0.501195  0.395623  0.348215  1
  O  O16  1  0.251257  0.617218  0.276671  1
  O  O17  1  0.985302  0.823407  0.157963  1
  O  O18  1  0.662783  0.935796  0.999444  1
  O  O19  1  0.337217  0.064204  0.000556  1
  O  O20  1  0.014698  0.176593  0.842037  1
  O  O21  1  0.748743  0.382782  0.723329  1
  O  O22  1  0.498805  0.604377  0.651785  1
  O  O23  1  0.138952  0.659480  0.576678  1
  O  O24  1  0.542368  0.996333  0.320254  1
  O  O25  1  0.332627  0.589271  0.933084  1
  O  O26  1  0.995781  0.748421  0.831918  1
  O  O27  1  0.180328  0.207770  0.530621  1
