# generated using pymatgen
data_Li3TbAs6Ir7
_symmetry_space_group_name_H-M   'P 1'
_cell_length_a   6.96356962
_cell_length_b   7.11312241
_cell_length_c   7.11312042
_cell_angle_alpha   109.89318370
_cell_angle_beta   109.04587074
_cell_angle_gamma   109.04588444
_symmetry_Int_Tables_number   1
_chemical_formula_structural   Li3TbAs6Ir7
_chemical_formula_sum   'Li3 Tb1 As6 Ir7'
_cell_volume   272.63612081
_cell_formula_units_Z   1
loop_
 _symmetry_equiv_pos_site_id
 _symmetry_equiv_pos_as_xyz
  1  'x, y, z'
loop_
 _atom_site_type_symbol
 _atom_site_label
 _atom_site_symmetry_multiplicity
 _atom_site_fract_x
 _atom_site_fract_y
 _atom_site_fract_z
 _atom_site_occupancy
  Li  Li0  1  0.000000  0.000000  0.500000  1
  Li  Li1  1  0.000000  0.500000  0.000000  1
  Li  Li2  1  0.500000  0.500000  0.500000  1
  Tb  Tb3  1  0.500000  0.000000  0.000000  1
  As  As4  1  0.693943  0.679251  0.000000  1
  As  As5  1  0.306057  0.320749  0.000000  1
  As  As6  1  0.985308  0.679251  0.679251  1
  As  As7  1  0.014692  0.320749  0.320749  1
  As  As8  1  0.693943  0.000000  0.679251  1
  As  As9  1  0.306057  0.000000  0.320749  1
  Ir  Ir10  1  0.000000  0.000000  0.000000  1
  Ir  Ir11  1  0.247103  0.494205  0.747103  1
  Ir  Ir12  1  0.752897  0.252897  0.505795  1
  Ir  Ir13  1  0.500000  0.252897  0.747103  1
  Ir  Ir14  1  0.500000  0.747103  0.252897  1
  Ir  Ir15  1  0.752897  0.505795  0.252897  1
  Ir  Ir16  1  0.247103  0.747103  0.494205  1
