# generated using pymatgen
data_Tb5YbSi24OsRu7
_symmetry_space_group_name_H-M   'P 1'
_cell_length_a   10.11883514
_cell_length_b   10.11883478
_cell_length_c   8.13682702
_cell_angle_alpha   89.99469964
_cell_angle_beta   89.99469738
_cell_angle_gamma   132.56055575
_symmetry_Int_Tables_number   1
_chemical_formula_structural   Tb5YbSi24OsRu7
_chemical_formula_sum   'Tb5 Yb1 Si24 Os1 Ru7'
_cell_volume   613.65734209
_cell_formula_units_Z   1
loop_
 _symmetry_equiv_pos_site_id
 _symmetry_equiv_pos_as_xyz
  1  'x, y, z'
loop_
 _atom_site_type_symbol
 _atom_site_label
 _atom_site_symmetry_multiplicity
 _atom_site_fract_x
 _atom_site_fract_y
 _atom_site_fract_z
 _atom_site_occupancy
  Tb  Tb0  1  0.000075  0.999925  0.000000  1
  Tb  Tb1  1  0.502168  0.002269  0.749956  1
  Tb  Tb2  1  0.997731  0.497832  0.250044  1
  Tb  Tb3  1  0.497895  0.997532  0.249951  1
  Tb  Tb4  1  0.002468  0.502105  0.750049  1
  Yb  Yb5  1  0.499901  0.500099  0.500000  1
  Si  Si6  1  0.795823  0.204177  0.500000  1
  Si  Si7  1  0.295105  0.704895  0.000000  1
  Si  Si8  1  0.204768  0.795232  0.500000  1
  Si  Si9  1  0.704964  0.295036  0.000000  1
  Si  Si10  1  0.333646  0.333872  0.831724  1
  Si  Si11  1  0.666128  0.666354  0.168276  1
  Si  Si12  1  0.168861  0.168585  0.334106  1
  Si  Si13  1  0.831415  0.831139  0.665894  1
  Si  Si14  1  0.122530  0.888706  0.728248  1
  Si  Si15  1  0.111294  0.877470  0.271752  1
  Si  Si16  1  0.611049  0.378557  0.228853  1
  Si  Si17  1  0.621443  0.388951  0.771147  1
  Si  Si18  1  0.876749  0.110443  0.271185  1
  Si  Si19  1  0.889557  0.123251  0.728815  1
  Si  Si20  1  0.388928  0.621887  0.770426  1
  Si  Si21  1  0.378113  0.611072  0.229574  1
  Si  Si22  1  0.345136  0.113285  0.505485  1
  Si  Si23  1  0.886715  0.654864  0.494515  1
  Si  Si24  1  0.388238  0.154863  0.005084  1
  Si  Si25  1  0.845137  0.611762  0.994916  1
  Si  Si26  1  0.653265  0.885616  0.493574  1
  Si  Si27  1  0.114384  0.346735  0.506426  1
  Si  Si28  1  0.611655  0.844951  0.994804  1
  Si  Si29  1  0.155049  0.388345  0.005196  1
  Os  Os30  1  0.670254  0.329746  0.500000  1
  Ru  Ru31  1  0.169494  0.830506  0.000000  1
  Ru  Ru32  1  0.329817  0.670183  0.500000  1
  Ru  Ru33  1  0.830492  0.169508  0.000000  1
  Ru  Ru34  1  0.124887  0.125230  0.627353  1
  Ru  Ru35  1  0.874770  0.875113  0.372647  1
  Ru  Ru36  1  0.373417  0.373320  0.125543  1
  Ru  Ru37  1  0.626680  0.626583  0.874457  1
