# generated using pymatgen
data_Pr2Cu18Si7Ge
_symmetry_space_group_name_H-M   'P 1'
_cell_length_a   8.17851349
_cell_length_b   8.17849367
_cell_length_c   8.19362766
_cell_angle_alpha   120.56171613
_cell_angle_beta   120.56160248
_cell_angle_gamma   89.06157497
_symmetry_Int_Tables_number   1
_chemical_formula_structural   Pr2Cu18Si7Ge
_chemical_formula_sum   'Pr2 Cu18 Si7 Ge1'
_cell_volume   384.07899001
_cell_formula_units_Z   1
loop_
 _symmetry_equiv_pos_site_id
 _symmetry_equiv_pos_as_xyz
  1  'x, y, z'
loop_
 _atom_site_type_symbol
 _atom_site_label
 _atom_site_symmetry_multiplicity
 _atom_site_fract_x
 _atom_site_fract_y
 _atom_site_fract_z
 _atom_site_occupancy
  Pr  Pr0  1  0.250253  0.249973  0.999910  1
  Pr  Pr1  1  0.749972  0.750256  0.999912  1
  Cu  Cu2  1  0.934644  0.198847  0.138760  1
  Cu  Cu3  1  0.202283  0.064119  0.266892  1
  Cu  Cu4  1  0.796800  0.932121  0.732277  1
  Cu  Cu5  1  0.432119  0.296799  0.732275  1
  Cu  Cu6  1  0.066106  0.799265  0.863844  1
  Cu  Cu7  1  0.806262  0.053725  0.494017  1
  Cu  Cu8  1  0.553725  0.306262  0.494017  1
  Cu  Cu9  1  0.192506  0.943491  0.501206  1
  Cu  Cu10  1  0.443491  0.692505  0.501206  1
  Cu  Cu11  1  0.942602  0.442603  0.740318  1
  Cu  Cu12  1  0.692874  0.192874  0.251082  1
  Cu  Cu13  1  0.064484  0.564483  0.264025  1
  Cu  Cu14  1  0.698846  0.434644  0.138757  1
  Cu  Cu15  1  0.564118  0.702282  0.266891  1
  Cu  Cu16  1  0.498093  0.998093  0.498457  1
  Cu  Cu17  1  0.000461  0.500460  0.499280  1
  Cu  Cu18  1  0.307050  0.807050  0.749349  1
  Cu  Cu19  1  0.299265  0.566105  0.863844  1
  Si  Si20  1  0.555766  0.055765  0.850075  1
  Si  Si21  1  0.057140  0.206993  0.499296  1
  Si  Si22  1  0.293324  0.442745  0.501160  1
  Si  Si23  1  0.942745  0.793324  0.501161  1
  Si  Si24  1  0.442822  0.942822  0.149799  1
  Si  Si25  1  0.204757  0.704757  0.147977  1
  Si  Si26  1  0.706994  0.557141  0.499298  1
  Ge  Ge27  1  0.800495  0.300496  0.854920  1
