# generated using pymatgen
data_Sc2Ga4Tc3
_symmetry_space_group_name_H-M   'P 1'
_cell_length_a   6.68403500
_cell_length_b   6.82637700
_cell_length_c   12.84777100
_cell_angle_alpha   90.00000000
_cell_angle_beta   90.00000000
_cell_angle_gamma   90.00000000
_symmetry_Int_Tables_number   1
_chemical_formula_structural   Sc2Ga4Tc3
_chemical_formula_sum   'Sc8 Ga16 Tc12'
_cell_volume   586.21479063
_cell_formula_units_Z   4
loop_
 _symmetry_equiv_pos_site_id
 _symmetry_equiv_pos_as_xyz
  1  'x, y, z'
loop_
 _atom_site_type_symbol
 _atom_site_label
 _atom_site_symmetry_multiplicity
 _atom_site_fract_x
 _atom_site_fract_y
 _atom_site_fract_z
 _atom_site_occupancy
  Sc  Sc0  1  0.485024  0.330390  0.090297  1
  Sc  Sc1  1  0.985024  0.169610  0.409703  1
  Sc  Sc2  1  0.514976  0.669610  0.590297  1
  Sc  Sc3  1  0.014976  0.830390  0.909703  1
  Sc  Sc4  1  0.514976  0.669610  0.909703  1
  Sc  Sc5  1  0.014976  0.830390  0.590297  1
  Sc  Sc6  1  0.485024  0.330390  0.409703  1
  Sc  Sc7  1  0.985024  0.169610  0.090297  1
  Ga  Ga8  1  0.670709  0.044559  0.545453  1
  Ga  Ga9  1  0.170709  0.455441  0.954547  1
  Ga  Ga10  1  0.329291  0.955441  0.045453  1
  Ga  Ga11  1  0.829291  0.544559  0.454547  1
  Ga  Ga12  1  0.329291  0.955441  0.454547  1
  Ga  Ga13  1  0.829291  0.544559  0.045453  1
  Ga  Ga14  1  0.670709  0.044559  0.954547  1
  Ga  Ga15  1  0.170709  0.455441  0.545453  1
  Ga  Ga16  1  0.524712  0.377652  0.750000  1
  Ga  Ga17  1  0.024712  0.122348  0.750000  1
  Ga  Ga18  1  0.475288  0.622348  0.250000  1
  Ga  Ga19  1  0.975288  0.877652  0.250000  1
  Ga  Ga20  1  0.808734  0.656316  0.750000  1
  Ga  Ga21  1  0.308734  0.843684  0.750000  1
  Ga  Ga22  1  0.191266  0.343684  0.250000  1
  Ga  Ga23  1  0.691266  0.156316  0.250000  1
  Tc  Tc24  1  0.827122  0.346263  0.627243  1
  Tc  Tc25  1  0.327122  0.153737  0.872757  1
  Tc  Tc26  1  0.172878  0.653737  0.127243  1
  Tc  Tc27  1  0.672878  0.846263  0.372757  1
  Tc  Tc28  1  0.172878  0.653737  0.372757  1
  Tc  Tc29  1  0.672878  0.846263  0.127243  1
  Tc  Tc30  1  0.827122  0.346263  0.872757  1
  Tc  Tc31  1  0.327122  0.153737  0.627243  1
  Tc  Tc32  1  0.659334  0.009997  0.750000  1
  Tc  Tc33  1  0.159334  0.490003  0.750000  1
  Tc  Tc34  1  0.340666  0.990003  0.250000  1
  Tc  Tc35  1  0.840666  0.509997  0.250000  1
