# generated using pymatgen
data_Yb3Cd5Au
_symmetry_space_group_name_H-M   'P 1'
_cell_length_a   3.86636300
_cell_length_b   8.22509146
_cell_length_c   8.22509200
_cell_angle_alpha   120.00000216
_cell_angle_beta   90.00000000
_cell_angle_gamma   90.00000000
_symmetry_Int_Tables_number   1
_chemical_formula_structural   Yb3Cd5Au
_chemical_formula_sum   'Yb3 Cd5 Au1'
_cell_volume   226.52427477
_cell_formula_units_Z   1
loop_
 _symmetry_equiv_pos_site_id
 _symmetry_equiv_pos_as_xyz
  1  'x, y, z'
loop_
 _atom_site_type_symbol
 _atom_site_label
 _atom_site_symmetry_multiplicity
 _atom_site_fract_x
 _atom_site_fract_y
 _atom_site_fract_z
 _atom_site_occupancy
  Yb  Yb0  1  0.000000  0.385259  0.411297  1
  Yb  Yb1  1  0.000000  0.026040  0.614741  1
  Yb  Yb2  1  0.000000  0.588703  0.973960  1
  Cd  Cd3  1  0.500000  0.723844  0.718127  1
  Cd  Cd4  1  0.500000  0.994283  0.276156  1
  Cd  Cd5  1  0.500000  0.281873  0.005717  1
  Cd  Cd6  1  0.500000  0.666667  0.333333  1
  Cd  Cd7  1  0.000000  0.000000  0.000000  1
  Au  Au8  1  0.500000  0.333333  0.666667  1
