# generated using pymatgen
data_Sc12Be(OsBr8)2
_symmetry_space_group_name_H-M   'P 1'
_cell_length_a   8.98717145
_cell_length_b   11.06904122
_cell_length_c   11.78452200
_cell_angle_alpha   116.85278437
_cell_angle_beta   101.75941934
_cell_angle_gamma   101.34779227
_symmetry_Int_Tables_number   1
_chemical_formula_structural   Sc12Be(OsBr8)2
_chemical_formula_sum   'Sc12 Be1 Os2 Br16'
_cell_volume   966.35360542
_cell_formula_units_Z   1
loop_
 _symmetry_equiv_pos_site_id
 _symmetry_equiv_pos_as_xyz
  1  'x, y, z'
loop_
 _atom_site_type_symbol
 _atom_site_label
 _atom_site_symmetry_multiplicity
 _atom_site_fract_x
 _atom_site_fract_y
 _atom_site_fract_z
 _atom_site_occupancy
  Sc  Sc0  1  0.078159  0.259420  0.352934  1
  Sc  Sc1  1  0.919581  0.740949  0.649370  1
  Sc  Sc2  1  0.778961  0.535607  0.319479  1
  Sc  Sc3  1  0.216954  0.462235  0.676788  1
  Sc  Sc4  1  0.274954  0.740824  0.647412  1
  Sc  Sc5  1  0.721446  0.258652  0.350152  1
  Sc  Sc6  1  0.136720  0.537448  0.323829  1
  Sc  Sc7  1  0.862134  0.464837  0.679946  1
  Sc  Sc8  1  0.406078  0.350107  0.260685  1
  Sc  Sc9  1  0.606644  0.650214  0.739716  1
  Sc  Sc10  1  0.462592  0.300232  0.521202  1
  Sc  Sc11  1  0.548304  0.699501  0.478523  1
  Be  Be12  1  0.356713  0.499947  0.499471  1
  Os  Os13  1  0.002139  0.499967  0.499955  1
  Os  Os14  1  0.655262  0.499987  0.500617  1
  Br  Br15  1  0.396894  0.739043  0.879966  1
  Br  Br16  1  0.599071  0.254470  0.109281  1
  Br  Br17  1  0.192864  0.970531  0.785556  1
  Br  Br18  1  0.811179  0.029335  0.214108  1
  Br  Br19  1  0.329109  0.092732  0.251483  1
  Br  Br20  1  0.651272  0.906731  0.748114  1
  Br  Br21  1  0.544478  0.435774  0.797771  1
  Br  Br22  1  0.434898  0.564573  0.201566  1
  Br  Br23  1  0.309971  0.825239  0.463724  1
  Br  Br24  1  0.689895  0.169946  0.537758  1
  Br  Br25  1  0.169608  0.172628  0.532270  1
  Br  Br26  1  0.832669  0.832048  0.466982  1
  Br  Br27  1  0.928522  0.577568  0.158164  1
  Br  Br28  1  0.077570  0.422283  0.841571  1
  Br  Br29  1  0.925541  0.744565  0.891106  1
  Br  Br30  1  0.079819  0.262609  0.120500  1
