# generated using pymatgen
data_Tb7Pr(P7Ir8)2
_symmetry_space_group_name_H-M   'P 1'
_cell_length_a   3.95299000
_cell_length_b   12.73802280
_cell_length_c   13.17171776
_cell_angle_alpha   80.72391048
_cell_angle_beta   90.00000000
_cell_angle_gamma   90.00000000
_symmetry_Int_Tables_number   1
_chemical_formula_structural   Tb7Pr(P7Ir8)2
_chemical_formula_sum   'Tb7 Pr1 P14 Ir16'
_cell_volume   654.56601790
_cell_formula_units_Z   1
loop_
 _symmetry_equiv_pos_site_id
 _symmetry_equiv_pos_as_xyz
  1  'x, y, z'
loop_
 _atom_site_type_symbol
 _atom_site_label
 _atom_site_symmetry_multiplicity
 _atom_site_fract_x
 _atom_site_fract_y
 _atom_site_fract_z
 _atom_site_occupancy
  Tb  Tb0  1  0.750000  0.791194  0.561158  1
  Tb  Tb1  1  0.250000  0.208761  0.439278  1
  Tb  Tb2  1  0.750000  0.479904  0.705506  1
  Tb  Tb3  1  0.250000  0.520642  0.294705  1
  Tb  Tb4  1  0.750000  0.720163  0.897522  1
  Tb  Tb5  1  0.250000  0.102703  0.788590  1
  Tb  Tb6  1  0.750000  0.897217  0.211672  1
  Pr  Pr7  1  0.250000  0.279187  0.102664  1
  P  P8  1  0.250000  0.907008  0.411375  1
  P  P9  1  0.750000  0.473540  0.129586  1
  P  P10  1  0.250000  0.527734  0.870383  1
  P  P11  1  0.750000  0.092676  0.588949  1
  P  P12  1  0.250000  0.741683  0.079634  1
  P  P13  1  0.750000  0.257001  0.917423  1
  P  P14  1  0.750000  0.157343  0.283855  1
  P  P15  1  0.250000  0.842885  0.717591  1
  P  P16  1  0.250000  0.048766  0.100752  1
  P  P17  1  0.750000  0.947541  0.899359  1
  P  P18  1  0.250000  0.312413  0.689213  1
  P  P19  1  0.750000  0.687713  0.310409  1
  P  P20  1  0.250000  0.607825  0.565953  1
  P  P21  1  0.750000  0.392711  0.435114  1
  Ir  Ir22  1  0.250000  0.990560  0.576661  1
  Ir  Ir23  1  0.750000  0.009146  0.424045  1
  Ir  Ir24  1  0.250000  0.662476  0.730513  1
  Ir  Ir25  1  0.750000  0.339166  0.272111  1
  Ir  Ir26  1  0.250000  0.554016  0.046274  1
  Ir  Ir27  1  0.750000  0.449889  0.951291  1
  Ir  Ir28  1  0.250000  0.060201  0.273043  1
  Ir  Ir29  1  0.750000  0.938561  0.727585  1
  Ir  Ir30  1  0.250000  0.422238  0.525169  1
  Ir  Ir31  1  0.750000  0.578378  0.475188  1
  Ir  Ir32  1  0.250000  0.914218  0.997015  1
  Ir  Ir33  1  0.750000  0.083835  0.001461  1
  Ir  Ir34  1  0.250000  0.729604  0.394165  1
  Ir  Ir35  1  0.750000  0.270300  0.605810  1
  Ir  Ir36  1  0.250000  0.341846  0.857214  1
  Ir  Ir37  1  0.750000  0.658953  0.141761  1
