# generated using pymatgen
data_Tm3Pa(Cu5Sn)4
_symmetry_space_group_name_H-M   'P 1'
_cell_length_a   5.00302800
_cell_length_b   8.19543346
_cell_length_c   10.53697416
_cell_angle_alpha   89.91126007
_cell_angle_beta   90.00000000
_cell_angle_gamma   90.00000000
_symmetry_Int_Tables_number   1
_chemical_formula_structural   Tm3Pa(Cu5Sn)4
_chemical_formula_sum   'Tm3 Pa1 Cu20 Sn4'
_cell_volume   432.03631780
_cell_formula_units_Z   1
loop_
 _symmetry_equiv_pos_site_id
 _symmetry_equiv_pos_as_xyz
  1  'x, y, z'
loop_
 _atom_site_type_symbol
 _atom_site_label
 _atom_site_symmetry_multiplicity
 _atom_site_fract_x
 _atom_site_fract_y
 _atom_site_fract_z
 _atom_site_occupancy
  Tm  Tm0  1  0.750000  0.250382  0.936578  1
  Tm  Tm1  1  0.750000  0.752192  0.561173  1
  Tm  Tm2  1  0.250000  0.247187  0.441519  1
  Pa  Pa3  1  0.250000  0.747598  0.059162  1
  Cu  Cu4  1  0.250000  0.818294  0.744365  1
  Cu  Cu5  1  0.750000  0.182976  0.259191  1
  Cu  Cu6  1  0.750000  0.684058  0.239539  1
  Cu  Cu7  1  0.250000  0.317493  0.756328  1
  Cu  Cu8  1  0.501350  0.570674  0.813347  1
  Cu  Cu9  1  0.498057  0.428880  0.187664  1
  Cu  Cu10  1  0.498294  0.929829  0.312640  1
  Cu  Cu11  1  0.001943  0.428880  0.187664  1
  Cu  Cu12  1  0.502084  0.071009  0.687561  1
  Cu  Cu13  1  0.998650  0.570674  0.813347  1
  Cu  Cu14  1  0.997916  0.071009  0.687561  1
  Cu  Cu15  1  0.001706  0.929829  0.312640  1
  Cu  Cu16  1  0.250000  0.915415  0.518028  1
  Cu  Cu17  1  0.750000  0.082318  0.483078  1
  Cu  Cu18  1  0.750000  0.577032  0.016908  1
  Cu  Cu19  1  0.250000  0.414150  0.982051  1
  Cu  Cu20  1  0.250000  0.562211  0.601911  1
  Cu  Cu21  1  0.750000  0.439346  0.397896  1
  Cu  Cu22  1  0.750000  0.941281  0.102050  1
  Cu  Cu23  1  0.250000  0.062492  0.898127  1
  Sn  Sn24  1  0.250000  0.636489  0.360556  1
  Sn  Sn25  1  0.750000  0.365224  0.638984  1
  Sn  Sn26  1  0.750000  0.866035  0.860111  1
  Sn  Sn27  1  0.250000  0.137041  0.140020  1
