# generated using pymatgen
data_YEr3Zn4Ir3Pd
_symmetry_space_group_name_H-M   'P 1'
_cell_length_a   4.08070800
_cell_length_b   6.97306069
_cell_length_c   8.09508309
_cell_angle_alpha   90.13413612
_cell_angle_beta   90.00000000
_cell_angle_gamma   90.00000000
_symmetry_Int_Tables_number   1
_chemical_formula_structural   YEr3Zn4Ir3Pd
_chemical_formula_sum   'Y1 Er3 Zn4 Ir3 Pd1'
_cell_volume   230.34515687
_cell_formula_units_Z   1
loop_
 _symmetry_equiv_pos_site_id
 _symmetry_equiv_pos_as_xyz
  1  'x, y, z'
loop_
 _atom_site_type_symbol
 _atom_site_label
 _atom_site_symmetry_multiplicity
 _atom_site_fract_x
 _atom_site_fract_y
 _atom_site_fract_z
 _atom_site_occupancy
  Y  Y0  1  0.250000  0.544590  0.184601  1
  Er  Er1  1  0.250000  0.028850  0.323590  1
  Er  Er2  1  0.750000  0.964487  0.683309  1
  Er  Er3  1  0.750000  0.470341  0.809392  1
  Zn  Zn4  1  0.250000  0.640407  0.566283  1
  Zn  Zn5  1  0.250000  0.137798  0.932065  1
  Zn  Zn6  1  0.750000  0.359482  0.436194  1
  Zn  Zn7  1  0.750000  0.858156  0.066307  1
  Ir  Ir8  1  0.250000  0.256046  0.620884  1
  Ir  Ir9  1  0.250000  0.758135  0.880008  1
  Ir  Ir10  1  0.750000  0.742485  0.379155  1
  Pd  Pd11  1  0.750000  0.239221  0.118213  1
