# generated using pymatgen
data_Nd20Si11Tc
_symmetry_space_group_name_H-M   'P 1'
_cell_length_a   7.73899300
_cell_length_b   7.73899300
_cell_length_c   14.21034000
_cell_angle_alpha   90.00000000
_cell_angle_beta   90.00000000
_cell_angle_gamma   90.00000000
_symmetry_Int_Tables_number   1
_chemical_formula_structural   Nd20Si11Tc
_chemical_formula_sum   'Nd20 Si11 Tc1'
_cell_volume   851.08586310
_cell_formula_units_Z   1
loop_
 _symmetry_equiv_pos_site_id
 _symmetry_equiv_pos_as_xyz
  1  'x, y, z'
loop_
 _atom_site_type_symbol
 _atom_site_label
 _atom_site_symmetry_multiplicity
 _atom_site_fract_x
 _atom_site_fract_y
 _atom_site_fract_z
 _atom_site_occupancy
  Nd  Nd0  1  0.311261  0.663369  0.105527  1
  Nd  Nd1  1  0.163369  0.188739  0.105527  1
  Nd  Nd2  1  0.500000  0.000000  0.763032  1
  Nd  Nd3  1  0.330522  0.685523  0.394613  1
  Nd  Nd4  1  0.678680  0.669616  0.894818  1
  Nd  Nd5  1  0.185523  0.169478  0.394613  1
  Nd  Nd6  1  0.669478  0.314477  0.394613  1
  Nd  Nd7  1  0.180130  0.822656  0.605050  1
  Nd  Nd8  1  0.321320  0.330384  0.894818  1
  Nd  Nd9  1  0.169616  0.821320  0.894818  1
  Nd  Nd10  1  0.500000  0.000000  0.222442  1
  Nd  Nd11  1  0.819870  0.177344  0.605050  1
  Nd  Nd12  1  0.322656  0.319870  0.605050  1
  Nd  Nd13  1  0.814477  0.830522  0.394613  1
  Nd  Nd14  1  0.830384  0.178680  0.894818  1
  Nd  Nd15  1  0.836631  0.811261  0.105527  1
  Nd  Nd16  1  0.000000  0.500000  0.272318  1
  Nd  Nd17  1  0.000000  0.500000  0.759158  1
  Nd  Nd18  1  0.688739  0.336631  0.105527  1
  Nd  Nd19  1  0.677344  0.680130  0.605050  1
  Si  Si20  1  0.114365  0.115587  0.745235  1
  Si  Si21  1  0.384413  0.614365  0.745235  1
  Si  Si22  1  0.615570  0.615012  0.252365  1
  Si  Si23  1  0.500000  0.000000  0.997992  1
  Si  Si24  1  0.115012  0.884430  0.252365  1
  Si  Si25  1  0.615587  0.385635  0.745235  1
  Si  Si26  1  0.885635  0.884413  0.745235  1
  Si  Si27  1  0.384430  0.384988  0.252365  1
  Si  Si28  1  0.884988  0.115570  0.252365  1
  Si  Si29  1  0.500000  0.000000  0.506270  1
  Si  Si30  1  0.000000  0.500000  0.496498  1
  Tc  Tc31  1  0.000000  0.500000  0.991863  1
