# generated using pymatgen
data_Pr8Zn8CuIr3Rh4
_symmetry_space_group_name_H-M   'P 1'
_cell_length_a   4.05558900
_cell_length_b   7.36535995
_cell_length_c   16.67776489
_cell_angle_alpha   90.08518474
_cell_angle_beta   90.00000000
_cell_angle_gamma   90.00000000
_symmetry_Int_Tables_number   1
_chemical_formula_structural   Pr8Zn8CuIr3Rh4
_chemical_formula_sum   'Pr8 Zn8 Cu1 Ir3 Rh4'
_cell_volume   498.17884308
_cell_formula_units_Z   1
loop_
 _symmetry_equiv_pos_site_id
 _symmetry_equiv_pos_as_xyz
  1  'x, y, z'
loop_
 _atom_site_type_symbol
 _atom_site_label
 _atom_site_symmetry_multiplicity
 _atom_site_fract_x
 _atom_site_fract_y
 _atom_site_fract_z
 _atom_site_occupancy
  Pr  Pr0  1  0.750000  0.452522  0.215933  1
  Pr  Pr1  1  0.750000  0.952069  0.284342  1
  Pr  Pr2  1  0.750000  0.832447  0.060668  1
  Pr  Pr3  1  0.250000  0.046237  0.718770  1
  Pr  Pr4  1  0.250000  0.168188  0.939790  1
  Pr  Pr5  1  0.250000  0.546683  0.783893  1
  Pr  Pr6  1  0.750000  0.332880  0.435516  1
  Pr  Pr7  1  0.250000  0.672630  0.559996  1
  Zn  Zn8  1  0.250000  0.997294  0.438552  1
  Zn  Zn9  1  0.750000  0.500804  0.939574  1
  Zn  Zn10  1  0.750000  0.003331  0.561477  1
  Zn  Zn11  1  0.250000  0.622756  0.349491  1
  Zn  Zn12  1  0.750000  0.371393  0.650730  1
  Zn  Zn13  1  0.750000  0.875392  0.850271  1
  Zn  Zn14  1  0.250000  0.498045  0.060211  1
  Zn  Zn15  1  0.250000  0.124944  0.150375  1
  Cu  Cu16  1  0.250000  0.239737  0.565353  1
  Ir  Ir17  1  0.750000  0.258521  0.065590  1
  Ir  Ir18  1  0.250000  0.246730  0.316002  1
  Ir  Ir19  1  0.750000  0.253701  0.811447  1
  Rh  Rh20  1  0.250000  0.743196  0.934778  1
  Rh  Rh21  1  0.750000  0.751413  0.684813  1
  Rh  Rh22  1  0.750000  0.759775  0.435896  1
  Rh  Rh23  1  0.250000  0.749311  0.186535  1
