# generated using pymatgen
data_Yb2YHo(SiPt2)4
_symmetry_space_group_name_H-M   'P 1'
_cell_length_a   5.52668201
_cell_length_b   6.96304000
_cell_length_c   7.32945603
_cell_angle_alpha   90.00004937
_cell_angle_beta   89.99136190
_cell_angle_gamma   90.00000000
_symmetry_Int_Tables_number   1
_chemical_formula_structural   Yb2YHo(SiPt2)4
_chemical_formula_sum   'Yb2 Y1 Ho1 Si4 Pt8'
_cell_volume   282.05584641
_cell_formula_units_Z   1
loop_
 _symmetry_equiv_pos_site_id
 _symmetry_equiv_pos_as_xyz
  1  'x, y, z'
loop_
 _atom_site_type_symbol
 _atom_site_label
 _atom_site_symmetry_multiplicity
 _atom_site_fract_x
 _atom_site_fract_y
 _atom_site_fract_z
 _atom_site_occupancy
  Yb  Yb0  1  0.135860  0.750000  0.523515  1
  Yb  Yb1  1  0.635938  0.250001  0.976408  1
  Y  Y2  1  0.365504  0.750000  0.025925  1
  Ho  Ho3  1  0.863833  0.250000  0.473942  1
  Si  Si4  1  0.634670  0.750000  0.379939  1
  Si  Si5  1  0.866230  0.750000  0.877074  1
  Si  Si6  1  0.365177  0.250000  0.622603  1
  Si  Si7  1  0.134939  0.250000  0.120769  1
  Pt  Pt8  1  0.906270  0.550792  0.180615  1
  Pt  Pt9  1  0.593706  0.948948  0.676742  1
  Pt  Pt10  1  0.092027  0.051796  0.822151  1
  Pt  Pt11  1  0.406923  0.448582  0.320408  1
  Pt  Pt12  1  0.092025  0.448204  0.822151  1
  Pt  Pt13  1  0.406922  0.051417  0.320407  1
  Pt  Pt14  1  0.906271  0.949209  0.180614  1
  Pt  Pt15  1  0.593706  0.551051  0.676742  1
