# generated using pymatgen
data_Ti3NbFe8
_symmetry_space_group_name_H-M   'P 1'
_cell_length_a   8.29271162
_cell_length_b   8.29271243
_cell_length_c   8.29271011
_cell_angle_alpha   33.62021999
_cell_angle_beta   33.62020986
_cell_angle_gamma   33.62021987
_symmetry_Int_Tables_number   1
_chemical_formula_structural   Ti3NbFe8
_chemical_formula_sum   'Ti3 Nb1 Fe8'
_cell_volume   155.74126761
_cell_formula_units_Z   1
loop_
 _symmetry_equiv_pos_site_id
 _symmetry_equiv_pos_as_xyz
  1  'x, y, z'
loop_
 _atom_site_type_symbol
 _atom_site_label
 _atom_site_symmetry_multiplicity
 _atom_site_fract_x
 _atom_site_fract_y
 _atom_site_fract_z
 _atom_site_occupancy
  Ti  Ti0  1  0.625453  0.625453  0.625453  1
  Ti  Ti1  1  0.998860  0.998860  0.998860  1
  Ti  Ti2  1  0.500771  0.500771  0.500771  1
  Nb  Nb3  1  0.125051  0.125051  0.125051  1
  Fe  Fe4  1  0.561954  0.062085  0.561954  1
  Fe  Fe5  1  0.062651  0.563521  0.062651  1
  Fe  Fe6  1  0.062085  0.561954  0.561954  1
  Fe  Fe7  1  0.563521  0.062651  0.062651  1
  Fe  Fe8  1  0.812574  0.812574  0.812574  1
  Fe  Fe9  1  0.312475  0.312475  0.312475  1
  Fe  Fe10  1  0.561954  0.561954  0.062085  1
  Fe  Fe11  1  0.062651  0.062651  0.563521  1
