# generated using pymatgen
data_Tb3Sn2HgRh3
_symmetry_space_group_name_H-M   'P 1'
_cell_length_a   7.69026100
_cell_length_b   7.56306640
_cell_length_c   3.87132500
_cell_angle_alpha   90.00000000
_cell_angle_beta   90.00000000
_cell_angle_gamma   120.55790300
_symmetry_Int_Tables_number   1
_chemical_formula_structural   Tb3Sn2HgRh3
_chemical_formula_sum   'Tb3 Sn2 Hg1 Rh3'
_cell_volume   193.89213136
_cell_formula_units_Z   1
loop_
 _symmetry_equiv_pos_site_id
 _symmetry_equiv_pos_as_xyz
  1  'x, y, z'
loop_
 _atom_site_type_symbol
 _atom_site_label
 _atom_site_symmetry_multiplicity
 _atom_site_fract_x
 _atom_site_fract_y
 _atom_site_fract_z
 _atom_site_occupancy
  Tb  Tb0  1  0.408862  0.000000  0.500000  1
  Tb  Tb1  1  0.001393  0.401955  0.500000  1
  Tb  Tb2  1  0.599438  0.598045  0.500000  1
  Sn  Sn3  1  0.003066  0.740879  0.000000  1
  Sn  Sn4  1  0.262188  0.259121  0.000000  1
  Hg  Hg5  1  0.733309  0.000000  0.000000  1
  Rh  Rh6  1  0.314856  0.653937  0.000000  1
  Rh  Rh7  1  0.660920  0.346063  0.000000  1
  Rh  Rh8  1  0.015968  0.000000  0.500000  1
