# generated using pymatgen
data_Zr10CuSn4Sb3
_symmetry_space_group_name_H-M   'P 1'
_cell_length_a   8.74701499
_cell_length_b   8.76715089
_cell_length_c   5.92970739
_cell_angle_alpha   90.12264306
_cell_angle_beta   89.93853594
_cell_angle_gamma   120.07618195
_symmetry_Int_Tables_number   1
_chemical_formula_structural   Zr10CuSn4Sb3
_chemical_formula_sum   'Zr10 Cu1 Sn4 Sb3'
_cell_volume   393.50236732
_cell_formula_units_Z   1
loop_
 _symmetry_equiv_pos_site_id
 _symmetry_equiv_pos_as_xyz
  1  'x, y, z'
loop_
 _atom_site_type_symbol
 _atom_site_label
 _atom_site_symmetry_multiplicity
 _atom_site_fract_x
 _atom_site_fract_y
 _atom_site_fract_z
 _atom_site_occupancy
  Zr  Zr0  1  0.270872  0.271163  0.737746  1
  Zr  Zr1  1  0.729128  0.728837  0.262254  1
  Zr  Zr2  1  0.729128  0.000291  0.737746  1
  Zr  Zr3  1  0.000000  0.272669  0.262335  1
  Zr  Zr4  1  0.332452  0.666226  0.500000  1
  Zr  Zr5  1  0.667548  0.333774  0.500000  1
  Zr  Zr6  1  0.000000  0.727331  0.737665  1
  Zr  Zr7  1  0.332249  0.666125  0.000000  1
  Zr  Zr8  1  0.270872  0.999709  0.262254  1
  Zr  Zr9  1  0.667751  0.333875  0.000000  1
  Cu  Cu10  1  0.000000  0.000000  0.500000  1
  Sn  Sn11  1  0.612472  0.612951  0.751572  1
  Sn  Sn12  1  0.387528  0.000479  0.751572  1
  Sn  Sn13  1  0.612472  0.999521  0.248428  1
  Sn  Sn14  1  0.387528  0.387049  0.248428  1
  Sb  Sb15  1  0.000000  0.000000  0.000000  1
  Sb  Sb16  1  0.000000  0.387169  0.750794  1
  Sb  Sb17  1  0.000000  0.612831  0.249206  1
