# generated using pymatgen
data_Ho5Er7Co4TcBi
_symmetry_space_group_name_H-M   'P 1'
_cell_length_a   8.27123978
_cell_length_b   8.27053362
_cell_length_c   8.27053450
_cell_angle_alpha   110.54296560
_cell_angle_beta   111.65289870
_cell_angle_gamma   106.26331946
_symmetry_Int_Tables_number   1
_chemical_formula_structural   Ho5Er7Co4TcBi
_chemical_formula_sum   'Ho5 Er7 Co4 Tc1 Bi1'
_cell_volume   434.48659515
_cell_formula_units_Z   1
loop_
 _symmetry_equiv_pos_site_id
 _symmetry_equiv_pos_as_xyz
  1  'x, y, z'
loop_
 _atom_site_type_symbol
 _atom_site_label
 _atom_site_symmetry_multiplicity
 _atom_site_fract_x
 _atom_site_fract_y
 _atom_site_fract_z
 _atom_site_occupancy
  Ho  Ho0  1  0.282409  0.182698  0.465333  1
  Ho  Ho1  1  0.717478  0.817384  0.534753  1
  Ho  Ho2  1  0.282409  0.817074  0.099710  1
  Ho  Ho3  1  0.717478  0.182726  0.900094  1
  Ho  Ho4  1  0.618411  0.310268  0.308143  1
  Er  Er5  1  0.381307  0.689643  0.691664  1
  Er  Er6  1  0.002147  0.310378  0.691767  1
  Er  Er7  1  0.998085  0.689716  0.308371  1
  Er  Er8  1  0.214491  0.411621  0.197051  1
  Er  Er9  1  0.785463  0.588516  0.803147  1
  Er  Er10  1  0.214491  0.017440  0.802869  1
  Er  Er11  1  0.785463  0.982316  0.196947  1
  Co  Co12  1  0.000250  0.377525  0.377481  1
  Co  Co13  1  0.000250  0.622768  0.622725  1
  Co  Co14  1  0.388602  0.888623  0.499979  1
  Co  Co15  1  0.611299  0.111223  0.500076  1
  Tc  Tc16  1  0.999989  0.000011  0.999977  1
  Bi  Bi17  1  0.499980  0.500069  0.999911  1
