# generated using pymatgen
data_Zr10Ga3Bi3S
_symmetry_space_group_name_H-M   'P 1'
_cell_length_a   8.49836100
_cell_length_b   8.49836303
_cell_length_c   5.82788400
_cell_angle_alpha   90.00000000
_cell_angle_beta   90.00000000
_cell_angle_gamma   120.00000376
_symmetry_Int_Tables_number   1
_chemical_formula_structural   Zr10Ga3Bi3S
_chemical_formula_sum   'Zr10 Ga3 Bi3 S1'
_cell_volume   364.51211649
_cell_formula_units_Z   1
loop_
 _symmetry_equiv_pos_site_id
 _symmetry_equiv_pos_as_xyz
  1  'x, y, z'
loop_
 _atom_site_type_symbol
 _atom_site_label
 _atom_site_symmetry_multiplicity
 _atom_site_fract_x
 _atom_site_fract_y
 _atom_site_fract_z
 _atom_site_occupancy
  Zr  Zr0  1  0.000000  0.754352  0.237451  1
  Zr  Zr1  1  0.245648  0.245648  0.237451  1
  Zr  Zr2  1  0.754352  0.000000  0.237451  1
  Zr  Zr3  1  0.000000  0.253172  0.757157  1
  Zr  Zr4  1  0.746828  0.746828  0.757157  1
  Zr  Zr5  1  0.253172  0.000000  0.757157  1
  Zr  Zr6  1  0.333333  0.666667  0.510945  1
  Zr  Zr7  1  0.666667  0.333333  0.510945  1
  Zr  Zr8  1  0.666667  0.333333  0.987853  1
  Zr  Zr9  1  0.333333  0.666667  0.987853  1
  Ga  Ga10  1  0.000000  0.610601  0.753253  1
  Ga  Ga11  1  0.389399  0.389399  0.753253  1
  Ga  Ga12  1  0.610601  0.000000  0.753253  1
  Bi  Bi13  1  0.000000  0.398998  0.251384  1
  Bi  Bi14  1  0.601002  0.601002  0.251384  1
  Bi  Bi15  1  0.398998  0.000000  0.251384  1
  S  S16  1  0.000000  0.000000  0.504670  1
