# generated using pymatgen
data_Ho(Ga3Ni)3
_symmetry_space_group_name_H-M   'P 1'
_cell_length_a   10.09661666
_cell_length_b   10.09661629
_cell_length_c   10.09661510
_cell_angle_alpha   42.34267308
_cell_angle_beta   42.34267305
_cell_angle_gamma   42.34268067
_symmetry_Int_Tables_number   1
_chemical_formula_structural   Ho(Ga3Ni)3
_chemical_formula_sum   'Ho2 Ga18 Ni6'
_cell_volume   422.69360035
_cell_formula_units_Z   2
loop_
 _symmetry_equiv_pos_site_id
 _symmetry_equiv_pos_as_xyz
  1  'x, y, z'
loop_
 _atom_site_type_symbol
 _atom_site_label
 _atom_site_symmetry_multiplicity
 _atom_site_fract_x
 _atom_site_fract_y
 _atom_site_fract_z
 _atom_site_occupancy
  Ho  Ho0  1  0.166994  0.166994  0.166994  1
  Ho  Ho1  1  0.833006  0.833006  0.833006  1
  Ga  Ga2  1  0.051179  0.051179  0.051179  1
  Ga  Ga3  1  0.708946  0.500000  0.291054  1
  Ga  Ga4  1  0.666123  0.333877  0.000000  1
  Ga  Ga5  1  0.103874  0.433908  0.764036  1
  Ga  Ga6  1  0.433908  0.764036  0.103874  1
  Ga  Ga7  1  0.386090  0.386090  0.386090  1
  Ga  Ga8  1  0.333877  0.000000  0.666123  1
  Ga  Ga9  1  0.613910  0.613910  0.613910  1
  Ga  Ga10  1  0.235964  0.566092  0.896126  1
  Ga  Ga11  1  0.566092  0.896126  0.235964  1
  Ga  Ga12  1  0.500000  0.291054  0.708946  1
  Ga  Ga13  1  0.764036  0.103874  0.433908  1
  Ga  Ga14  1  0.948821  0.948821  0.948821  1
  Ga  Ga15  1  0.291054  0.708946  0.500000  1
  Ga  Ga16  1  0.000000  0.666123  0.333877  1
  Ga  Ga17  1  0.717169  0.717169  0.717169  1
  Ga  Ga18  1  0.282831  0.282831  0.282831  1
  Ga  Ga19  1  0.896126  0.235964  0.566092  1
  Ni  Ni20  1  0.241456  0.921895  0.581757  1
  Ni  Ni21  1  0.921895  0.581757  0.241456  1
  Ni  Ni22  1  0.758544  0.418243  0.078105  1
  Ni  Ni23  1  0.078105  0.758544  0.418243  1
  Ni  Ni24  1  0.418243  0.078105  0.758544  1
  Ni  Ni25  1  0.581757  0.241456  0.921895  1
