# generated using pymatgen
data_Ac3LaGa3Si
_symmetry_space_group_name_H-M   'P 1'
_cell_length_a   7.56627457
_cell_length_b   7.56627517
_cell_length_c   7.11897166
_cell_angle_alpha   89.41079377
_cell_angle_beta   90.58920550
_cell_angle_gamma   143.99691163
_symmetry_Int_Tables_number   1
_chemical_formula_structural   Ac3LaGa3Si
_chemical_formula_sum   'Ac3 La1 Ga3 Si1'
_cell_volume   239.55597528
_cell_formula_units_Z   1
loop_
 _symmetry_equiv_pos_site_id
 _symmetry_equiv_pos_as_xyz
  1  'x, y, z'
loop_
 _atom_site_type_symbol
 _atom_site_label
 _atom_site_symmetry_multiplicity
 _atom_site_fract_x
 _atom_site_fract_y
 _atom_site_fract_z
 _atom_site_occupancy
  Ac  Ac0  1  0.276111  0.723889  0.254478  1
  Ac  Ac1  1  0.723820  0.276180  0.744440  1
  Ac  Ac2  1  0.553726  0.446274  0.253336  1
  La  La3  1  0.451187  0.548813  0.748580  1
  Ga  Ga4  1  0.088719  0.911281  0.929457  1
  Ga  Ga5  1  0.909190  0.090810  0.057392  1
  Ga  Ga6  1  0.911917  0.088083  0.443245  1
  Si  Si7  1  0.085330  0.914670  0.569073  1
