# generated using pymatgen
data_Th2Ga3SiPt4
_symmetry_space_group_name_H-M   'P 1'
_cell_length_a   4.29840300
_cell_length_b   4.29840300
_cell_length_c   10.30914100
_cell_angle_alpha   90.00000000
_cell_angle_beta   90.00000000
_cell_angle_gamma   90.00000000
_symmetry_Int_Tables_number   1
_chemical_formula_structural   Th2Ga3SiPt4
_chemical_formula_sum   'Th2 Ga3 Si1 Pt4'
_cell_volume   190.47445558
_cell_formula_units_Z   1
loop_
 _symmetry_equiv_pos_site_id
 _symmetry_equiv_pos_as_xyz
  1  'x, y, z'
loop_
 _atom_site_type_symbol
 _atom_site_label
 _atom_site_symmetry_multiplicity
 _atom_site_fract_x
 _atom_site_fract_y
 _atom_site_fract_z
 _atom_site_occupancy
  Th  Th0  1  0.000000  0.500000  0.247299  1
  Th  Th1  1  0.500000  0.000000  0.748459  1
  Ga  Ga2  1  0.000000  0.000000  0.496921  1
  Ga  Ga3  1  0.500000  0.500000  0.496921  1
  Ga  Ga4  1  0.000000  0.500000  0.871900  1
  Si  Si5  1  0.500000  0.000000  0.128318  1
  Pt  Pt6  1  0.000000  0.000000  0.009485  1
  Pt  Pt7  1  0.500000  0.500000  0.009485  1
  Pt  Pt8  1  0.000000  0.500000  0.633165  1
  Pt  Pt9  1  0.500000  0.000000  0.358047  1
