# generated using pymatgen
data_CeSm3Y(FeB3)2
_symmetry_space_group_name_H-M   'P 1'
_cell_length_a   5.46667123
_cell_length_b   5.46667093
_cell_length_c   8.14494698
_cell_angle_alpha   70.39178180
_cell_angle_beta   70.39177084
_cell_angle_gamma   59.99999753
_symmetry_Int_Tables_number   1
_chemical_formula_structural   CeSm3Y(FeB3)2
_chemical_formula_sum   'Ce1 Sm3 Y1 Fe2 B6'
_cell_volume   194.32732474
_cell_formula_units_Z   1
loop_
 _symmetry_equiv_pos_site_id
 _symmetry_equiv_pos_as_xyz
  1  'x, y, z'
loop_
 _atom_site_type_symbol
 _atom_site_label
 _atom_site_symmetry_multiplicity
 _atom_site_fract_x
 _atom_site_fract_y
 _atom_site_fract_z
 _atom_site_occupancy
  Ce  Ce0  1  0.001492  0.001492  0.995524  1
  Sm  Sm1  1  0.745796  0.745796  0.762614  1
  Sm  Sm2  1  0.254119  0.254119  0.237642  1
  Sm  Sm3  1  0.586094  0.586094  0.241719  1
  Y  Y4  1  0.415716  0.415716  0.752849  1
  Fe  Fe5  1  0.887484  0.887484  0.337548  1
  Fe  Fe6  1  0.111410  0.111410  0.665772  1
  B  B7  1  0.499984  0.165882  0.501055  1
  B  B8  1  0.833078  0.499984  0.501055  1
  B  B9  1  0.165882  0.833078  0.501055  1
  B  B10  1  0.165882  0.499984  0.501055  1
  B  B11  1  0.833078  0.165882  0.501055  1
  B  B12  1  0.499984  0.833078  0.501055  1
