# generated using pymatgen
data_La2Pr14Cd4IrRu3
_symmetry_space_group_name_H-M   'P 1'
_cell_length_a   10.03000311
_cell_length_b   10.03330329
_cell_length_c   10.06230100
_cell_angle_alpha   59.90434532
_cell_angle_beta   59.89341843
_cell_angle_gamma   59.80289255
_symmetry_Int_Tables_number   1
_chemical_formula_structural   La2Pr14Cd4IrRu3
_chemical_formula_sum   'La2 Pr14 Cd4 Ir1 Ru3'
_cell_volume   713.85942005
_cell_formula_units_Z   1
loop_
 _symmetry_equiv_pos_site_id
 _symmetry_equiv_pos_as_xyz
  1  'x, y, z'
loop_
 _atom_site_type_symbol
 _atom_site_label
 _atom_site_symmetry_multiplicity
 _atom_site_fract_x
 _atom_site_fract_y
 _atom_site_fract_z
 _atom_site_occupancy
  La  La0  1  0.342731  0.346224  0.347453  1
  La  La1  1  0.342731  0.346224  0.963590  1
  Pr  Pr2  1  0.344994  0.957562  0.348721  1
  Pr  Pr3  1  0.958441  0.345691  0.347934  1
  Pr  Pr4  1  0.812070  0.190487  0.190100  1
  Pr  Pr5  1  0.190464  0.810708  0.809648  1
  Pr  Pr6  1  0.190464  0.810708  0.189180  1
  Pr  Pr7  1  0.812070  0.190487  0.807344  1
  Pr  Pr8  1  0.190714  0.189484  0.809901  1
  Pr  Pr9  1  0.811974  0.808138  0.189945  1
  Pr  Pr10  1  0.938441  0.561920  0.561620  1
  Pr  Pr11  1  0.560568  0.938696  0.938531  1
  Pr  Pr12  1  0.560568  0.938696  0.562205  1
  Pr  Pr13  1  0.938441  0.561920  0.938020  1
  Pr  Pr14  1  0.561280  0.562951  0.937885  1
  Pr  Pr15  1  0.939039  0.939014  0.560974  1
  Cd  Cd16  1  0.580086  0.580112  0.579109  1
  Cd  Cd17  1  0.580086  0.580112  0.260691  1
  Cd  Cd18  1  0.580294  0.260489  0.579608  1
  Cd  Cd19  1  0.260899  0.580237  0.579432  1
  Ir  Ir20  1  0.577817  0.141495  0.140344  1
  Ru  Ru21  1  0.141517  0.138855  0.136310  1
  Ru  Ru22  1  0.141517  0.138855  0.583318  1
  Ru  Ru23  1  0.142791  0.580934  0.138138  1
