# generated using pymatgen
data_Dy6Y4Sn5Sb
_symmetry_space_group_name_H-M   'P 1'
_cell_length_a   8.99315400
_cell_length_b   8.98638913
_cell_length_c   6.51841300
_cell_angle_alpha   90.00000000
_cell_angle_beta   90.00000000
_cell_angle_gamma   120.02849773
_symmetry_Int_Tables_number   1
_chemical_formula_structural   Dy6Y4Sn5Sb
_chemical_formula_sum   'Dy6 Y4 Sn5 Sb1'
_cell_volume   456.08414152
_cell_formula_units_Z   1
loop_
 _symmetry_equiv_pos_site_id
 _symmetry_equiv_pos_as_xyz
  1  'x, y, z'
loop_
 _atom_site_type_symbol
 _atom_site_label
 _atom_site_symmetry_multiplicity
 _atom_site_fract_x
 _atom_site_fract_y
 _atom_site_fract_z
 _atom_site_occupancy
  Dy  Dy0  1  0.761409  0.000019  0.750000  1
  Dy  Dy1  1  0.238301  0.240350  0.750000  1
  Dy  Dy2  1  0.333205  0.665716  0.499811  1
  Dy  Dy3  1  0.667459  0.334245  0.000198  1
  Dy  Dy4  1  0.667459  0.334245  0.499802  1
  Dy  Dy5  1  0.333205  0.665716  0.000189  1
  Y  Y6  1  0.998074  0.759716  0.750000  1
  Y  Y7  1  0.000706  0.239548  0.250000  1
  Y  Y8  1  0.761073  0.760469  0.250000  1
  Y  Y9  1  0.239651  0.000062  0.250000  1
  Sn  Sn10  1  0.395457  0.394766  0.250000  1
  Sn  Sn11  1  0.000693  0.605195  0.250000  1
  Sn  Sn12  1  0.999927  0.395400  0.750000  1
  Sn  Sn13  1  0.604395  0.604543  0.750000  1
  Sn  Sn14  1  0.605348  0.999976  0.250000  1
  Sb  Sb15  1  0.393637  0.000033  0.750000  1
