# generated using pymatgen
data_Yb2Ho2(Al8Pt3)3
_symmetry_space_group_name_H-M   'P 1'
_cell_length_a   7.52733123
_cell_length_b   7.54898179
_cell_length_c   13.24183099
_cell_angle_alpha   84.66403571
_cell_angle_beta   79.08420145
_cell_angle_gamma   59.87039044
_symmetry_Int_Tables_number   1
_chemical_formula_structural   Yb2Ho2(Al8Pt3)3
_chemical_formula_sum   'Yb2 Ho2 Al24 Pt9'
_cell_volume   639.01090021
_cell_formula_units_Z   1
loop_
 _symmetry_equiv_pos_site_id
 _symmetry_equiv_pos_as_xyz
  1  'x, y, z'
loop_
 _atom_site_type_symbol
 _atom_site_label
 _atom_site_symmetry_multiplicity
 _atom_site_fract_x
 _atom_site_fract_y
 _atom_site_fract_z
 _atom_site_occupancy
  Yb  Yb0  1  0.394781  0.168182  0.807422  1
  Yb  Yb1  1  0.605219  0.831818  0.192578  1
  Ho  Ho2  1  0.733300  0.499966  0.807790  1
  Ho  Ho3  1  0.266700  0.500034  0.192210  1
  Al  Al4  1  0.684017  0.833810  0.945596  1
  Al  Al5  1  0.315983  0.166190  0.054404  1
  Al  Al6  1  0.147517  0.831422  0.561142  1
  Al  Al7  1  0.852483  0.168578  0.438858  1
  Al  Al8  1  0.479925  0.165915  0.558944  1
  Al  Al9  1  0.520075  0.834085  0.441056  1
  Al  Al10  1  0.218222  0.164503  0.328933  1
  Al  Al11  1  0.781778  0.835497  0.671067  1
  Al  Al12  1  0.436443  0.506857  0.670463  1
  Al  Al13  1  0.563557  0.493143  0.329537  1
  Al  Al14  1  0.110307  0.159902  0.668821  1
  Al  Al15  1  0.889693  0.840098  0.331179  1
  Al  Al16  1  0.352557  0.499522  0.944861  1
  Al  Al17  1  0.647443  0.500478  0.055139  1
  Al  Al18  1  0.015393  0.167729  0.954397  1
  Al  Al19  1  0.984607  0.832271  0.045603  1
  Al  Al20  1  0.186107  0.499902  0.441305  1
  Al  Al21  1  0.813893  0.500098  0.558695  1
  Al  Al22  1  0.732606  0.167183  0.182979  1
  Al  Al23  1  0.267394  0.832817  0.817021  1
  Al  Al24  1  0.059062  0.632312  0.815672  1
  Al  Al25  1  0.940938  0.367688  0.184328  1
  Al  Al26  1  0.856085  0.042985  0.816246  1
  Al  Al27  1  0.143915  0.957015  0.183754  1
  Pt  Pt28  1  0.120044  0.492006  0.638119  1
  Pt  Pt29  1  0.879956  0.507994  0.361881  1
  Pt  Pt30  1  0.657554  0.171727  0.999460  1
  Pt  Pt31  1  0.342446  0.828273  0.000540  1
  Pt  Pt32  1  0.537889  0.167195  0.361942  1
  Pt  Pt33  1  0.462111  0.832805  0.638058  1
  Pt  Pt34  1  0.779806  0.174752  0.636828  1
  Pt  Pt35  1  0.220194  0.825248  0.363172  1
  Pt  Pt36  1  0.000000  0.500000  0.000000  1
