# generated using pymatgen
data_Ti3Zn2CuN
_symmetry_space_group_name_H-M   'P 1'
_cell_length_a   8.05801551
_cell_length_b   8.05801533
_cell_length_c   8.05801600
_cell_angle_alpha   59.99999727
_cell_angle_beta   59.99999801
_cell_angle_gamma   60.00000267
_symmetry_Int_Tables_number   1
_chemical_formula_structural   Ti3Zn2CuN
_chemical_formula_sum   'Ti12 Zn8 Cu4 N4'
_cell_volume   369.97238532
_cell_formula_units_Z   4
loop_
 _symmetry_equiv_pos_site_id
 _symmetry_equiv_pos_as_xyz
  1  'x, y, z'
loop_
 _atom_site_type_symbol
 _atom_site_label
 _atom_site_symmetry_multiplicity
 _atom_site_fract_x
 _atom_site_fract_y
 _atom_site_fract_z
 _atom_site_occupancy
  Ti  Ti0  1  0.818455  0.818455  0.181545  1
  Ti  Ti1  1  0.181545  0.181545  0.818455  1
  Ti  Ti2  1  0.818455  0.181545  0.818455  1
  Ti  Ti3  1  0.181545  0.818455  0.181545  1
  Ti  Ti4  1  0.181545  0.818455  0.818455  1
  Ti  Ti5  1  0.818455  0.181545  0.181545  1
  Ti  Ti6  1  0.431545  0.431545  0.068455  1
  Ti  Ti7  1  0.068455  0.068455  0.431545  1
  Ti  Ti8  1  0.431545  0.068455  0.431545  1
  Ti  Ti9  1  0.068455  0.431545  0.068455  1
  Ti  Ti10  1  0.068455  0.431545  0.431545  1
  Ti  Ti11  1  0.431545  0.068455  0.068455  1
  Zn  Zn12  1  0.751219  0.416261  0.416261  1
  Zn  Zn13  1  0.416261  0.751219  0.416261  1
  Zn  Zn14  1  0.416261  0.416261  0.751219  1
  Zn  Zn15  1  0.416261  0.416261  0.416261  1
  Zn  Zn16  1  0.498781  0.833739  0.833739  1
  Zn  Zn17  1  0.833739  0.498781  0.833739  1
  Zn  Zn18  1  0.833739  0.833739  0.498781  1
  Zn  Zn19  1  0.833739  0.833739  0.833739  1
  Cu  Cu20  1  0.125000  0.625000  0.625000  1
  Cu  Cu21  1  0.625000  0.125000  0.625000  1
  Cu  Cu22  1  0.625000  0.625000  0.125000  1
  Cu  Cu23  1  0.625000  0.625000  0.625000  1
  N  N24  1  0.625000  0.125000  0.125000  1
  N  N25  1  0.125000  0.625000  0.125000  1
  N  N26  1  0.125000  0.125000  0.625000  1
  N  N27  1  0.125000  0.125000  0.125000  1
