# generated using pymatgen
data_SrEr5(Si3Pt2)4
_symmetry_space_group_name_H-M   'P 1'
_cell_length_a   4.23187000
_cell_length_b   8.53365658
_cell_length_c   12.89764400
_cell_angle_alpha   80.25484029
_cell_angle_beta   90.00000000
_cell_angle_gamma   90.00000000
_symmetry_Int_Tables_number   1
_chemical_formula_structural   SrEr5(Si3Pt2)4
_chemical_formula_sum   'Sr1 Er5 Si12 Pt8'
_cell_volume   459.05582195
_cell_formula_units_Z   1
loop_
 _symmetry_equiv_pos_site_id
 _symmetry_equiv_pos_as_xyz
  1  'x, y, z'
loop_
 _atom_site_type_symbol
 _atom_site_label
 _atom_site_symmetry_multiplicity
 _atom_site_fract_x
 _atom_site_fract_y
 _atom_site_fract_z
 _atom_site_occupancy
  Sr  Sr0  1  0.250000  0.074161  0.188292  1
  Er  Er1  1  0.250000  0.765012  0.439724  1
  Er  Er2  1  0.250000  0.585203  0.186153  1
  Er  Er3  1  0.750000  0.234983  0.561954  1
  Er  Er4  1  0.750000  0.414349  0.812116  1
  Er  Er5  1  0.750000  0.929416  0.815434  1
  Si  Si6  1  0.750000  0.587264  0.571389  1
  Si  Si7  1  0.750000  0.128891  0.004174  1
  Si  Si8  1  0.750000  0.869789  0.577408  1
  Si  Si9  1  0.250000  0.698085  0.710735  1
  Si  Si10  1  0.750000  0.305218  0.287924  1
  Si  Si11  1  0.750000  0.801777  0.277031  1
  Si  Si12  1  0.250000  0.872335  0.990314  1
  Si  Si13  1  0.250000  0.193872  0.722231  1
  Si  Si14  1  0.250000  0.381087  0.999222  1
  Si  Si15  1  0.250000  0.124318  0.432103  1
  Si  Si16  1  0.750000  0.622084  0.994318  1
  Si  Si17  1  0.250000  0.409692  0.429421  1
  Pt  Pt18  1  0.750000  0.358502  0.098805  1
  Pt  Pt19  1  0.250000  0.972208  0.624073  1
  Pt  Pt20  1  0.750000  0.845599  0.086559  1
  Pt  Pt21  1  0.750000  0.026616  0.382273  1
  Pt  Pt22  1  0.250000  0.648740  0.896236  1
  Pt  Pt23  1  0.250000  0.151497  0.908866  1
  Pt  Pt24  1  0.750000  0.532447  0.378391  1
  Pt  Pt25  1  0.250000  0.466856  0.624856  1
