# generated using pymatgen
data_YThAl3Re
_symmetry_space_group_name_H-M   'P 1'
_cell_length_a   5.53605400
_cell_length_b   5.53605315
_cell_length_c   9.07963000
_cell_angle_alpha   90.00000000
_cell_angle_beta   90.00000000
_cell_angle_gamma   119.99999311
_symmetry_Int_Tables_number   1
_chemical_formula_structural   YThAl3Re
_chemical_formula_sum   'Y2 Th2 Al6 Re2'
_cell_volume   240.99019988
_cell_formula_units_Z   2
loop_
 _symmetry_equiv_pos_site_id
 _symmetry_equiv_pos_as_xyz
  1  'x, y, z'
loop_
 _atom_site_type_symbol
 _atom_site_label
 _atom_site_symmetry_multiplicity
 _atom_site_fract_x
 _atom_site_fract_y
 _atom_site_fract_z
 _atom_site_occupancy
  Y  Y0  1  0.666667  0.333333  0.942228  1
  Y  Y1  1  0.333333  0.666667  0.057772  1
  Th  Th2  1  0.333333  0.666667  0.456040  1
  Th  Th3  1  0.666667  0.333333  0.543960  1
  Al  Al4  1  0.838019  0.161981  0.243252  1
  Al  Al5  1  0.838019  0.676039  0.243252  1
  Al  Al6  1  0.323961  0.161981  0.243252  1
  Al  Al7  1  0.161981  0.838019  0.756748  1
  Al  Al8  1  0.161981  0.323961  0.756748  1
  Al  Al9  1  0.676039  0.838019  0.756748  1
  Re  Re10  1  0.000000  0.000000  0.500000  1
  Re  Re11  1  0.000000  0.000000  0.000000  1
