# generated using pymatgen
data_TbPu2Sb4Au3
_symmetry_space_group_name_H-M   'P 1'
_cell_length_a   8.66113429
_cell_length_b   8.64646728
_cell_length_c   8.66113547
_cell_angle_alpha   109.40067900
_cell_angle_beta   109.50526885
_cell_angle_gamma   109.40068300
_symmetry_Int_Tables_number   1
_chemical_formula_structural   TbPu2Sb4Au3
_chemical_formula_sum   'Tb2 Pu4 Sb8 Au6'
_cell_volume   499.96360750
_cell_formula_units_Z   2
loop_
 _symmetry_equiv_pos_site_id
 _symmetry_equiv_pos_as_xyz
  1  'x, y, z'
loop_
 _atom_site_type_symbol
 _atom_site_label
 _atom_site_symmetry_multiplicity
 _atom_site_fract_x
 _atom_site_fract_y
 _atom_site_fract_z
 _atom_site_occupancy
  Tb  Tb0  1  0.373049  0.125147  0.751323  1
  Tb  Tb1  1  0.251323  0.625148  0.873048  1
  Pu  Pu2  1  0.875030  0.749270  0.123763  1
  Pu  Pu3  1  0.125687  0.375543  0.251981  1
  Pu  Pu4  1  0.623763  0.249270  0.375030  1
  Pu  Pu5  1  0.751981  0.875543  0.625687  1
  Sb  Sb6  1  0.177954  0.003963  0.003777  1
  Sb  Sb7  1  0.679815  0.001323  0.000049  1
  Sb  Sb8  1  0.500049  0.501323  0.179816  1
  Sb  Sb9  1  0.322029  0.820634  0.323953  1
  Sb  Sb10  1  0.996226  0.672949  0.495244  1
  Sb  Sb11  1  0.995245  0.172949  0.496226  1
  Sb  Sb12  1  0.503777  0.503963  0.677953  1
  Sb  Sb13  1  0.823954  0.320635  0.822030  1
  Au  Au14  1  0.740466  0.369919  0.116922  1
  Au  Au15  1  0.616923  0.869918  0.240466  1
  Au  Au16  1  0.252290  0.124050  0.383622  1
  Au  Au17  1  0.374492  0.757201  0.632327  1
  Au  Au18  1  0.883622  0.624050  0.752290  1
  Au  Au19  1  0.132326  0.257202  0.874492  1
