# generated using pymatgen
data_NdLu3(CuSi3)2
_symmetry_space_group_name_H-M   'P 1'
_cell_length_a   7.97686837
_cell_length_b   7.96441891
_cell_length_c   5.65318296
_cell_angle_alpha   69.34753731
_cell_angle_beta   69.11159273
_cell_angle_gamma   41.54086203
_symmetry_Int_Tables_number   1
_chemical_formula_structural   NdLu3(CuSi3)2
_chemical_formula_sum   'Nd1 Lu3 Cu2 Si6'
_cell_volume   220.37477831
_cell_formula_units_Z   1
loop_
 _symmetry_equiv_pos_site_id
 _symmetry_equiv_pos_as_xyz
  1  'x, y, z'
loop_
 _atom_site_type_symbol
 _atom_site_label
 _atom_site_symmetry_multiplicity
 _atom_site_fract_x
 _atom_site_fract_y
 _atom_site_fract_z
 _atom_site_occupancy
  Nd  Nd0  1  0.755906  0.244094  0.755906  1
  Lu  Lu1  1  0.244261  0.755739  0.244261  1
  Lu  Lu2  1  0.250486  0.249514  0.250486  1
  Lu  Lu3  1  0.750485  0.749515  0.750485  1
  Cu  Cu4  1  0.663289  0.670665  0.329335  1
  Cu  Cu5  1  0.329335  0.336711  0.663289  1
  Si  Si6  1  0.833087  0.827329  0.172671  1
  Si  Si7  1  0.830553  0.339934  0.169687  1
  Si  Si8  1  0.660066  0.169447  0.340175  1
  Si  Si9  1  0.340175  0.830313  0.660066  1
  Si  Si10  1  0.169687  0.659825  0.830553  1
  Si  Si11  1  0.172671  0.166913  0.833087  1
