# generated using pymatgen
data_Tm10NiIrPb6
_symmetry_space_group_name_H-M   'P 1'
_cell_length_a   9.09680500
_cell_length_b   9.09680592
_cell_length_c   6.70242500
_cell_angle_alpha   90.00000000
_cell_angle_beta   90.00000000
_cell_angle_gamma   120.00000028
_symmetry_Int_Tables_number   1
_chemical_formula_structural   Tm10NiIrPb6
_chemical_formula_sum   'Tm10 Ni1 Ir1 Pb6'
_cell_volume   480.33076941
_cell_formula_units_Z   1
loop_
 _symmetry_equiv_pos_site_id
 _symmetry_equiv_pos_as_xyz
  1  'x, y, z'
loop_
 _atom_site_type_symbol
 _atom_site_label
 _atom_site_symmetry_multiplicity
 _atom_site_fract_x
 _atom_site_fract_y
 _atom_site_fract_z
 _atom_site_occupancy
  Tm  Tm0  1  0.236369  0.000000  0.250683  1
  Tm  Tm1  1  0.763631  0.000000  0.749317  1
  Tm  Tm2  1  0.000000  0.236369  0.250683  1
  Tm  Tm3  1  0.333333  0.666667  0.500000  1
  Tm  Tm4  1  0.666667  0.333333  0.500000  1
  Tm  Tm5  1  0.666667  0.333333  0.000000  1
  Tm  Tm6  1  0.000000  0.763631  0.749317  1
  Tm  Tm7  1  0.236369  0.236369  0.749317  1
  Tm  Tm8  1  0.333333  0.666667  0.000000  1
  Tm  Tm9  1  0.763631  0.763631  0.250683  1
  Ni  Ni10  1  0.000000  0.000000  0.500000  1
  Ir  Ir11  1  0.000000  0.000000  0.000000  1
  Pb  Pb12  1  0.402795  0.000000  0.747625  1
  Pb  Pb13  1  0.000000  0.402795  0.747625  1
  Pb  Pb14  1  0.402795  0.402795  0.252375  1
  Pb  Pb15  1  0.597205  0.000000  0.252375  1
  Pb  Pb16  1  0.000000  0.597205  0.252375  1
  Pb  Pb17  1  0.597205  0.597205  0.747625  1
