# generated using pymatgen
data_DySn5SbRu4
_symmetry_space_group_name_H-M   'P 1'
_cell_length_a   6.96339241
_cell_length_b   6.96339305
_cell_length_c   6.96339308
_cell_angle_alpha   120.43741310
_cell_angle_beta   121.21079160
_cell_angle_gamma   88.57978681
_symmetry_Int_Tables_number   1
_chemical_formula_structural   DySn5SbRu4
_chemical_formula_sum   'Dy1 Sn5 Sb1 Ru4'
_cell_volume   235.68598095
_cell_formula_units_Z   1
loop_
 _symmetry_equiv_pos_site_id
 _symmetry_equiv_pos_as_xyz
  1  'x, y, z'
loop_
 _atom_site_type_symbol
 _atom_site_label
 _atom_site_symmetry_multiplicity
 _atom_site_fract_x
 _atom_site_fract_y
 _atom_site_fract_z
 _atom_site_occupancy
  Dy  Dy0  1  0.000000  0.000000  0.000000  1
  Sn  Sn1  1  0.466116  0.467357  0.348503  1
  Sn  Sn2  1  0.533884  0.882387  0.001242  1
  Sn  Sn3  1  0.881146  0.532643  0.998758  1
  Sn  Sn4  1  0.118854  0.117613  0.651497  1
  Sn  Sn5  1  0.500000  0.000000  0.500000  1
  Sb  Sb6  1  0.000000  0.500000  0.500000  1
  Ru  Ru7  1  0.400143  0.403937  0.650816  1
  Ru  Ru8  1  0.753122  0.749328  0.349184  1
  Ru  Ru9  1  0.246878  0.596063  0.996206  1
  Ru  Ru10  1  0.599857  0.250672  0.003794  1
