# generated using pymatgen
data_La6PtAuI6
_symmetry_space_group_name_H-M   'P 1'
_cell_length_a   11.04998277
_cell_length_b   11.04991773
_cell_length_c   11.15618524
_cell_angle_alpha   109.41200400
_cell_angle_beta   109.41137009
_cell_angle_gamma   109.20066578
_symmetry_Int_Tables_number   1
_chemical_formula_structural   La6PtAuI6
_chemical_formula_sum   'La12 Pt2 Au2 I12'
_cell_volume   1053.61961239
_cell_formula_units_Z   2
loop_
 _symmetry_equiv_pos_site_id
 _symmetry_equiv_pos_as_xyz
  1  'x, y, z'
loop_
 _atom_site_type_symbol
 _atom_site_label
 _atom_site_symmetry_multiplicity
 _atom_site_fract_x
 _atom_site_fract_y
 _atom_site_fract_z
 _atom_site_occupancy
  La  La0  1  0.465344  0.477389  0.236989  1
  La  La1  1  0.740409  0.228356  0.263016  1
  La  La2  1  0.742885  0.013467  0.478127  1
  La  La3  1  0.235242  0.464661  0.478130  1
  La  La4  1  0.271643  0.759597  0.236991  1
  La  La5  1  0.035348  0.264748  0.021875  1
  La  La6  1  0.022611  0.034660  0.263009  1
  La  La7  1  0.486535  0.757128  0.021878  1
  La  La8  1  0.480956  0.230951  0.461912  1
  La  La9  1  0.014382  0.485608  0.749991  1
  La  La10  1  0.269041  0.019042  0.038083  1
  La  La11  1  0.235614  0.264391  0.750002  1
  Pt  Pt12  1  0.250382  0.249620  0.250004  1
  Pt  Pt13  1  0.499602  0.000395  0.250002  1
  Au  Au14  1  0.999797  0.249783  0.499550  1
  Au  Au15  1  0.250218  0.500208  0.000451  1
  I  I16  1  0.250899  0.758501  0.742103  1
  I  I17  1  0.516386  0.508787  0.757881  1
  I  I18  1  0.979654  0.738800  0.989888  1
  I  I19  1  0.741496  0.249099  0.757892  1
  I  I20  1  0.991211  0.983610  0.742114  1
  I  I21  1  0.248908  0.989771  0.510111  1
  I  I22  1  0.761200  0.520345  0.510112  1
  I  I23  1  0.510228  0.251090  0.989887  1
  I  I24  1  0.758587  0.741415  0.250000  1
  I  I25  1  0.740287  0.990285  0.980562  1
  I  I26  1  0.991421  0.508581  0.250002  1
  I  I27  1  0.509713  0.759711  0.519436  1
