# generated using pymatgen
data_La5RuPtO12
_symmetry_space_group_name_H-M   'P 1'
_cell_length_a   7.20969971
_cell_length_b   7.20969939
_cell_length_c   7.71683041
_cell_angle_alpha   74.52792615
_cell_angle_beta   74.52793832
_cell_angle_gamma   50.67241278
_symmetry_Int_Tables_number   1
_chemical_formula_structural   La5RuPtO12
_chemical_formula_sum   'La5 Ru1 Pt1 O12'
_cell_volume   296.45612908
_cell_formula_units_Z   1
loop_
 _symmetry_equiv_pos_site_id
 _symmetry_equiv_pos_as_xyz
  1  'x, y, z'
loop_
 _atom_site_type_symbol
 _atom_site_label
 _atom_site_symmetry_multiplicity
 _atom_site_fract_x
 _atom_site_fract_y
 _atom_site_fract_z
 _atom_site_occupancy
  La  La0  1  0.309275  0.301237  0.357040  1
  La  La1  1  0.698763  0.690725  0.642960  1
  La  La2  1  0.696467  0.692159  0.163946  1
  La  La3  1  0.307841  0.303533  0.836054  1
  La  La4  1  0.000613  0.999387  0.500000  1
  Ru  Ru5  1  0.240810  0.759190  0.000000  1
  Pt  Pt6  1  0.750905  0.249095  0.000000  1
  O  O7  1  0.095437  0.599563  0.575244  1
  O  O8  1  0.003152  0.996192  0.170610  1
  O  O9  1  0.400437  0.904563  0.424756  1
  O  O10  1  0.493713  0.507484  0.170144  1
  O  O11  1  0.103197  0.582000  0.079222  1
  O  O12  1  0.907339  0.401035  0.422549  1
  O  O13  1  0.003808  0.996848  0.829390  1
  O  O14  1  0.598965  0.092660  0.577451  1
  O  O15  1  0.492516  0.506287  0.829856  1
  O  O16  1  0.575015  0.096251  0.081324  1
  O  O17  1  0.418000  0.896803  0.920778  1
  O  O18  1  0.903749  0.424985  0.918676  1
