# generated using pymatgen
data_Dy4TcOs7
_symmetry_space_group_name_H-M   'P 1'
_cell_length_a   5.31668823
_cell_length_b   5.31668909
_cell_length_c   8.82366200
_cell_angle_alpha   90.00000000
_cell_angle_beta   90.00000000
_cell_angle_gamma   118.79854419
_symmetry_Int_Tables_number   1
_chemical_formula_structural   Dy4TcOs7
_chemical_formula_sum   'Dy4 Tc1 Os7'
_cell_volume   218.57148874
_cell_formula_units_Z   1
loop_
 _symmetry_equiv_pos_site_id
 _symmetry_equiv_pos_as_xyz
  1  'x, y, z'
loop_
 _atom_site_type_symbol
 _atom_site_label
 _atom_site_symmetry_multiplicity
 _atom_site_fract_x
 _atom_site_fract_y
 _atom_site_fract_z
 _atom_site_occupancy
  Dy  Dy0  1  0.330846  0.669154  0.436038  1
  Dy  Dy1  1  0.665700  0.334300  0.565850  1
  Dy  Dy2  1  0.665700  0.334300  0.934150  1
  Dy  Dy3  1  0.330846  0.669154  0.063962  1
  Tc  Tc4  1  0.831226  0.168774  0.250000  1
  Os  Os5  1  0.994480  0.005520  0.499883  1
  Os  Os6  1  0.994480  0.005520  0.000117  1
  Os  Os7  1  0.826309  0.652106  0.250000  1
  Os  Os8  1  0.347894  0.173691  0.250000  1
  Os  Os9  1  0.179016  0.820984  0.750000  1
  Os  Os10  1  0.170779  0.337275  0.750000  1
  Os  Os11  1  0.662725  0.829221  0.750000  1
