# generated using pymatgen
data_Pr6Zn21Rh2Se
_symmetry_space_group_name_H-M   'P 1'
_cell_length_a   9.28649870
_cell_length_b   9.17636423
_cell_length_c   9.28650000
_cell_angle_alpha   60.39154386
_cell_angle_beta   59.21690985
_cell_angle_gamma   60.39154199
_symmetry_Int_Tables_number   1
_chemical_formula_structural   Pr6Zn21Rh2Se
_chemical_formula_sum   'Pr6 Zn21 Rh2 Se1'
_cell_volume   559.42122515
_cell_formula_units_Z   1
loop_
 _symmetry_equiv_pos_site_id
 _symmetry_equiv_pos_as_xyz
  1  'x, y, z'
loop_
 _atom_site_type_symbol
 _atom_site_label
 _atom_site_symmetry_multiplicity
 _atom_site_fract_x
 _atom_site_fract_y
 _atom_site_fract_z
 _atom_site_occupancy
  Pr  Pr0  1  0.722815  0.277185  0.277185  1
  Pr  Pr1  1  0.724408  0.275592  0.724408  1
  Pr  Pr2  1  0.722815  0.722815  0.277185  1
  Pr  Pr3  1  0.277185  0.722815  0.722815  1
  Pr  Pr4  1  0.275592  0.724408  0.275592  1
  Pr  Pr5  1  0.277185  0.277185  0.722815  1
  Zn  Zn6  1  0.615504  0.125922  0.132653  1
  Zn  Zn7  1  0.125922  0.615504  0.125922  1
  Zn  Zn8  1  0.132653  0.125922  0.615504  1
  Zn  Zn9  1  0.125922  0.132653  0.125922  1
  Zn  Zn10  1  0.384496  0.874078  0.867347  1
  Zn  Zn11  1  0.874078  0.384496  0.874078  1
  Zn  Zn12  1  0.867347  0.874078  0.384496  1
  Zn  Zn13  1  0.874078  0.867347  0.874078  1
  Zn  Zn14  1  0.500000  0.000000  0.000000  1
  Zn  Zn15  1  0.500000  0.500000  0.000000  1
  Zn  Zn16  1  0.000000  0.500000  0.500000  1
  Zn  Zn17  1  0.000000  0.000000  0.500000  1
  Zn  Zn18  1  0.000000  0.000000  0.000000  1
  Zn  Zn19  1  0.015641  0.329927  0.324503  1
  Zn  Zn20  1  0.329927  0.015641  0.329927  1
  Zn  Zn21  1  0.324503  0.329927  0.015641  1
  Zn  Zn22  1  0.329927  0.324503  0.329927  1
  Zn  Zn23  1  0.984359  0.670073  0.675497  1
  Zn  Zn24  1  0.670073  0.984359  0.670073  1
  Zn  Zn25  1  0.675497  0.670073  0.984359  1
  Zn  Zn26  1  0.670073  0.675497  0.670073  1
  Rh  Rh27  1  0.500000  0.000000  0.500000  1
  Rh  Rh28  1  0.000000  0.500000  0.000000  1
  Se  Se29  1  0.500000  0.500000  0.500000  1
