# generated using pymatgen
data_PrEu3Al17SiIr6
_symmetry_space_group_name_H-M   'P 1'
_cell_length_a   7.63476374
_cell_length_b   7.60761647
_cell_length_c   9.71678805
_cell_angle_alpha   89.95193822
_cell_angle_beta   89.99630300
_cell_angle_gamma   119.44855409
_symmetry_Int_Tables_number   1
_chemical_formula_structural   PrEu3Al17SiIr6
_chemical_formula_sum   'Pr1 Eu3 Al17 Si1 Ir6'
_cell_volume   491.45515332
_cell_formula_units_Z   1
loop_
 _symmetry_equiv_pos_site_id
 _symmetry_equiv_pos_as_xyz
  1  'x, y, z'
loop_
 _atom_site_type_symbol
 _atom_site_label
 _atom_site_symmetry_multiplicity
 _atom_site_fract_x
 _atom_site_fract_y
 _atom_site_fract_z
 _atom_site_occupancy
  Pr  Pr0  1  0.329321  0.004438  0.750145  1
  Eu  Eu1  1  0.993338  0.663961  0.247558  1
  Eu  Eu2  1  0.005443  0.329585  0.754160  1
  Eu  Eu3  1  0.676897  0.002302  0.247235  1
  Al  Al4  1  0.130235  0.131289  0.249501  1
  Al  Al5  1  0.868136  0.869363  0.749684  1
  Al  Al6  1  0.996498  0.667194  0.928542  1
  Al  Al7  1  0.996748  0.663648  0.569492  1
  Al  Al8  1  0.334395  0.000226  0.425968  1
  Al  Al9  1  0.001875  0.335173  0.434109  1
  Al  Al10  1  0.665821  0.998385  0.569504  1
  Al  Al11  1  0.661752  0.993842  0.928251  1
  Al  Al12  1  0.334369  0.000471  0.073958  1
  Al  Al13  1  0.334433  0.334546  0.546763  1
  Al  Al14  1  0.666532  0.667287  0.452398  1
  Al  Al15  1  0.666373  0.667219  0.048090  1
  Al  Al16  1  0.337019  0.334584  0.954466  1
  Al  Al17  1  0.338696  0.547740  0.249820  1
  Al  Al18  1  0.663492  0.454474  0.751079  1
  Al  Al19  1  0.543687  0.338753  0.249591  1
  Al  Al20  1  0.453766  0.659785  0.750038  1
  Si  Si21  1  0.002801  0.335727  0.069436  1
  Ir  Ir22  1  0.677455  0.329058  0.001907  1
  Ir  Ir23  1  0.321629  0.663303  0.999753  1
  Ir  Ir24  1  0.329130  0.669986  0.499839  1
  Ir  Ir25  1  0.669322  0.329258  0.499642  1
  Ir  Ir26  1  0.000459  0.007654  0.999583  1
  Ir  Ir27  1  0.000378  0.000748  0.499487  1
