# generated using pymatgen
data_Cs2HgAs2O7
_symmetry_space_group_name_H-M   'P 1'
_cell_length_a   8.12390190
_cell_length_b   8.12390188
_cell_length_c   11.17991139
_cell_angle_alpha   79.56266625
_cell_angle_beta   79.56266681
_cell_angle_gamma   122.30383647
_symmetry_Int_Tables_number   1
_chemical_formula_structural   Cs2HgAs2O7
_chemical_formula_sum   'Cs4 Hg2 As4 O14'
_cell_volume   578.01995555
_cell_formula_units_Z   2
loop_
 _symmetry_equiv_pos_site_id
 _symmetry_equiv_pos_as_xyz
  1  'x, y, z'
loop_
 _atom_site_type_symbol
 _atom_site_label
 _atom_site_symmetry_multiplicity
 _atom_site_fract_x
 _atom_site_fract_y
 _atom_site_fract_z
 _atom_site_occupancy
  Cs  Cs0  1  0.368655  0.468230  0.124325  1
  Cs  Cs1  1  0.468230  0.368655  0.624325  1
  Cs  Cs2  1  0.602142  0.020460  0.322459  1
  Cs  Cs3  1  0.020460  0.602142  0.822459  1
  Hg  Hg4  1  0.043219  0.802553  0.293542  1
  Hg  Hg5  1  0.802553  0.043219  0.793542  1
  As  As6  1  0.387349  0.979109  0.998087  1
  As  As7  1  0.979109  0.387349  0.498087  1
  As  As8  1  0.021487  0.045520  0.994102  1
  As  As9  1  0.045520  0.021487  0.494102  1
  O  O10  1  0.286560  0.128518  0.395368  1
  O  O11  1  0.128518  0.286560  0.895368  1
  O  O12  1  0.970451  0.187892  0.440966  1
  O  O13  1  0.187892  0.970451  0.940966  1
  O  O14  1  0.569009  0.221971  0.987653  1
  O  O15  1  0.221971  0.569009  0.487653  1
  O  O16  1  0.974447  0.012830  0.154463  1
  O  O17  1  0.012830  0.974447  0.654463  1
  O  O18  1  0.804467  0.862925  0.964031  1
  O  O19  1  0.862925  0.804467  0.464031  1
  O  O20  1  0.440254  0.858128  0.904665  1
  O  O21  1  0.858128  0.440254  0.404665  1
  O  O22  1  0.266424  0.804180  0.155289  1
  O  O23  1  0.804180  0.266424  0.655289  1
