# generated using pymatgen
data_Tm16Sc4(IrPt3)3
_symmetry_space_group_name_H-M   'P 1'
_cell_length_a   10.84180400
_cell_length_b   10.84180400
_cell_length_c   6.19038200
_cell_angle_alpha   90.00000000
_cell_angle_beta   90.00000000
_cell_angle_gamma   90.00000000
_symmetry_Int_Tables_number   1
_chemical_formula_structural   Tm16Sc4(IrPt3)3
_chemical_formula_sum   'Tm16 Sc4 Ir3 Pt9'
_cell_volume   727.64668158
_cell_formula_units_Z   1
loop_
 _symmetry_equiv_pos_site_id
 _symmetry_equiv_pos_as_xyz
  1  'x, y, z'
loop_
 _atom_site_type_symbol
 _atom_site_label
 _atom_site_symmetry_multiplicity
 _atom_site_fract_x
 _atom_site_fract_y
 _atom_site_fract_z
 _atom_site_occupancy
  Tm  Tm0  1  0.290196  0.086630  0.378336  1
  Tm  Tm1  1  0.289734  0.913322  0.872368  1
  Tm  Tm2  1  0.710266  0.086678  0.872368  1
  Tm  Tm3  1  0.709804  0.913370  0.378336  1
  Tm  Tm4  1  0.586678  0.789734  0.872368  1
  Tm  Tm5  1  0.586630  0.209804  0.378336  1
  Tm  Tm6  1  0.413370  0.790196  0.378336  1
  Tm  Tm7  1  0.413322  0.210266  0.872368  1
  Tm  Tm8  1  0.207492  0.414371  0.624382  1
  Tm  Tm9  1  0.207645  0.585810  0.125040  1
  Tm  Tm10  1  0.792355  0.414190  0.125040  1
  Tm  Tm11  1  0.792508  0.585629  0.624382  1
  Tm  Tm12  1  0.914190  0.707645  0.125040  1
  Tm  Tm13  1  0.914371  0.292508  0.624382  1
  Tm  Tm14  1  0.085629  0.707492  0.624382  1
  Tm  Tm15  1  0.085810  0.292355  0.125040  1
  Sc  Sc16  1  0.000000  0.000000  0.500529  1
  Sc  Sc17  1  0.000000  0.000000  0.000491  1
  Sc  Sc18  1  0.500000  0.500000  0.000491  1
  Sc  Sc19  1  0.500000  0.500000  0.500529  1
  Ir  Ir20  1  0.500000  0.000000  0.619698  1
  Ir  Ir21  1  0.000000  0.500000  0.878368  1
  Ir  Ir22  1  0.000000  0.500000  0.378427  1
  Pt  Pt23  1  0.849872  0.148839  0.249935  1
  Pt  Pt24  1  0.850494  0.850607  0.750401  1
  Pt  Pt25  1  0.149506  0.149393  0.750401  1
  Pt  Pt26  1  0.150128  0.851161  0.249935  1
  Pt  Pt27  1  0.649393  0.350494  0.750401  1
  Pt  Pt28  1  0.648839  0.650128  0.249935  1
  Pt  Pt29  1  0.351161  0.349872  0.249935  1
  Pt  Pt30  1  0.350607  0.649506  0.750401  1
  Pt  Pt31  1  0.500000  0.000000  0.119615  1
