# generated using pymatgen
data_Pr4Ga9SiPt6
_symmetry_space_group_name_H-M   'P 1'
_cell_length_a   8.56788628
_cell_length_b   8.61558065
_cell_length_c   8.61558034
_cell_angle_alpha   138.07666820
_cell_angle_beta   106.29387789
_cell_angle_gamma   88.67182404
_symmetry_Int_Tables_number   1
_chemical_formula_structural   Pr4Ga9SiPt6
_chemical_formula_sum   'Pr4 Ga9 Si1 Pt6'
_cell_volume   390.40457464
_cell_formula_units_Z   1
loop_
 _symmetry_equiv_pos_site_id
 _symmetry_equiv_pos_as_xyz
  1  'x, y, z'
loop_
 _atom_site_type_symbol
 _atom_site_label
 _atom_site_symmetry_multiplicity
 _atom_site_fract_x
 _atom_site_fract_y
 _atom_site_fract_z
 _atom_site_occupancy
  Pr  Pr0  1  0.863736  0.629647  0.234089  1
  Pr  Pr1  1  0.135006  0.371078  0.763928  1
  Pr  Pr2  1  0.391589  0.129141  0.262449  1
  Pr  Pr3  1  0.602447  0.869175  0.733272  1
  Ga  Ga4  1  0.502157  0.749588  0.248556  1
  Ga  Ga5  1  0.502157  0.253601  0.752569  1
  Ga  Ga6  1  0.230000  0.970141  0.744648  1
  Ga  Ga7  1  0.769197  0.522455  0.751523  1
  Ga  Ga8  1  0.769197  0.017674  0.246742  1
  Ga  Ga9  1  0.230000  0.485352  0.259859  1
  Ga  Ga10  1  0.040843  0.892321  0.148522  1
  Ga  Ga11  1  0.958044  0.105446  0.852598  1
  Ga  Ga12  1  0.742324  0.391643  0.350681  1
  Si  Si13  1  0.254681  0.606125  0.648556  1
  Pt  Pt14  1  0.009566  0.747354  0.749902  1
  Pt  Pt15  1  0.009566  0.259664  0.262212  1
  Pt  Pt16  1  0.250385  0.864266  0.386119  1
  Pt  Pt17  1  0.754133  0.138246  0.615886  1
  Pt  Pt18  1  0.473509  0.361138  0.112371  1
  Pt  Pt19  1  0.511463  0.635945  0.875518  1
