# generated using pymatgen
data_TbYHo2(Ga3Ir)6
_symmetry_space_group_name_H-M   'P 1'
_cell_length_a   7.59230801
_cell_length_b   7.59484193
_cell_length_c   9.50247700
_cell_angle_alpha   90.00075452
_cell_angle_beta   90.00095989
_cell_angle_gamma   119.94149443
_symmetry_Int_Tables_number   1
_chemical_formula_structural   TbYHo2(Ga3Ir)6
_chemical_formula_sum   'Tb1 Y1 Ho2 Ga18 Ir6'
_cell_volume   474.80550882
_cell_formula_units_Z   1
loop_
 _symmetry_equiv_pos_site_id
 _symmetry_equiv_pos_as_xyz
  1  'x, y, z'
loop_
 _atom_site_type_symbol
 _atom_site_label
 _atom_site_symmetry_multiplicity
 _atom_site_fract_x
 _atom_site_fract_y
 _atom_site_fract_z
 _atom_site_occupancy
  Tb  Tb0  1  0.002786  0.331908  0.750017  1
  Y  Y1  1  0.997183  0.668065  0.249982  1
  Ho  Ho2  1  0.668098  0.997318  0.249977  1
  Ho  Ho3  1  0.331879  0.002663  0.750023  1
  Ga  Ga4  1  0.126778  0.126959  0.249995  1
  Ga  Ga5  1  0.873224  0.873051  0.750005  1
  Ga  Ga6  1  0.999189  0.333667  0.080168  1
  Ga  Ga7  1  0.000822  0.666355  0.919820  1
  Ga  Ga8  1  0.000822  0.666353  0.580186  1
  Ga  Ga9  1  0.334417  0.999510  0.420082  1
  Ga  Ga10  1  0.999188  0.333668  0.419827  1
  Ga  Ga11  1  0.665585  0.000490  0.579932  1
  Ga  Ga12  1  0.665590  0.000490  0.920076  1
  Ga  Ga13  1  0.334411  0.999510  0.079911  1
  Ga  Ga14  1  0.332763  0.332438  0.563942  1
  Ga  Ga15  1  0.667239  0.667557  0.436049  1
  Ga  Ga16  1  0.667236  0.667555  0.063941  1
  Ga  Ga17  1  0.332766  0.332440  0.936068  1
  Ga  Ga18  1  0.339157  0.546470  0.249999  1
  Ga  Ga19  1  0.660850  0.453516  0.750001  1
  Ga  Ga20  1  0.546115  0.338638  0.249999  1
  Ga  Ga21  1  0.453851  0.661346  0.750001  1
  Ir  Ir22  1  0.671426  0.328433  0.999990  1
  Ir  Ir23  1  0.328605  0.671595  0.999988  1
  Ir  Ir24  1  0.328603  0.671596  0.500013  1
  Ir  Ir25  1  0.671427  0.328432  0.500009  1
  Ir  Ir26  1  0.999996  0.999990  0.999990  1
  Ir  Ir27  1  0.999996  0.999990  0.500010  1
