# generated using pymatgen
data_Li4PrNd3(Si2Sn)2
_symmetry_space_group_name_H-M   'P 1'
_cell_length_a   9.81268703
_cell_length_b   9.81268703
_cell_length_c   6.87749700
_cell_angle_alpha   90.00000000
_cell_angle_beta   90.00000000
_cell_angle_gamma   153.20704824
_symmetry_Int_Tables_number   1
_chemical_formula_structural   Li4PrNd3(Si2Sn)2
_chemical_formula_sum   'Li4 Pr1 Nd3 Si4 Sn2'
_cell_volume   298.51016722
_cell_formula_units_Z   1
loop_
 _symmetry_equiv_pos_site_id
 _symmetry_equiv_pos_as_xyz
  1  'x, y, z'
loop_
 _atom_site_type_symbol
 _atom_site_label
 _atom_site_symmetry_multiplicity
 _atom_site_fract_x
 _atom_site_fract_y
 _atom_site_fract_z
 _atom_site_occupancy
  Li  Li0  1  0.184215  0.815785  0.055189  1
  Li  Li1  1  0.184215  0.815785  0.444811  1
  Li  Li2  1  0.815744  0.184256  0.944663  1
  Li  Li3  1  0.815744  0.184256  0.555337  1
  Pr  Pr4  1  0.350021  0.649979  0.250000  1
  Nd  Nd5  1  0.649864  0.350136  0.750000  1
  Nd  Nd6  1  0.548370  0.451630  0.250000  1
  Nd  Nd7  1  0.451733  0.548267  0.750000  1
  Si  Si8  1  0.056941  0.943059  0.925395  1
  Si  Si9  1  0.943190  0.056810  0.074397  1
  Si  Si10  1  0.943190  0.056810  0.425603  1
  Si  Si11  1  0.056941  0.943059  0.574605  1
  Sn  Sn12  1  0.719101  0.280899  0.250000  1
  Sn  Sn13  1  0.280732  0.719268  0.750000  1
