# generated using pymatgen
data_Yb4MgFeC8
_symmetry_space_group_name_H-M   'P 1'
_cell_length_a   6.81358851
_cell_length_b   6.81358821
_cell_length_c   6.81358718
_cell_angle_alpha   135.40880611
_cell_angle_beta   109.93605679
_cell_angle_gamma   86.95585933
_symmetry_Int_Tables_number   1
_chemical_formula_structural   Yb4MgFeC8
_chemical_formula_sum   'Yb4 Mg1 Fe1 C8'
_cell_volume   199.95207150
_cell_formula_units_Z   1
loop_
 _symmetry_equiv_pos_site_id
 _symmetry_equiv_pos_as_xyz
  1  'x, y, z'
loop_
 _atom_site_type_symbol
 _atom_site_label
 _atom_site_symmetry_multiplicity
 _atom_site_fract_x
 _atom_site_fract_y
 _atom_site_fract_z
 _atom_site_occupancy
  Yb  Yb0  1  0.204010  0.350782  0.848149  1
  Yb  Yb1  1  0.795990  0.644139  0.146773  1
  Yb  Yb2  1  0.502633  0.855861  0.651851  1
  Yb  Yb3  1  0.497367  0.149218  0.353227  1
  Mg  Mg4  1  0.000000  0.250000  0.250000  1
  Fe  Fe5  1  0.000000  0.750000  0.750000  1
  C  C6  1  0.798624  0.133024  0.679946  1
  C  C7  1  0.201376  0.881321  0.334399  1
  C  C8  1  0.453077  0.618679  0.820054  1
  C  C9  1  0.546923  0.366976  0.165601  1
  C  C10  1  0.906991  0.014593  0.752032  1
  C  C11  1  0.093009  0.845040  0.107602  1
  C  C12  1  0.262561  0.654960  0.747968  1
  C  C13  1  0.737439  0.485407  0.392398  1
