# generated using pymatgen
data_Ho4ErMo2C7
_symmetry_space_group_name_H-M   'P 1'
_cell_length_a   8.37457891
_cell_length_b   8.37457823
_cell_length_c   3.42103600
_cell_angle_alpha   90.00000000
_cell_angle_beta   90.00000000
_cell_angle_gamma   122.45046042
_symmetry_Int_Tables_number   1
_chemical_formula_structural   Ho4ErMo2C7
_chemical_formula_sum   'Ho4 Er1 Mo2 C7'
_cell_volume   202.46583693
_cell_formula_units_Z   1
loop_
 _symmetry_equiv_pos_site_id
 _symmetry_equiv_pos_as_xyz
  1  'x, y, z'
loop_
 _atom_site_type_symbol
 _atom_site_label
 _atom_site_symmetry_multiplicity
 _atom_site_fract_x
 _atom_site_fract_y
 _atom_site_fract_z
 _atom_site_occupancy
  Ho  Ho0  1  0.075317  0.333303  0.500000  1
  Ho  Ho1  1  0.924683  0.666697  0.500000  1
  Ho  Ho2  1  0.666697  0.924683  0.500000  1
  Ho  Ho3  1  0.333303  0.075317  0.500000  1
  Er  Er4  1  0.500000  0.500000  0.000000  1
  Mo  Mo5  1  0.711871  0.288129  0.000000  1
  Mo  Mo6  1  0.288129  0.711871  0.000000  1
  C  C7  1  0.623306  0.376694  0.500000  1
  C  C8  1  0.376694  0.623306  0.500000  1
  C  C9  1  0.000000  0.000000  0.000000  1
  C  C10  1  0.168091  0.168091  0.000000  1
  C  C11  1  0.831909  0.831909  0.000000  1
  C  C12  1  0.000000  0.500000  0.000000  1
  C  C13  1  0.500000  0.000000  0.000000  1
