# generated using pymatgen
data_Hf16Fe4PtRh3
_symmetry_space_group_name_H-M   'P 1'
_cell_length_a   8.60082068
_cell_length_b   8.60538352
_cell_length_c   8.59748517
_cell_angle_alpha   60.01532588
_cell_angle_beta   60.01514944
_cell_angle_gamma   60.01195941
_symmetry_Int_Tables_number   1
_chemical_formula_structural   Hf16Fe4PtRh3
_chemical_formula_sum   'Hf16 Fe4 Pt1 Rh3'
_cell_volume   450.09667439
_cell_formula_units_Z   1
loop_
 _symmetry_equiv_pos_site_id
 _symmetry_equiv_pos_as_xyz
  1  'x, y, z'
loop_
 _atom_site_type_symbol
 _atom_site_label
 _atom_site_symmetry_multiplicity
 _atom_site_fract_x
 _atom_site_fract_y
 _atom_site_fract_z
 _atom_site_occupancy
  Hf  Hf0  1  0.685057  0.105071  0.105175  1
  Hf  Hf1  1  0.105016  0.684527  0.105442  1
  Hf  Hf2  1  0.104997  0.105307  0.684792  1
  Hf  Hf3  1  0.104731  0.105112  0.105131  1
  Hf  Hf4  1  0.311588  0.311327  0.688553  1
  Hf  Hf5  1  0.686541  0.691315  0.311117  1
  Hf  Hf6  1  0.311502  0.688525  0.311454  1
  Hf  Hf7  1  0.686501  0.311076  0.691322  1
  Hf  Hf8  1  0.686567  0.310989  0.311107  1
  Hf  Hf9  1  0.311521  0.688557  0.688586  1
  Hf  Hf10  1  0.943959  0.942835  0.556321  1
  Hf  Hf11  1  0.556560  0.555500  0.943947  1
  Hf  Hf12  1  0.944102  0.556357  0.942732  1
  Hf  Hf13  1  0.556628  0.944015  0.555546  1
  Hf  Hf14  1  0.556278  0.944114  0.943871  1
  Hf  Hf15  1  0.944032  0.556685  0.556569  1
  Fe  Fe16  1  0.324145  0.891982  0.891904  1
  Fe  Fe17  1  0.892182  0.323362  0.892240  1
  Fe  Fe18  1  0.892294  0.892300  0.323101  1
  Fe  Fe19  1  0.892254  0.892233  0.892290  1
  Pt  Pt20  1  0.996054  0.334656  0.334644  1
  Rh  Rh21  1  0.335854  0.994066  0.335017  1
  Rh  Rh22  1  0.335810  0.335024  0.994063  1
  Rh  Rh23  1  0.335824  0.335061  0.335075  1
