# generated using pymatgen
data_LiVPbF6
_symmetry_space_group_name_H-M   'P 1'
_cell_length_a   5.34860800
_cell_length_b   5.34860765
_cell_length_c   10.56676300
_cell_angle_alpha   90.00000000
_cell_angle_beta   90.00000000
_cell_angle_gamma   120.00000216
_symmetry_Int_Tables_number   1
_chemical_formula_structural   LiVPbF6
_chemical_formula_sum   'Li2 V2 Pb2 F12'
_cell_volume   261.79063100
_cell_formula_units_Z   2
loop_
 _symmetry_equiv_pos_site_id
 _symmetry_equiv_pos_as_xyz
  1  'x, y, z'
loop_
 _atom_site_type_symbol
 _atom_site_label
 _atom_site_symmetry_multiplicity
 _atom_site_fract_x
 _atom_site_fract_y
 _atom_site_fract_z
 _atom_site_occupancy
  Li  Li0  1  0.333333  0.666667  0.750000  1
  Li  Li1  1  0.666667  0.333333  0.250000  1
  V  V2  1  0.666667  0.333333  0.750000  1
  V  V3  1  0.333333  0.666667  0.250000  1
  Pb  Pb4  1  0.000000  0.000000  0.500000  1
  Pb  Pb5  1  0.000000  0.000000  0.000000  1
  F  F6  1  0.641927  0.014198  0.645673  1
  F  F7  1  0.358073  0.985802  0.354327  1
  F  F8  1  0.985802  0.627729  0.645673  1
  F  F9  1  0.641927  0.627729  0.854327  1
  F  F10  1  0.014198  0.372271  0.354327  1
  F  F11  1  0.358073  0.372271  0.145673  1
  F  F12  1  0.372271  0.358073  0.645673  1
  F  F13  1  0.985802  0.358073  0.854327  1
  F  F14  1  0.627729  0.641927  0.354327  1
  F  F15  1  0.014198  0.641927  0.145673  1
  F  F16  1  0.372271  0.014198  0.854327  1
  F  F17  1  0.627729  0.985802  0.145673  1
