# generated using pymatgen
data_LuCu3RhAu
_symmetry_space_group_name_H-M   'P 1'
_cell_length_a   4.96269226
_cell_length_b   4.96269256
_cell_length_c   5.18922987
_cell_angle_alpha   61.43390009
_cell_angle_beta   61.43390264
_cell_angle_gamma   60.00000307
_symmetry_Int_Tables_number   1
_chemical_formula_structural   LuCu3RhAu
_chemical_formula_sum   'Lu1 Cu3 Rh1 Au1'
_cell_volume   92.27899471
_cell_formula_units_Z   1
loop_
 _symmetry_equiv_pos_site_id
 _symmetry_equiv_pos_as_xyz
  1  'x, y, z'
loop_
 _atom_site_type_symbol
 _atom_site_label
 _atom_site_symmetry_multiplicity
 _atom_site_fract_x
 _atom_site_fract_y
 _atom_site_fract_z
 _atom_site_occupancy
  Lu  Lu0  1  0.998358  0.998358  0.004928  1
  Cu  Cu1  1  0.627657  0.129219  0.615468  1
  Cu  Cu2  1  0.129219  0.627657  0.615468  1
  Cu  Cu3  1  0.627657  0.627657  0.615468  1
  Rh  Rh4  1  0.628335  0.628335  0.114993  1
  Au  Au5  1  0.238775  0.238775  0.283675  1
