# generated using pymatgen
data_DyYHf2(Al3Rh)6
_symmetry_space_group_name_H-M   'P 1'
_cell_length_a   7.49712900
_cell_length_b   7.49656727
_cell_length_c   9.36348400
_cell_angle_alpha   90.00000000
_cell_angle_beta   90.00000000
_cell_angle_gamma   119.60269771
_symmetry_Int_Tables_number   1
_chemical_formula_structural   DyYHf2(Al3Rh)6
_chemical_formula_sum   'Dy1 Y1 Hf2 Al18 Rh6'
_cell_volume   457.56240700
_cell_formula_units_Z   1
loop_
 _symmetry_equiv_pos_site_id
 _symmetry_equiv_pos_as_xyz
  1  'x, y, z'
loop_
 _atom_site_type_symbol
 _atom_site_label
 _atom_site_symmetry_multiplicity
 _atom_site_fract_x
 _atom_site_fract_y
 _atom_site_fract_z
 _atom_site_occupancy
  Dy  Dy0  1  0.329019  0.006871  0.250000  1
  Y  Y1  1  0.006673  0.328803  0.250000  1
  Hf  Hf2  1  0.994270  0.672416  0.750000  1
  Hf  Hf3  1  0.672420  0.994203  0.750000  1
  Al  Al4  1  0.120804  0.120990  0.750000  1
  Al  Al5  1  0.869593  0.869354  0.250000  1
  Al  Al6  1  0.996354  0.335034  0.583894  1
  Al  Al7  1  0.999263  0.665271  0.431407  1
  Al  Al8  1  0.999263  0.665271  0.068593  1
  Al  Al9  1  0.335087  0.996380  0.916130  1
  Al  Al10  1  0.996354  0.335034  0.916106  1
  Al  Al11  1  0.665051  0.998999  0.068600  1
  Al  Al12  1  0.665051  0.998999  0.431400  1
  Al  Al13  1  0.335087  0.996380  0.583870  1
  Al  Al14  1  0.334498  0.334467  0.048142  1
  Al  Al15  1  0.669536  0.669470  0.936060  1
  Al  Al16  1  0.669536  0.669470  0.563940  1
  Al  Al17  1  0.334498  0.334467  0.451858  1
  Al  Al18  1  0.338920  0.555892  0.750000  1
  Al  Al19  1  0.661723  0.452194  0.250000  1
  Al  Al20  1  0.556244  0.339144  0.750000  1
  Al  Al21  1  0.452220  0.661933  0.250000  1
  Rh  Rh22  1  0.673185  0.327980  0.503320  1
  Rh  Rh23  1  0.327985  0.673313  0.503319  1
  Rh  Rh24  1  0.327985  0.673313  0.996681  1
  Rh  Rh25  1  0.673185  0.327980  0.996680  1
  Rh  Rh26  1  0.998096  0.998187  0.503050  1
  Rh  Rh27  1  0.998096  0.998187  0.996950  1
