# generated using pymatgen
data_TbPrNd(Si3Pd10)2
_symmetry_space_group_name_H-M   'P 1'
_cell_length_a   8.76146539
_cell_length_b   8.76146484
_cell_length_c   8.76146500
_cell_angle_alpha   60.00000316
_cell_angle_beta   60.00000524
_cell_angle_gamma   59.99999705
_symmetry_Int_Tables_number   1
_chemical_formula_structural   TbPrNd(Si3Pd10)2
_chemical_formula_sum   'Tb1 Pr1 Nd1 Si6 Pd20'
_cell_volume   475.57084510
_cell_formula_units_Z   1
loop_
 _symmetry_equiv_pos_site_id
 _symmetry_equiv_pos_as_xyz
  1  'x, y, z'
loop_
 _atom_site_type_symbol
 _atom_site_label
 _atom_site_symmetry_multiplicity
 _atom_site_fract_x
 _atom_site_fract_y
 _atom_site_fract_z
 _atom_site_occupancy
  Tb  Tb0  1  0.000000  0.000000  0.000000  1
  Pr  Pr1  1  0.250000  0.250000  0.250000  1
  Nd  Nd2  1  0.750000  0.750000  0.750000  1
  Si  Si3  1  0.733427  0.266573  0.266573  1
  Si  Si4  1  0.266573  0.733427  0.733427  1
  Si  Si5  1  0.266573  0.733427  0.266573  1
  Si  Si6  1  0.733427  0.266573  0.733427  1
  Si  Si7  1  0.266573  0.266573  0.733427  1
  Si  Si8  1  0.733427  0.733427  0.266573  1
  Pd  Pd9  1  0.345517  0.999933  0.999933  1
  Pd  Pd10  1  0.654617  0.999933  0.999933  1
  Pd  Pd11  1  0.999933  0.345517  0.654617  1
  Pd  Pd12  1  0.999933  0.654617  0.345517  1
  Pd  Pd13  1  0.999933  0.345517  0.999933  1
  Pd  Pd14  1  0.654617  0.999933  0.345517  1
  Pd  Pd15  1  0.999933  0.654617  0.999933  1
  Pd  Pd16  1  0.345517  0.999933  0.654617  1
  Pd  Pd17  1  0.999933  0.999933  0.345517  1
  Pd  Pd18  1  0.999933  0.999933  0.654617  1
  Pd  Pd19  1  0.654617  0.345517  0.999933  1
  Pd  Pd20  1  0.345517  0.654617  0.999933  1
  Pd  Pd21  1  0.385476  0.385476  0.385476  1
  Pd  Pd22  1  0.614608  0.614608  0.614608  1
  Pd  Pd23  1  0.385476  0.385476  0.843570  1
  Pd  Pd24  1  0.385476  0.843570  0.385476  1
  Pd  Pd25  1  0.614608  0.614608  0.156177  1
  Pd  Pd26  1  0.614608  0.156177  0.614608  1
  Pd  Pd27  1  0.843570  0.385476  0.385476  1
  Pd  Pd28  1  0.156177  0.614608  0.614608  1
