# generated using pymatgen
data_La8TlHgRu2
_symmetry_space_group_name_H-M   'P 1'
_cell_length_a   10.05955968
_cell_length_b   10.07617349
_cell_length_c   10.07617400
_cell_angle_alpha   59.95863089
_cell_angle_beta   60.05453833
_cell_angle_gamma   60.05452810
_symmetry_Int_Tables_number   1
_chemical_formula_structural   La8TlHgRu2
_chemical_formula_sum   'La16 Tl2 Hg2 Ru4'
_cell_volume   722.56440720
_cell_formula_units_Z   2
loop_
 _symmetry_equiv_pos_site_id
 _symmetry_equiv_pos_as_xyz
  1  'x, y, z'
loop_
 _atom_site_type_symbol
 _atom_site_label
 _atom_site_symmetry_multiplicity
 _atom_site_fract_x
 _atom_site_fract_y
 _atom_site_fract_z
 _atom_site_occupancy
  La  La0  1  0.806819  0.193181  0.193181  1
  La  La1  1  0.191947  0.192802  0.807527  1
  La  La2  1  0.807725  0.807527  0.192802  1
  La  La3  1  0.189203  0.810797  0.810797  1
  La  La4  1  0.598682  0.595831  0.206779  1
  La  La5  1  0.439254  0.060746  0.060746  1
  La  La6  1  0.060445  0.439722  0.059932  1
  La  La7  1  0.439901  0.059932  0.439722  1
  La  La8  1  0.211846  0.595500  0.595503  1
  La  La9  1  0.058272  0.441728  0.441728  1
  La  La10  1  0.598710  0.206779  0.595831  1
  La  La11  1  0.597152  0.595503  0.595500  1
  La  La12  1  0.191958  0.807535  0.192836  1
  La  La13  1  0.807672  0.192836  0.807535  1
  La  La14  1  0.060496  0.059900  0.439698  1
  La  La15  1  0.439905  0.439698  0.059900  1
  Tl  Tl16  1  0.830257  0.505367  0.834113  1
  Tl  Tl17  1  0.830263  0.834113  0.505367  1
  Hg  Hg18  1  0.835034  0.834847  0.834838  1
  Hg  Hg19  1  0.495283  0.834838  0.834847  1
  Ru  Ru20  1  0.839367  0.385578  0.385630  1
  Ru  Ru21  1  0.389425  0.385630  0.385578  1
  Ru  Ru22  1  0.390209  0.836383  0.383232  1
  Ru  Ru23  1  0.390175  0.383232  0.836383  1
