# generated using pymatgen
data_AgBiRh2O7
_symmetry_space_group_name_H-M   'P 1'
_cell_length_a   7.23415768
_cell_length_b   7.11197493
_cell_length_c   7.23415804
_cell_angle_alpha   60.55714519
_cell_angle_beta   61.37388785
_cell_angle_gamma   60.55715156
_symmetry_Int_Tables_number   1
_chemical_formula_structural   AgBiRh2O7
_chemical_formula_sum   'Ag2 Bi2 Rh4 O14'
_cell_volume   268.06571029
_cell_formula_units_Z   2
loop_
 _symmetry_equiv_pos_site_id
 _symmetry_equiv_pos_as_xyz
  1  'x, y, z'
loop_
 _atom_site_type_symbol
 _atom_site_label
 _atom_site_symmetry_multiplicity
 _atom_site_fract_x
 _atom_site_fract_y
 _atom_site_fract_z
 _atom_site_occupancy
  Ag  Ag0  1  0.125000  0.125000  0.125000  1
  Ag  Ag1  1  0.125000  0.625000  0.125000  1
  Bi  Bi2  1  0.625000  0.125000  0.125000  1
  Bi  Bi3  1  0.125000  0.125000  0.625000  1
  Rh  Rh4  1  0.625000  0.625000  0.625000  1
  Rh  Rh5  1  0.625000  0.625000  0.125000  1
  Rh  Rh6  1  0.125000  0.625000  0.625000  1
  Rh  Rh7  1  0.625000  0.125000  0.625000  1
  O  O8  1  0.240732  0.259268  0.240732  1
  O  O9  1  0.305983  0.694017  0.305983  1
  O  O10  1  0.952456  0.958443  0.551729  1
  O  O11  1  0.539376  0.960624  0.539376  1
  O  O12  1  0.698271  0.712628  0.297544  1
  O  O13  1  0.952456  0.537372  0.551729  1
  O  O14  1  0.710624  0.289376  0.710624  1
  O  O15  1  0.297544  0.291557  0.698271  1
  O  O16  1  0.698271  0.291557  0.297544  1
  O  O17  1  0.297544  0.712628  0.698271  1
  O  O18  1  0.944017  0.555983  0.944017  1
  O  O19  1  0.551729  0.537372  0.952456  1
  O  O20  1  0.009268  0.990732  0.009268  1
  O  O21  1  0.551729  0.958443  0.952456  1
