# generated using pymatgen
data_Y4SI6
_symmetry_space_group_name_H-M   'P 1'
_cell_length_a   4.14612800
_cell_length_b   13.94106200
_cell_length_c   14.55235400
_cell_angle_alpha   90.00000000
_cell_angle_beta   90.00000000
_cell_angle_gamma   90.00000000
_symmetry_Int_Tables_number   1
_chemical_formula_structural   Y4SI6
_chemical_formula_sum   'Y8 S2 I12'
_cell_volume   841.14683480
_cell_formula_units_Z   2
loop_
 _symmetry_equiv_pos_site_id
 _symmetry_equiv_pos_as_xyz
  1  'x, y, z'
loop_
 _atom_site_type_symbol
 _atom_site_label
 _atom_site_symmetry_multiplicity
 _atom_site_fract_x
 _atom_site_fract_y
 _atom_site_fract_z
 _atom_site_occupancy
  Y  Y0  1  0.000000  0.099789  0.076850  1
  Y  Y1  1  0.000000  0.900211  0.923150  1
  Y  Y2  1  0.000000  0.599789  0.423150  1
  Y  Y3  1  0.000000  0.400211  0.576850  1
  Y  Y4  1  0.500000  0.120267  0.857445  1
  Y  Y5  1  0.500000  0.879733  0.142555  1
  Y  Y6  1  0.500000  0.620267  0.642555  1
  Y  Y7  1  0.500000  0.379733  0.357445  1
  S  S8  1  0.500000  0.000000  0.000000  1
  S  S9  1  0.500000  0.500000  0.500000  1
  I  I10  1  0.500000  0.264511  0.676472  1
  I  I11  1  0.500000  0.735489  0.323528  1
  I  I12  1  0.500000  0.764511  0.823528  1
  I  I13  1  0.500000  0.235489  0.176472  1
  I  I14  1  0.000000  0.263102  0.931975  1
  I  I15  1  0.000000  0.736898  0.068025  1
  I  I16  1  0.000000  0.487206  0.239305  1
  I  I17  1  0.000000  0.512794  0.760695  1
  I  I18  1  0.000000  0.987206  0.260695  1
  I  I19  1  0.000000  0.012794  0.739305  1
  I  I20  1  0.000000  0.236898  0.431975  1
  I  I21  1  0.000000  0.763102  0.568025  1
