# generated using pymatgen
data_Zr3Np(NbN2)6
_symmetry_space_group_name_H-M   'P 1'
_cell_length_a   5.36529500
_cell_length_b   5.36529458
_cell_length_c   10.75808700
_cell_angle_alpha   90.00002136
_cell_angle_beta   89.99995728
_cell_angle_gamma   120.00000873
_symmetry_Int_Tables_number   1
_chemical_formula_structural   Zr3Np(NbN2)6
_chemical_formula_sum   'Zr3 Np1 Nb6 N12'
_cell_volume   268.19632554
_cell_formula_units_Z   1
loop_
 _symmetry_equiv_pos_site_id
 _symmetry_equiv_pos_as_xyz
  1  'x, y, z'
loop_
 _atom_site_type_symbol
 _atom_site_label
 _atom_site_symmetry_multiplicity
 _atom_site_fract_x
 _atom_site_fract_y
 _atom_site_fract_z
 _atom_site_occupancy
  Zr  Zr0  1  0.333333  0.666667  0.499999  1
  Zr  Zr1  1  0.666667  0.333333  0.999999  1
  Zr  Zr2  1  0.666667  0.333334  0.500000  1
  Np  Np3  1  0.333333  0.666666  0.000001  1
  Nb  Nb4  1  0.678359  0.002177  0.749200  1
  Nb  Nb5  1  0.678360  0.676181  0.250800  1
  Nb  Nb6  1  0.997822  0.321640  0.250800  1
  Nb  Nb7  1  0.997823  0.676181  0.749201  1
  Nb  Nb8  1  0.323820  0.321641  0.749201  1
  Nb  Nb9  1  0.323819  0.002179  0.250800  1
  N  N10  1  0.345998  0.346377  0.372637  1
  N  N11  1  0.653623  0.999621  0.372638  1
  N  N12  1  0.000379  0.654001  0.372637  1
  N  N13  1  0.000622  0.344909  0.870743  1
  N  N14  1  0.655089  0.999377  0.129258  1
  N  N15  1  0.655091  0.655713  0.870742  1
  N  N16  1  0.344286  0.999377  0.870742  1
  N  N17  1  0.653623  0.654001  0.627363  1
  N  N18  1  0.000378  0.346378  0.627363  1
  N  N19  1  0.000623  0.655711  0.129257  1
  N  N20  1  0.346000  0.999623  0.627363  1
  N  N21  1  0.344288  0.344910  0.129258  1
