# generated using pymatgen
data_Tb16In4NiRu2Rh
_symmetry_space_group_name_H-M   'P 1'
_cell_length_a   9.68742633
_cell_length_b   9.67206349
_cell_length_c   9.70333800
_cell_angle_alpha   59.89297929
_cell_angle_beta   59.94565139
_cell_angle_gamma   59.84722936
_symmetry_Int_Tables_number   1
_chemical_formula_structural   Tb16In4NiRu2Rh
_chemical_formula_sum   'Tb16 In4 Ni1 Ru2 Rh1'
_cell_volume   641.35738615
_cell_formula_units_Z   1
loop_
 _symmetry_equiv_pos_site_id
 _symmetry_equiv_pos_as_xyz
  1  'x, y, z'
loop_
 _atom_site_type_symbol
 _atom_site_label
 _atom_site_symmetry_multiplicity
 _atom_site_fract_x
 _atom_site_fract_y
 _atom_site_fract_z
 _atom_site_occupancy
  Tb  Tb0  1  0.809966  0.811233  0.189400  1
  Tb  Tb1  1  0.812502  0.188685  0.809437  1
  Tb  Tb2  1  0.189129  0.190921  0.809976  1
  Tb  Tb3  1  0.650237  0.047968  0.650897  1
  Tb  Tb4  1  0.058313  0.057780  0.441953  1
  Tb  Tb5  1  0.435516  0.437960  0.063262  1
  Tb  Tb6  1  0.653982  0.649726  0.653316  1
  Tb  Tb7  1  0.812502  0.188685  0.189377  1
  Tb  Tb8  1  0.188190  0.812382  0.808598  1
  Tb  Tb9  1  0.044291  0.649321  0.653194  1
  Tb  Tb10  1  0.440935  0.060597  0.060738  1
  Tb  Tb11  1  0.440935  0.060597  0.437731  1
  Tb  Tb12  1  0.062321  0.440928  0.061713  1
  Tb  Tb13  1  0.653982  0.649726  0.042977  1
  Tb  Tb14  1  0.188190  0.812382  0.190829  1
  Tb  Tb15  1  0.062321  0.440928  0.435038  1
  In  In16  1  0.417639  0.419558  0.416582  1
  In  In17  1  0.417639  0.419558  0.746219  1
  In  In18  1  0.418554  0.746813  0.417316  1
  In  In19  1  0.746337  0.419530  0.417066  1
  Ni  Ni20  1  0.858122  0.422021  0.859928  1
  Ru  Ru21  1  0.857359  0.857449  0.859970  1
  Ru  Ru22  1  0.857359  0.857449  0.425222  1
  Rh  Rh23  1  0.423677  0.857801  0.859261  1
