# generated using pymatgen
data_Er5Si12Ir10Rh9
_symmetry_space_group_name_H-M   'P 1'
_cell_length_a   12.80517500
_cell_length_b   12.80517538
_cell_length_c   3.97665600
_cell_angle_alpha   90.00000000
_cell_angle_beta   90.00000000
_cell_angle_gamma   120.00000160
_symmetry_Int_Tables_number   1
_chemical_formula_structural   Er5Si12Ir10Rh9
_chemical_formula_sum   'Er5 Si12 Ir10 Rh9'
_cell_volume   564.70248352
_cell_formula_units_Z   1
loop_
 _symmetry_equiv_pos_site_id
 _symmetry_equiv_pos_as_xyz
  1  'x, y, z'
loop_
 _atom_site_type_symbol
 _atom_site_label
 _atom_site_symmetry_multiplicity
 _atom_site_fract_x
 _atom_site_fract_y
 _atom_site_fract_z
 _atom_site_occupancy
  Er  Er0  1  0.666667  0.333333  0.000000  1
  Er  Er1  1  0.333333  0.666667  0.000000  1
  Er  Er2  1  0.816864  0.816864  0.500000  1
  Er  Er3  1  0.183136  0.000000  0.500000  1
  Er  Er4  1  0.000000  0.183136  0.500000  1
  Si  Si5  1  0.685752  0.166942  0.500000  1
  Si  Si6  1  0.833058  0.518810  0.500000  1
  Si  Si7  1  0.481190  0.314248  0.500000  1
  Si  Si8  1  0.166942  0.685752  0.500000  1
  Si  Si9  1  0.518810  0.833058  0.500000  1
  Si  Si10  1  0.314248  0.481190  0.500000  1
  Si  Si11  1  0.630920  0.630920  0.000000  1
  Si  Si12  1  0.369080  0.000000  0.000000  1
  Si  Si13  1  0.000000  0.369080  0.000000  1
  Si  Si14  1  0.182599  0.182599  0.000000  1
  Si  Si15  1  0.817401  0.000000  0.000000  1
  Si  Si16  1  0.000000  0.817401  0.000000  1
  Ir  Ir17  1  0.281571  0.281571  0.500000  1
  Ir  Ir18  1  0.718429  0.000000  0.500000  1
  Ir  Ir19  1  0.000000  0.718429  0.500000  1
  Ir  Ir20  1  0.873080  0.358593  0.500000  1
  Ir  Ir21  1  0.641407  0.514487  0.500000  1
  Ir  Ir22  1  0.485513  0.126920  0.500000  1
  Ir  Ir23  1  0.358593  0.873080  0.500000  1
  Ir  Ir24  1  0.514487  0.641407  0.500000  1
  Ir  Ir25  1  0.126920  0.485513  0.500000  1
  Ir  Ir26  1  0.000000  0.000000  0.000000  1
  Rh  Rh27  1  0.805754  0.181873  0.000000  1
  Rh  Rh28  1  0.818127  0.623882  0.000000  1
  Rh  Rh29  1  0.376118  0.194246  0.000000  1
  Rh  Rh30  1  0.181873  0.805754  0.000000  1
  Rh  Rh31  1  0.623882  0.818127  0.000000  1
  Rh  Rh32  1  0.194246  0.376118  0.000000  1
  Rh  Rh33  1  0.447833  0.447833  0.000000  1
  Rh  Rh34  1  0.552167  0.000000  0.000000  1
  Rh  Rh35  1  0.000000  0.552167  0.000000  1
