# generated using pymatgen
data_YHo8Th3Ru4
_symmetry_space_group_name_H-M   'P 1'
_cell_length_a   6.34133486
_cell_length_b   7.22002988
_cell_length_c   9.49897707
_cell_angle_alpha   90.01784058
_cell_angle_beta   90.05131182
_cell_angle_gamma   90.63095108
_symmetry_Int_Tables_number   1
_chemical_formula_structural   YHo8Th3Ru4
_chemical_formula_sum   'Y1 Ho8 Th3 Ru4'
_cell_volume   434.88055720
_cell_formula_units_Z   1
loop_
 _symmetry_equiv_pos_site_id
 _symmetry_equiv_pos_as_xyz
  1  'x, y, z'
loop_
 _atom_site_type_symbol
 _atom_site_label
 _atom_site_symmetry_multiplicity
 _atom_site_fract_x
 _atom_site_fract_y
 _atom_site_fract_z
 _atom_site_occupancy
  Y  Y0  1  0.334730  0.677724  0.063405  1
  Ho  Ho1  1  0.164945  0.175486  0.435190  1
  Ho  Ho2  1  0.668113  0.323572  0.566922  1
  Ho  Ho3  1  0.829369  0.823954  0.930999  1
  Ho  Ho4  1  0.668359  0.323348  0.933052  1
  Ho  Ho5  1  0.829359  0.823727  0.568843  1
  Ho  Ho6  1  0.334683  0.677389  0.436306  1
  Ho  Ho7  1  0.164677  0.175459  0.064767  1
  Ho  Ho8  1  0.361634  0.963549  0.749783  1
  Th  Th9  1  0.849809  0.547013  0.250230  1
  Th  Th10  1  0.647537  0.045553  0.250146  1
  Th  Th11  1  0.151601  0.452701  0.749670  1
  Ru  Ru12  1  0.032978  0.871934  0.250529  1
  Ru  Ru13  1  0.467752  0.368747  0.250521  1
  Ru  Ru14  1  0.962546  0.132192  0.750001  1
  Ru  Ru15  1  0.531908  0.617651  0.749638  1
