# generated using pymatgen
data_DyHo4Re2C7
_symmetry_space_group_name_H-M   'P 1'
_cell_length_a   8.31033820
_cell_length_b   8.31033753
_cell_length_c   3.41341300
_cell_angle_alpha   90.00000000
_cell_angle_beta   90.00000000
_cell_angle_gamma   122.54817876
_symmetry_Int_Tables_number   1
_chemical_formula_structural   DyHo4Re2C7
_chemical_formula_sum   'Dy1 Ho4 Re2 C7'
_cell_volume   198.71128171
_cell_formula_units_Z   1
loop_
 _symmetry_equiv_pos_site_id
 _symmetry_equiv_pos_as_xyz
  1  'x, y, z'
loop_
 _atom_site_type_symbol
 _atom_site_label
 _atom_site_symmetry_multiplicity
 _atom_site_fract_x
 _atom_site_fract_y
 _atom_site_fract_z
 _atom_site_occupancy
  Dy  Dy0  1  0.500000  0.500000  0.000000  1
  Ho  Ho1  1  0.076087  0.335072  0.500000  1
  Ho  Ho2  1  0.923913  0.664928  0.500000  1
  Ho  Ho3  1  0.664928  0.923913  0.500000  1
  Ho  Ho4  1  0.335072  0.076087  0.500000  1
  Re  Re5  1  0.714794  0.285206  0.000000  1
  Re  Re6  1  0.285206  0.714794  0.000000  1
  C  C7  1  0.626496  0.373504  0.500000  1
  C  C8  1  0.373504  0.626496  0.500000  1
  C  C9  1  0.000000  0.000000  0.000000  1
  C  C10  1  0.169797  0.169797  0.000000  1
  C  C11  1  0.830203  0.830203  0.000000  1
  C  C12  1  0.000000  0.500000  0.000000  1
  C  C13  1  0.500000  0.000000  0.000000  1
