# generated using pymatgen
data_Be3CoW2
_symmetry_space_group_name_H-M   'P 1'
_cell_length_a   4.54246700
_cell_length_b   4.54246741
_cell_length_c   7.27913200
_cell_angle_alpha   90.00000000
_cell_angle_beta   90.00000000
_cell_angle_gamma   120.00000431
_symmetry_Int_Tables_number   1
_chemical_formula_structural   Be3CoW2
_chemical_formula_sum   'Be6 Co2 W4'
_cell_volume   130.07499224
_cell_formula_units_Z   2
loop_
 _symmetry_equiv_pos_site_id
 _symmetry_equiv_pos_as_xyz
  1  'x, y, z'
loop_
 _atom_site_type_symbol
 _atom_site_label
 _atom_site_symmetry_multiplicity
 _atom_site_fract_x
 _atom_site_fract_y
 _atom_site_fract_z
 _atom_site_occupancy
  Be  Be0  1  0.831453  0.168547  0.250000  1
  Be  Be1  1  0.831453  0.662906  0.250000  1
  Be  Be2  1  0.337094  0.168547  0.250000  1
  Be  Be3  1  0.168547  0.831453  0.750000  1
  Be  Be4  1  0.168547  0.337094  0.750000  1
  Be  Be5  1  0.662906  0.831453  0.750000  1
  Co  Co6  1  0.000000  0.000000  0.500000  1
  Co  Co7  1  0.000000  0.000000  0.000000  1
  W  W8  1  0.333333  0.666667  0.433548  1
  W  W9  1  0.666667  0.333333  0.566452  1
  W  W10  1  0.666667  0.333333  0.933548  1
  W  W11  1  0.333333  0.666667  0.066452  1
