# generated using pymatgen
data_PuHg3Te2F6
_symmetry_space_group_name_H-M   'P 1'
_cell_length_a   8.14703724
_cell_length_b   8.14703694
_cell_length_c   5.68020736
_cell_angle_alpha   90.29168715
_cell_angle_beta   90.29169262
_cell_angle_gamma   59.83483935
_symmetry_Int_Tables_number   1
_chemical_formula_structural   PuHg3Te2F6
_chemical_formula_sum   'Pu1 Hg3 Te2 F6'
_cell_volume   325.95791127
_cell_formula_units_Z   1
loop_
 _symmetry_equiv_pos_site_id
 _symmetry_equiv_pos_as_xyz
  1  'x, y, z'
loop_
 _atom_site_type_symbol
 _atom_site_label
 _atom_site_symmetry_multiplicity
 _atom_site_fract_x
 _atom_site_fract_y
 _atom_site_fract_z
 _atom_site_occupancy
  Pu  Pu0  1  0.000000  0.000000  0.499999  1
  Hg  Hg1  1  0.500000  0.000000  0.000000  1
  Hg  Hg2  1  0.000000  0.500000  0.000000  1
  Hg  Hg3  1  0.500000  0.500000  0.000000  1
  Te  Te4  1  0.666720  0.666720  0.232533  1
  Te  Te5  1  0.333280  0.333280  0.767467  1
  F  F6  1  0.873171  0.873171  0.284157  1
  F  F7  1  0.871278  0.254562  0.287281  1
  F  F8  1  0.254562  0.871278  0.287281  1
  F  F9  1  0.745437  0.128722  0.712719  1
  F  F10  1  0.128722  0.745437  0.712719  1
  F  F11  1  0.126830  0.126830  0.715843  1
