# generated using pymatgen
data_Cd2Ag2IrRu3O14
_symmetry_space_group_name_H-M   'P 1'
_cell_length_a   7.26359508
_cell_length_b   7.24739018
_cell_length_c   7.23677529
_cell_angle_alpha   59.74439478
_cell_angle_beta   59.87731943
_cell_angle_gamma   59.92601095
_symmetry_Int_Tables_number   1
_chemical_formula_structural   Cd2Ag2IrRu3O14
_chemical_formula_sum   'Cd2 Ag2 Ir1 Ru3 O14'
_cell_volume   268.45569088
_cell_formula_units_Z   1
loop_
 _symmetry_equiv_pos_site_id
 _symmetry_equiv_pos_as_xyz
  1  'x, y, z'
loop_
 _atom_site_type_symbol
 _atom_site_label
 _atom_site_symmetry_multiplicity
 _atom_site_fract_x
 _atom_site_fract_y
 _atom_site_fract_z
 _atom_site_occupancy
  Cd  Cd0  1  0.625000  0.125000  0.125000  1
  Cd  Cd1  1  0.125000  0.125000  0.125000  1
  Ag  Ag2  1  0.125000  0.625000  0.125000  1
  Ag  Ag3  1  0.125000  0.125000  0.625000  1
  Ir  Ir4  1  0.625000  0.625000  0.125000  1
  Ru  Ru5  1  0.625000  0.125000  0.625000  1
  Ru  Ru6  1  0.125000  0.625000  0.625000  1
  Ru  Ru7  1  0.625000  0.625000  0.625000  1
  O  O8  1  0.694983  0.698437  0.302683  1
  O  O9  1  0.940055  0.559916  0.559974  1
  O  O10  1  0.550923  0.949260  0.948895  1
  O  O11  1  0.941148  0.942143  0.559136  1
  O  O12  1  0.946102  0.551563  0.947317  1
  O  O13  1  0.557573  0.942143  0.559136  1
  O  O14  1  0.303898  0.698437  0.302683  1
  O  O15  1  0.309945  0.690084  0.690026  1
  O  O16  1  0.699077  0.300740  0.301105  1
  O  O17  1  0.692427  0.307857  0.690864  1
  O  O18  1  0.555017  0.551563  0.947317  1
  O  O19  1  0.308852  0.307857  0.690864  1
  O  O20  1  0.244666  0.255317  0.255350  1
  O  O21  1  0.005334  0.994683  0.994650  1
