# generated using pymatgen
data_Ho5Zn2P10Ir19
_symmetry_space_group_name_H-M   'P 1'
_cell_length_a   12.78146000
_cell_length_b   12.79318354
_cell_length_c   3.95682000
_cell_angle_alpha   90.00000000
_cell_angle_beta   90.00000000
_cell_angle_gamma   120.03034163
_symmetry_Int_Tables_number   1
_chemical_formula_structural   Ho5Zn2P10Ir19
_chemical_formula_sum   'Ho5 Zn2 P10 Ir19'
_cell_volume   560.14847546
_cell_formula_units_Z   1
loop_
 _symmetry_equiv_pos_site_id
 _symmetry_equiv_pos_as_xyz
  1  'x, y, z'
loop_
 _atom_site_type_symbol
 _atom_site_label
 _atom_site_symmetry_multiplicity
 _atom_site_fract_x
 _atom_site_fract_y
 _atom_site_fract_z
 _atom_site_occupancy
  Ho  Ho0  1  0.339349  0.671587  0.500000  1
  Ho  Ho1  1  0.660651  0.332237  0.500000  1
  Ho  Ho2  1  0.179230  0.183238  0.000000  1
  Ho  Ho3  1  0.820770  0.004008  0.000000  1
  Ho  Ho4  1  0.000000  0.815431  0.000000  1
  Zn  Zn5  1  0.353311  0.353131  0.500000  1
  Zn  Zn6  1  0.646689  0.999819  0.500000  1
  P  P7  1  0.318216  0.834246  0.000000  1
  P  P8  1  0.183948  0.490115  0.000000  1
  P  P9  1  0.520900  0.689851  0.000000  1
  P  P10  1  0.816052  0.306167  0.000000  1
  P  P11  1  0.479100  0.168951  0.000000  1
  P  P12  1  0.681784  0.516028  0.000000  1
  P  P13  1  0.000000  0.641622  0.500000  1
  P  P14  1  0.824633  0.824299  0.500000  1
  P  P15  1  0.175367  0.999668  0.500000  1
  P  P16  1  0.000000  0.186320  0.500000  1
  Ir  Ir17  1  0.185188  0.816356  0.500000  1
  Ir  Ir18  1  0.173770  0.389069  0.500000  1
  Ir  Ir19  1  0.621219  0.787779  0.500000  1
  Ir  Ir20  1  0.826230  0.215299  0.500000  1
  Ir  Ir21  1  0.378781  0.166560  0.500000  1
  Ir  Ir22  1  0.814812  0.631168  0.500000  1
  Ir  Ir23  1  0.139444  0.643166  0.000000  1
  Ir  Ir24  1  0.370895  0.496626  0.000000  1
  Ir  Ir25  1  0.509843  0.864874  0.000000  1
  Ir  Ir26  1  0.629105  0.125733  0.000000  1
  Ir  Ir27  1  0.490157  0.355032  0.000000  1
  Ir  Ir28  1  0.860556  0.503721  0.000000  1
  Ir  Ir29  1  0.563820  0.541393  0.500000  1
  Ir  Ir30  1  0.436180  0.977574  0.500000  1
  Ir  Ir31  1  0.000000  0.464322  0.500000  1
  Ir  Ir32  1  0.724447  0.717139  0.000000  1
  Ir  Ir33  1  0.275553  0.992691  0.000000  1
  Ir  Ir34  1  0.000000  0.288516  0.000000  1
  Ir  Ir35  1  0.000000  0.006266  0.500000  1
