# generated using pymatgen
data_SmHo3Ga4PdRu3
_symmetry_space_group_name_H-M   'P 1'
_cell_length_a   4.52220600
_cell_length_b   7.16555627
_cell_length_c   7.21136594
_cell_angle_alpha   90.60678238
_cell_angle_beta   90.00000000
_cell_angle_gamma   90.00000000
_symmetry_Int_Tables_number   1
_chemical_formula_structural   SmHo3Ga4PdRu3
_chemical_formula_sum   'Sm1 Ho3 Ga4 Pd1 Ru3'
_cell_volume   233.66487433
_cell_formula_units_Z   1
loop_
 _symmetry_equiv_pos_site_id
 _symmetry_equiv_pos_as_xyz
  1  'x, y, z'
loop_
 _atom_site_type_symbol
 _atom_site_label
 _atom_site_symmetry_multiplicity
 _atom_site_fract_x
 _atom_site_fract_y
 _atom_site_fract_z
 _atom_site_occupancy
  Sm  Sm0  1  0.250000  0.516627  0.193559  1
  Ho  Ho1  1  0.250000  0.016496  0.309773  1
  Ho  Ho2  1  0.750000  0.973693  0.693898  1
  Ho  Ho3  1  0.750000  0.487003  0.794499  1
  Ga  Ga4  1  0.250000  0.701205  0.602619  1
  Ga  Ga5  1  0.250000  0.188963  0.880412  1
  Ga  Ga6  1  0.750000  0.297462  0.409810  1
  Ga  Ga7  1  0.750000  0.803874  0.105152  1
  Pd  Pd8  1  0.750000  0.169158  0.068436  1
  Ru  Ru9  1  0.250000  0.343041  0.566747  1
  Ru  Ru10  1  0.250000  0.839614  0.937531  1
  Ru  Ru11  1  0.750000  0.662864  0.437562  1
