# generated using pymatgen
data_CeUSbN2
_symmetry_space_group_name_H-M   'P 1'
_cell_length_a   6.89836718
_cell_length_b   6.89836677
_cell_length_c   6.89836667
_cell_angle_alpha   147.10062044
_cell_angle_beta   147.10060721
_cell_angle_gamma   47.21482855
_symmetry_Int_Tables_number   1
_chemical_formula_structural   CeUSbN2
_chemical_formula_sum   'Ce1 U1 Sb1 N2'
_cell_volume   96.48205316
_cell_formula_units_Z   1
loop_
 _symmetry_equiv_pos_site_id
 _symmetry_equiv_pos_as_xyz
  1  'x, y, z'
loop_
 _atom_site_type_symbol
 _atom_site_label
 _atom_site_symmetry_multiplicity
 _atom_site_fract_x
 _atom_site_fract_y
 _atom_site_fract_z
 _atom_site_occupancy
  Ce  Ce0  1  0.345322  0.345322  0.000000  1
  U  U1  1  0.662759  0.662759  0.000000  1
  Sb  Sb2  1  0.006872  0.006872  0.000000  1
  N  N3  1  0.742524  0.242524  0.500000  1
  N  N4  1  0.242524  0.742524  0.500000  1
