# generated using pymatgen
data_Dy12TlCo6
_symmetry_space_group_name_H-M   'P 1'
_cell_length_a   8.36895530
_cell_length_b   8.36895456
_cell_length_c   8.36895500
_cell_angle_alpha   109.47121687
_cell_angle_beta   109.47121506
_cell_angle_gamma   109.47122459
_symmetry_Int_Tables_number   1
_chemical_formula_structural   Dy12TlCo6
_chemical_formula_sum   'Dy12 Tl1 Co6'
_cell_volume   451.22362353
_cell_formula_units_Z   1
loop_
 _symmetry_equiv_pos_site_id
 _symmetry_equiv_pos_as_xyz
  1  'x, y, z'
loop_
 _atom_site_type_symbol
 _atom_site_label
 _atom_site_symmetry_multiplicity
 _atom_site_fract_x
 _atom_site_fract_y
 _atom_site_fract_z
 _atom_site_occupancy
  Dy  Dy0  1  0.806538  0.503478  0.696941  1
  Dy  Dy1  1  0.696941  0.193462  0.890403  1
  Dy  Dy2  1  0.193462  0.890403  0.696941  1
  Dy  Dy3  1  0.303059  0.193462  0.496522  1
  Dy  Dy4  1  0.696941  0.806538  0.503478  1
  Dy  Dy5  1  0.496522  0.303059  0.193462  1
  Dy  Dy6  1  0.806538  0.109597  0.303059  1
  Dy  Dy7  1  0.890403  0.696941  0.193462  1
  Dy  Dy8  1  0.109597  0.303059  0.806538  1
  Dy  Dy9  1  0.303059  0.806538  0.109597  1
  Dy  Dy10  1  0.503478  0.696941  0.806538  1
  Dy  Dy11  1  0.193462  0.496522  0.303059  1
  Tl  Tl12  1  0.000000  0.000000  0.000000  1
  Co  Co13  1  0.613205  0.113205  0.500000  1
  Co  Co14  1  0.500000  0.613205  0.113205  1
  Co  Co15  1  0.500000  0.386795  0.886795  1
  Co  Co16  1  0.386795  0.886795  0.500000  1
  Co  Co17  1  0.113205  0.500000  0.613205  1
  Co  Co18  1  0.886795  0.500000  0.386795  1
