# generated using pymatgen
data_Pr3Cu(Ir2O7)2
_symmetry_space_group_name_H-M   'P 1'
_cell_length_a   7.45773660
_cell_length_b   7.45773568
_cell_length_c   7.22109104
_cell_angle_alpha   58.90987677
_cell_angle_beta   58.90988143
_cell_angle_gamma   60.00000265
_symmetry_Int_Tables_number   1
_chemical_formula_structural   Pr3Cu(Ir2O7)2
_chemical_formula_sum   'Pr3 Cu1 Ir4 O14'
_cell_volume   279.21956302
_cell_formula_units_Z   1
loop_
 _symmetry_equiv_pos_site_id
 _symmetry_equiv_pos_as_xyz
  1  'x, y, z'
loop_
 _atom_site_type_symbol
 _atom_site_label
 _atom_site_symmetry_multiplicity
 _atom_site_fract_x
 _atom_site_fract_y
 _atom_site_fract_z
 _atom_site_occupancy
  Pr  Pr0  1  0.625000  0.125000  0.125000  1
  Pr  Pr1  1  0.125000  0.625000  0.125000  1
  Pr  Pr2  1  0.125000  0.125000  0.125000  1
  Cu  Cu3  1  0.125000  0.125000  0.625000  1
  Ir  Ir4  1  0.125000  0.625000  0.625000  1
  Ir  Ir5  1  0.625000  0.125000  0.625000  1
  Ir  Ir6  1  0.625000  0.625000  0.125000  1
  Ir  Ir7  1  0.625000  0.625000  0.625000  1
  O  O8  1  0.710074  0.710074  0.286815  1
  O  O9  1  0.303540  0.303540  0.696841  1
  O  O10  1  0.696081  0.303540  0.696841  1
  O  O11  1  0.293037  0.710074  0.286815  1
  O  O12  1  0.303540  0.696081  0.696841  1
  O  O13  1  0.710074  0.293037  0.286815  1
  O  O14  1  0.539926  0.539926  0.963185  1
  O  O15  1  0.946460  0.946460  0.553159  1
  O  O16  1  0.553919  0.946460  0.553159  1
  O  O17  1  0.956963  0.539926  0.963185  1
  O  O18  1  0.946460  0.553919  0.553159  1
  O  O19  1  0.539926  0.956963  0.963185  1
  O  O20  1  0.235286  0.235286  0.294142  1
  O  O21  1  0.014714  0.014714  0.955858  1
