# generated using pymatgen
data_Tb3Er(Tm4Bi3)4
_symmetry_space_group_name_H-M   'P 1'
_cell_length_a   8.18721709
_cell_length_b   9.43468500
_cell_length_c   11.90507613
_cell_angle_alpha   90.00000000
_cell_angle_beta   89.98324902
_cell_angle_gamma   90.00000000
_symmetry_Int_Tables_number   1
_chemical_formula_structural   Tb3Er(Tm4Bi3)4
_chemical_formula_sum   'Tb3 Er1 Tm16 Bi12'
_cell_volume   919.59344966
_cell_formula_units_Z   1
loop_
 _symmetry_equiv_pos_site_id
 _symmetry_equiv_pos_as_xyz
  1  'x, y, z'
loop_
 _atom_site_type_symbol
 _atom_site_label
 _atom_site_symmetry_multiplicity
 _atom_site_fract_x
 _atom_site_fract_y
 _atom_site_fract_z
 _atom_site_occupancy
  Tb  Tb0  1  0.313586  0.250000  0.217972  1
  Tb  Tb1  1  0.813569  0.250000  0.281966  1
  Tb  Tb2  1  0.686629  0.750000  0.782086  1
  Er  Er3  1  0.186737  0.750000  0.717608  1
  Tm  Tm4  1  0.352669  0.750000  0.217275  1
  Tm  Tm5  1  0.852798  0.750000  0.282774  1
  Tm  Tm6  1  0.647263  0.250000  0.782719  1
  Tm  Tm7  1  0.147195  0.250000  0.717284  1
  Tm  Tm8  1  0.691531  0.565934  0.059063  1
  Tm  Tm9  1  0.191661  0.934017  0.441051  1
  Tm  Tm10  1  0.308415  0.065969  0.940815  1
  Tm  Tm11  1  0.808284  0.433985  0.559088  1
  Tm  Tm12  1  0.308415  0.434031  0.940815  1
  Tm  Tm13  1  0.808284  0.066015  0.559088  1
  Tm  Tm14  1  0.691531  0.934066  0.059063  1
  Tm  Tm15  1  0.191661  0.565983  0.441051  1
  Tm  Tm16  1  0.477132  0.250000  0.489446  1
  Tm  Tm17  1  0.977260  0.250000  0.010579  1
  Tm  Tm18  1  0.522564  0.750000  0.510829  1
  Tm  Tm19  1  0.022908  0.750000  0.989190  1
  Bi  Bi20  1  0.402715  0.750000  0.958133  1
  Bi  Bi21  1  0.904067  0.750000  0.542236  1
  Bi  Bi22  1  0.596826  0.250000  0.041516  1
  Bi  Bi23  1  0.096740  0.250000  0.458473  1
  Bi  Bi24  1  0.565136  0.994643  0.325884  1
  Bi  Bi25  1  0.065038  0.505297  0.174207  1
  Bi  Bi26  1  0.434159  0.495320  0.674279  1
  Bi  Bi27  1  0.935447  0.004859  0.825570  1
  Bi  Bi28  1  0.434159  0.004680  0.674279  1
  Bi  Bi29  1  0.935447  0.495141  0.825570  1
  Bi  Bi30  1  0.565136  0.505357  0.325884  1
  Bi  Bi31  1  0.065038  0.994703  0.174207  1
