# generated using pymatgen
data_Li(NdIr)2
_symmetry_space_group_name_H-M   'P 1'
_cell_length_a   5.60015919
_cell_length_b   5.60015746
_cell_length_c   5.60015817
_cell_angle_alpha   135.41284307
_cell_angle_beta   115.73932082
_cell_angle_gamma   81.57812595
_symmetry_Int_Tables_number   1
_chemical_formula_structural   Li(NdIr)2
_chemical_formula_sum   'Li1 Nd2 Ir2'
_cell_volume   107.31369978
_cell_formula_units_Z   1
loop_
 _symmetry_equiv_pos_site_id
 _symmetry_equiv_pos_as_xyz
  1  'x, y, z'
loop_
 _atom_site_type_symbol
 _atom_site_label
 _atom_site_symmetry_multiplicity
 _atom_site_fract_x
 _atom_site_fract_y
 _atom_site_fract_z
 _atom_site_occupancy
  Li  Li0  1  0.000000  0.000000  0.000000  1
  Nd  Nd1  1  0.297728  0.797728  0.500000  1
  Nd  Nd2  1  0.702272  0.202272  0.500000  1
  Ir  Ir3  1  0.734245  0.500000  0.234245  1
  Ir  Ir4  1  0.265755  0.500000  0.765755  1
