# generated using pymatgen
data_Hf3Re3Ge2P
_symmetry_space_group_name_H-M   'P 1'
_cell_length_a   7.03144000
_cell_length_b   7.03144079
_cell_length_c   3.38377400
_cell_angle_alpha   90.00000000
_cell_angle_beta   90.00000000
_cell_angle_gamma   120.00000569
_symmetry_Int_Tables_number   1
_chemical_formula_structural   Hf3Re3Ge2P
_chemical_formula_sum   'Hf3 Re3 Ge2 P1'
_cell_volume   144.88404255
_cell_formula_units_Z   1
loop_
 _symmetry_equiv_pos_site_id
 _symmetry_equiv_pos_as_xyz
  1  'x, y, z'
loop_
 _atom_site_type_symbol
 _atom_site_label
 _atom_site_symmetry_multiplicity
 _atom_site_fract_x
 _atom_site_fract_y
 _atom_site_fract_z
 _atom_site_occupancy
  Hf  Hf0  1  0.398967  0.398967  0.500000  1
  Hf  Hf1  1  0.601033  0.000000  0.500000  1
  Hf  Hf2  1  0.000000  0.601033  0.500000  1
  Re  Re3  1  0.753386  0.753386  0.000000  1
  Re  Re4  1  0.246614  0.000000  0.000000  1
  Re  Re5  1  0.000000  0.246614  0.000000  1
  Ge  Ge6  1  0.666667  0.333333  0.000000  1
  Ge  Ge7  1  0.333333  0.666667  0.000000  1
  P  P8  1  0.000000  0.000000  0.500000  1
