# generated using pymatgen
data_Li4ScP12Ir18Ru
_symmetry_space_group_name_H-M   'P 1'
_cell_length_a   12.60223999
_cell_length_b   12.55253148
_cell_length_c   3.90230200
_cell_angle_alpha   90.00000000
_cell_angle_beta   90.00000000
_cell_angle_gamma   120.22063040
_symmetry_Int_Tables_number   1
_chemical_formula_structural   Li4ScP12Ir18Ru
_chemical_formula_sum   'Li4 Sc1 P12 Ir18 Ru1'
_cell_volume   533.40949515
_cell_formula_units_Z   1
loop_
 _symmetry_equiv_pos_site_id
 _symmetry_equiv_pos_as_xyz
  1  'x, y, z'
loop_
 _atom_site_type_symbol
 _atom_site_label
 _atom_site_symmetry_multiplicity
 _atom_site_fract_x
 _atom_site_fract_y
 _atom_site_fract_z
 _atom_site_occupancy
  Li  Li0  1  0.334606  0.667573  0.000000  1
  Li  Li1  1  0.665786  0.333312  0.000000  1
  Li  Li2  1  0.822761  0.998749  0.500000  1
  Li  Li3  1  0.999333  0.823386  0.500000  1
  Sc  Sc4  1  0.175288  0.174240  0.500000  1
  P  P5  1  0.174879  0.993831  0.000000  1
  P  P6  1  0.994035  0.175879  0.000000  1
  P  P7  1  0.821329  0.821527  0.000000  1
  P  P8  1  0.177177  0.490049  0.500000  1
  P  P9  1  0.512682  0.688889  0.500000  1
  P  P10  1  0.316050  0.827896  0.500000  1
  P  P11  1  0.688850  0.511213  0.500000  1
  P  P12  1  0.824631  0.312869  0.500000  1
  P  P13  1  0.488599  0.172882  0.500000  1
  P  P14  1  0.637210  0.000370  0.000000  1
  P  P15  1  0.000189  0.642304  0.000000  1
  P  P16  1  0.357744  0.357821  0.000000  1
  Ir  Ir17  1  0.005433  0.460756  0.000000  1
  Ir  Ir18  1  0.541422  0.540477  0.000000  1
  Ir  Ir19  1  0.359335  0.490247  0.500000  1
  Ir  Ir20  1  0.512102  0.872110  0.500000  1
  Ir  Ir21  1  0.134336  0.642344  0.500000  1
  Ir  Ir22  1  0.872456  0.511155  0.500000  1
  Ir  Ir23  1  0.641391  0.130862  0.500000  1
  Ir  Ir24  1  0.491617  0.357719  0.500000  1
  Ir  Ir25  1  0.179904  0.369982  0.000000  1
  Ir  Ir26  1  0.624589  0.806424  0.000000  1
  Ir  Ir27  1  0.195268  0.817780  0.000000  1
  Ir  Ir28  1  0.805198  0.623052  0.000000  1
  Ir  Ir29  1  0.818149  0.195371  0.000000  1
  Ir  Ir30  1  0.368640  0.179771  0.000000  1
  Ir  Ir31  1  0.289398  0.001398  0.500000  1
  Ir  Ir32  1  0.001941  0.291994  0.500000  1
  Ir  Ir33  1  0.709488  0.708977  0.500000  1
  Ir  Ir34  1  0.002478  0.002812  0.000000  1
  Ru  Ru35  1  0.455704  0.003983  0.000000  1
