# generated using pymatgen
data_NdTm7(P7Ir8)2
_symmetry_space_group_name_H-M   'P 1'
_cell_length_a   3.94000100
_cell_length_b   12.60644239
_cell_length_c   13.14432530
_cell_angle_alpha   80.69342608
_cell_angle_beta   90.00000000
_cell_angle_gamma   90.00000000
_symmetry_Int_Tables_number   1
_chemical_formula_structural   NdTm7(P7Ir8)2
_chemical_formula_sum   'Nd1 Tm7 P14 Ir16'
_cell_volume   644.27706632
_cell_formula_units_Z   1
loop_
 _symmetry_equiv_pos_site_id
 _symmetry_equiv_pos_as_xyz
  1  'x, y, z'
loop_
 _atom_site_type_symbol
 _atom_site_label
 _atom_site_symmetry_multiplicity
 _atom_site_fract_x
 _atom_site_fract_y
 _atom_site_fract_z
 _atom_site_occupancy
  Nd  Nd0  1  0.250000  0.279356  0.101096  1
  Tm  Tm1  1  0.750000  0.791089  0.562186  1
  Tm  Tm2  1  0.250000  0.209100  0.437975  1
  Tm  Tm3  1  0.750000  0.479737  0.706666  1
  Tm  Tm4  1  0.250000  0.520722  0.293704  1
  Tm  Tm5  1  0.750000  0.719185  0.899049  1
  Tm  Tm6  1  0.250000  0.101555  0.789927  1
  Tm  Tm7  1  0.750000  0.898328  0.210836  1
  P  P8  1  0.250000  0.906289  0.412995  1
  P  P9  1  0.750000  0.471742  0.130034  1
  P  P10  1  0.250000  0.529624  0.869894  1
  P  P11  1  0.750000  0.093419  0.587284  1
  P  P12  1  0.250000  0.740885  0.079064  1
  P  P13  1  0.750000  0.257755  0.917664  1
  P  P14  1  0.750000  0.158008  0.283153  1
  P  P15  1  0.250000  0.842621  0.718385  1
  P  P16  1  0.250000  0.048070  0.101543  1
  P  P17  1  0.750000  0.947244  0.898627  1
  P  P18  1  0.250000  0.311452  0.689620  1
  P  P19  1  0.750000  0.688565  0.309901  1
  P  P20  1  0.250000  0.608654  0.566601  1
  P  P21  1  0.750000  0.392249  0.435054  1
  Ir  Ir22  1  0.250000  0.991276  0.576245  1
  Ir  Ir23  1  0.750000  0.008492  0.424561  1
  Ir  Ir24  1  0.250000  0.661879  0.728429  1
  Ir  Ir25  1  0.750000  0.340236  0.274784  1
  Ir  Ir26  1  0.250000  0.554533  0.045912  1
  Ir  Ir27  1  0.750000  0.450024  0.950811  1
  Ir  Ir28  1  0.250000  0.059190  0.274016  1
  Ir  Ir29  1  0.750000  0.939282  0.726628  1
  Ir  Ir30  1  0.250000  0.421624  0.523722  1
  Ir  Ir31  1  0.750000  0.579343  0.477118  1
  Ir  Ir32  1  0.250000  0.913864  0.996872  1
  Ir  Ir33  1  0.750000  0.083743  0.001103  1
  Ir  Ir34  1  0.250000  0.729153  0.394326  1
  Ir  Ir35  1  0.750000  0.270681  0.605710  1
  Ir  Ir36  1  0.250000  0.342525  0.856425  1
  Ir  Ir37  1  0.750000  0.658507  0.142080  1
