# generated using pymatgen
data_Y4Si10(IrRu)3
_symmetry_space_group_name_H-M   'P 1'
_cell_length_a   8.27716777
_cell_length_b   8.29276712
_cell_length_c   8.11354307
_cell_angle_alpha   138.91927484
_cell_angle_beta   107.07102350
_cell_angle_gamma   88.54072611
_symmetry_Int_Tables_number   1
_chemical_formula_structural   Y4Si10(IrRu)3
_chemical_formula_sum   'Y4 Si10 Ir3 Ru3'
_cell_volume   332.40863684
_cell_formula_units_Z   1
loop_
 _symmetry_equiv_pos_site_id
 _symmetry_equiv_pos_as_xyz
  1  'x, y, z'
loop_
 _atom_site_type_symbol
 _atom_site_label
 _atom_site_symmetry_multiplicity
 _atom_site_fract_x
 _atom_site_fract_y
 _atom_site_fract_z
 _atom_site_occupancy
  Y  Y0  1  0.868295  0.623881  0.222565  1
  Y  Y1  1  0.133273  0.373478  0.775157  1
  Y  Y2  1  0.400510  0.145221  0.277542  1
  Y  Y3  1  0.598687  0.855937  0.722923  1
  Si  Si4  1  0.484873  0.738320  0.251023  1
  Si  Si5  1  0.511161  0.262175  0.748069  1
  Si  Si6  1  0.206061  0.956707  0.747584  1
  Si  Si7  1  0.776599  0.526077  0.749197  1
  Si  Si8  1  0.794107  0.040983  0.248803  1
  Si  Si9  1  0.222931  0.476362  0.250444  1
  Si  Si10  1  0.065199  0.899214  0.163800  1
  Si  Si11  1  0.938458  0.098390  0.838302  1
  Si  Si12  1  0.739356  0.400500  0.339200  1
  Si  Si13  1  0.259186  0.600026  0.661653  1
  Ir  Ir14  1  0.743276  0.113277  0.571914  1
  Ir  Ir15  1  0.459225  0.329338  0.071530  1
  Ir  Ir16  1  0.540951  0.671611  0.928154  1
  Ru  Ru17  1  0.002513  0.753414  0.750855  1
  Ru  Ru18  1  0.995812  0.245937  0.249312  1
  Ru  Ru19  1  0.259527  0.889154  0.431973  1
