# generated using pymatgen
data_Ta3Ti4GaRu8
_symmetry_space_group_name_H-M   'P 1'
_cell_length_a   6.23605601
_cell_length_b   6.23670900
_cell_length_c   6.21333300
_cell_angle_alpha   89.99995382
_cell_angle_beta   90.00019314
_cell_angle_gamma   89.99937502
_symmetry_Int_Tables_number   1
_chemical_formula_structural   Ta3Ti4GaRu8
_chemical_formula_sum   'Ta3 Ti4 Ga1 Ru8'
_cell_volume   241.65184644
_cell_formula_units_Z   1
loop_
 _symmetry_equiv_pos_site_id
 _symmetry_equiv_pos_as_xyz
  1  'x, y, z'
loop_
 _atom_site_type_symbol
 _atom_site_label
 _atom_site_symmetry_multiplicity
 _atom_site_fract_x
 _atom_site_fract_y
 _atom_site_fract_z
 _atom_site_occupancy
  Ta  Ta0  1  0.250067  0.750000  0.000006  1
  Ta  Ta1  1  0.249918  0.749998  0.499990  1
  Ta  Ta2  1  0.750093  0.250002  0.500014  1
  Ti  Ti3  1  0.750004  0.750004  0.000098  1
  Ti  Ti4  1  0.250017  0.250001  0.499888  1
  Ti  Ti5  1  0.749985  0.750000  0.500112  1
  Ti  Ti6  1  0.250033  0.250003  0.999903  1
  Ga  Ga7  1  0.749890  0.249991  0.999990  1
  Ru  Ru8  1  0.998452  0.001535  0.248790  1
  Ru  Ru9  1  0.998451  0.498457  0.248788  1
  Ru  Ru10  1  0.501580  0.001542  0.248875  1
  Ru  Ru11  1  0.501583  0.498467  0.248875  1
  Ru  Ru12  1  0.501532  0.498454  0.751115  1
  Ru  Ru13  1  0.501531  0.001535  0.751125  1
  Ru  Ru14  1  0.998436  0.498468  0.751213  1
  Ru  Ru15  1  0.998431  0.001545  0.751213  1
