# generated using pymatgen
data_Na2MnBr4
_symmetry_space_group_name_H-M   'P 1'
_cell_length_a   6.96729400
_cell_length_b   8.73668300
_cell_length_c   14.94109900
_cell_angle_alpha   90.00000000
_cell_angle_beta   90.00000000
_cell_angle_gamma   90.00000000
_symmetry_Int_Tables_number   1
_chemical_formula_structural   Na2MnBr4
_chemical_formula_sum   'Na8 Mn4 Br16'
_cell_volume   909.48022062
_cell_formula_units_Z   4
loop_
 _symmetry_equiv_pos_site_id
 _symmetry_equiv_pos_as_xyz
  1  'x, y, z'
loop_
 _atom_site_type_symbol
 _atom_site_label
 _atom_site_symmetry_multiplicity
 _atom_site_fract_x
 _atom_site_fract_y
 _atom_site_fract_z
 _atom_site_occupancy
  Na  Na0  1  0.500000  0.000000  0.500000  1
  Na  Na1  1  0.500000  0.500000  0.500000  1
  Na  Na2  1  0.496255  0.750000  0.768279  1
  Na  Na3  1  0.996255  0.250000  0.731721  1
  Na  Na4  1  0.003745  0.750000  0.268279  1
  Na  Na5  1  0.000000  0.000000  0.000000  1
  Na  Na6  1  0.503745  0.250000  0.231721  1
  Na  Na7  1  0.000000  0.500000  0.000000  1
  Mn  Mn8  1  0.085982  0.250000  0.409263  1
  Mn  Mn9  1  0.585982  0.750000  0.090737  1
  Mn  Mn10  1  0.914018  0.750000  0.590737  1
  Mn  Mn11  1  0.414018  0.250000  0.909263  1
  Br  Br12  1  0.271089  0.750000  0.592160  1
  Br  Br13  1  0.233985  0.250000  0.563600  1
  Br  Br14  1  0.759030  0.976261  0.665560  1
  Br  Br15  1  0.733985  0.750000  0.936400  1
  Br  Br16  1  0.771089  0.250000  0.907840  1
  Br  Br17  1  0.728911  0.250000  0.407840  1
  Br  Br18  1  0.259030  0.476261  0.834440  1
  Br  Br19  1  0.266015  0.250000  0.063600  1
  Br  Br20  1  0.740970  0.976261  0.165560  1
  Br  Br21  1  0.240970  0.476261  0.334440  1
  Br  Br22  1  0.240970  0.023739  0.334440  1
  Br  Br23  1  0.259030  0.023739  0.834440  1
  Br  Br24  1  0.759030  0.523739  0.665560  1
  Br  Br25  1  0.228911  0.750000  0.092160  1
  Br  Br26  1  0.766015  0.750000  0.436400  1
  Br  Br27  1  0.740970  0.523739  0.165560  1
