# generated using pymatgen
data_Y16In2Ag2Ir3Rh
_symmetry_space_group_name_H-M   'P 1'
_cell_length_a   9.64938877
_cell_length_b   9.66539096
_cell_length_c   9.62520948
_cell_angle_alpha   59.86181274
_cell_angle_beta   59.85794169
_cell_angle_gamma   59.94513547
_symmetry_Int_Tables_number   1
_chemical_formula_structural   Y16In2Ag2Ir3Rh
_chemical_formula_sum   'Y16 In2 Ag2 Ir3 Rh1'
_cell_volume   633.15744554
_cell_formula_units_Z   1
loop_
 _symmetry_equiv_pos_site_id
 _symmetry_equiv_pos_as_xyz
  1  'x, y, z'
loop_
 _atom_site_type_symbol
 _atom_site_label
 _atom_site_symmetry_multiplicity
 _atom_site_fract_x
 _atom_site_fract_y
 _atom_site_fract_z
 _atom_site_occupancy
  Y  Y0  1  0.810627  0.188991  0.811391  1
  Y  Y1  1  0.934636  0.564376  0.559999  1
  Y  Y2  1  0.561158  0.939930  0.558981  1
  Y  Y3  1  0.809064  0.192686  0.188964  1
  Y  Y4  1  0.192954  0.807349  0.192347  1
  Y  Y5  1  0.350604  0.948356  0.350150  1
  Y  Y6  1  0.934636  0.940988  0.559999  1
  Y  Y7  1  0.560021  0.941688  0.935301  1
  Y  Y8  1  0.189299  0.809037  0.809601  1
  Y  Y9  1  0.350252  0.349680  0.950389  1
  Y  Y10  1  0.560021  0.562989  0.935301  1
  Y  Y11  1  0.350604  0.350892  0.350150  1
  Y  Y12  1  0.189299  0.192063  0.809601  1
  Y  Y13  1  0.809064  0.809285  0.188964  1
  Y  Y14  1  0.936584  0.563429  0.936558  1
  Y  Y15  1  0.949274  0.350343  0.350040  1
  In  In16  1  0.584265  0.579339  0.257059  1
  In  In17  1  0.256986  0.579408  0.584201  1
  Ag  Ag18  1  0.583496  0.581308  0.583313  1
  Ag  Ag19  1  0.583496  0.251885  0.583313  1
  Ir  Ir20  1  0.574520  0.140884  0.143714  1
  Ir  Ir21  1  0.143028  0.574994  0.142993  1
  Ir  Ir22  1  0.143028  0.138985  0.142993  1
  Rh  Rh23  1  0.143086  0.141117  0.574680  1
