# generated using pymatgen
data_Dy8Cu3Si12Ag
_symmetry_space_group_name_H-M   'P 1'
_cell_length_a   8.05183900
_cell_length_b   8.05195602
_cell_length_c   8.11051000
_cell_angle_alpha   90.00008457
_cell_angle_beta   90.00002836
_cell_angle_gamma   119.99942313
_symmetry_Int_Tables_number   1
_chemical_formula_structural   Dy8Cu3Si12Ag
_chemical_formula_sum   'Dy8 Cu3 Si12 Ag1'
_cell_volume   455.38403082
_cell_formula_units_Z   1
loop_
 _symmetry_equiv_pos_site_id
 _symmetry_equiv_pos_as_xyz
  1  'x, y, z'
loop_
 _atom_site_type_symbol
 _atom_site_label
 _atom_site_symmetry_multiplicity
 _atom_site_fract_x
 _atom_site_fract_y
 _atom_site_fract_z
 _atom_site_occupancy
  Dy  Dy0  1  0.999999  0.999997  0.248017  1
  Dy  Dy1  1  0.000000  0.000000  0.751771  1
  Dy  Dy2  1  0.004661  0.502330  0.247613  1
  Dy  Dy3  1  0.497670  0.502331  0.247614  1
  Dy  Dy4  1  0.498797  0.997592  0.752372  1
  Dy  Dy5  1  0.497670  0.995340  0.247613  1
  Dy  Dy6  1  0.498796  0.501204  0.752372  1
  Dy  Dy7  1  0.002408  0.501204  0.752372  1
  Cu  Cu8  1  0.333333  0.666668  0.997103  1
  Cu  Cu9  1  0.333334  0.666668  0.502329  1
  Cu  Cu10  1  0.666666  0.333332  0.002926  1
  Si  Si11  1  0.168932  0.337864  0.000013  1
  Si  Si12  1  0.662136  0.831068  0.000011  1
  Si  Si13  1  0.170442  0.340883  0.500493  1
  Si  Si14  1  0.339031  0.169514  0.999916  1
  Si  Si15  1  0.168934  0.831068  0.000010  1
  Si  Si16  1  0.659116  0.829557  0.500495  1
  Si  Si17  1  0.830484  0.660968  0.999917  1
  Si  Si18  1  0.324135  0.162069  0.499405  1
  Si  Si19  1  0.170442  0.829557  0.500496  1
  Si  Si20  1  0.837932  0.675866  0.499405  1
  Si  Si21  1  0.830482  0.169515  0.999912  1
  Si  Si22  1  0.837932  0.162070  0.499403  1
  Ag  Ag23  1  0.666667  0.333334  0.498418  1
