# generated using pymatgen
data_YbTcN2
_symmetry_space_group_name_H-M   'P 1'
_cell_length_a   6.35444600
_cell_length_b   3.91567600
_cell_length_c   3.91797300
_cell_angle_alpha   90.00000000
_cell_angle_beta   90.00000000
_cell_angle_gamma   90.00000000
_symmetry_Int_Tables_number   1
_chemical_formula_structural   YbTcN2
_chemical_formula_sum   'Yb2 Tc2 N4'
_cell_volume   97.48681493
_cell_formula_units_Z   2
loop_
 _symmetry_equiv_pos_site_id
 _symmetry_equiv_pos_as_xyz
  1  'x, y, z'
loop_
 _atom_site_type_symbol
 _atom_site_label
 _atom_site_symmetry_multiplicity
 _atom_site_fract_x
 _atom_site_fract_y
 _atom_site_fract_z
 _atom_site_occupancy
  Yb  Yb0  1  0.000000  0.500001  0.500000  1
  Yb  Yb1  1  0.500000  0.500001  0.500000  1
  Tc  Tc2  1  0.749999  0.000000  0.999826  1
  Tc  Tc3  1  0.249999  0.000000  0.000175  1
  N  N4  1  0.749999  0.500001  0.999974  1
  N  N5  1  0.249999  0.000000  0.499670  1
  N  N6  1  0.749999  0.000000  0.500330  1
  N  N7  1  0.249999  0.500001  0.000026  1
