# generated using pymatgen
data_K3LiRu2F12
_symmetry_space_group_name_H-M   'P 1'
_cell_length_a   5.64394300
_cell_length_b   5.64394300
_cell_length_c   19.95573700
_cell_angle_alpha   90.00000000
_cell_angle_beta   90.00000000
_cell_angle_gamma   90.00000000
_symmetry_Int_Tables_number   1
_chemical_formula_structural   K3LiRu2F12
_chemical_formula_sum   'K6 Li2 Ru4 F24'
_cell_volume   635.67189404
_cell_formula_units_Z   2
loop_
 _symmetry_equiv_pos_site_id
 _symmetry_equiv_pos_as_xyz
  1  'x, y, z'
loop_
 _atom_site_type_symbol
 _atom_site_label
 _atom_site_symmetry_multiplicity
 _atom_site_fract_x
 _atom_site_fract_y
 _atom_site_fract_z
 _atom_site_occupancy
  K  K0  1  0.000000  0.500000  0.308273  1
  K  K1  1  0.500000  0.000000  0.691727  1
  K  K2  1  0.500000  0.000000  0.191727  1
  K  K3  1  0.000000  0.500000  0.808273  1
  K  K4  1  0.000000  0.000000  0.500000  1
  K  K5  1  0.500000  0.500000  0.000000  1
  Li  Li6  1  0.000000  0.000000  0.000000  1
  Li  Li7  1  0.500000  0.500000  0.500000  1
  Ru  Ru8  1  0.000000  0.500000  0.118270  1
  Ru  Ru9  1  0.500000  0.000000  0.881730  1
  Ru  Ru10  1  0.500000  0.000000  0.381730  1
  Ru  Ru11  1  0.000000  0.500000  0.618270  1
  F  F12  1  0.208356  0.173160  0.384356  1
  F  F13  1  0.791644  0.826840  0.384356  1
  F  F14  1  0.173160  0.791644  0.615644  1
  F  F15  1  0.291644  0.673160  0.115644  1
  F  F16  1  0.826840  0.208356  0.615644  1
  F  F17  1  0.708356  0.326840  0.115644  1
  F  F18  1  0.326840  0.291644  0.884356  1
  F  F19  1  0.673160  0.708356  0.884356  1
  F  F20  1  0.121239  0.291462  0.188999  1
  F  F21  1  0.878761  0.708538  0.188999  1
  F  F22  1  0.291462  0.878761  0.811001  1
  F  F23  1  0.378761  0.791462  0.311001  1
  F  F24  1  0.708538  0.121239  0.811001  1
  F  F25  1  0.621239  0.208538  0.311001  1
  F  F26  1  0.208538  0.378761  0.688999  1
  F  F27  1  0.791462  0.621239  0.688999  1
  F  F28  1  0.116595  0.276186  0.047524  1
  F  F29  1  0.883405  0.723814  0.047524  1
  F  F30  1  0.276186  0.883405  0.952476  1
  F  F31  1  0.383405  0.776186  0.452476  1
  F  F32  1  0.723814  0.116595  0.952476  1
  F  F33  1  0.616595  0.223814  0.452476  1
  F  F34  1  0.223814  0.383405  0.547524  1
  F  F35  1  0.776186  0.616595  0.547524  1
