# generated using pymatgen
data_Y2Fe9Mo3P7
_symmetry_space_group_name_H-M   'P 1'
_cell_length_a   3.72185000
_cell_length_b   9.13445865
_cell_length_c   9.13445800
_cell_angle_alpha   119.99999669
_cell_angle_beta   90.00000000
_cell_angle_gamma   90.00000000
_symmetry_Int_Tables_number   1
_chemical_formula_structural   Y2Fe9Mo3P7
_chemical_formula_sum   'Y2 Fe9 Mo3 P7'
_cell_volume   268.93981967
_cell_formula_units_Z   1
loop_
 _symmetry_equiv_pos_site_id
 _symmetry_equiv_pos_as_xyz
  1  'x, y, z'
loop_
 _atom_site_type_symbol
 _atom_site_label
 _atom_site_symmetry_multiplicity
 _atom_site_fract_x
 _atom_site_fract_y
 _atom_site_fract_z
 _atom_site_occupancy
  Y  Y0  1  0.000000  0.666667  0.333333  1
  Y  Y1  1  0.500000  0.333333  0.666667  1
  Fe  Fe2  1  0.000000  0.571289  0.950069  1
  Fe  Fe3  1  0.000000  0.378780  0.428711  1
  Fe  Fe4  1  0.000000  0.049931  0.621220  1
  Fe  Fe5  1  0.000000  0.880973  0.159335  1
  Fe  Fe6  1  0.000000  0.278362  0.119027  1
  Fe  Fe7  1  0.000000  0.840665  0.721638  1
  Fe  Fe8  1  0.500000  0.954135  0.392419  1
  Fe  Fe9  1  0.500000  0.438284  0.045865  1
  Fe  Fe10  1  0.500000  0.607581  0.561716  1
  Mo  Mo11  1  0.500000  0.779218  0.899779  1
  Mo  Mo12  1  0.500000  0.120561  0.220782  1
  Mo  Mo13  1  0.500000  0.100221  0.879439  1
  P  P14  1  0.000000  0.000000  0.000000  1
  P  P15  1  0.500000  0.717201  0.125121  1
  P  P16  1  0.500000  0.407920  0.282799  1
  P  P17  1  0.500000  0.874879  0.592080  1
  P  P18  1  0.000000  0.588026  0.701863  1
  P  P19  1  0.000000  0.113838  0.411974  1
  P  P20  1  0.000000  0.298137  0.886162  1
