# generated using pymatgen
data_Li3YbReN3
_symmetry_space_group_name_H-M   'P 1'
_cell_length_a   7.22136867
_cell_length_b   7.22136807
_cell_length_c   7.22136974
_cell_angle_alpha   47.27043459
_cell_angle_beta   47.27044040
_cell_angle_gamma   47.27043920
_symmetry_Int_Tables_number   1
_chemical_formula_structural   Li3YbReN3
_chemical_formula_sum   'Li6 Yb2 Re2 N6'
_cell_volume   185.85494815
_cell_formula_units_Z   2
loop_
 _symmetry_equiv_pos_site_id
 _symmetry_equiv_pos_as_xyz
  1  'x, y, z'
loop_
 _atom_site_type_symbol
 _atom_site_label
 _atom_site_symmetry_multiplicity
 _atom_site_fract_x
 _atom_site_fract_y
 _atom_site_fract_z
 _atom_site_occupancy
  Li  Li0  1  0.473441  0.894781  0.239620  1
  Li  Li1  1  0.894781  0.239620  0.473441  1
  Li  Li2  1  0.760380  0.526559  0.105219  1
  Li  Li3  1  0.526559  0.105219  0.760380  1
  Li  Li4  1  0.105219  0.760380  0.526559  1
  Li  Li5  1  0.239620  0.473441  0.894781  1
  Yb  Yb6  1  0.339152  0.339152  0.339152  1
  Yb  Yb7  1  0.660848  0.660848  0.660848  1
  Re  Re8  1  0.939208  0.939208  0.939208  1
  Re  Re9  1  0.060792  0.060792  0.060792  1
  N  N10  1  0.227839  0.904904  0.598503  1
  N  N11  1  0.598503  0.227839  0.904904  1
  N  N12  1  0.772161  0.095096  0.401497  1
  N  N13  1  0.095096  0.401497  0.772161  1
  N  N14  1  0.401497  0.772161  0.095096  1
  N  N15  1  0.904904  0.598503  0.227839  1
