# generated using pymatgen
data_Pr3Dy3Al24ZnOs7
_symmetry_space_group_name_H-M   'P 1'
_cell_length_a   8.90907060
_cell_length_b   8.89828151
_cell_length_c   9.64817017
_cell_angle_alpha   90.18466803
_cell_angle_beta   89.75680957
_cell_angle_gamma   119.71498315
_symmetry_Int_Tables_number   1
_chemical_formula_structural   Pr3Dy3Al24ZnOs7
_chemical_formula_sum   'Pr3 Dy3 Al24 Zn1 Os7'
_cell_volume   664.27820984
_cell_formula_units_Z   1
loop_
 _symmetry_equiv_pos_site_id
 _symmetry_equiv_pos_as_xyz
  1  'x, y, z'
loop_
 _atom_site_type_symbol
 _atom_site_label
 _atom_site_symmetry_multiplicity
 _atom_site_fract_x
 _atom_site_fract_y
 _atom_site_fract_z
 _atom_site_occupancy
  Pr  Pr0  1  0.190637  0.380765  0.246930  1
  Pr  Pr1  1  0.809699  0.620135  0.753488  1
  Pr  Pr2  1  0.618051  0.809076  0.246644  1
  Dy  Dy3  1  0.386862  0.192058  0.751956  1
  Dy  Dy4  1  0.195134  0.803943  0.254813  1
  Dy  Dy5  1  0.804164  0.194817  0.745309  1
  Al  Al6  1  0.327271  0.672340  0.017275  1
  Al  Al7  1  0.671332  0.328049  0.978877  1
  Al  Al8  1  0.666258  0.332617  0.521269  1
  Al  Al9  1  0.332458  0.666411  0.481941  1
  Al  Al10  1  0.163274  0.326666  0.573525  1
  Al  Al11  1  0.836832  0.671687  0.428534  1
  Al  Al12  1  0.671469  0.836640  0.572638  1
  Al  Al13  1  0.852716  0.677354  0.080719  1
  Al  Al14  1  0.327684  0.162531  0.430481  1
  Al  Al15  1  0.148855  0.321946  0.917787  1
  Al  Al16  1  0.164678  0.837804  0.576155  1
  Al  Al17  1  0.322290  0.148048  0.078359  1
  Al  Al18  1  0.835919  0.164034  0.426034  1
  Al  Al19  1  0.677061  0.852752  0.918302  1
  Al  Al20  1  0.835393  0.164873  0.072814  1
  Al  Al21  1  0.165004  0.837486  0.924528  1
  Al  Al22  1  0.560413  0.121960  0.249147  1
  Al  Al23  1  0.437996  0.879558  0.750125  1
  Al  Al24  1  0.877423  0.438123  0.249599  1
  Al  Al25  1  0.121833  0.561246  0.750571  1
  Al  Al26  1  0.565834  0.432647  0.257062  1
  Al  Al27  1  0.432884  0.563663  0.744704  1
  Al  Al28  1  0.001056  0.998018  0.250686  1
  Al  Al29  1  0.005055  0.004912  0.749261  1
  Zn  Zn30  1  0.499031  0.498975  0.999471  1
  Os  Os31  1  0.499116  0.001240  0.998149  1
  Os  Os32  1  0.999315  0.499620  0.999626  1
  Os  Os33  1  0.499169  0.000549  0.501083  1
  Os  Os34  1  0.999331  0.499566  0.500563  1
  Os  Os35  1  0.499010  0.497985  0.501667  1
  Os  Os36  1  0.999691  0.000005  0.999586  1
  Os  Os37  1  0.999803  0.999900  0.500321  1
