# generated using pymatgen
data_Dy20Pd6(RuRh)3
_symmetry_space_group_name_H-M   'P 1'
_cell_length_a   10.83302835
_cell_length_b   10.83536684
_cell_length_c   6.42493600
_cell_angle_alpha   89.98819223
_cell_angle_beta   90.02862930
_cell_angle_gamma   89.98085860
_symmetry_Int_Tables_number   1
_chemical_formula_structural   Dy20Pd6(RuRh)3
_chemical_formula_sum   'Dy20 Pd6 Ru3 Rh3'
_cell_volume   754.15778257
_cell_formula_units_Z   1
loop_
 _symmetry_equiv_pos_site_id
 _symmetry_equiv_pos_as_xyz
  1  'x, y, z'
loop_
 _atom_site_type_symbol
 _atom_site_label
 _atom_site_symmetry_multiplicity
 _atom_site_fract_x
 _atom_site_fract_y
 _atom_site_fract_z
 _atom_site_occupancy
  Dy  Dy0  1  0.296818  0.086392  0.374988  1
  Dy  Dy1  1  0.296843  0.914114  0.875261  1
  Dy  Dy2  1  0.706965  0.084758  0.877569  1
  Dy  Dy3  1  0.706998  0.914616  0.377371  1
  Dy  Dy4  1  0.589707  0.796705  0.873209  1
  Dy  Dy5  1  0.590478  0.203446  0.372702  1
  Dy  Dy6  1  0.414222  0.796957  0.373571  1
  Dy  Dy7  1  0.414878  0.202827  0.873970  1
  Dy  Dy8  1  0.205282  0.412552  0.629587  1
  Dy  Dy9  1  0.204585  0.587306  0.124169  1
  Dy  Dy10  1  0.795627  0.409152  0.124814  1
  Dy  Dy11  1  0.794841  0.590940  0.629919  1
  Dy  Dy12  1  0.911024  0.706747  0.118272  1
  Dy  Dy13  1  0.911105  0.292819  0.622953  1
  Dy  Dy14  1  0.084396  0.707524  0.629594  1
  Dy  Dy15  1  0.084275  0.293103  0.124753  1
  Dy  Dy16  1  0.995868  0.000751  0.498532  1
  Dy  Dy17  1  0.995825  0.999412  0.998463  1
  Dy  Dy18  1  0.500216  0.499998  0.998866  1
  Dy  Dy19  1  0.500155  0.499992  0.498825  1
  Pd  Pd20  1  0.153689  0.154154  0.749514  1
  Pd  Pd21  1  0.153001  0.845194  0.249597  1
  Pd  Pd22  1  0.654000  0.345975  0.749796  1
  Pd  Pd23  1  0.654730  0.653191  0.250212  1
  Pd  Pd24  1  0.344965  0.346805  0.249546  1
  Pd  Pd25  1  0.345523  0.653887  0.749195  1
  Ru  Ru26  1  0.499060  0.000222  0.126500  1
  Ru  Ru27  1  0.499046  0.999825  0.626084  1
  Ru  Ru28  1  0.000905  0.499563  0.875036  1
  Rh  Rh29  1  0.847409  0.155111  0.249979  1
  Rh  Rh30  1  0.846568  0.845478  0.750241  1
  Rh  Rh31  1  0.000994  0.500478  0.376909  1
