# generated using pymatgen
data_Ce4Al18RuRh5
_symmetry_space_group_name_H-M   'P 1'
_cell_length_a   7.63895105
_cell_length_b   7.63895068
_cell_length_c   9.48686158
_cell_angle_alpha   89.93213693
_cell_angle_beta   89.93213486
_cell_angle_gamma   119.26173863
_symmetry_Int_Tables_number   1
_chemical_formula_structural   Ce4Al18RuRh5
_chemical_formula_sum   'Ce4 Al18 Ru1 Rh5'
_cell_volume   482.95026865
_cell_formula_units_Z   1
loop_
 _symmetry_equiv_pos_site_id
 _symmetry_equiv_pos_as_xyz
  1  'x, y, z'
loop_
 _atom_site_type_symbol
 _atom_site_label
 _atom_site_symmetry_multiplicity
 _atom_site_fract_x
 _atom_site_fract_y
 _atom_site_fract_z
 _atom_site_occupancy
  Ce  Ce0  1  0.995437  0.673056  0.249153  1
  Ce  Ce1  1  0.004563  0.326944  0.750847  1
  Ce  Ce2  1  0.673056  0.995437  0.249153  1
  Ce  Ce3  1  0.326944  0.004563  0.750847  1
  Al  Al4  1  0.002780  0.335403  0.075971  1
  Al  Al5  1  0.997220  0.664597  0.924029  1
  Al  Al6  1  0.997772  0.663683  0.576136  1
  Al  Al7  1  0.336317  0.002228  0.423864  1
  Al  Al8  1  0.002228  0.336317  0.423864  1
  Al  Al9  1  0.663683  0.997772  0.576136  1
  Al  Al10  1  0.664597  0.997220  0.924029  1
  Al  Al11  1  0.335403  0.002780  0.075971  1
  Al  Al12  1  0.334080  0.334080  0.548142  1
  Al  Al13  1  0.665920  0.665920  0.451858  1
  Al  Al14  1  0.667147  0.667147  0.047568  1
  Al  Al15  1  0.332853  0.332853  0.952432  1
  Al  Al16  1  0.130193  0.130193  0.249302  1
  Al  Al17  1  0.869807  0.869807  0.750698  1
  Al  Al18  1  0.342439  0.550027  0.250168  1
  Al  Al19  1  0.657561  0.449973  0.749832  1
  Al  Al20  1  0.550027  0.342439  0.250168  1
  Al  Al21  1  0.449973  0.657561  0.749832  1
  Ru  Ru22  1  0.000000  0.000000  0.000000  1
  Rh  Rh23  1  0.671638  0.328362  0.000000  1
  Rh  Rh24  1  0.328362  0.671638  0.000000  1
  Rh  Rh25  1  0.328358  0.671642  0.500000  1
  Rh  Rh26  1  0.671642  0.328358  0.500000  1
  Rh  Rh27  1  0.000000  0.000000  0.500000  1
