# generated using pymatgen
data_Nd3(SiIr)2
_symmetry_space_group_name_H-M   'P 1'
_cell_length_a   5.80854790
_cell_length_b   5.80854850
_cell_length_c   13.47451000
_cell_angle_alpha   90.00000000
_cell_angle_beta   90.00000000
_cell_angle_gamma   138.03560096
_symmetry_Int_Tables_number   1
_chemical_formula_structural   Nd3(SiIr)2
_chemical_formula_sum   'Nd6 Si4 Ir4'
_cell_volume   303.98992126
_cell_formula_units_Z   2
loop_
 _symmetry_equiv_pos_site_id
 _symmetry_equiv_pos_as_xyz
  1  'x, y, z'
loop_
 _atom_site_type_symbol
 _atom_site_label
 _atom_site_symmetry_multiplicity
 _atom_site_fract_x
 _atom_site_fract_y
 _atom_site_fract_z
 _atom_site_occupancy
  Nd  Nd0  1  0.772560  0.227440  0.603208  1
  Nd  Nd1  1  0.517498  0.482502  0.250000  1
  Nd  Nd2  1  0.227440  0.772560  0.396792  1
  Nd  Nd3  1  0.772560  0.227440  0.896792  1
  Nd  Nd4  1  0.482502  0.517498  0.750000  1
  Nd  Nd5  1  0.227440  0.772560  0.103208  1
  Si  Si6  1  0.060645  0.939355  0.587967  1
  Si  Si7  1  0.060645  0.939355  0.912033  1
  Si  Si8  1  0.939355  0.060645  0.412033  1
  Si  Si9  1  0.939355  0.060645  0.087967  1
  Ir  Ir10  1  0.815729  0.184271  0.250000  1
  Ir  Ir11  1  0.184271  0.815729  0.750000  1
  Ir  Ir12  1  0.500000  0.500000  0.000000  1
  Ir  Ir13  1  0.500000  0.500000  0.500000  1
