# generated using pymatgen
data_ErCu2(PdO2)4
_symmetry_space_group_name_H-M   'P 1'
_cell_length_a   6.78640437
_cell_length_b   6.78640548
_cell_length_c   6.67284100
_cell_angle_alpha   60.55202836
_cell_angle_beta   60.55202304
_cell_angle_gamma   58.89594729
_symmetry_Int_Tables_number   1
_chemical_formula_structural   ErCu2(PdO2)4
_chemical_formula_sum   'Er1 Cu2 Pd4 O8'
_cell_volume   217.18809141
_cell_formula_units_Z   1
loop_
 _symmetry_equiv_pos_site_id
 _symmetry_equiv_pos_as_xyz
  1  'x, y, z'
loop_
 _atom_site_type_symbol
 _atom_site_label
 _atom_site_symmetry_multiplicity
 _atom_site_fract_x
 _atom_site_fract_y
 _atom_site_fract_z
 _atom_site_occupancy
  Er  Er0  1  0.000000  0.000000  0.000000  1
  Cu  Cu1  1  0.500000  0.500000  0.000000  1
  Cu  Cu2  1  0.000000  0.000000  0.500000  1
  Pd  Pd3  1  0.500000  0.000000  0.000000  1
  Pd  Pd4  1  0.500000  0.000000  0.500000  1
  Pd  Pd5  1  0.000000  0.500000  0.000000  1
  Pd  Pd6  1  0.000000  0.500000  0.500000  1
  O  O7  1  0.578123  0.153964  0.133956  1
  O  O8  1  0.133956  0.133956  0.153964  1
  O  O9  1  0.153964  0.578123  0.133956  1
  O  O10  1  0.133956  0.133956  0.578123  1
  O  O11  1  0.846036  0.421877  0.866044  1
  O  O12  1  0.866044  0.866044  0.421877  1
  O  O13  1  0.866044  0.866044  0.846036  1
  O  O14  1  0.421877  0.846036  0.866044  1
