# generated using pymatgen
data_PrTh5PtBr15
_symmetry_space_group_name_H-M   'P 1'
_cell_length_a   10.27672410
_cell_length_b   10.27675334
_cell_length_c   10.27675257
_cell_angle_alpha   109.40795811
_cell_angle_beta   109.50275131
_cell_angle_gamma   109.50275659
_symmetry_Int_Tables_number   1
_chemical_formula_structural   PrTh5PtBr15
_chemical_formula_sum   'Pr1 Th5 Pt1 Br15'
_cell_volume   835.49795623
_cell_formula_units_Z   1
loop_
 _symmetry_equiv_pos_site_id
 _symmetry_equiv_pos_as_xyz
  1  'x, y, z'
loop_
 _atom_site_type_symbol
 _atom_site_label
 _atom_site_symmetry_multiplicity
 _atom_site_fract_x
 _atom_site_fract_y
 _atom_site_fract_z
 _atom_site_occupancy
  Pr  Pr0  1  0.000000  0.246664  0.246664  1
  Th  Th1  1  0.000000  0.754303  0.754303  1
  Th  Th2  1  0.242422  0.002062  0.244483  1
  Th  Th3  1  0.757579  0.002063  0.759641  1
  Th  Th4  1  0.242422  0.244483  0.002062  1
  Th  Th5  1  0.757579  0.759641  0.002063  1
  Pt  Pt6  1  0.000001  0.995644  0.995644  1
  Br  Br7  1  0.495393  0.247416  0.247416  1
  Br  Br8  1  0.504608  0.752023  0.752023  1
  Br  Br9  1  0.000000  0.247415  0.752023  1
  Br  Br10  1  0.000000  0.752023  0.247415  1
  Br  Br11  1  0.252007  0.497386  0.245379  1
  Br  Br12  1  0.747993  0.993372  0.245379  1
  Br  Br13  1  0.752279  0.505198  0.752918  1
  Br  Br14  1  0.247719  0.000639  0.752919  1
  Br  Br15  1  0.252007  0.245379  0.497386  1
  Br  Br16  1  0.752279  0.752918  0.505198  1
  Br  Br17  1  0.747993  0.245379  0.993372  1
  Br  Br18  1  0.247719  0.752919  0.000639  1
  Br  Br19  1  0.000000  0.505578  0.505578  1
  Br  Br20  1  0.499999  0.998748  0.498747  1
  Br  Br21  1  0.499999  0.498747  0.998748  1
