# generated using pymatgen
data_VB3Mo3W
_symmetry_space_group_name_H-M   'P 1'
_cell_length_a   5.82178812
_cell_length_b   5.82178767
_cell_length_c   6.82204711
_cell_angle_alpha   115.26201161
_cell_angle_beta   115.26200568
_cell_angle_gamma   89.99072453
_symmetry_Int_Tables_number   1
_chemical_formula_structural   VB3Mo3W
_chemical_formula_sum   'V2 B6 Mo6 W2'
_cell_volume   184.37090881
_cell_formula_units_Z   2
loop_
 _symmetry_equiv_pos_site_id
 _symmetry_equiv_pos_as_xyz
  1  'x, y, z'
loop_
 _atom_site_type_symbol
 _atom_site_label
 _atom_site_symmetry_multiplicity
 _atom_site_fract_x
 _atom_site_fract_y
 _atom_site_fract_z
 _atom_site_occupancy
  V  V0  1  0.500828  0.500828  0.001657  1
  V  V1  1  0.000828  0.000828  0.001657  1
  B  B2  1  0.251043  0.251043  0.502087  1
  B  B3  1  0.751043  0.751043  0.502087  1
  B  B4  1  0.619086  0.119086  0.999973  1
  B  B5  1  0.380888  0.880888  0.999973  1
  B  B6  1  0.879460  0.619709  0.999169  1
  B  B7  1  0.119709  0.379460  0.999169  1
  Mo  Mo8  1  0.186710  0.026582  0.713293  1
  Mo  Mo9  1  0.526582  0.686710  0.713293  1
  Mo  Mo10  1  0.971459  0.471459  0.283756  1
  Mo  Mo11  1  0.312297  0.812297  0.283756  1
  Mo  Mo12  1  0.813517  0.974290  0.287807  1
  Mo  Mo13  1  0.474290  0.313517  0.287807  1
  W  W14  1  0.026696  0.526696  0.712259  1
  W  W15  1  0.685562  0.185562  0.712259  1
