# generated using pymatgen
data_LiYb4(PRh)6
_symmetry_space_group_name_H-M   'P 1'
_cell_length_a   7.14431448
_cell_length_b   7.14470965
_cell_length_c   7.14392800
_cell_angle_alpha   109.47189358
_cell_angle_beta   109.47500459
_cell_angle_gamma   109.46354373
_symmetry_Int_Tables_number   1
_chemical_formula_structural   LiYb4(PRh)6
_chemical_formula_sum   'Li1 Yb4 P6 Rh6'
_cell_volume   280.72273066
_cell_formula_units_Z   1
loop_
 _symmetry_equiv_pos_site_id
 _symmetry_equiv_pos_as_xyz
  1  'x, y, z'
loop_
 _atom_site_type_symbol
 _atom_site_label
 _atom_site_symmetry_multiplicity
 _atom_site_fract_x
 _atom_site_fract_y
 _atom_site_fract_z
 _atom_site_occupancy
  Li  Li0  1  0.000000  0.000000  0.000000  1
  Yb  Yb1  1  0.500000  0.500000  0.500000  1
  Yb  Yb2  1  0.000000  0.500000  0.000000  1
  Yb  Yb3  1  0.500000  0.000000  0.000000  1
  Yb  Yb4  1  0.000000  0.000000  0.500000  1
  P  P5  1  0.658750  0.999988  0.658731  1
  P  P6  1  0.659130  0.659209  0.000083  1
  P  P7  1  0.340870  0.340791  0.999917  1
  P  P8  1  0.000056  0.659003  0.658913  1
  P  P9  1  0.999944  0.340997  0.341087  1
  P  P10  1  0.341250  0.000012  0.341269  1
  Rh  Rh11  1  0.499599  0.749505  0.249449  1
  Rh  Rh12  1  0.750013  0.250162  0.499999  1
  Rh  Rh13  1  0.249987  0.749838  0.500001  1
  Rh  Rh14  1  0.250246  0.500180  0.750460  1
  Rh  Rh15  1  0.500401  0.250495  0.750551  1
  Rh  Rh16  1  0.749754  0.499820  0.249540  1
