# generated using pymatgen
data_Tb3Ho5Cd3SnAu8
_symmetry_space_group_name_H-M   'P 1'
_cell_length_a   8.02186584
_cell_length_b   8.03077380
_cell_length_c   7.35398809
_cell_angle_alpha   90.04901836
_cell_angle_beta   89.88925248
_cell_angle_gamma   90.11551024
_symmetry_Int_Tables_number   1
_chemical_formula_structural   Tb3Ho5Cd3SnAu8
_chemical_formula_sum   'Tb3 Ho5 Cd3 Sn1 Au8'
_cell_volume   473.75505725
_cell_formula_units_Z   1
loop_
 _symmetry_equiv_pos_site_id
 _symmetry_equiv_pos_as_xyz
  1  'x, y, z'
loop_
 _atom_site_type_symbol
 _atom_site_label
 _atom_site_symmetry_multiplicity
 _atom_site_fract_x
 _atom_site_fract_y
 _atom_site_fract_z
 _atom_site_occupancy
  Tb  Tb0  1  0.845445  0.167298  0.500837  1
  Tb  Tb1  1  0.153665  0.831302  0.500672  1
  Tb  Tb2  1  0.331940  0.345832  0.999087  1
  Ho  Ho3  1  0.667533  0.653642  0.999257  1
  Ho  Ho4  1  0.686286  0.674015  0.499972  1
  Ho  Ho5  1  0.314652  0.326642  0.499963  1
  Ho  Ho6  1  0.173358  0.813870  0.000049  1
  Ho  Ho7  1  0.826564  0.186485  0.000224  1
  Cd  Cd8  1  0.500048  0.000182  0.249599  1
  Cd  Cd9  1  0.999637  0.500246  0.750294  1
  Cd  Cd10  1  0.500195  0.000024  0.750157  1
  Sn  Sn11  1  0.000143  0.500097  0.249978  1
  Au  Au12  1  0.621613  0.365468  0.269323  1
  Au  Au13  1  0.379965  0.635915  0.269043  1
  Au  Au14  1  0.132767  0.124495  0.768361  1
  Au  Au15  1  0.866040  0.874316  0.770938  1
  Au  Au16  1  0.375886  0.633318  0.731905  1
  Au  Au17  1  0.625485  0.368039  0.731971  1
  Au  Au18  1  0.863369  0.878376  0.227875  1
  Au  Au19  1  0.135407  0.120439  0.230495  1
