# generated using pymatgen
data_Tm8Re(B8Ru)3
_symmetry_space_group_name_H-M   'P 1'
_cell_length_a   3.62514100
_cell_length_b   9.07014302
_cell_length_c   11.44658632
_cell_angle_alpha   90.12049887
_cell_angle_beta   90.00000000
_cell_angle_gamma   90.00000000
_symmetry_Int_Tables_number   1
_chemical_formula_structural   Tm8Re(B8Ru)3
_chemical_formula_sum   'Tm8 Re1 B24 Ru3'
_cell_volume   376.36919106
_cell_formula_units_Z   1
loop_
 _symmetry_equiv_pos_site_id
 _symmetry_equiv_pos_as_xyz
  1  'x, y, z'
loop_
 _atom_site_type_symbol
 _atom_site_label
 _atom_site_symmetry_multiplicity
 _atom_site_fract_x
 _atom_site_fract_y
 _atom_site_fract_z
 _atom_site_occupancy
  Tm  Tm0  1  0.000000  0.322362  0.415236  1
  Tm  Tm1  1  0.000000  0.680556  0.587875  1
  Tm  Tm2  1  0.000000  0.822190  0.083317  1
  Tm  Tm3  1  0.000000  0.176685  0.913522  1
  Tm  Tm4  1  0.000000  0.943160  0.371366  1
  Tm  Tm5  1  0.000000  0.056315  0.627589  1
  Tm  Tm6  1  0.000000  0.442788  0.128291  1
  Tm  Tm7  1  0.000000  0.555840  0.872625  1
  Re  Re8  1  0.000000  0.862394  0.821212  1
  B  B9  1  0.500000  0.553884  0.433743  1
  B  B10  1  0.500000  0.446290  0.566479  1
  B  B11  1  0.500000  0.053726  0.067042  1
  B  B12  1  0.500000  0.947324  0.933844  1
  B  B13  1  0.500000  0.749095  0.419836  1
  B  B14  1  0.500000  0.251145  0.579987  1
  B  B15  1  0.500000  0.248988  0.080343  1
  B  B16  1  0.500000  0.750303  0.919828  1
  B  B17  1  0.500000  0.791157  0.265277  1
  B  B18  1  0.500000  0.208612  0.733766  1
  B  B19  1  0.500000  0.291600  0.234799  1
  B  B20  1  0.500000  0.707478  0.765314  1
  B  B21  1  0.500000  0.630960  0.184626  1
  B  B22  1  0.500000  0.368462  0.815032  1
  B  B23  1  0.500000  0.131691  0.315540  1
  B  B24  1  0.500000  0.868863  0.684646  1
  B  B25  1  0.500000  0.982671  0.212432  1
  B  B26  1  0.500000  0.018776  0.787384  1
  B  B27  1  0.500000  0.482504  0.288124  1
  B  B28  1  0.500000  0.517289  0.712457  1
  B  B29  1  0.500000  0.604329  0.029603  1
  B  B30  1  0.500000  0.393665  0.971202  1
  B  B31  1  0.500000  0.106135  0.470257  1
  B  B32  1  0.500000  0.894644  0.528398  1
  Ru  Ru33  1  0.000000  0.637822  0.321006  1
  Ru  Ru34  1  0.000000  0.362271  0.678492  1
  Ru  Ru35  1  0.000000  0.138025  0.179509  1
