# generated using pymatgen
data_Ca3Ac16Si16Hg
_symmetry_space_group_name_H-M   'P 1'
_cell_length_a   8.04016000
_cell_length_b   8.39165177
_cell_length_c   15.97851300
_cell_angle_alpha   90.00000000
_cell_angle_beta   90.00000000
_cell_angle_gamma   89.90402964
_symmetry_Int_Tables_number   1
_chemical_formula_structural   Ca3Ac16Si16Hg
_chemical_formula_sum   'Ca3 Ac16 Si16 Hg1'
_cell_volume   1078.07232155
_cell_formula_units_Z   1
loop_
 _symmetry_equiv_pos_site_id
 _symmetry_equiv_pos_as_xyz
  1  'x, y, z'
loop_
 _atom_site_type_symbol
 _atom_site_label
 _atom_site_symmetry_multiplicity
 _atom_site_fract_x
 _atom_site_fract_y
 _atom_site_fract_z
 _atom_site_occupancy
  Ca  Ca0  1  0.861986  0.484793  0.750000  1
  Ca  Ca1  1  0.139382  0.523525  0.250000  1
  Ca  Ca2  1  0.641701  0.979309  0.250000  1
  Ac  Ac3  1  0.309236  0.186378  0.125449  1
  Ac  Ac4  1  0.811172  0.319461  0.378503  1
  Ac  Ac5  1  0.194766  0.692099  0.872269  1
  Ac  Ac6  1  0.674230  0.825093  0.627484  1
  Ac  Ac7  1  0.309236  0.186378  0.374551  1
  Ac  Ac8  1  0.811172  0.319461  0.121497  1
  Ac  Ac9  1  0.194766  0.692099  0.627731  1
  Ac  Ac10  1  0.674230  0.825093  0.872516  1
  Ac  Ac11  1  0.958826  0.810608  0.400440  1
  Ac  Ac12  1  0.458768  0.687303  0.101083  1
  Ac  Ac13  1  0.540339  0.298700  0.605185  1
  Ac  Ac14  1  0.049965  0.186984  0.895873  1
  Ac  Ac15  1  0.049965  0.186984  0.604127  1
  Ac  Ac16  1  0.540339  0.298700  0.894815  1
  Ac  Ac17  1  0.458768  0.687303  0.398917  1
  Ac  Ac18  1  0.958826  0.810608  0.099560  1
  Si  Si19  1  0.867317  0.526728  0.542430  1
  Si  Si20  1  0.361674  0.972107  0.971535  1
  Si  Si21  1  0.631242  0.020764  0.459436  1
  Si  Si22  1  0.132731  0.477915  0.034438  1
  Si  Si23  1  0.132731  0.477915  0.465562  1
  Si  Si24  1  0.631242  0.020764  0.040564  1
  Si  Si25  1  0.361674  0.972107  0.528465  1
  Si  Si26  1  0.867317  0.526728  0.957570  1
  Si  Si27  1  0.975688  0.910667  0.750000  1
  Si  Si28  1  0.491558  0.559873  0.750000  1
  Si  Si29  1  0.517669  0.418954  0.250000  1
  Si  Si30  1  0.013472  0.080720  0.250000  1
  Si  Si31  1  0.251495  0.382126  0.750000  1
  Si  Si32  1  0.776426  0.130107  0.750000  1
  Si  Si33  1  0.245068  0.880026  0.250000  1
  Si  Si34  1  0.749086  0.620488  0.250000  1
  Hg  Hg35  1  0.355943  0.021138  0.750000  1
