# generated using pymatgen
data_Li2Sc5Se7
_symmetry_space_group_name_H-M   'P 1'
_cell_length_a   6.70557038
_cell_length_b   6.69192290
_cell_length_c   6.68596146
_cell_angle_alpha   99.72123691
_cell_angle_beta   99.36365144
_cell_angle_gamma   99.33444492
_symmetry_Int_Tables_number   1
_chemical_formula_structural   Li2Sc5Se7
_chemical_formula_sum   'Li2 Sc5 Se7'
_cell_volume   286.16910951
_cell_formula_units_Z   1
loop_
 _symmetry_equiv_pos_site_id
 _symmetry_equiv_pos_as_xyz
  1  'x, y, z'
loop_
 _atom_site_type_symbol
 _atom_site_label
 _atom_site_symmetry_multiplicity
 _atom_site_fract_x
 _atom_site_fract_y
 _atom_site_fract_z
 _atom_site_occupancy
  Li  Li0  1  0.959765  0.296189  0.064849  1
  Li  Li1  1  0.083248  0.576518  0.650737  1
  Sc  Sc2  1  0.657747  0.720935  0.923272  1
  Sc  Sc3  1  0.796211  0.000553  0.491783  1
  Sc  Sc4  1  0.370370  0.144014  0.782570  1
  Sc  Sc5  1  0.514567  0.431719  0.354749  1
  Sc  Sc6  1  0.228195  0.866113  0.213653  1
  Se  Se7  1  0.589171  0.077833  0.138708  1
  Se  Se8  1  0.302605  0.506803  0.995391  1
  Se  Se9  1  0.155686  0.222623  0.426202  1
  Se  Se10  1  0.013047  0.933825  0.853080  1
  Se  Se11  1  0.870974  0.643535  0.281685  1
  Se  Se12  1  0.436708  0.786862  0.566338  1
  Se  Se13  1  0.727781  0.359356  0.713413  1
