# generated using pymatgen
data_CaSiPRh2
_symmetry_space_group_name_H-M   'P 1'
_cell_length_a   5.74077521
_cell_length_b   5.74077525
_cell_length_c   5.74077512
_cell_angle_alpha   138.44527191
_cell_angle_beta   138.44527751
_cell_angle_gamma   60.22172767
_symmetry_Int_Tables_number   1
_chemical_formula_structural   CaSiPRh2
_chemical_formula_sum   'Ca1 Si1 P1 Rh2'
_cell_volume   82.38163591
_cell_formula_units_Z   1
loop_
 _symmetry_equiv_pos_site_id
 _symmetry_equiv_pos_as_xyz
  1  'x, y, z'
loop_
 _atom_site_type_symbol
 _atom_site_label
 _atom_site_symmetry_multiplicity
 _atom_site_fract_x
 _atom_site_fract_y
 _atom_site_fract_z
 _atom_site_occupancy
  Ca  Ca0  1  0.001619  0.001619  0.000000  1
  Si  Si1  1  0.378362  0.378362  0.000000  1
  P  P2  1  0.621546  0.621546  0.000000  1
  Rh  Rh3  1  0.749237  0.249237  0.500000  1
  Rh  Rh4  1  0.249237  0.749237  0.500000  1
