# generated using pymatgen
data_TbNd2(ErRh6)3
_symmetry_space_group_name_H-M   'P 1'
_cell_length_a   5.29511500
_cell_length_b   5.29511516
_cell_length_c   17.50635600
_cell_angle_alpha   90.00000000
_cell_angle_beta   90.00000000
_cell_angle_gamma   120.00000526
_symmetry_Int_Tables_number   1
_chemical_formula_structural   TbNd2(ErRh6)3
_chemical_formula_sum   'Tb1 Nd2 Er3 Rh18'
_cell_volume   425.08636094
_cell_formula_units_Z   1
loop_
 _symmetry_equiv_pos_site_id
 _symmetry_equiv_pos_as_xyz
  1  'x, y, z'
loop_
 _atom_site_type_symbol
 _atom_site_label
 _atom_site_symmetry_multiplicity
 _atom_site_fract_x
 _atom_site_fract_y
 _atom_site_fract_z
 _atom_site_occupancy
  Tb  Tb0  1  0.333333  0.666667  0.958603  1
  Nd  Nd1  1  0.333333  0.666667  0.749823  1
  Nd  Nd2  1  0.666667  0.333333  0.250014  1
  Er  Er3  1  0.333333  0.666667  0.541583  1
  Er  Er4  1  0.666667  0.333333  0.041864  1
  Er  Er5  1  0.666667  0.333333  0.458394  1
  Rh  Rh6  1  0.167393  0.334785  0.124971  1
  Rh  Rh7  1  0.832512  0.665025  0.624816  1
  Rh  Rh8  1  0.665215  0.832607  0.124971  1
  Rh  Rh9  1  0.167393  0.832607  0.124971  1
  Rh  Rh10  1  0.832512  0.167488  0.624816  1
  Rh  Rh11  1  0.334975  0.167488  0.624816  1
  Rh  Rh12  1  0.832583  0.665168  0.874837  1
  Rh  Rh13  1  0.832583  0.167417  0.874837  1
  Rh  Rh14  1  0.334832  0.167417  0.874837  1
  Rh  Rh15  1  0.665010  0.832504  0.375223  1
  Rh  Rh16  1  0.167496  0.832504  0.375223  1
  Rh  Rh17  1  0.167496  0.334990  0.375223  1
  Rh  Rh18  1  0.000000  0.000000  0.250165  1
  Rh  Rh19  1  0.000000  0.000000  0.749909  1
  Rh  Rh20  1  0.333333  0.666667  0.250039  1
  Rh  Rh21  1  0.666667  0.333333  0.749935  1
  Rh  Rh22  1  0.000000  0.000000  0.000111  1
  Rh  Rh23  1  0.000000  0.000000  0.500022  1
