# generated using pymatgen
data_Ce3Al2Si2Ge
_symmetry_space_group_name_H-M   'P 1'
_cell_length_a   7.94918955
_cell_length_b   7.94919040
_cell_length_c   7.94918966
_cell_angle_alpha   120.43692300
_cell_angle_beta   120.43692744
_cell_angle_gamma   89.24486643
_symmetry_Int_Tables_number   1
_chemical_formula_structural   Ce3Al2Si2Ge
_chemical_formula_sum   'Ce6 Al4 Si4 Ge2'
_cell_volume   352.80530604
_cell_formula_units_Z   2
loop_
 _symmetry_equiv_pos_site_id
 _symmetry_equiv_pos_as_xyz
  1  'x, y, z'
loop_
 _atom_site_type_symbol
 _atom_site_label
 _atom_site_symmetry_multiplicity
 _atom_site_fract_x
 _atom_site_fract_y
 _atom_site_fract_z
 _atom_site_occupancy
  Ce  Ce0  1  0.358895  0.180226  0.500000  1
  Ce  Ce1  1  0.680226  0.858895  0.500000  1
  Ce  Ce2  1  0.180226  0.680226  0.821331  1
  Ce  Ce3  1  0.858895  0.358895  0.178669  1
  Ce  Ce4  1  0.748134  0.748134  0.000000  1
  Ce  Ce5  1  0.248134  0.248134  0.000000  1
  Al  Al6  1  0.690516  0.459158  0.500000  1
  Al  Al7  1  0.959158  0.190516  0.500000  1
  Al  Al8  1  0.459158  0.959158  0.768642  1
  Al  Al9  1  0.190516  0.690516  0.231358  1
  Si  Si10  1  0.364451  0.562302  0.500000  1
  Si  Si11  1  0.062302  0.864451  0.500000  1
  Si  Si12  1  0.562302  0.062302  0.197852  1
  Si  Si13  1  0.864451  0.364451  0.802148  1
  Ge  Ge14  1  0.995730  0.995730  0.000000  1
  Ge  Ge15  1  0.495730  0.495730  0.000000  1
