# generated using pymatgen
data_Tb5CoRhO12
_symmetry_space_group_name_H-M   'P 1'
_cell_length_a   6.83106650
_cell_length_b   6.83106738
_cell_length_c   7.26072300
_cell_angle_alpha   74.46979510
_cell_angle_beta   74.46979297
_cell_angle_gamma   51.02910101
_symmetry_Int_Tables_number   1
_chemical_formula_structural   Tb5CoRhO12
_chemical_formula_sum   'Tb5 Co1 Rh1 O12'
_cell_volume   251.55386683
_cell_formula_units_Z   1
loop_
 _symmetry_equiv_pos_site_id
 _symmetry_equiv_pos_as_xyz
  1  'x, y, z'
loop_
 _atom_site_type_symbol
 _atom_site_label
 _atom_site_symmetry_multiplicity
 _atom_site_fract_x
 _atom_site_fract_y
 _atom_site_fract_z
 _atom_site_occupancy
  Tb  Tb0  1  0.689091  0.694109  0.666778  1
  Tb  Tb1  1  0.686494  0.705328  0.142216  1
  Tb  Tb2  1  0.999671  0.000329  0.000000  1
  Tb  Tb3  1  0.294672  0.313506  0.857784  1
  Tb  Tb4  1  0.305891  0.310909  0.333222  1
  Co  Co5  1  0.255008  0.744992  0.500000  1
  Rh  Rh6  1  0.764779  0.235221  0.500000  1
  O  O7  1  0.397995  0.909515  0.923901  1
  O  O8  1  0.574878  0.096880  0.581527  1
  O  O9  1  0.903120  0.425122  0.418473  1
  O  O10  1  0.090485  0.602005  0.076099  1
  O  O11  1  0.018453  0.982706  0.324258  1
  O  O12  1  0.494579  0.504770  0.679461  1
  O  O13  1  0.897083  0.405085  0.925329  1
  O  O14  1  0.100424  0.580063  0.579950  1
  O  O15  1  0.419937  0.899576  0.420050  1
  O  O16  1  0.594915  0.102917  0.074671  1
  O  O17  1  0.495230  0.505421  0.320539  1
  O  O18  1  0.017294  0.981547  0.675742  1
