# generated using pymatgen
data_NaSr8Tb11Pb16
_symmetry_space_group_name_H-M   'P 1'
_cell_length_a   8.20905600
_cell_length_b   8.72072911
_cell_length_c   16.38554400
_cell_angle_alpha   90.00000000
_cell_angle_beta   90.00000000
_cell_angle_gamma   89.86898813
_symmetry_Int_Tables_number   1
_chemical_formula_structural   NaSr8Tb11Pb16
_chemical_formula_sum   'Na1 Sr8 Tb11 Pb16'
_cell_volume   1173.02088413
_cell_formula_units_Z   1
loop_
 _symmetry_equiv_pos_site_id
 _symmetry_equiv_pos_as_xyz
  1  'x, y, z'
loop_
 _atom_site_type_symbol
 _atom_site_label
 _atom_site_symmetry_multiplicity
 _atom_site_fract_x
 _atom_site_fract_y
 _atom_site_fract_z
 _atom_site_occupancy
  Na  Na0  1  0.671015  0.008333  0.250000  1
  Sr  Sr1  1  0.497294  0.678610  0.592999  1
  Sr  Sr2  1  0.997354  0.820085  0.907069  1
  Sr  Sr3  1  0.501078  0.313212  0.092546  1
  Sr  Sr4  1  0.996804  0.179495  0.408984  1
  Sr  Sr5  1  0.501078  0.313212  0.407454  1
  Sr  Sr6  1  0.996804  0.179495  0.091016  1
  Sr  Sr7  1  0.497294  0.678610  0.907001  1
  Sr  Sr8  1  0.997354  0.820085  0.592931  1
  Tb  Tb9  1  0.673250  0.160928  0.624203  1
  Tb  Tb10  1  0.171085  0.341147  0.876704  1
  Tb  Tb11  1  0.332316  0.841873  0.123316  1
  Tb  Tb12  1  0.829875  0.667307  0.377753  1
  Tb  Tb13  1  0.332316  0.841873  0.376684  1
  Tb  Tb14  1  0.829875  0.667307  0.122247  1
  Tb  Tb15  1  0.673250  0.160928  0.875797  1
  Tb  Tb16  1  0.171085  0.341147  0.623296  1
  Tb  Tb17  1  0.834210  0.504917  0.750000  1
  Tb  Tb18  1  0.334302  0.995131  0.750000  1
  Tb  Tb19  1  0.168979  0.492889  0.250000  1
  Pb  Pb20  1  0.668944  0.955721  0.460337  1
  Pb  Pb21  1  0.173675  0.541013  0.044490  1
  Pb  Pb22  1  0.328329  0.040152  0.953750  1
  Pb  Pb23  1  0.828462  0.459039  0.544653  1
  Pb  Pb24  1  0.328329  0.040152  0.546250  1
  Pb  Pb25  1  0.828462  0.459039  0.955347  1
  Pb  Pb26  1  0.668944  0.955721  0.039663  1
  Pb  Pb27  1  0.173675  0.541013  0.455510  1
  Pb  Pb28  1  0.473976  0.367697  0.750000  1
  Pb  Pb29  1  0.975972  0.132821  0.750000  1
  Pb  Pb30  1  0.528199  0.627316  0.250000  1
  Pb  Pb31  1  0.030541  0.863824  0.250000  1
  Pb  Pb32  1  0.700110  0.861081  0.750000  1
  Pb  Pb33  1  0.198223  0.639453  0.750000  1
  Pb  Pb34  1  0.285800  0.131352  0.250000  1
  Pb  Pb35  1  0.801737  0.378021  0.250000  1
