# generated using pymatgen
data_Tm2Zr2IrRh
_symmetry_space_group_name_H-M   'P 1'
_cell_length_a   4.57369700
_cell_length_b   7.02480011
_cell_length_c   8.24318342
_cell_angle_alpha   90.12620066
_cell_angle_beta   90.00000000
_cell_angle_gamma   90.00000000
_symmetry_Int_Tables_number   1
_chemical_formula_structural   Tm2Zr2IrRh
_chemical_formula_sum   'Tm4 Zr4 Ir2 Rh2'
_cell_volume   264.84712992
_cell_formula_units_Z   2
loop_
 _symmetry_equiv_pos_site_id
 _symmetry_equiv_pos_as_xyz
  1  'x, y, z'
loop_
 _atom_site_type_symbol
 _atom_site_label
 _atom_site_symmetry_multiplicity
 _atom_site_fract_x
 _atom_site_fract_y
 _atom_site_fract_z
 _atom_site_occupancy
  Tm  Tm0  1  0.250000  0.513617  0.174480  1
  Tm  Tm1  1  0.750000  0.486383  0.825520  1
  Tm  Tm2  1  0.750000  0.980720  0.677289  1
  Tm  Tm3  1  0.250000  0.019280  0.322711  1
  Zr  Zr4  1  0.250000  0.644281  0.576732  1
  Zr  Zr5  1  0.750000  0.355719  0.423268  1
  Zr  Zr6  1  0.750000  0.855144  0.076181  1
  Zr  Zr7  1  0.250000  0.144856  0.923819  1
  Ir  Ir8  1  0.250000  0.764932  0.905960  1
  Ir  Ir9  1  0.750000  0.235068  0.094040  1
  Rh  Rh10  1  0.750000  0.734742  0.409101  1
  Rh  Rh11  1  0.250000  0.265258  0.590899  1
