# generated using pymatgen
data_Ho2Re7Si4Tc
_symmetry_space_group_name_H-M   'P 1'
_cell_length_a   7.39655509
_cell_length_b   7.41873514
_cell_length_c   4.13326800
_cell_angle_alpha   90.00000000
_cell_angle_beta   90.00000000
_cell_angle_gamma   90.01989804
_symmetry_Int_Tables_number   1
_chemical_formula_structural   Ho2Re7Si4Tc
_chemical_formula_sum   'Ho2 Re7 Si4 Tc1'
_cell_volume   226.80514490
_cell_formula_units_Z   1
loop_
 _symmetry_equiv_pos_site_id
 _symmetry_equiv_pos_as_xyz
  1  'x, y, z'
loop_
 _atom_site_type_symbol
 _atom_site_label
 _atom_site_symmetry_multiplicity
 _atom_site_fract_x
 _atom_site_fract_y
 _atom_site_fract_z
 _atom_site_occupancy
  Ho  Ho0  1  0.500145  0.500382  0.000000  1
  Ho  Ho1  1  0.000128  0.000379  0.500000  1
  Re  Re2  1  0.158054  0.594504  0.500000  1
  Re  Re3  1  0.093272  0.340746  0.000000  1
  Re  Re4  1  0.907758  0.656727  0.000000  1
  Re  Re5  1  0.405356  0.842100  0.500000  1
  Re  Re6  1  0.592570  0.158575  0.500000  1
  Re  Re7  1  0.343251  0.093428  0.000000  1
  Re  Re8  1  0.841068  0.406129  0.500000  1
  Si  Si9  1  0.209152  0.792043  0.000000  1
  Si  Si10  1  0.790143  0.207266  0.000000  1
  Si  Si11  1  0.708689  0.710335  0.500000  1
  Si  Si12  1  0.290447  0.291911  0.500000  1
  Tc  Tc13  1  0.659966  0.905473  0.000000  1
