# generated using pymatgen
data_PaCd3Pd8
_symmetry_space_group_name_H-M   'P 1'
_cell_length_a   4.19247272
_cell_length_b   5.76630958
_cell_length_c   17.13119550
_cell_angle_alpha   89.95851837
_cell_angle_beta   90.00303606
_cell_angle_gamma   90.01798380
_symmetry_Int_Tables_number   1
_chemical_formula_structural   PaCd3Pd8
_chemical_formula_sum   'Pa2 Cd6 Pd16'
_cell_volume   414.14815940
_cell_formula_units_Z   2
loop_
 _symmetry_equiv_pos_site_id
 _symmetry_equiv_pos_as_xyz
  1  'x, y, z'
loop_
 _atom_site_type_symbol
 _atom_site_label
 _atom_site_symmetry_multiplicity
 _atom_site_fract_x
 _atom_site_fract_y
 _atom_site_fract_z
 _atom_site_occupancy
  Pa  Pa0  1  0.524615  0.841881  0.206153  1
  Pa  Pa1  1  0.527414  0.236517  0.706132  1
  Cd  Cd2  1  0.524554  0.338173  0.042260  1
  Cd  Cd3  1  0.525902  0.337779  0.370019  1
  Cd  Cd4  1  0.026766  0.040321  0.456139  1
  Cd  Cd5  1  0.527434  0.742264  0.542335  1
  Cd  Cd6  1  0.526043  0.739593  0.870013  1
  Cd  Cd7  1  0.025246  0.039176  0.956064  1
  Pd  Pd8  1  0.524577  0.828780  0.040031  1
  Pd  Pd9  1  0.024297  0.090544  0.123589  1
  Pd  Pd10  1  0.024251  0.596986  0.124392  1
  Pd  Pd11  1  0.524539  0.342429  0.206139  1
  Pd  Pd12  1  0.025207  0.596268  0.287999  1
  Pd  Pd13  1  0.025064  0.089777  0.288536  1
  Pd  Pd14  1  0.525936  0.828371  0.372285  1
  Pd  Pd15  1  0.026723  0.540160  0.456239  1
  Pd  Pd16  1  0.527512  0.251639  0.540247  1
  Pd  Pd17  1  0.027933  0.989432  0.623692  1
  Pd  Pd18  1  0.027787  0.482953  0.624422  1
  Pd  Pd19  1  0.527573  0.735912  0.706169  1
  Pd  Pd20  1  0.026830  0.480809  0.787935  1
  Pd  Pd21  1  0.026838  0.987172  0.788574  1
  Pd  Pd22  1  0.526073  0.248961  0.871983  1
  Pd  Pd23  1  0.025223  0.539068  0.956191  1
