# generated using pymatgen
data_Tb2InGa6Ni2Au
_symmetry_space_group_name_H-M   'P 1'
_cell_length_a   4.19806231
_cell_length_b   6.53656063
_cell_length_c   8.06583569
_cell_angle_alpha   90.05529751
_cell_angle_beta   105.08416498
_cell_angle_gamma   89.99999781
_symmetry_Int_Tables_number   1
_chemical_formula_structural   Tb2InGa6Ni2Au
_chemical_formula_sum   'Tb2 In1 Ga6 Ni2 Au1'
_cell_volume   213.70745039
_cell_formula_units_Z   1
loop_
 _symmetry_equiv_pos_site_id
 _symmetry_equiv_pos_as_xyz
  1  'x, y, z'
loop_
 _atom_site_type_symbol
 _atom_site_label
 _atom_site_symmetry_multiplicity
 _atom_site_fract_x
 _atom_site_fract_y
 _atom_site_fract_z
 _atom_site_occupancy
  Tb  Tb0  1  0.873839  0.755304  0.747678  1
  Tb  Tb1  1  0.126161  0.244696  0.252322  1
  In  In2  1  0.500000  0.000000  0.000000  1
  Ga  Ga3  1  0.070190  0.723900  0.140380  1
  Ga  Ga4  1  0.929810  0.276100  0.859620  1
  Ga  Ga5  1  0.684566  0.548796  0.369132  1
  Ga  Ga6  1  0.315434  0.451204  0.630868  1
  Ga  Ga7  1  0.688675  0.947928  0.377350  1
  Ga  Ga8  1  0.311325  0.052072  0.622650  1
  Ni  Ni9  1  0.221649  0.748008  0.443298  1
  Ni  Ni10  1  0.778351  0.251992  0.556702  1
  Au  Au11  1  0.500000  0.500000  0.000000  1
