# generated using pymatgen
data_Zr2Mn2Si7Ni10
_symmetry_space_group_name_H-M   'P 1'
_cell_length_a   9.11287341
_cell_length_b   9.15438356
_cell_length_c   3.64184400
_cell_angle_alpha   90.00000000
_cell_angle_beta   90.00000000
_cell_angle_gamma   120.37281365
_symmetry_Int_Tables_number   1
_chemical_formula_structural   Zr2Mn2Si7Ni10
_chemical_formula_sum   'Zr2 Mn2 Si7 Ni10'
_cell_volume   262.11543855
_cell_formula_units_Z   1
loop_
 _symmetry_equiv_pos_site_id
 _symmetry_equiv_pos_as_xyz
  1  'x, y, z'
loop_
 _atom_site_type_symbol
 _atom_site_label
 _atom_site_symmetry_multiplicity
 _atom_site_fract_x
 _atom_site_fract_y
 _atom_site_fract_z
 _atom_site_occupancy
  Zr  Zr0  1  0.995773  0.998066  0.000000  1
  Zr  Zr1  1  0.331497  0.667935  0.500000  1
  Mn  Mn2  1  0.880571  0.452597  0.500000  1
  Mn  Mn3  1  0.553116  0.429718  0.500000  1
  Si  Si4  1  0.669766  0.331386  0.000000  1
  Si  Si5  1  0.071073  0.454617  0.000000  1
  Si  Si6  1  0.252583  0.213819  0.500000  1
  Si  Si7  1  0.780129  0.041154  0.500000  1
  Si  Si8  1  0.959219  0.740024  0.500000  1
  Si  Si9  1  0.545734  0.620177  0.000000  1
  Si  Si10  1  0.385838  0.931194  0.000000  1
  Ni  Ni11  1  0.284563  0.389668  0.000000  1
  Ni  Ni12  1  0.105452  0.716183  0.000000  1
  Ni  Ni13  1  0.382094  0.175535  0.000000  1
  Ni  Ni14  1  0.792134  0.616355  0.000000  1
  Ni  Ni15  1  0.825470  0.207065  0.000000  1
  Ni  Ni16  1  0.235520  0.949619  0.500000  1
  Ni  Ni17  1  0.049051  0.285264  0.500000  1
  Ni  Ni18  1  0.717588  0.766167  0.500000  1
  Ni  Ni19  1  0.573320  0.121187  0.500000  1
  Ni  Ni20  1  0.609510  0.892270  0.000000  1
