# generated using pymatgen
data_Pr16InHg3Ru4
_symmetry_space_group_name_H-M   'P 1'
_cell_length_a   9.97108415
_cell_length_b   9.97108398
_cell_length_c   9.96843575
_cell_angle_alpha   59.99121444
_cell_angle_beta   59.99121474
_cell_angle_gamma   59.99999581
_symmetry_Int_Tables_number   1
_chemical_formula_structural   Pr16InHg3Ru4
_chemical_formula_sum   'Pr16 In1 Hg3 Ru4'
_cell_volume   700.71122455
_cell_formula_units_Z   1
loop_
 _symmetry_equiv_pos_site_id
 _symmetry_equiv_pos_as_xyz
  1  'x, y, z'
loop_
 _atom_site_type_symbol
 _atom_site_label
 _atom_site_symmetry_multiplicity
 _atom_site_fract_x
 _atom_site_fract_y
 _atom_site_fract_z
 _atom_site_occupancy
  Pr  Pr0  1  0.060033  0.439292  0.440641  1
  Pr  Pr1  1  0.190582  0.809131  0.191156  1
  Pr  Pr2  1  0.652561  0.652561  0.652530  1
  Pr  Pr3  1  0.439540  0.439540  0.061097  1
  Pr  Pr4  1  0.059823  0.439540  0.061097  1
  Pr  Pr5  1  0.439540  0.059823  0.061097  1
  Pr  Pr6  1  0.060033  0.060033  0.440641  1
  Pr  Pr7  1  0.650707  0.650707  0.047879  1
  Pr  Pr8  1  0.652561  0.042348  0.652530  1
  Pr  Pr9  1  0.191065  0.808126  0.809743  1
  Pr  Pr10  1  0.439292  0.060033  0.440641  1
  Pr  Pr11  1  0.191065  0.191065  0.809743  1
  Pr  Pr12  1  0.042348  0.652561  0.652530  1
  Pr  Pr13  1  0.809131  0.809131  0.191156  1
  Pr  Pr14  1  0.809131  0.190582  0.191156  1
  Pr  Pr15  1  0.808126  0.191065  0.809743  1
  In  In16  1  0.422966  0.422966  0.731104  1
  Hg  Hg17  1  0.415594  0.415594  0.417217  1
  Hg  Hg18  1  0.415594  0.751595  0.417217  1
  Hg  Hg19  1  0.751595  0.415594  0.417217  1
  Ru  Ru20  1  0.861495  0.861495  0.863029  1
  Ru  Ru21  1  0.413981  0.861495  0.863029  1
  Ru  Ru22  1  0.861495  0.413981  0.863029  1
  Ru  Ru23  1  0.861740  0.861740  0.414779  1
