# generated using pymatgen
data_MgIn5Rh2
_symmetry_space_group_name_H-M   'P 1'
_cell_length_a   7.04870900
_cell_length_b   7.18677500
_cell_length_c   7.14917200
_cell_angle_alpha   90.00000000
_cell_angle_beta   90.00000000
_cell_angle_gamma   90.00000000
_symmetry_Int_Tables_number   1
_chemical_formula_structural   MgIn5Rh2
_chemical_formula_sum   'Mg2 In10 Rh4'
_cell_volume   362.15907781
_cell_formula_units_Z   2
loop_
 _symmetry_equiv_pos_site_id
 _symmetry_equiv_pos_as_xyz
  1  'x, y, z'
loop_
 _atom_site_type_symbol
 _atom_site_label
 _atom_site_symmetry_multiplicity
 _atom_site_fract_x
 _atom_site_fract_y
 _atom_site_fract_z
 _atom_site_occupancy
  Mg  Mg0  1  0.000000  0.500000  0.500000  1
  Mg  Mg1  1  0.500000  0.000000  0.000000  1
  In  In2  1  0.500000  0.000000  0.500000  1
  In  In3  1  0.000000  0.500000  0.000000  1
  In  In4  1  0.344408  0.656230  0.240239  1
  In  In5  1  0.655592  0.343770  0.240239  1
  In  In6  1  0.155592  0.156230  0.740239  1
  In  In7  1  0.844408  0.843770  0.740239  1
  In  In8  1  0.655592  0.343770  0.759761  1
  In  In9  1  0.344408  0.656230  0.759761  1
  In  In10  1  0.844408  0.843770  0.259761  1
  In  In11  1  0.155592  0.156230  0.259761  1
  Rh  Rh12  1  0.151180  0.846286  0.500000  1
  Rh  Rh13  1  0.848820  0.153714  0.500000  1
  Rh  Rh14  1  0.348820  0.346286  0.000000  1
  Rh  Rh15  1  0.651180  0.653714  0.000000  1
