# generated using pymatgen
data_La11Y(SiBr3)4
_symmetry_space_group_name_H-M   'P 1'
_cell_length_a   10.63978241
_cell_length_b   10.61578597
_cell_length_c   10.63978257
_cell_angle_alpha   109.57888642
_cell_angle_beta   109.50130704
_cell_angle_gamma   109.57888458
_symmetry_Int_Tables_number   1
_chemical_formula_structural   La11Y(SiBr3)4
_chemical_formula_sum   'La11 Y1 Si4 Br12'
_cell_volume   922.30206746
_cell_formula_units_Z   1
loop_
 _symmetry_equiv_pos_site_id
 _symmetry_equiv_pos_as_xyz
  1  'x, y, z'
loop_
 _atom_site_type_symbol
 _atom_site_label
 _atom_site_symmetry_multiplicity
 _atom_site_fract_x
 _atom_site_fract_y
 _atom_site_fract_z
 _atom_site_occupancy
  La  La0  1  0.749360  0.238200  0.258837  1
  La  La1  1  0.241163  0.261800  0.750640  1
  La  La2  1  0.479630  0.489858  0.239448  1
  La  La3  1  0.260552  0.010142  0.020370  1
  La  La4  1  0.241013  0.480207  0.489834  1
  La  La5  1  0.010166  0.019793  0.258987  1
  La  La6  1  0.011320  0.490359  0.750017  1
  La  La7  1  0.490413  0.238432  0.477872  1
  La  La8  1  0.749983  0.009641  0.488680  1
  La  La9  1  0.022128  0.261568  0.009587  1
  La  La10  1  0.260499  0.750000  0.239501  1
  Y  Y11  1  0.483306  0.750000  0.016694  1
  Si  Si12  1  0.250325  0.250000  0.249675  1
  Si  Si13  1  0.000502  0.250000  0.499498  1
  Si  Si14  1  0.253021  0.503000  0.000112  1
  Si  Si15  1  0.499888  0.997000  0.246979  1
  Br  Br16  1  0.995842  0.990875  0.744853  1
  Br  Br17  1  0.743738  0.744701  0.237028  1
  Br  Br18  1  0.991257  0.744789  0.994777  1
  Br  Br19  1  0.249971  0.995330  0.504108  1
  Br  Br20  1  0.737464  0.985859  0.991652  1
  Br  Br21  1  0.505015  0.250000  0.994985  1
  Br  Br22  1  0.745861  0.250000  0.754139  1
  Br  Br23  1  0.505223  0.755211  0.508743  1
  Br  Br24  1  0.755147  0.509125  0.504158  1
  Br  Br25  1  0.262972  0.755299  0.756262  1
  Br  Br26  1  0.508348  0.514141  0.762536  1
  Br  Br27  1  0.995892  0.504670  0.250029  1
