# generated using pymatgen
data_Ho7Tm3OsRu3
_symmetry_space_group_name_H-M   'P 1'
_cell_length_a   6.29190935
_cell_length_b   7.28671987
_cell_length_c   8.38821799
_cell_angle_alpha   96.80511355
_cell_angle_beta   112.07588672
_cell_angle_gamma   89.99285547
_symmetry_Int_Tables_number   1
_chemical_formula_structural   Ho7Tm3OsRu3
_chemical_formula_sum   'Ho7 Tm3 Os1 Ru3'
_cell_volume   353.46011671
_cell_formula_units_Z   1
loop_
 _symmetry_equiv_pos_site_id
 _symmetry_equiv_pos_as_xyz
  1  'x, y, z'
loop_
 _atom_site_type_symbol
 _atom_site_label
 _atom_site_symmetry_multiplicity
 _atom_site_fract_x
 _atom_site_fract_y
 _atom_site_fract_z
 _atom_site_occupancy
  Ho  Ho0  1  0.791583  0.082906  0.813768  1
  Ho  Ho1  1  0.975783  0.415844  0.183407  1
  Ho  Ho2  1  0.207919  0.915520  0.185960  1
  Ho  Ho3  1  0.024178  0.584269  0.814405  1
  Ho  Ho4  1  0.206620  0.184673  0.565848  1
  Ho  Ho5  1  0.639909  0.316789  0.436190  1
  Ho  Ho6  1  0.794517  0.815617  0.434501  1
  Tm  Tm7  1  0.359151  0.683754  0.564925  1
  Tm  Tm8  1  0.419922  0.249879  0.999372  1
  Tm  Tm9  1  0.580319  0.750289  0.999697  1
  Os  Os10  1  0.602265  0.424114  0.781577  1
  Ru  Ru11  1  0.823015  0.076660  0.220223  1
  Ru  Ru12  1  0.396961  0.576746  0.219953  1
  Ru  Ru13  1  0.177859  0.922939  0.780174  1
