# generated using pymatgen
data_Al2V3GaCo6
_symmetry_space_group_name_H-M   'P 1'
_cell_length_a   4.06961901
_cell_length_b   5.75664600
_cell_length_c   12.21449304
_cell_angle_alpha   90.00000000
_cell_angle_beta   90.00959491
_cell_angle_gamma   90.00000000
_symmetry_Int_Tables_number   1
_chemical_formula_structural   Al2V3GaCo6
_chemical_formula_sum   'Al4 V6 Ga2 Co12'
_cell_volume   286.15327311
_cell_formula_units_Z   2
loop_
 _symmetry_equiv_pos_site_id
 _symmetry_equiv_pos_as_xyz
  1  'x, y, z'
loop_
 _atom_site_type_symbol
 _atom_site_label
 _atom_site_symmetry_multiplicity
 _atom_site_fract_x
 _atom_site_fract_y
 _atom_site_fract_z
 _atom_site_occupancy
  Al  Al0  1  0.000259  0.500001  0.333524  1
  Al  Al1  1  0.500007  0.000000  0.500075  1
  Al  Al2  1  0.999668  0.500001  0.666612  1
  Al  Al3  1  0.499805  0.000000  0.833001  1
  V  V4  1  0.000019  0.000000  0.000301  1
  V  V5  1  0.500225  0.500001  0.166397  1
  V  V6  1  0.000200  0.000000  0.332863  1
  V  V7  1  0.499995  0.500001  0.499872  1
  V  V8  1  0.999776  0.000000  0.666866  1
  V  V9  1  0.499713  0.500001  0.833826  1
  Ga  Ga10  1  0.000022  0.500001  0.999904  1
  Ga  Ga11  1  0.500303  0.000000  0.166831  1
  Co  Co12  1  0.500023  0.248913  0.999162  1
  Co  Co13  1  0.500023  0.751087  0.999162  1
  Co  Co14  1  0.000299  0.251253  0.167566  1
  Co  Co15  1  0.000299  0.748748  0.167566  1
  Co  Co16  1  0.500284  0.251393  0.334006  1
  Co  Co17  1  0.500284  0.748607  0.334006  1
  Co  Co18  1  0.000003  0.249644  0.499909  1
  Co  Co19  1  0.000003  0.750358  0.499909  1
  Co  Co20  1  0.499643  0.250346  0.666745  1
  Co  Co21  1  0.499643  0.749654  0.666745  1
  Co  Co22  1  0.999751  0.248552  0.832574  1
  Co  Co23  1  0.999751  0.751449  0.832574  1
