# generated using pymatgen
data_Yb4InSi3Ag4
_symmetry_space_group_name_H-M   'P 1'
_cell_length_a   5.73565609
_cell_length_b   5.73565724
_cell_length_c   10.78076356
_cell_angle_alpha   83.72730359
_cell_angle_beta   83.72730259
_cell_angle_gamma   47.01898977
_symmetry_Int_Tables_number   1
_chemical_formula_structural   Yb4InSi3Ag4
_chemical_formula_sum   'Yb4 In1 Si3 Ag4'
_cell_volume   257.61582758
_cell_formula_units_Z   1
loop_
 _symmetry_equiv_pos_site_id
 _symmetry_equiv_pos_as_xyz
  1  'x, y, z'
loop_
 _atom_site_type_symbol
 _atom_site_label
 _atom_site_symmetry_multiplicity
 _atom_site_fract_x
 _atom_site_fract_y
 _atom_site_fract_z
 _atom_site_occupancy
  Yb  Yb0  1  0.682028  0.682028  0.676444  1
  Yb  Yb1  1  0.189795  0.189795  0.196953  1
  Yb  Yb2  1  0.396647  0.396647  0.895139  1
  Yb  Yb3  1  0.896363  0.896363  0.397425  1
  In  In4  1  0.677959  0.677959  0.989831  1
  Si  Si5  1  0.170546  0.170546  0.491616  1
  Si  Si6  1  0.987380  0.987380  0.663855  1
  Si  Si7  1  0.485538  0.485538  0.193217  1
  Ag  Ag8  1  0.384719  0.384719  0.605154  1
  Ag  Ag9  1  0.906802  0.906802  0.110096  1
  Ag  Ag10  1  0.097517  0.097517  0.867956  1
  Ag  Ag11  1  0.605905  0.605905  0.393511  1
