# generated using pymatgen
data_Nd16Ho4(Ir3Rh)3
_symmetry_space_group_name_H-M   'P 1'
_cell_length_a   11.14859500
_cell_length_b   11.14859500
_cell_length_c   6.56540700
_cell_angle_alpha   90.00000000
_cell_angle_beta   90.00000000
_cell_angle_gamma   90.00000000
_symmetry_Int_Tables_number   1
_chemical_formula_structural   Nd16Ho4(Ir3Rh)3
_chemical_formula_sum   'Nd16 Ho4 Ir9 Rh3'
_cell_volume   816.02212067
_cell_formula_units_Z   1
loop_
 _symmetry_equiv_pos_site_id
 _symmetry_equiv_pos_as_xyz
  1  'x, y, z'
loop_
 _atom_site_type_symbol
 _atom_site_label
 _atom_site_symmetry_multiplicity
 _atom_site_fract_x
 _atom_site_fract_y
 _atom_site_fract_z
 _atom_site_occupancy
  Nd  Nd0  1  0.288224  0.088171  0.381655  1
  Nd  Nd1  1  0.288172  0.911610  0.881866  1
  Nd  Nd2  1  0.711828  0.088390  0.881866  1
  Nd  Nd3  1  0.711776  0.911829  0.381655  1
  Nd  Nd4  1  0.588390  0.788172  0.881866  1
  Nd  Nd5  1  0.588171  0.211776  0.381655  1
  Nd  Nd6  1  0.411829  0.788224  0.381655  1
  Nd  Nd7  1  0.411610  0.211828  0.881866  1
  Nd  Nd8  1  0.210921  0.411964  0.617271  1
  Nd  Nd9  1  0.211232  0.588233  0.120066  1
  Nd  Nd10  1  0.788768  0.411767  0.120066  1
  Nd  Nd11  1  0.789079  0.588036  0.617271  1
  Nd  Nd12  1  0.911767  0.711232  0.120066  1
  Nd  Nd13  1  0.911964  0.289079  0.617271  1
  Nd  Nd14  1  0.088036  0.710921  0.617271  1
  Nd  Nd15  1  0.088233  0.288768  0.120066  1
  Ho  Ho16  1  0.000000  0.000000  0.499985  1
  Ho  Ho17  1  0.000000  0.000000  0.000001  1
  Ho  Ho18  1  0.500000  0.500000  0.000001  1
  Ho  Ho19  1  0.500000  0.500000  0.499985  1
  Ir  Ir20  1  0.850157  0.148731  0.249548  1
  Ir  Ir21  1  0.850362  0.851030  0.749419  1
  Ir  Ir22  1  0.149638  0.148970  0.749419  1
  Ir  Ir23  1  0.149843  0.851269  0.249548  1
  Ir  Ir24  1  0.648970  0.350362  0.749419  1
  Ir  Ir25  1  0.648731  0.649843  0.249548  1
  Ir  Ir26  1  0.351269  0.350157  0.249548  1
  Ir  Ir27  1  0.351030  0.649638  0.749419  1
  Ir  Ir28  1  0.000000  0.500000  0.380565  1
  Rh  Rh29  1  0.500000  0.000000  0.119267  1
  Rh  Rh30  1  0.500000  0.000000  0.619172  1
  Rh  Rh31  1  0.000000  0.500000  0.881724  1
