# generated using pymatgen
data_YHo4Tl3InPt2
_symmetry_space_group_name_H-M   'P 1'
_cell_length_a   3.60955700
_cell_length_b   8.25847057
_cell_length_c   18.36007717
_cell_angle_alpha   89.73646182
_cell_angle_beta   90.00000000
_cell_angle_gamma   90.00000000
_symmetry_Int_Tables_number   1
_chemical_formula_structural   YHo4Tl3InPt2
_chemical_formula_sum   'Y2 Ho8 Tl6 In2 Pt4'
_cell_volume   547.29746645
_cell_formula_units_Z   2
loop_
 _symmetry_equiv_pos_site_id
 _symmetry_equiv_pos_as_xyz
  1  'x, y, z'
loop_
 _atom_site_type_symbol
 _atom_site_label
 _atom_site_symmetry_multiplicity
 _atom_site_fract_x
 _atom_site_fract_y
 _atom_site_fract_z
 _atom_site_occupancy
  Y  Y0  1  0.000000  0.000000  0.000000  1
  Y  Y1  1  0.000000  0.500000  0.500000  1
  Ho  Ho2  1  0.000000  0.115511  0.414416  1
  Ho  Ho3  1  0.000000  0.884489  0.585584  1
  Ho  Ho4  1  0.000000  0.385046  0.912179  1
  Ho  Ho5  1  0.000000  0.614954  0.087821  1
  Ho  Ho6  1  0.000000  0.242622  0.221047  1
  Ho  Ho7  1  0.000000  0.757378  0.778953  1
  Ho  Ho8  1  0.000000  0.256589  0.719608  1
  Ho  Ho9  1  0.000000  0.743411  0.280392  1
  Tl  Tl10  1  0.500000  0.422689  0.353232  1
  Tl  Tl11  1  0.500000  0.577311  0.646768  1
  Tl  Tl12  1  0.500000  0.079065  0.852123  1
  Tl  Tl13  1  0.500000  0.920935  0.147877  1
  Tl  Tl14  1  0.500000  0.293551  0.065263  1
  Tl  Tl15  1  0.500000  0.706449  0.934737  1
  In  In16  1  0.500000  0.205193  0.566353  1
  In  In17  1  0.500000  0.794807  0.433647  1
  Pt  Pt18  1  0.500000  0.023372  0.304939  1
  Pt  Pt19  1  0.500000  0.976628  0.695061  1
  Pt  Pt20  1  0.500000  0.473639  0.802399  1
  Pt  Pt21  1  0.500000  0.526361  0.197601  1
