# generated using pymatgen
data_HfSc3Co16(P3W)4
_symmetry_space_group_name_H-M   'P 1'
_cell_length_a   3.65185800
_cell_length_b   10.28754167
_cell_length_c   11.76943693
_cell_angle_alpha   89.88062740
_cell_angle_beta   90.00000000
_cell_angle_gamma   90.00000000
_symmetry_Int_Tables_number   1
_chemical_formula_structural   HfSc3Co16(P3W)4
_chemical_formula_sum   'Hf1 Sc3 Co16 P12 W4'
_cell_volume   442.16079525
_cell_formula_units_Z   1
loop_
 _symmetry_equiv_pos_site_id
 _symmetry_equiv_pos_as_xyz
  1  'x, y, z'
loop_
 _atom_site_type_symbol
 _atom_site_label
 _atom_site_symmetry_multiplicity
 _atom_site_fract_x
 _atom_site_fract_y
 _atom_site_fract_z
 _atom_site_occupancy
  Hf  Hf0  1  0.250000  0.582468  0.705386  1
  Sc  Sc1  1  0.250000  0.917234  0.205093  1
  Sc  Sc2  1  0.750000  0.417469  0.294529  1
  Sc  Sc3  1  0.750000  0.083064  0.794766  1
  Co  Co4  1  0.250000  0.408121  0.487203  1
  Co  Co5  1  0.250000  0.093339  0.986230  1
  Co  Co6  1  0.750000  0.593880  0.516388  1
  Co  Co7  1  0.750000  0.906462  0.013451  1
  Co  Co8  1  0.250000  0.222778  0.177920  1
  Co  Co9  1  0.250000  0.276903  0.678142  1
  Co  Co10  1  0.750000  0.775169  0.821103  1
  Co  Co11  1  0.750000  0.722666  0.322763  1
  Co  Co12  1  0.250000  0.886717  0.702413  1
  Co  Co13  1  0.250000  0.613322  0.202134  1
  Co  Co14  1  0.750000  0.112149  0.297934  1
  Co  Co15  1  0.750000  0.388344  0.796393  1
  Co  Co16  1  0.250000  0.465399  0.929972  1
  Co  Co17  1  0.250000  0.034917  0.432248  1
  Co  Co18  1  0.750000  0.534934  0.068773  1
  Co  Co19  1  0.750000  0.964737  0.568054  1
  P  P20  1  0.250000  0.421557  0.117750  1
  P  P21  1  0.250000  0.078926  0.618143  1
  P  P22  1  0.750000  0.578056  0.882839  1
  P  P23  1  0.750000  0.920896  0.381700  1
  P  P24  1  0.250000  0.263627  0.863614  1
  P  P25  1  0.250000  0.236454  0.363413  1
  P  P26  1  0.750000  0.735688  0.136779  1
  P  P27  1  0.750000  0.764649  0.636601  1
  P  P28  1  0.250000  0.591759  0.388146  1
  P  P29  1  0.250000  0.909086  0.889108  1
  P  P30  1  0.750000  0.407596  0.610759  1
  P  P31  1  0.750000  0.091520  0.111076  1
  W  W32  1  0.250000  0.710863  0.988180  1
  W  W33  1  0.250000  0.788718  0.487902  1
  W  W34  1  0.750000  0.289717  0.011476  1
  W  W35  1  0.750000  0.210816  0.511612  1
