# generated using pymatgen
data_Ho10Si16Hg
_symmetry_space_group_name_H-M   'P 1'
_cell_length_a   11.10060955
_cell_length_b   11.08498797
_cell_length_c   11.10060915
_cell_angle_alpha   144.79076295
_cell_angle_beta   136.36549425
_cell_angle_gamma   57.28782641
_symmetry_Int_Tables_number   1
_chemical_formula_structural   Ho10Si16Hg
_chemical_formula_sum   'Ho10 Si16 Hg1'
_cell_volume   538.98053931
_cell_formula_units_Z   1
loop_
 _symmetry_equiv_pos_site_id
 _symmetry_equiv_pos_as_xyz
  1  'x, y, z'
loop_
 _atom_site_type_symbol
 _atom_site_label
 _atom_site_symmetry_multiplicity
 _atom_site_fract_x
 _atom_site_fract_y
 _atom_site_fract_z
 _atom_site_occupancy
  Ho  Ho0  1  0.055140  0.568219  0.027182  1
  Ho  Ho1  1  0.353619  0.369578  0.520777  1
  Ho  Ho2  1  0.156939  0.165347  0.522993  1
  Ho  Ho3  1  0.449772  0.962932  0.013511  1
  Ho  Ho4  1  0.642355  0.165347  0.008410  1
  Ho  Ho5  1  0.949420  0.962932  0.513159  1
  Ho  Ho6  1  0.848801  0.369578  0.015960  1
  Ho  Ho7  1  0.541037  0.568219  0.513079  1
  Ho  Ho8  1  0.255408  0.765384  0.014129  1
  Ho  Ho9  1  0.751255  0.765384  0.509976  1
  Si  Si10  1  0.117894  0.080426  0.962532  1
  Si  Si11  1  0.797159  0.154813  0.357654  1
  Si  Si12  1  0.300511  0.900183  0.599672  1
  Si  Si13  1  0.399784  0.501047  0.101263  1
  Si  Si14  1  0.874291  0.860828  0.986537  1
  Si  Si15  1  0.105125  0.713134  0.608009  1
  Si  Si16  1  0.199442  0.582886  0.383443  1
  Si  Si17  1  0.700593  0.295354  0.594762  1
  Si  Si18  1  0.004347  0.430043  0.425696  1
  Si  Si19  1  0.715350  0.669768  0.954418  1
  Si  Si20  1  0.601606  0.703202  0.101595  1
  Si  Si21  1  0.997678  0.075871  0.078193  1
  Si  Si22  1  0.501148  0.393602  0.892454  1
  Si  Si23  1  0.284964  0.242212  0.957248  1
  Si  Si24  1  0.584874  0.042812  0.457937  1
  Si  Si25  1  0.416143  0.871667  0.455525  1
  Hg  Hg26  1  0.895345  0.508148  0.612803  1
