# generated using pymatgen
data_Sr6Fe2(WO6)3
_symmetry_space_group_name_H-M   'P 1'
_cell_length_a   5.65742365
_cell_length_b   5.65742241
_cell_length_c   14.25726800
_cell_angle_alpha   90.00000000
_cell_angle_beta   78.55630853
_cell_angle_gamma   120.00002149
_symmetry_Int_Tables_number   1
_chemical_formula_structural   Sr6Fe2(WO6)3
_chemical_formula_sum   'Sr6 Fe2 W3 O18'
_cell_volume   384.67767562
_cell_formula_units_Z   1
loop_
 _symmetry_equiv_pos_site_id
 _symmetry_equiv_pos_as_xyz
  1  'x, y, z'
loop_
 _atom_site_type_symbol
 _atom_site_label
 _atom_site_symmetry_multiplicity
 _atom_site_fract_x
 _atom_site_fract_y
 _atom_site_fract_z
 _atom_site_occupancy
  Sr  Sr0  1  0.273290  0.636645  0.090027  1
  Sr  Sr1  1  0.825965  0.912979  0.261089  1
  Sr  Sr2  1  0.371481  0.185741  0.442783  1
  Sr  Sr3  1  0.628514  0.814257  0.557219  1
  Sr  Sr4  1  0.174040  0.087018  0.738909  1
  Sr  Sr5  1  0.726716  0.363359  0.909970  1
  Fe  Fe6  1  0.551603  0.275801  0.172568  1
  Fe  Fe7  1  0.448393  0.724197  0.827435  1
  W  W8  1  0.999999  0.000000  0.000001  1
  W  W9  1  0.106274  0.553137  0.340591  1
  W  W10  1  0.893726  0.446862  0.659411  1
  O  O11  1  0.273251  0.136626  0.080284  1
  O  O12  1  0.783008  0.136611  0.080256  1
  O  O13  1  0.783008  0.646400  0.080257  1
  O  O14  1  0.330005  0.423026  0.246865  1
  O  O15  1  0.846149  0.423076  0.246850  1
  O  O16  1  0.330006  0.906980  0.246865  1
  O  O17  1  0.895335  0.199457  0.408762  1
  O  O18  1  0.895338  0.695879  0.408762  1
  O  O19  1  0.391815  0.695906  0.408747  1
  O  O20  1  0.104662  0.304122  0.591238  1
  O  O21  1  0.608186  0.304092  0.591252  1
  O  O22  1  0.104664  0.800540  0.591237  1
  O  O23  1  0.669991  0.093019  0.753136  1
  O  O24  1  0.153853  0.576925  0.753150  1
  O  O25  1  0.669994  0.576974  0.753135  1
  O  O26  1  0.216992  0.353602  0.919743  1
  O  O27  1  0.216991  0.863390  0.919743  1
  O  O28  1  0.726747  0.863374  0.919716  1
