# generated using pymatgen
data_CaLa6RhBr12
_symmetry_space_group_name_H-M   'P 1'
_cell_length_a   9.58271816
_cell_length_b   9.82161357
_cell_length_c   9.80193363
_cell_angle_alpha   107.69306767
_cell_angle_beta   106.97873918
_cell_angle_gamma   106.64233465
_symmetry_Int_Tables_number   1
_chemical_formula_structural   CaLa6RhBr12
_chemical_formula_sum   'Ca1 La6 Rh1 Br12'
_cell_volume   766.03958400
_cell_formula_units_Z   1
loop_
 _symmetry_equiv_pos_site_id
 _symmetry_equiv_pos_as_xyz
  1  'x, y, z'
loop_
 _atom_site_type_symbol
 _atom_site_label
 _atom_site_symmetry_multiplicity
 _atom_site_fract_x
 _atom_site_fract_y
 _atom_site_fract_z
 _atom_site_occupancy
  Ca  Ca0  1  0.500000  0.500000  0.500000  1
  La  La1  1  0.306975  0.104346  0.025245  1
  La  La2  1  0.023862  0.323082  0.112496  1
  La  La3  1  0.113470  0.028075  0.323326  1
  La  La4  1  0.886529  0.971925  0.676674  1
  La  La5  1  0.976138  0.676918  0.887503  1
  La  La6  1  0.693025  0.895654  0.974754  1
  Rh  Rh7  1  0.000000  0.000000  0.000000  1
  Br  Br8  1  0.678632  0.215625  0.069513  1
  Br  Br9  1  0.379865  0.457004  0.173140  1
  Br  Br10  1  0.071050  0.685467  0.215968  1
  Br  Br11  1  0.781309  0.928530  0.316009  1
  Br  Br12  1  0.463617  0.175480  0.381192  1
  Br  Br13  1  0.166881  0.378386  0.458828  1
  Br  Br14  1  0.833120  0.621614  0.541173  1
  Br  Br15  1  0.536383  0.824521  0.618808  1
  Br  Br16  1  0.218690  0.071470  0.683991  1
  Br  Br17  1  0.928950  0.314533  0.784031  1
  Br  Br18  1  0.620136  0.542997  0.826860  1
  Br  Br19  1  0.321368  0.784374  0.930487  1
