# generated using pymatgen
data_YEr3Ga4NiRu3
_symmetry_space_group_name_H-M   'P 1'
_cell_length_a   4.45783400
_cell_length_b   7.06285416
_cell_length_c   7.14751203
_cell_angle_alpha   89.26404276
_cell_angle_beta   90.00000000
_cell_angle_gamma   90.00000000
_symmetry_Int_Tables_number   1
_chemical_formula_structural   YEr3Ga4NiRu3
_chemical_formula_sum   'Y1 Er3 Ga4 Ni1 Ru3'
_cell_volume   225.02107633
_cell_formula_units_Z   1
loop_
 _symmetry_equiv_pos_site_id
 _symmetry_equiv_pos_as_xyz
  1  'x, y, z'
loop_
 _atom_site_type_symbol
 _atom_site_label
 _atom_site_symmetry_multiplicity
 _atom_site_fract_x
 _atom_site_fract_y
 _atom_site_fract_z
 _atom_site_occupancy
  Y  Y0  1  0.250000  0.518162  0.692375  1
  Er  Er1  1  0.250000  0.018904  0.802637  1
  Er  Er2  1  0.750000  0.984710  0.200292  1
  Er  Er3  1  0.750000  0.483783  0.301482  1
  Ga  Ga4  1  0.250000  0.200393  0.400215  1
  Ga  Ga5  1  0.250000  0.693919  0.102339  1
  Ga  Ga6  1  0.750000  0.794947  0.603882  1
  Ga  Ga7  1  0.750000  0.308665  0.894238  1
  Ni  Ni8  1  0.750000  0.666165  0.936131  1
  Ru  Ru9  1  0.250000  0.839803  0.432373  1
  Ru  Ru10  1  0.250000  0.332193  0.066040  1
  Ru  Ru11  1  0.750000  0.158356  0.567996  1
