# generated using pymatgen
data_TmZnGa3Ni
_symmetry_space_group_name_H-M   'P 1'
_cell_length_a   7.85004369
_cell_length_b   7.85004544
_cell_length_c   6.49472600
_cell_angle_alpha   90.00000000
_cell_angle_beta   90.00000000
_cell_angle_gamma   149.91221897
_symmetry_Int_Tables_number   1
_chemical_formula_structural   TmZnGa3Ni
_chemical_formula_sum   'Tm2 Zn2 Ga6 Ni2'
_cell_volume   200.64368707
_cell_formula_units_Z   2
loop_
 _symmetry_equiv_pos_site_id
 _symmetry_equiv_pos_as_xyz
  1  'x, y, z'
loop_
 _atom_site_type_symbol
 _atom_site_label
 _atom_site_symmetry_multiplicity
 _atom_site_fract_x
 _atom_site_fract_y
 _atom_site_fract_z
 _atom_site_occupancy
  Tm  Tm0  1  0.874489  0.125511  0.750000  1
  Tm  Tm1  1  0.125511  0.874489  0.250000  1
  Zn  Zn2  1  0.500000  0.500000  0.000000  1
  Zn  Zn3  1  0.500000  0.500000  0.500000  1
  Ga  Ga4  1  0.066793  0.933207  0.750000  1
  Ga  Ga5  1  0.933207  0.066793  0.250000  1
  Ga  Ga6  1  0.682091  0.317909  0.949703  1
  Ga  Ga7  1  0.317909  0.682091  0.050297  1
  Ga  Ga8  1  0.682091  0.317909  0.550297  1
  Ga  Ga9  1  0.317909  0.682091  0.449703  1
  Ni  Ni10  1  0.222973  0.777027  0.750000  1
  Ni  Ni11  1  0.777027  0.222973  0.250000  1
