# generated using pymatgen
data_GdEr4(SiSb)2
_symmetry_space_group_name_H-M   'P 1'
_cell_length_a   8.44937436
_cell_length_b   8.47876239
_cell_length_c   7.79945500
_cell_angle_alpha   89.91499657
_cell_angle_beta   89.82073540
_cell_angle_gamma   125.31710947
_symmetry_Int_Tables_number   1
_chemical_formula_structural   GdEr4(SiSb)2
_chemical_formula_sum   'Gd2 Er8 Si4 Sb4'
_cell_volume   455.91842217
_cell_formula_units_Z   2
loop_
 _symmetry_equiv_pos_site_id
 _symmetry_equiv_pos_as_xyz
  1  'x, y, z'
loop_
 _atom_site_type_symbol
 _atom_site_label
 _atom_site_symmetry_multiplicity
 _atom_site_fract_x
 _atom_site_fract_y
 _atom_site_fract_z
 _atom_site_occupancy
  Gd  Gd0  1  0.700205  0.956625  0.670287  1
  Gd  Gd1  1  0.299795  0.043375  0.329713  1
  Er  Er2  1  0.041947  0.292971  0.332310  1
  Er  Er3  1  0.958053  0.707029  0.667690  1
  Er  Er4  1  0.458200  0.206717  0.832341  1
  Er  Er5  1  0.795616  0.543695  0.168255  1
  Er  Er6  1  0.541800  0.793283  0.167659  1
  Er  Er7  1  0.204384  0.456305  0.831745  1
  Er  Er8  1  0.000000  0.000000  0.000000  1
  Er  Er9  1  0.500000  0.500000  0.500000  1
  Si  Si10  1  0.372469  0.374119  0.125955  1
  Si  Si11  1  0.627531  0.625881  0.874045  1
  Si  Si12  1  0.129438  0.129239  0.628959  1
  Si  Si13  1  0.870562  0.870761  0.371041  1
  Sb  Sb14  1  0.792901  0.207327  0.004959  1
  Sb  Sb15  1  0.207099  0.792673  0.995041  1
  Sb  Sb16  1  0.711098  0.299787  0.502963  1
  Sb  Sb17  1  0.288902  0.700213  0.497037  1
