# generated using pymatgen
data_Hf6Sn6IrRh4Au
_symmetry_space_group_name_H-M   'P 1'
_cell_length_a   7.35857600
_cell_length_b   7.35857572
_cell_length_c   7.42315000
_cell_angle_alpha   90.00000000
_cell_angle_beta   90.00000000
_cell_angle_gamma   119.99999229
_symmetry_Int_Tables_number   1
_chemical_formula_structural   Hf6Sn6IrRh4Au
_chemical_formula_sum   'Hf6 Sn6 Ir1 Rh4 Au1'
_cell_volume   348.10194061
_cell_formula_units_Z   1
loop_
 _symmetry_equiv_pos_site_id
 _symmetry_equiv_pos_as_xyz
  1  'x, y, z'
loop_
 _atom_site_type_symbol
 _atom_site_label
 _atom_site_symmetry_multiplicity
 _atom_site_fract_x
 _atom_site_fract_y
 _atom_site_fract_z
 _atom_site_occupancy
  Hf  Hf0  1  0.011961  0.402724  0.757150  1
  Hf  Hf1  1  0.597276  0.609237  0.757150  1
  Hf  Hf2  1  0.390763  0.988039  0.757150  1
  Hf  Hf3  1  0.959964  0.378683  0.246548  1
  Hf  Hf4  1  0.621317  0.581279  0.246548  1
  Hf  Hf5  1  0.418721  0.040036  0.246548  1
  Sn  Sn6  1  0.262903  0.264629  0.506333  1
  Sn  Sn7  1  0.001726  0.737097  0.506333  1
  Sn  Sn8  1  0.004778  0.733220  0.004115  1
  Sn  Sn9  1  0.735371  0.998274  0.506333  1
  Sn  Sn10  1  0.728442  0.995222  0.004115  1
  Sn  Sn11  1  0.266780  0.271558  0.004115  1
  Ir  Ir12  1  0.666667  0.333333  0.527682  1
  Rh  Rh13  1  0.333333  0.666667  0.029902  1
  Rh  Rh14  1  0.000000  0.000000  0.757363  1
  Rh  Rh15  1  0.000000  0.000000  0.253790  1
  Rh  Rh16  1  0.666667  0.333333  0.948689  1
  Au  Au17  1  0.333333  0.666667  0.440136  1
