# generated using pymatgen
data_La7Sm3Tc2I15
_symmetry_space_group_name_H-M   'P 1'
_cell_length_a   10.04318980
_cell_length_b   11.18665396
_cell_length_c   11.86099554
_cell_angle_alpha   90.74746594
_cell_angle_beta   113.95589552
_cell_angle_gamma   109.99355797
_symmetry_Int_Tables_number   1
_chemical_formula_structural   La7Sm3Tc2I15
_chemical_formula_sum   'La7 Sm3 Tc2 I15'
_cell_volume   1126.35587461
_cell_formula_units_Z   1
loop_
 _symmetry_equiv_pos_site_id
 _symmetry_equiv_pos_as_xyz
  1  'x, y, z'
loop_
 _atom_site_type_symbol
 _atom_site_label
 _atom_site_symmetry_multiplicity
 _atom_site_fract_x
 _atom_site_fract_y
 _atom_site_fract_z
 _atom_site_occupancy
  La  La0  1  0.691476  0.084273  0.716224  1
  La  La1  1  0.085428  0.550932  0.320394  1
  La  La2  1  0.914401  0.448907  0.678553  1
  La  La3  1  0.838297  0.750606  0.178385  1
  La  La4  1  0.162630  0.250551  0.823987  1
  La  La5  1  0.978983  0.790160  0.914779  1
  La  La6  1  0.023384  0.210745  0.087290  1
  Sm  Sm7  1  0.226153  0.585202  0.056044  1
  Sm  Sm8  1  0.773177  0.415957  0.944954  1
  Sm  Sm9  1  0.299452  0.909290  0.277648  1
  Tc  Tc10  1  0.019961  0.681042  0.121852  1
  Tc  Tc11  1  0.980293  0.318208  0.877094  1
  I  I12  1  0.340725  0.447474  0.294585  1
  I  I13  1  0.661011  0.553540  0.706171  1
  I  I14  1  0.216301  0.732450  0.822876  1
  I  I15  1  0.784417  0.267129  0.177250  1
  I  I16  1  0.144131  0.387118  0.580471  1
  I  I17  1  0.856233  0.612922  0.419947  1
  I  I18  1  0.387932  0.801802  0.527543  1
  I  I19  1  0.608417  0.199011  0.464281  1
  I  I20  1  0.269340  0.085213  0.058347  1
  I  I21  1  0.732894  0.913752  0.946242  1
  I  I22  1  0.553287  0.840367  0.223665  1
  I  I23  1  0.442458  0.163278  0.778901  1
  I  I24  1  0.098181  0.040377  0.338460  1
  I  I25  1  0.910240  0.958685  0.663203  1
  I  I26  1  0.500800  0.501009  0.000855  1
