# generated using pymatgen
data_Li6Nd2PuN6
_symmetry_space_group_name_H-M   'P 1'
_cell_length_a   6.17704000
_cell_length_b   6.17704138
_cell_length_c   5.48122400
_cell_angle_alpha   90.00000000
_cell_angle_beta   90.00000000
_cell_angle_gamma   120.00000475
_symmetry_Int_Tables_number   1
_chemical_formula_structural   Li6Nd2PuN6
_chemical_formula_sum   'Li6 Nd2 Pu1 N6'
_cell_volume   181.12111621
_cell_formula_units_Z   1
loop_
 _symmetry_equiv_pos_site_id
 _symmetry_equiv_pos_as_xyz
  1  'x, y, z'
loop_
 _atom_site_type_symbol
 _atom_site_label
 _atom_site_symmetry_multiplicity
 _atom_site_fract_x
 _atom_site_fract_y
 _atom_site_fract_z
 _atom_site_occupancy
  Li  Li0  1  0.962449  0.630948  0.602850  1
  Li  Li1  1  0.369052  0.331502  0.602850  1
  Li  Li2  1  0.668498  0.037551  0.602850  1
  Li  Li3  1  0.995621  0.335659  0.392965  1
  Li  Li4  1  0.664341  0.659961  0.392965  1
  Li  Li5  1  0.340039  0.004379  0.392965  1
  Nd  Nd6  1  0.000000  0.000000  0.995446  1
  Nd  Nd7  1  0.333333  0.666667  0.992423  1
  Pu  Pu8  1  0.666667  0.333333  0.007458  1
  N  N9  1  0.962950  0.629968  0.230158  1
  N  N10  1  0.370032  0.332983  0.230158  1
  N  N11  1  0.667017  0.037050  0.230158  1
  N  N12  1  0.958657  0.333818  0.775584  1
  N  N13  1  0.666182  0.624839  0.775584  1
  N  N14  1  0.375161  0.041343  0.775584  1
