# generated using pymatgen
data_ScVI18
_symmetry_space_group_name_H-M   'P 1'
_cell_length_a   10.16369048
_cell_length_b   10.16384919
_cell_length_c   10.15657585
_cell_angle_alpha   89.63559715
_cell_angle_beta   89.60998190
_cell_angle_gamma   89.66923261
_symmetry_Int_Tables_number   1
_chemical_formula_structural   ScVI18
_chemical_formula_sum   'Sc1 V1 I18'
_cell_volume   1049.13405450
_cell_formula_units_Z   1
loop_
 _symmetry_equiv_pos_site_id
 _symmetry_equiv_pos_as_xyz
  1  'x, y, z'
loop_
 _atom_site_type_symbol
 _atom_site_label
 _atom_site_symmetry_multiplicity
 _atom_site_fract_x
 _atom_site_fract_y
 _atom_site_fract_z
 _atom_site_occupancy
  Sc  Sc0  1  0.000000  0.000000  0.000000  1
  V  V1  1  0.500000  0.500000  0.500000  1
  I  I2  1  0.769617  0.475031  0.502810  1
  I  I3  1  0.503232  0.769510  0.475158  1
  I  I4  1  0.475262  0.503447  0.769762  1
  I  I5  1  0.230383  0.524969  0.497190  1
  I  I6  1  0.496768  0.230490  0.524842  1
  I  I7  1  0.524738  0.496553  0.230238  1
  I  I8  1  0.885678  0.375603  0.747027  1
  I  I9  1  0.747525  0.885685  0.376101  1
  I  I10  1  0.375812  0.747791  0.885706  1
  I  I11  1  0.114322  0.624397  0.252973  1
  I  I12  1  0.252475  0.114315  0.623899  1
  I  I13  1  0.624188  0.252209  0.114294  1
  I  I14  1  0.013354  0.973426  0.714882  1
  I  I15  1  0.714998  0.012964  0.973984  1
  I  I16  1  0.973656  0.715213  0.013585  1
  I  I17  1  0.986646  0.026574  0.285118  1
  I  I18  1  0.285002  0.987036  0.026016  1
  I  I19  1  0.026344  0.284787  0.986415  1
