# generated using pymatgen
data_BaNdCuS3
_symmetry_space_group_name_H-M   'P 1'
_cell_length_a   10.63511200
_cell_length_b   4.10182900
_cell_length_c   13.56414100
_cell_angle_alpha   90.00000000
_cell_angle_beta   90.00000000
_cell_angle_gamma   90.00000000
_symmetry_Int_Tables_number   1
_chemical_formula_structural   BaNdCuS3
_chemical_formula_sum   'Ba4 Nd4 Cu4 S12'
_cell_volume   591.71409526
_cell_formula_units_Z   4
loop_
 _symmetry_equiv_pos_site_id
 _symmetry_equiv_pos_as_xyz
  1  'x, y, z'
loop_
 _atom_site_type_symbol
 _atom_site_label
 _atom_site_symmetry_multiplicity
 _atom_site_fract_x
 _atom_site_fract_y
 _atom_site_fract_z
 _atom_site_occupancy
  Ba  Ba0  1  0.271794  0.250001  0.005876  1
  Ba  Ba1  1  0.771793  0.250001  0.494124  1
  Ba  Ba2  1  0.228206  0.750001  0.505877  1
  Ba  Ba3  1  0.728207  0.750001  0.994123  1
  Nd  Nd4  1  0.990101  0.750001  0.240216  1
  Nd  Nd5  1  0.490101  0.750001  0.259784  1
  Nd  Nd6  1  0.509899  0.250001  0.740216  1
  Nd  Nd7  1  0.009898  0.250001  0.759783  1
  Cu  Cu8  1  0.740530  0.250001  0.217666  1
  Cu  Cu9  1  0.240530  0.250001  0.282335  1
  Cu  Cu10  1  0.759470  0.750001  0.717666  1
  Cu  Cu11  1  0.259470  0.750001  0.782335  1
  S  S12  1  0.912501  0.250001  0.109895  1
  S  S13  1  0.556857  0.250001  0.121635  1
  S  S14  1  0.244191  0.750001  0.182827  1
  S  S15  1  0.744190  0.750001  0.317172  1
  S  S16  1  0.056857  0.250001  0.378365  1
  S  S17  1  0.412501  0.250001  0.390105  1
  S  S18  1  0.587499  0.750001  0.609895  1
  S  S19  1  0.943143  0.750001  0.621635  1
  S  S20  1  0.255810  0.250001  0.682828  1
  S  S21  1  0.755810  0.250001  0.817172  1
  S  S22  1  0.443143  0.750001  0.878365  1
  S  S23  1  0.087499  0.750001  0.890105  1
