# generated using pymatgen
data_Hf6Ta4Sn6C
_symmetry_space_group_name_H-M   'P 1'
_cell_length_a   8.31592800
_cell_length_b   8.31592758
_cell_length_c   5.58608300
_cell_angle_alpha   90.00000000
_cell_angle_beta   90.00000000
_cell_angle_gamma   119.99999370
_symmetry_Int_Tables_number   1
_chemical_formula_structural   Hf6Ta4Sn6C
_chemical_formula_sum   'Hf6 Ta4 Sn6 C1'
_cell_volume   334.54878952
_cell_formula_units_Z   1
loop_
 _symmetry_equiv_pos_site_id
 _symmetry_equiv_pos_as_xyz
  1  'x, y, z'
loop_
 _atom_site_type_symbol
 _atom_site_label
 _atom_site_symmetry_multiplicity
 _atom_site_fract_x
 _atom_site_fract_y
 _atom_site_fract_z
 _atom_site_occupancy
  Hf  Hf0  1  0.000000  0.769567  0.258042  1
  Hf  Hf1  1  0.230433  0.230433  0.258042  1
  Hf  Hf2  1  0.769567  0.000000  0.258042  1
  Hf  Hf3  1  0.000000  0.230433  0.741958  1
  Hf  Hf4  1  0.769567  0.769567  0.741958  1
  Hf  Hf5  1  0.230433  0.000000  0.741958  1
  Ta  Ta6  1  0.333333  0.666667  0.000000  1
  Ta  Ta7  1  0.666667  0.333333  0.000000  1
  Ta  Ta8  1  0.666667  0.333333  0.500000  1
  Ta  Ta9  1  0.333333  0.666667  0.500000  1
  Sn  Sn10  1  0.000000  0.401603  0.244905  1
  Sn  Sn11  1  0.598397  0.598397  0.244905  1
  Sn  Sn12  1  0.401603  0.000000  0.244905  1
  Sn  Sn13  1  0.000000  0.598397  0.755095  1
  Sn  Sn14  1  0.401603  0.401603  0.755095  1
  Sn  Sn15  1  0.598397  0.000000  0.755095  1
  C  C16  1  0.000000  0.000000  0.500000  1
