# generated using pymatgen
data_Ho15Er(ZnIn3)2
_symmetry_space_group_name_H-M   'P 1'
_cell_length_a   10.62669800
_cell_length_b   10.62767958
_cell_length_c   6.73420601
_cell_angle_alpha   90.00516671
_cell_angle_beta   90.00179072
_cell_angle_gamma   119.99474302
_symmetry_Int_Tables_number   1
_chemical_formula_structural   Ho15Er(ZnIn3)2
_chemical_formula_sum   'Ho15 Er1 Zn2 In6'
_cell_volume   658.68355466
_cell_formula_units_Z   1
loop_
 _symmetry_equiv_pos_site_id
 _symmetry_equiv_pos_as_xyz
  1  'x, y, z'
loop_
 _atom_site_type_symbol
 _atom_site_label
 _atom_site_symmetry_multiplicity
 _atom_site_fract_x
 _atom_site_fract_y
 _atom_site_fract_z
 _atom_site_occupancy
  Ho  Ho0  1  0.959252  0.479758  0.510911  1
  Ho  Ho1  1  0.520516  0.479758  0.510917  1
  Ho  Ho2  1  0.479568  0.959156  0.010998  1
  Ho  Ho3  1  0.040997  0.520490  0.010899  1
  Ho  Ho4  1  0.479490  0.520495  0.010905  1
  Ho  Ho5  1  0.172292  0.344568  0.727918  1
  Ho  Ho6  1  0.655114  0.827794  0.727565  1
  Ho  Ho7  1  0.172676  0.827794  0.727562  1
  Ho  Ho8  1  0.827421  0.654864  0.227855  1
  Ho  Ho9  1  0.344958  0.172347  0.228131  1
  Ho  Ho10  1  0.827391  0.172332  0.228132  1
  Ho  Ho11  1  0.666496  0.332979  0.858248  1
  Ho  Ho12  1  0.333598  0.667221  0.358701  1
  Ho  Ho13  1  0.000064  0.000126  0.488346  1
  Ho  Ho14  1  0.999954  0.999911  0.988561  1
  Er  Er15  1  0.520596  0.041143  0.511276  1
  Zn  Zn16  1  0.666403  0.332793  0.295248  1
  Zn  Zn17  1  0.333205  0.666404  0.794994  1
  In  In18  1  0.835103  0.670209  0.740410  1
  In  In19  1  0.330002  0.164804  0.739921  1
  In  In20  1  0.834835  0.164820  0.739919  1
  In  In21  1  0.164900  0.329811  0.240401  1
  In  In22  1  0.670423  0.835207  0.240106  1
  In  In23  1  0.164746  0.835220  0.240117  1
