# generated using pymatgen
data_Th4InHgRh4
_symmetry_space_group_name_H-M   'P 1'
_cell_length_a   7.80869100
_cell_length_b   7.80869100
_cell_length_c   3.79319100
_cell_angle_alpha   90.00000000
_cell_angle_beta   90.00000000
_cell_angle_gamma   90.00000000
_symmetry_Int_Tables_number   1
_chemical_formula_structural   Th4InHgRh4
_chemical_formula_sum   'Th4 In1 Hg1 Rh4'
_cell_volume   231.29230627
_cell_formula_units_Z   1
loop_
 _symmetry_equiv_pos_site_id
 _symmetry_equiv_pos_as_xyz
  1  'x, y, z'
loop_
 _atom_site_type_symbol
 _atom_site_label
 _atom_site_symmetry_multiplicity
 _atom_site_fract_x
 _atom_site_fract_y
 _atom_site_fract_z
 _atom_site_occupancy
  Th  Th0  1  0.671236  0.167750  0.500000  1
  Th  Th1  1  0.328764  0.832250  0.500000  1
  Th  Th2  1  0.167750  0.328764  0.500000  1
  Th  Th3  1  0.832250  0.671236  0.500000  1
  In  In4  1  0.500000  0.500000  0.000000  1
  Hg  Hg5  1  0.000000  0.000000  0.000000  1
  Rh  Rh6  1  0.136125  0.630359  0.000000  1
  Rh  Rh7  1  0.863875  0.369641  0.000000  1
  Rh  Rh8  1  0.630359  0.863875  0.000000  1
  Rh  Rh9  1  0.369641  0.136125  0.000000  1
