# generated using pymatgen
data_Li4Nd4Pd3Rh
_symmetry_space_group_name_H-M   'P 1'
_cell_length_a   4.11740300
_cell_length_b   7.28314761
_cell_length_c   8.61326101
_cell_angle_alpha   90.49036606
_cell_angle_beta   90.00000000
_cell_angle_gamma   90.00000000
_symmetry_Int_Tables_number   1
_chemical_formula_structural   Li4Nd4Pd3Rh
_chemical_formula_sum   'Li4 Nd4 Pd3 Rh1'
_cell_volume   258.28202985
_cell_formula_units_Z   1
loop_
 _symmetry_equiv_pos_site_id
 _symmetry_equiv_pos_as_xyz
  1  'x, y, z'
loop_
 _atom_site_type_symbol
 _atom_site_label
 _atom_site_symmetry_multiplicity
 _atom_site_fract_x
 _atom_site_fract_y
 _atom_site_fract_z
 _atom_site_occupancy
  Li  Li0  1  0.250000  0.625082  0.554583  1
  Li  Li1  1  0.750000  0.371681  0.445252  1
  Li  Li2  1  0.750000  0.873685  0.057766  1
  Li  Li3  1  0.250000  0.127305  0.943451  1
  Nd  Nd4  1  0.250000  0.545688  0.181745  1
  Nd  Nd5  1  0.750000  0.450165  0.808292  1
  Nd  Nd6  1  0.750000  0.964081  0.682575  1
  Nd  Nd7  1  0.250000  0.050187  0.323666  1
  Pd  Pd8  1  0.250000  0.748710  0.880584  1
  Pd  Pd9  1  0.750000  0.251363  0.119960  1
  Pd  Pd10  1  0.750000  0.750334  0.378431  1
  Rh  Rh11  1  0.250000  0.241719  0.623698  1
