# generated using pymatgen
data_Yb7Th(OsC2)4
_symmetry_space_group_name_H-M   'P 1'
_cell_length_a   5.15367900
_cell_length_b   6.44888739
_cell_length_c   10.30099697
_cell_angle_alpha   90.25277792
_cell_angle_beta   90.00000000
_cell_angle_gamma   90.00000000
_symmetry_Int_Tables_number   1
_chemical_formula_structural   Yb7Th(OsC2)4
_chemical_formula_sum   'Yb7 Th1 Os4 C8'
_cell_volume   342.35540672
_cell_formula_units_Z   1
loop_
 _symmetry_equiv_pos_site_id
 _symmetry_equiv_pos_as_xyz
  1  'x, y, z'
loop_
 _atom_site_type_symbol
 _atom_site_label
 _atom_site_symmetry_multiplicity
 _atom_site_fract_x
 _atom_site_fract_y
 _atom_site_fract_z
 _atom_site_occupancy
  Yb  Yb0  1  0.750000  0.298316  0.447224  1
  Yb  Yb1  1  0.750000  0.804321  0.050277  1
  Yb  Yb2  1  0.250000  0.194321  0.948724  1
  Yb  Yb3  1  0.250000  0.532675  0.216160  1
  Yb  Yb4  1  0.750000  0.465407  0.781603  1
  Yb  Yb5  1  0.750000  0.972122  0.734745  1
  Yb  Yb6  1  0.250000  0.033593  0.265985  1
  Th  Th7  1  0.250000  0.694787  0.549124  1
  Os  Os8  1  0.250000  0.729162  0.857759  1
  Os  Os9  1  0.750000  0.268343  0.145510  1
  Os  Os10  1  0.750000  0.770189  0.350339  1
  Os  Os11  1  0.250000  0.227536  0.648951  1
  C  C12  1  0.250000  0.469248  0.757384  1
  C  C13  1  0.750000  0.531511  0.240281  1
  C  C14  1  0.750000  0.028931  0.255733  1
  C  C15  1  0.250000  0.964596  0.741946  1
  C  C16  1  0.250000  0.798540  0.031768  1
  C  C17  1  0.750000  0.203553  0.969507  1
  C  C18  1  0.750000  0.705308  0.533328  1
  C  C19  1  0.250000  0.307541  0.473653  1
