# generated using pymatgen
data_LiPdF2
_symmetry_space_group_name_H-M   'P 1'
_cell_length_a   2.88353797
_cell_length_b   2.88353639
_cell_length_c   6.42697024
_cell_angle_alpha   77.35634786
_cell_angle_beta   77.35635079
_cell_angle_gamma   59.84594147
_symmetry_Int_Tables_number   1
_chemical_formula_structural   LiPdF2
_chemical_formula_sum   'Li1 Pd1 F2'
_cell_volume   44.70952180
_cell_formula_units_Z   1
loop_
 _symmetry_equiv_pos_site_id
 _symmetry_equiv_pos_as_xyz
  1  'x, y, z'
loop_
 _atom_site_type_symbol
 _atom_site_label
 _atom_site_symmetry_multiplicity
 _atom_site_fract_x
 _atom_site_fract_y
 _atom_site_fract_z
 _atom_site_occupancy
  Li  Li0  1  0.490449  0.509551  0.500000  1
  Pd  Pd1  1  0.995222  0.004778  0.000000  1
  F  F2  1  0.882312  0.894770  0.324536  1
  F  F3  1  0.105230  0.117688  0.675464  1
