# generated using pymatgen
data_Ba2UN3
_symmetry_space_group_name_H-M   'P 1'
_cell_length_a   7.57765365
_cell_length_b   7.57765375
_cell_length_c   12.23842300
_cell_angle_alpha   90.00000000
_cell_angle_beta   90.00000000
_cell_angle_gamma   131.61775454
_symmetry_Int_Tables_number   1
_chemical_formula_structural   Ba2UN3
_chemical_formula_sum   'Ba8 U4 N12'
_cell_volume   525.36338246
_cell_formula_units_Z   4
loop_
 _symmetry_equiv_pos_site_id
 _symmetry_equiv_pos_as_xyz
  1  'x, y, z'
loop_
 _atom_site_type_symbol
 _atom_site_label
 _atom_site_symmetry_multiplicity
 _atom_site_fract_x
 _atom_site_fract_y
 _atom_site_fract_z
 _atom_site_occupancy
  Ba  Ba0  1  0.903073  0.096927  0.370686  1
  Ba  Ba1  1  0.403073  0.596927  0.129314  1
  Ba  Ba2  1  0.596927  0.403073  0.870686  1
  Ba  Ba3  1  0.096927  0.903073  0.629314  1
  Ba  Ba4  1  0.401001  0.598999  0.630471  1
  Ba  Ba5  1  0.598999  0.401001  0.369529  1
  Ba  Ba6  1  0.098999  0.901001  0.130471  1
  Ba  Ba7  1  0.901001  0.098999  0.869529  1
  U  U8  1  0.748487  0.251513  0.626797  1
  U  U9  1  0.751513  0.248487  0.126797  1
  U  U10  1  0.251513  0.748487  0.373203  1
  U  U11  1  0.248487  0.751513  0.873203  1
  N  N12  1  0.997735  0.502265  0.750000  1
  N  N13  1  0.502265  0.997735  0.250000  1
  N  N14  1  0.002265  0.497735  0.250000  1
  N  N15  1  0.497735  0.002265  0.750000  1
  N  N16  1  0.392308  0.607692  0.884016  1
  N  N17  1  0.607692  0.392308  0.115984  1
  N  N18  1  0.107692  0.892308  0.384016  1
  N  N19  1  0.604828  0.395172  0.614411  1
  N  N20  1  0.104828  0.895172  0.885589  1
  N  N21  1  0.895172  0.104828  0.114411  1
  N  N22  1  0.395172  0.604828  0.385589  1
  N  N23  1  0.892308  0.107692  0.615984  1
