# generated using pymatgen
data_Tb2Al20Fe2IrRu
_symmetry_space_group_name_H-M   'P 1'
_cell_length_a   6.83075835
_cell_length_b   6.83209487
_cell_length_c   9.10582900
_cell_angle_alpha   90.00249423
_cell_angle_beta   89.96803983
_cell_angle_gamma   96.81610374
_symmetry_Int_Tables_number   1
_chemical_formula_structural   Tb2Al20Fe2IrRu
_chemical_formula_sum   'Tb2 Al20 Fe2 Ir1 Ru1'
_cell_volume   421.95080790
_cell_formula_units_Z   1
loop_
 _symmetry_equiv_pos_site_id
 _symmetry_equiv_pos_as_xyz
  1  'x, y, z'
loop_
 _atom_site_type_symbol
 _atom_site_label
 _atom_site_symmetry_multiplicity
 _atom_site_fract_x
 _atom_site_fract_y
 _atom_site_fract_z
 _atom_site_occupancy
  Tb  Tb0  1  0.871636  0.126823  0.749954  1
  Tb  Tb1  1  0.128364  0.873177  0.250046  1
  Al  Al2  1  0.619338  0.372814  0.550318  1
  Al  Al3  1  0.380662  0.627186  0.449682  1
  Al  Al4  1  0.374101  0.622124  0.049699  1
  Al  Al5  1  0.625899  0.377876  0.950301  1
  Al  Al6  1  0.230468  0.221214  0.496855  1
  Al  Al7  1  0.769532  0.778786  0.503145  1
  Al  Al8  1  0.776594  0.771240  0.002447  1
  Al  Al9  1  0.223406  0.228760  0.997553  1
  Al  Al10  1  0.845494  0.161308  0.098955  1
  Al  Al11  1  0.154506  0.838692  0.901045  1
  Al  Al12  1  0.162590  0.846500  0.600539  1
  Al  Al13  1  0.837410  0.153500  0.399461  1
  Al  Al14  1  0.860221  0.587007  0.754503  1
  Al  Al15  1  0.139779  0.412993  0.245497  1
  Al  Al16  1  0.413922  0.139165  0.747290  1
  Al  Al17  1  0.586078  0.860835  0.252710  1
  Al  Al18  1  0.220413  0.480944  0.754543  1
  Al  Al19  1  0.779587  0.519056  0.245457  1
  Al  Al20  1  0.518931  0.780401  0.747544  1
  Al  Al21  1  0.481069  0.219599  0.252456  1
  Fe  Fe22  1  0.000000  0.500000  0.000000  1
  Fe  Fe23  1  0.500000  0.000000  0.500000  1
  Ir  Ir24  1  0.000000  0.500000  0.500000  1
  Ru  Ru25  1  0.500000  0.000000  0.000000  1
