# generated using pymatgen
data_Yb2FeOsO6
_symmetry_space_group_name_H-M   'P 1'
_cell_length_a   5.56032200
_cell_length_b   5.34805730
_cell_length_c   9.33485352
_cell_angle_alpha   55.05803410
_cell_angle_beta   90.00000000
_cell_angle_gamma   90.00000000
_symmetry_Int_Tables_number   1
_chemical_formula_structural   Yb2FeOsO6
_chemical_formula_sum   'Yb4 Fe2 Os2 O12'
_cell_volume   227.54940503
_cell_formula_units_Z   2
loop_
 _symmetry_equiv_pos_site_id
 _symmetry_equiv_pos_as_xyz
  1  'x, y, z'
loop_
 _atom_site_type_symbol
 _atom_site_label
 _atom_site_symmetry_multiplicity
 _atom_site_fract_x
 _atom_site_fract_y
 _atom_site_fract_z
 _atom_site_occupancy
  Yb  Yb0  1  0.439190  0.766918  0.748972  1
  Yb  Yb1  1  0.060810  0.766918  0.248972  1
  Yb  Yb2  1  0.560810  0.233082  0.251028  1
  Yb  Yb3  1  0.939190  0.233082  0.751028  1
  Fe  Fe4  1  0.000000  0.000000  0.500000  1
  Fe  Fe5  1  0.500000  0.000000  0.000000  1
  Os  Os6  1  0.500000  0.500000  0.500000  1
  Os  Os7  1  0.000000  0.500000  0.000000  1
  O  O8  1  0.698979  0.151665  0.549646  1
  O  O9  1  0.801021  0.151665  0.049646  1
  O  O10  1  0.301021  0.848335  0.450354  1
  O  O11  1  0.198979  0.848335  0.950354  1
  O  O12  1  0.704948  0.746070  0.948748  1
  O  O13  1  0.795052  0.746070  0.448748  1
  O  O14  1  0.295052  0.253930  0.051252  1
  O  O15  1  0.204948  0.253930  0.551252  1
  O  O16  1  0.529521  0.349325  0.747816  1
  O  O17  1  0.970479  0.349325  0.247816  1
  O  O18  1  0.470479  0.650675  0.252184  1
  O  O19  1  0.029521  0.650675  0.752184  1
