# generated using pymatgen
data_NaPr2Y(Si5Pt3)2
_symmetry_space_group_name_H-M   'P 1'
_cell_length_a   8.23357362
_cell_length_b   8.27922891
_cell_length_c   8.27922900
_cell_angle_alpha   137.22933161
_cell_angle_beta   104.60662277
_cell_angle_gamma   90.87183571
_symmetry_Int_Tables_number   1
_chemical_formula_structural   NaPr2Y(Si5Pt3)2
_chemical_formula_sum   'Na1 Pr2 Y1 Si10 Pt6'
_cell_volume   353.20604889
_cell_formula_units_Z   1
loop_
 _symmetry_equiv_pos_site_id
 _symmetry_equiv_pos_as_xyz
  1  'x, y, z'
loop_
 _atom_site_type_symbol
 _atom_site_label
 _atom_site_symmetry_multiplicity
 _atom_site_fract_x
 _atom_site_fract_y
 _atom_site_fract_z
 _atom_site_occupancy
  Na  Na0  1  0.864038  0.628101  0.235937  1
  Pr  Pr1  1  0.395203  0.128788  0.266416  1
  Pr  Pr2  1  0.607005  0.873913  0.733092  1
  Y  Y3  1  0.138633  0.369409  0.769223  1
  Si  Si4  1  0.500540  0.746690  0.247471  1
  Si  Si5  1  0.500540  0.253068  0.753849  1
  Si  Si6  1  0.226463  0.980058  0.747207  1
  Si  Si7  1  0.772171  0.521533  0.751903  1
  Si  Si8  1  0.772171  0.020268  0.250638  1
  Si  Si9  1  0.226463  0.479256  0.246404  1
  Si  Si10  1  0.036649  0.885222  0.151429  1
  Si  Si11  1  0.962752  0.114547  0.848205  1
  Si  Si12  1  0.740727  0.391104  0.349623  1
  Si  Si13  1  0.258543  0.609178  0.649365  1
  Pt  Pt14  1  0.001594  0.752891  0.755469  1
  Pt  Pt15  1  0.001594  0.246125  0.248703  1
  Pt  Pt16  1  0.248596  0.862528  0.386069  1
  Pt  Pt17  1  0.749101  0.137605  0.611495  1
  Pt  Pt18  1  0.476187  0.364375  0.111811  1
  Pt  Pt19  1  0.521032  0.635342  0.885690  1
