# generated using pymatgen
data_MnFe2Sb12Pt
_symmetry_space_group_name_H-M   'P 1'
_cell_length_a   8.02794991
_cell_length_b   8.05905720
_cell_length_c   9.32886663
_cell_angle_alpha   54.88279630
_cell_angle_beta   54.89652812
_cell_angle_gamma   70.46310229
_symmetry_Int_Tables_number   1
_chemical_formula_structural   MnFe2Sb12Pt
_chemical_formula_sum   'Mn1 Fe2 Sb12 Pt1'
_cell_volume   403.89347977
_cell_formula_units_Z   1
loop_
 _symmetry_equiv_pos_site_id
 _symmetry_equiv_pos_as_xyz
  1  'x, y, z'
loop_
 _atom_site_type_symbol
 _atom_site_label
 _atom_site_symmetry_multiplicity
 _atom_site_fract_x
 _atom_site_fract_y
 _atom_site_fract_z
 _atom_site_occupancy
  Mn  Mn0  1  0.500000  0.000000  0.000000  1
  Fe  Fe1  1  0.500000  0.000000  0.500000  1
  Fe  Fe2  1  0.000000  0.500000  0.500000  1
  Sb  Sb3  1  0.673873  0.674693  0.486413  1
  Sb  Sb4  1  0.326127  0.325307  0.513587  1
  Sb  Sb5  1  0.649645  0.654026  0.196134  1
  Sb  Sb6  1  0.350355  0.345974  0.803866  1
  Sb  Sb7  1  0.166812  0.853763  0.651716  1
  Sb  Sb8  1  0.833188  0.146237  0.348284  1
  Sb  Sb9  1  0.850693  0.167127  0.653797  1
  Sb  Sb10  1  0.149307  0.832873  0.346203  1
  Sb  Sb11  1  0.818459  0.492430  0.833797  1
  Sb  Sb12  1  0.181541  0.507570  0.166203  1
  Sb  Sb13  1  0.506408  0.179507  0.166385  1
  Sb  Sb14  1  0.493592  0.820493  0.833615  1
  Pt  Pt15  1  0.000000  0.500000  0.000000  1
