# generated using pymatgen
data_PrTm3LuBi3
_symmetry_space_group_name_H-M   'P 1'
_cell_length_a   8.19454200
_cell_length_b   9.43119600
_cell_length_c   11.92279700
_cell_angle_alpha   90.00000000
_cell_angle_beta   90.00000000
_cell_angle_gamma   90.00000000
_symmetry_Int_Tables_number   1
_chemical_formula_structural   PrTm3LuBi3
_chemical_formula_sum   'Pr4 Tm12 Lu4 Bi12'
_cell_volume   921.44539852
_cell_formula_units_Z   4
loop_
 _symmetry_equiv_pos_site_id
 _symmetry_equiv_pos_as_xyz
  1  'x, y, z'
loop_
 _atom_site_type_symbol
 _atom_site_label
 _atom_site_symmetry_multiplicity
 _atom_site_fract_x
 _atom_site_fract_y
 _atom_site_fract_z
 _atom_site_occupancy
  Pr  Pr0  1  0.315382  0.250000  0.219471  1
  Pr  Pr1  1  0.815382  0.250000  0.280529  1
  Pr  Pr2  1  0.684618  0.750000  0.780529  1
  Pr  Pr3  1  0.184618  0.750000  0.719471  1
  Tm  Tm4  1  0.352409  0.750000  0.218734  1
  Tm  Tm5  1  0.852409  0.750000  0.281266  1
  Tm  Tm6  1  0.647591  0.250000  0.781266  1
  Tm  Tm7  1  0.147591  0.250000  0.718734  1
  Tm  Tm8  1  0.691634  0.566073  0.060894  1
  Tm  Tm9  1  0.191634  0.933927  0.439106  1
  Tm  Tm10  1  0.308366  0.066073  0.939106  1
  Tm  Tm11  1  0.808366  0.433927  0.560894  1
  Tm  Tm12  1  0.308366  0.433927  0.939106  1
  Tm  Tm13  1  0.808366  0.066073  0.560894  1
  Tm  Tm14  1  0.691634  0.933927  0.060894  1
  Tm  Tm15  1  0.191634  0.566073  0.439106  1
  Lu  Lu16  1  0.477478  0.250000  0.488728  1
  Lu  Lu17  1  0.977478  0.250000  0.011272  1
  Lu  Lu18  1  0.522522  0.750000  0.511272  1
  Lu  Lu19  1  0.022522  0.750000  0.988728  1
  Bi  Bi20  1  0.401988  0.750000  0.963820  1
  Bi  Bi21  1  0.901988  0.750000  0.536180  1
  Bi  Bi22  1  0.598012  0.250000  0.036180  1
  Bi  Bi23  1  0.098012  0.250000  0.463820  1
  Bi  Bi24  1  0.564793  0.989909  0.328568  1
  Bi  Bi25  1  0.064793  0.510091  0.171432  1
  Bi  Bi26  1  0.435207  0.489909  0.671432  1
  Bi  Bi27  1  0.935207  0.010091  0.828568  1
  Bi  Bi28  1  0.435207  0.010091  0.671432  1
  Bi  Bi29  1  0.935207  0.489909  0.828568  1
  Bi  Bi30  1  0.564793  0.510091  0.328568  1
  Bi  Bi31  1  0.064793  0.989909  0.171432  1
