# generated using pymatgen
data_Li8Tb3Dy2Ho3(Sn3Sb)2
_symmetry_space_group_name_H-M   'P 1'
_cell_length_a   9.38032673
_cell_length_b   9.38401628
_cell_length_c   7.24915801
_cell_angle_alpha   90.00000430
_cell_angle_beta   90.06138894
_cell_angle_gamma   120.01300778
_symmetry_Int_Tables_number   1
_chemical_formula_structural   Li8Tb3Dy2Ho3(Sn3Sb)2
_chemical_formula_sum   'Li8 Tb3 Dy2 Ho3 Sn6 Sb2'
_cell_volume   552.54498686
_cell_formula_units_Z   1
loop_
 _symmetry_equiv_pos_site_id
 _symmetry_equiv_pos_as_xyz
  1  'x, y, z'
loop_
 _atom_site_type_symbol
 _atom_site_label
 _atom_site_symmetry_multiplicity
 _atom_site_fract_x
 _atom_site_fract_y
 _atom_site_fract_z
 _atom_site_occupancy
  Li  Li0  1  0.167315  0.333991  0.285826  1
  Li  Li1  1  0.167315  0.833325  0.285826  1
  Li  Li2  1  0.666171  0.833085  0.285944  1
  Li  Li3  1  0.832451  0.666291  0.782217  1
  Li  Li4  1  0.832451  0.166161  0.782217  1
  Li  Li5  1  0.334269  0.167135  0.783729  1
  Li  Li6  1  0.334066  0.667033  0.675610  1
  Li  Li7  1  0.666783  0.333391  0.180102  1
  Tb  Tb8  1  0.490769  0.979237  0.995635  1
  Tb  Tb9  1  0.490769  0.511532  0.995635  1
  Tb  Tb10  1  0.019239  0.509620  0.996743  1
  Dy  Dy11  1  0.998099  0.999049  0.496696  1
  Dy  Dy12  1  0.997927  0.998963  0.002321  1
  Ho  Ho13  1  0.513488  0.023371  0.492282  1
  Ho  Ho14  1  0.513488  0.490116  0.492282  1
  Ho  Ho15  1  0.975950  0.487975  0.490857  1
  Sn  Sn16  1  0.666462  0.833232  0.731383  1
  Sn  Sn17  1  0.833850  0.667034  0.233916  1
  Sn  Sn18  1  0.833850  0.166815  0.233916  1
  Sn  Sn19  1  0.333070  0.166535  0.233690  1
  Sn  Sn20  1  0.332418  0.666210  0.262035  1
  Sn  Sn21  1  0.667476  0.333737  0.759126  1
  Sb  Sb22  1  0.166162  0.333234  0.732005  1
  Sb  Sb23  1  0.166162  0.832927  0.732005  1
