# generated using pymatgen
data_Tb16CdCo3Hg3Ir
_symmetry_space_group_name_H-M   'P 1'
_cell_length_a   9.56217321
_cell_length_b   9.53447195
_cell_length_c   9.53447100
_cell_angle_alpha   59.99999981
_cell_angle_beta   60.09578440
_cell_angle_gamma   60.09579043
_symmetry_Int_Tables_number   1
_chemical_formula_structural   Tb16CdCo3Hg3Ir
_chemical_formula_sum   'Tb16 Cd1 Co3 Hg3 Ir1'
_cell_volume   615.54828159
_cell_formula_units_Z   1
loop_
 _symmetry_equiv_pos_site_id
 _symmetry_equiv_pos_as_xyz
  1  'x, y, z'
loop_
 _atom_site_type_symbol
 _atom_site_label
 _atom_site_symmetry_multiplicity
 _atom_site_fract_x
 _atom_site_fract_y
 _atom_site_fract_z
 _atom_site_occupancy
  Tb  Tb0  1  0.593787  0.600664  0.600664  1
  Tb  Tb1  1  0.593787  0.600664  0.204885  1
  Tb  Tb2  1  0.593787  0.204885  0.600664  1
  Tb  Tb3  1  0.205849  0.598051  0.598051  1
  Tb  Tb4  1  0.065715  0.438875  0.438875  1
  Tb  Tb5  1  0.437616  0.062508  0.062508  1
  Tb  Tb6  1  0.437616  0.062508  0.437368  1
  Tb  Tb7  1  0.065715  0.438875  0.056534  1
  Tb  Tb8  1  0.437616  0.437368  0.062508  1
  Tb  Tb9  1  0.065715  0.056534  0.438875  1
  Tb  Tb10  1  0.186186  0.813074  0.813074  1
  Tb  Tb11  1  0.812208  0.188353  0.188353  1
  Tb  Tb12  1  0.812208  0.188353  0.811088  1
  Tb  Tb13  1  0.186186  0.813074  0.187668  1
  Tb  Tb14  1  0.812208  0.811088  0.188353  1
  Tb  Tb15  1  0.186186  0.187668  0.813074  1
  Cd  Cd16  1  0.511823  0.829392  0.829392  1
  Co  Co17  1  0.390628  0.391475  0.391475  1
  Co  Co18  1  0.390628  0.391475  0.826422  1
  Co  Co19  1  0.390628  0.826422  0.391475  1
  Hg  Hg20  1  0.833060  0.834133  0.834133  1
  Hg  Hg21  1  0.833060  0.834133  0.498676  1
  Hg  Hg22  1  0.833060  0.498676  0.834133  1
  Ir  Ir23  1  0.824731  0.391756  0.391756  1
