# generated using pymatgen
data_Dy8Hf11Si16Mo
_symmetry_space_group_name_H-M   'P 1'
_cell_length_a   7.24978735
_cell_length_b   7.24978722
_cell_length_c   13.30531401
_cell_angle_alpha   89.94665188
_cell_angle_beta   90.05334992
_cell_angle_gamma   90.05862279
_symmetry_Int_Tables_number   1
_chemical_formula_structural   Dy8Hf11Si16Mo
_chemical_formula_sum   'Dy8 Hf11 Si16 Mo1'
_cell_volume   699.31855783
_cell_formula_units_Z   1
loop_
 _symmetry_equiv_pos_site_id
 _symmetry_equiv_pos_as_xyz
  1  'x, y, z'
loop_
 _atom_site_type_symbol
 _atom_site_label
 _atom_site_symmetry_multiplicity
 _atom_site_fract_x
 _atom_site_fract_y
 _atom_site_fract_z
 _atom_site_occupancy
  Dy  Dy0  1  0.998571  0.343107  0.212525  1
  Dy  Dy1  1  0.004151  0.656630  0.716483  1
  Dy  Dy2  1  0.156637  0.495442  0.465463  1
  Dy  Dy3  1  0.501200  0.845633  0.034265  1
  Dy  Dy4  1  0.845633  0.501200  0.965735  1
  Dy  Dy5  1  0.495442  0.156637  0.534537  1
  Dy  Dy6  1  0.343107  0.998571  0.787475  1
  Dy  Dy7  1  0.656630  0.004151  0.283517  1
  Hf  Hf8  1  0.825602  0.825602  0.500000  1
  Hf  Hf9  1  0.324452  0.674419  0.248966  1
  Hf  Hf10  1  0.674419  0.324452  0.751034  1
  Hf  Hf11  1  0.148478  0.997160  0.373658  1
  Hf  Hf12  1  0.853250  0.004809  0.877409  1
  Hf  Hf13  1  0.503879  0.648591  0.624692  1
  Hf  Hf14  1  0.349277  0.493238  0.877218  1
  Hf  Hf15  1  0.493238  0.349277  0.122782  1
  Hf  Hf16  1  0.648591  0.503879  0.375308  1
  Hf  Hf17  1  0.997160  0.148478  0.626342  1
  Hf  Hf18  1  0.004809  0.853250  0.122591  1
  Si  Si19  1  0.362580  0.295149  0.316400  1
  Si  Si20  1  0.636548  0.704923  0.817653  1
  Si  Si21  1  0.204996  0.862775  0.567289  1
  Si  Si22  1  0.137635  0.796381  0.933007  1
  Si  Si23  1  0.796381  0.137635  0.066993  1
  Si  Si24  1  0.862775  0.204996  0.432711  1
  Si  Si25  1  0.295149  0.362580  0.683600  1
  Si  Si26  1  0.704923  0.636548  0.182347  1
  Si  Si27  1  0.294287  0.051173  0.182872  1
  Si  Si28  1  0.704031  0.951980  0.685939  1
  Si  Si29  1  0.450800  0.795866  0.435090  1
  Si  Si30  1  0.203950  0.547200  0.064185  1
  Si  Si31  1  0.547200  0.203950  0.935815  1
  Si  Si32  1  0.795866  0.450800  0.564910  1
  Si  Si33  1  0.051173  0.294287  0.817128  1
  Si  Si34  1  0.951980  0.704031  0.314061  1
  Mo  Mo35  1  0.175203  0.175203  0.000000  1
