# generated using pymatgen
data_Sm3Tm3Co16(TcP6)2
_symmetry_space_group_name_H-M   'P 1'
_cell_length_a   3.72068100
_cell_length_b   10.54349146
_cell_length_c   12.25030553
_cell_angle_alpha   89.96606990
_cell_angle_beta   90.00000000
_cell_angle_gamma   90.00000000
_symmetry_Int_Tables_number   1
_chemical_formula_structural   Sm3Tm3Co16(TcP6)2
_chemical_formula_sum   'Sm3 Tm3 Co16 Tc2 P12'
_cell_volume   480.56676401
_cell_formula_units_Z   1
loop_
 _symmetry_equiv_pos_site_id
 _symmetry_equiv_pos_as_xyz
  1  'x, y, z'
loop_
 _atom_site_type_symbol
 _atom_site_label
 _atom_site_symmetry_multiplicity
 _atom_site_fract_x
 _atom_site_fract_y
 _atom_site_fract_z
 _atom_site_occupancy
  Sm  Sm0  1  0.000000  0.500396  0.524109  1
  Sm  Sm1  1  0.500000  0.999848  0.475113  1
  Sm  Sm2  1  0.000000  0.318018  0.794558  1
  Tm  Tm3  1  0.500000  0.817650  0.205346  1
  Tm  Tm4  1  0.500000  0.182052  0.205108  1
  Tm  Tm5  1  0.000000  0.683140  0.795000  1
  Co  Co6  1  0.500000  0.502687  0.704557  1
  Co  Co7  1  0.000000  0.999719  0.294703  1
  Co  Co8  1  0.000000  0.501362  0.988440  1
  Co  Co9  1  0.500000  0.998702  0.013734  1
  Co  Co10  1  0.500000  0.332239  0.992127  1
  Co  Co11  1  0.500000  0.669051  0.990503  1
  Co  Co12  1  0.000000  0.166725  0.011331  1
  Co  Co13  1  0.000000  0.831884  0.010676  1
  Co  Co14  1  0.500000  0.295923  0.428512  1
  Co  Co15  1  0.500000  0.704369  0.429600  1
  Co  Co16  1  0.000000  0.203546  0.568048  1
  Co  Co17  1  0.000000  0.796108  0.570027  1
  Co  Co18  1  0.500000  0.878117  0.709957  1
  Co  Co19  1  0.500000  0.118978  0.708445  1
  Co  Co20  1  0.000000  0.621344  0.290282  1
  Co  Co21  1  0.000000  0.378653  0.289709  1
  Tc  Tc22  1  0.500000  0.500714  0.155702  1
  Tc  Tc23  1  0.000000  0.999008  0.844765  1
  P  P24  1  0.500000  0.502450  0.882986  1
  P  P25  1  0.000000  0.999321  0.119086  1
  P  P26  1  0.500000  0.500009  0.346294  1
  P  P27  1  0.000000  0.000113  0.653379  1
  P  P28  1  0.500000  0.309246  0.614524  1
  P  P29  1  0.500000  0.690849  0.617647  1
  P  P30  1  0.000000  0.189648  0.381158  1
  P  P31  1  0.000000  0.809863  0.381931  1
  P  P32  1  0.500000  0.845585  0.892905  1
  P  P33  1  0.500000  0.152271  0.894803  1
  P  P34  1  0.000000  0.655101  0.107886  1
  P  P35  1  0.000000  0.345310  0.107051  1
