# generated using pymatgen
data_TbEr19(Bi2Pt)4
_symmetry_space_group_name_H-M   'P 1'
_cell_length_a   8.00807547
_cell_length_b   8.99630000
_cell_length_c   12.33067102
_cell_angle_alpha   90.00000000
_cell_angle_beta   90.06962671
_cell_angle_gamma   90.00000000
_symmetry_Int_Tables_number   1
_chemical_formula_structural   TbEr19(Bi2Pt)4
_chemical_formula_sum   'Tb1 Er19 Bi8 Pt4'
_cell_volume   888.33848476
_cell_formula_units_Z   1
loop_
 _symmetry_equiv_pos_site_id
 _symmetry_equiv_pos_as_xyz
  1  'x, y, z'
loop_
 _atom_site_type_symbol
 _atom_site_label
 _atom_site_symmetry_multiplicity
 _atom_site_fract_x
 _atom_site_fract_y
 _atom_site_fract_z
 _atom_site_occupancy
  Tb  Tb0  1  0.662476  0.750000  0.711191  1
  Er  Er1  1  0.337507  0.250000  0.289828  1
  Er  Er2  1  0.161760  0.250000  0.790473  1
  Er  Er3  1  0.837812  0.750000  0.209812  1
  Er  Er4  1  0.127323  0.750000  0.802840  1
  Er  Er5  1  0.873412  0.250000  0.197303  1
  Er  Er6  1  0.626490  0.250000  0.697056  1
  Er  Er7  1  0.373610  0.750000  0.302663  1
  Er  Er8  1  0.551159  0.750000  0.000768  1
  Er  Er9  1  0.447963  0.250000  0.000197  1
  Er  Er10  1  0.052076  0.250000  0.499224  1
  Er  Er11  1  0.948883  0.750000  0.500161  1
  Er  Er12  1  0.821929  0.453103  0.933488  1
  Er  Er13  1  0.177547  0.546657  0.066709  1
  Er  Er14  1  0.322171  0.546283  0.566116  1
  Er  Er15  1  0.177547  0.953343  0.066709  1
  Er  Er16  1  0.678194  0.453319  0.433220  1
  Er  Er17  1  0.821929  0.046897  0.933488  1
  Er  Er18  1  0.678194  0.046681  0.433220  1
  Er  Er19  1  0.322171  0.953717  0.566116  1
  Bi  Bi20  1  0.932244  0.010100  0.671783  1
  Bi  Bi21  1  0.068857  0.990335  0.327767  1
  Bi  Bi22  1  0.430122  0.991481  0.828546  1
  Bi  Bi23  1  0.068857  0.509665  0.327767  1
  Bi  Bi24  1  0.568896  0.009611  0.172291  1
  Bi  Bi25  1  0.932244  0.489900  0.671783  1
  Bi  Bi26  1  0.568896  0.490389  0.172291  1
  Bi  Bi27  1  0.430122  0.508519  0.828546  1
  Pt  Pt28  1  0.923830  0.750000  0.988187  1
  Pt  Pt29  1  0.075624  0.250000  0.011857  1
  Pt  Pt30  1  0.424392  0.250000  0.511211  1
  Pt  Pt31  1  0.575761  0.750000  0.487389  1
