# generated using pymatgen
data_Y3Hf4ScIr4
_symmetry_space_group_name_H-M   'P 1'
_cell_length_a   4.51454300
_cell_length_b   7.00658644
_cell_length_c   8.27426371
_cell_angle_alpha   89.67255044
_cell_angle_beta   90.00000000
_cell_angle_gamma   90.00000000
_symmetry_Int_Tables_number   1
_chemical_formula_structural   Y3Hf4ScIr4
_chemical_formula_sum   'Y3 Hf4 Sc1 Ir4'
_cell_volume   261.72339426
_cell_formula_units_Z   1
loop_
 _symmetry_equiv_pos_site_id
 _symmetry_equiv_pos_as_xyz
  1  'x, y, z'
loop_
 _atom_site_type_symbol
 _atom_site_label
 _atom_site_symmetry_multiplicity
 _atom_site_fract_x
 _atom_site_fract_y
 _atom_site_fract_z
 _atom_site_occupancy
  Y  Y0  1  0.250000  0.486670  0.179551  1
  Y  Y1  1  0.750000  0.012238  0.674837  1
  Y  Y2  1  0.750000  0.514395  0.822169  1
  Hf  Hf3  1  0.250000  0.355247  0.568501  1
  Hf  Hf4  1  0.250000  0.861421  0.931560  1
  Hf  Hf5  1  0.750000  0.645157  0.424470  1
  Hf  Hf6  1  0.750000  0.141117  0.080203  1
  Sc  Sc7  1  0.250000  0.981593  0.326353  1
  Ir  Ir8  1  0.250000  0.233712  0.906615  1
  Ir  Ir9  1  0.250000  0.735026  0.586656  1
  Ir  Ir10  1  0.750000  0.769133  0.095342  1
  Ir  Ir11  1  0.750000  0.264289  0.403744  1
