# generated using pymatgen
data_Nd16MgHg3IrRu3
_symmetry_space_group_name_H-M   'P 1'
_cell_length_a   9.89364657
_cell_length_b   9.90749961
_cell_length_c   9.90757566
_cell_angle_alpha   60.16823531
_cell_angle_beta   60.09144992
_cell_angle_gamma   60.09108115
_symmetry_Int_Tables_number   1
_chemical_formula_structural   Nd16MgHg3IrRu3
_chemical_formula_sum   'Nd16 Mg1 Hg3 Ir1 Ru3'
_cell_volume   688.52742048
_cell_formula_units_Z   1
loop_
 _symmetry_equiv_pos_site_id
 _symmetry_equiv_pos_as_xyz
  1  'x, y, z'
loop_
 _atom_site_type_symbol
 _atom_site_label
 _atom_site_symmetry_multiplicity
 _atom_site_fract_x
 _atom_site_fract_y
 _atom_site_fract_z
 _atom_site_occupancy
  Nd  Nd0  1  0.655866  0.039121  0.653261  1
  Nd  Nd1  1  0.807089  0.191710  0.808107  1
  Nd  Nd2  1  0.189815  0.807404  0.807411  1
  Nd  Nd3  1  0.062447  0.438112  0.438110  1
  Nd  Nd4  1  0.060515  0.060024  0.438860  1
  Nd  Nd5  1  0.438526  0.062629  0.437240  1
  Nd  Nd6  1  0.810121  0.188825  0.188814  1
  Nd  Nd7  1  0.439508  0.060169  0.060164  1
  Nd  Nd8  1  0.187012  0.810162  0.190709  1
  Nd  Nd9  1  0.438521  0.437240  0.062633  1
  Nd  Nd10  1  0.807090  0.808105  0.191709  1
  Nd  Nd11  1  0.187001  0.190713  0.810167  1
  Nd  Nd12  1  0.037842  0.654748  0.654743  1
  Nd  Nd13  1  0.651572  0.649909  0.649917  1
  Nd  Nd14  1  0.060522  0.438858  0.060024  1
  Nd  Nd15  1  0.655867  0.653258  0.039119  1
  Mg  Mg16  1  0.430401  0.430659  0.430658  1
  Hg  Hg17  1  0.413807  0.413618  0.753332  1
  Hg  Hg18  1  0.752699  0.413967  0.413965  1
  Hg  Hg19  1  0.413807  0.753333  0.413617  1
  Ir  Ir20  1  0.420367  0.859002  0.859004  1
  Ru  Ru21  1  0.859878  0.861745  0.861752  1
  Ru  Ru22  1  0.859866  0.415328  0.861363  1
  Ru  Ru23  1  0.859866  0.861361  0.415323  1
