# generated using pymatgen
data_Tb2YSn3PdRh2
_symmetry_space_group_name_H-M   'P 1'
_cell_length_a   7.61886014
_cell_length_b   7.62047093
_cell_length_c   3.87543200
_cell_angle_alpha   90.00000000
_cell_angle_beta   90.00000000
_cell_angle_gamma   120.01521863
_symmetry_Int_Tables_number   1
_chemical_formula_structural   Tb2YSn3PdRh2
_chemical_formula_sum   'Tb2 Y1 Sn3 Pd1 Rh2'
_cell_volume   194.83005101
_cell_formula_units_Z   1
loop_
 _symmetry_equiv_pos_site_id
 _symmetry_equiv_pos_as_xyz
  1  'x, y, z'
loop_
 _atom_site_type_symbol
 _atom_site_label
 _atom_site_symmetry_multiplicity
 _atom_site_fract_x
 _atom_site_fract_y
 _atom_site_fract_z
 _atom_site_occupancy
  Tb  Tb0  1  0.409841  0.009288  0.500000  1
  Tb  Tb1  1  0.990798  0.400730  0.500000  1
  Y  Y2  1  0.599717  0.590597  0.500000  1
  Sn  Sn3  1  0.740934  0.000422  0.000000  1
  Sn  Sn4  1  0.999114  0.740267  0.000000  1
  Sn  Sn5  1  0.259890  0.259248  0.000000  1
  Pd  Pd6  1  0.333110  0.666589  0.000000  1
  Rh  Rh7  1  0.666576  0.332809  0.000000  1
  Rh  Rh8  1  0.000020  0.000049  0.500000  1
