# generated using pymatgen
data_Li2La6Cd21Sb
_symmetry_space_group_name_H-M   'P 1'
_cell_length_a   10.18663612
_cell_length_b   10.18663618
_cell_length_c   10.22214500
_cell_angle_alpha   59.88461947
_cell_angle_beta   59.88461928
_cell_angle_gamma   60.38975922
_symmetry_Int_Tables_number   1
_chemical_formula_structural   Li2La6Cd21Sb
_chemical_formula_sum   'Li2 La6 Cd21 Sb1'
_cell_volume   750.90924977
_cell_formula_units_Z   1
loop_
 _symmetry_equiv_pos_site_id
 _symmetry_equiv_pos_as_xyz
  1  'x, y, z'
loop_
 _atom_site_type_symbol
 _atom_site_label
 _atom_site_symmetry_multiplicity
 _atom_site_fract_x
 _atom_site_fract_y
 _atom_site_fract_z
 _atom_site_occupancy
  Li  Li0  1  0.500000  0.500000  0.000000  1
  Li  Li1  1  0.500000  0.500000  0.500000  1
  La  La2  1  0.781678  0.781678  0.218322  1
  La  La3  1  0.214880  0.785120  0.218843  1
  La  La4  1  0.785120  0.214880  0.218843  1
  La  La5  1  0.218322  0.218322  0.781678  1
  La  La6  1  0.785120  0.214880  0.781157  1
  La  La7  1  0.214880  0.785120  0.781157  1
  Cd  Cd8  1  0.831239  0.831239  0.505140  1
  Cd  Cd9  1  0.823504  0.507545  0.834476  1
  Cd  Cd10  1  0.507545  0.823504  0.834476  1
  Cd  Cd11  1  0.831239  0.831239  0.832382  1
  Cd  Cd12  1  0.168761  0.168761  0.494860  1
  Cd  Cd13  1  0.176496  0.492455  0.165524  1
  Cd  Cd14  1  0.492455  0.176496  0.165524  1
  Cd  Cd15  1  0.168761  0.168761  0.167618  1
  Cd  Cd16  1  0.615189  0.615189  0.142968  1
  Cd  Cd17  1  0.618701  0.144699  0.618299  1
  Cd  Cd18  1  0.144699  0.618701  0.618299  1
  Cd  Cd19  1  0.615189  0.615189  0.626652  1
  Cd  Cd20  1  0.384811  0.384811  0.857032  1
  Cd  Cd21  1  0.381299  0.855301  0.381701  1
  Cd  Cd22  1  0.855301  0.381299  0.381701  1
  Cd  Cd23  1  0.384811  0.384811  0.373348  1
  Cd  Cd24  1  0.000000  0.000000  0.500000  1
  Cd  Cd25  1  0.500000  0.000000  0.500000  1
  Cd  Cd26  1  0.000000  0.500000  0.500000  1
  Cd  Cd27  1  0.000000  0.500000  0.000000  1
  Cd  Cd28  1  0.500000  0.000000  0.000000  1
  Sb  Sb29  1  0.000000  0.000000  0.000000  1
