# generated using pymatgen
data_Tm10Bi6Se
_symmetry_space_group_name_H-M   'P 1'
_cell_length_a   9.13576600
_cell_length_b   9.13576735
_cell_length_c   6.36470300
_cell_angle_alpha   90.00000000
_cell_angle_beta   90.00000000
_cell_angle_gamma   119.99999511
_symmetry_Int_Tables_number   1
_chemical_formula_structural   Tm10Bi6Se
_chemical_formula_sum   'Tm10 Bi6 Se1'
_cell_volume   460.04338940
_cell_formula_units_Z   1
loop_
 _symmetry_equiv_pos_site_id
 _symmetry_equiv_pos_as_xyz
  1  'x, y, z'
loop_
 _atom_site_type_symbol
 _atom_site_label
 _atom_site_symmetry_multiplicity
 _atom_site_fract_x
 _atom_site_fract_y
 _atom_site_fract_z
 _atom_site_occupancy
  Tm  Tm0  1  0.666667  0.333333  0.500000  1
  Tm  Tm1  1  0.333333  0.666667  0.500000  1
  Tm  Tm2  1  0.333333  0.666667  0.000000  1
  Tm  Tm3  1  0.666667  0.333333  0.000000  1
  Tm  Tm4  1  0.748638  0.748638  0.239569  1
  Tm  Tm5  1  0.251362  0.000000  0.239569  1
  Tm  Tm6  1  0.000000  0.251362  0.239569  1
  Tm  Tm7  1  0.251362  0.251362  0.760431  1
  Tm  Tm8  1  0.748638  0.000000  0.760431  1
  Tm  Tm9  1  0.000000  0.748638  0.760431  1
  Bi  Bi10  1  0.391036  0.391036  0.250976  1
  Bi  Bi11  1  0.608964  0.000000  0.250976  1
  Bi  Bi12  1  0.000000  0.608964  0.250976  1
  Bi  Bi13  1  0.608964  0.608964  0.749024  1
  Bi  Bi14  1  0.391036  0.000000  0.749024  1
  Bi  Bi15  1  0.000000  0.391036  0.749024  1
  Se  Se16  1  0.000000  0.000000  0.500000  1
