# generated using pymatgen
data_Ho4Er(TcO6)2
_symmetry_space_group_name_H-M   'P 1'
_cell_length_a   6.78924753
_cell_length_b   6.78924836
_cell_length_c   7.48801615
_cell_angle_alpha   73.75010163
_cell_angle_beta   73.75009923
_cell_angle_gamma   49.17374208
_symmetry_Int_Tables_number   1
_chemical_formula_structural   Ho4Er(TcO6)2
_chemical_formula_sum   'Ho4 Er1 Tc2 O12'
_cell_volume   248.50107763
_cell_formula_units_Z   1
loop_
 _symmetry_equiv_pos_site_id
 _symmetry_equiv_pos_as_xyz
  1  'x, y, z'
loop_
 _atom_site_type_symbol
 _atom_site_label
 _atom_site_symmetry_multiplicity
 _atom_site_fract_x
 _atom_site_fract_y
 _atom_site_fract_z
 _atom_site_occupancy
  Ho  Ho0  1  0.695870  0.695870  0.641478  1
  Ho  Ho1  1  0.304130  0.304130  0.358522  1
  Ho  Ho2  1  0.684434  0.684434  0.176289  1
  Ho  Ho3  1  0.315566  0.315566  0.823711  1
  Er  Er4  1  0.000000  0.000000  0.500000  1
  Tc  Tc5  1  0.785734  0.214266  0.000000  1
  Tc  Tc6  1  0.214266  0.785734  0.000000  1
  O  O7  1  0.001174  0.001174  0.205713  1
  O  O8  1  0.998826  0.998826  0.794287  1
  O  O9  1  0.582023  0.087053  0.085032  1
  O  O10  1  0.417977  0.912947  0.914968  1
  O  O11  1  0.912947  0.417977  0.914968  1
  O  O12  1  0.087053  0.582023  0.085032  1
  O  O13  1  0.498852  0.498852  0.179551  1
  O  O14  1  0.501148  0.501148  0.820449  1
  O  O15  1  0.404859  0.901896  0.426465  1
  O  O16  1  0.595141  0.098104  0.573535  1
  O  O17  1  0.098104  0.595141  0.573535  1
  O  O18  1  0.901896  0.404859  0.426465  1
