# generated using pymatgen
data_La2Ho4TaRuO14
_symmetry_space_group_name_H-M   'P 1'
_cell_length_a   6.49776179
_cell_length_b   6.49776188
_cell_length_c   7.58788250
_cell_angle_alpha   90.03377473
_cell_angle_beta   89.96622937
_cell_angle_gamma   108.96876686
_symmetry_Int_Tables_number   1
_chemical_formula_structural   La2Ho4TaRuO14
_chemical_formula_sum   'La2 Ho4 Ta1 Ru1 O14'
_cell_volume   302.96996086
_cell_formula_units_Z   1
loop_
 _symmetry_equiv_pos_site_id
 _symmetry_equiv_pos_as_xyz
  1  'x, y, z'
loop_
 _atom_site_type_symbol
 _atom_site_label
 _atom_site_symmetry_multiplicity
 _atom_site_fract_x
 _atom_site_fract_y
 _atom_site_fract_z
 _atom_site_occupancy
  La  La0  1  0.505450  0.505450  0.500000  1
  La  La1  1  0.494874  0.494874  0.000000  1
  Ho  Ho2  1  0.000754  0.534290  0.246757  1
  Ho  Ho3  1  0.999468  0.465462  0.747127  1
  Ho  Ho4  1  0.534290  0.000754  0.753243  1
  Ho  Ho5  1  0.465462  0.999468  0.252873  1
  Ta  Ta6  1  0.999740  0.999740  0.000000  1
  Ru  Ru7  1  0.999392  0.999392  0.500000  1
  O  O8  1  0.934643  0.065223  0.748566  1
  O  O9  1  0.065223  0.934643  0.251434  1
  O  O10  1  0.355248  0.644702  0.250675  1
  O  O11  1  0.644702  0.355248  0.749325  1
  O  O12  1  0.361501  0.638734  0.750182  1
  O  O13  1  0.638734  0.361501  0.249818  1
  O  O14  1  0.322032  0.068727  0.971091  1
  O  O15  1  0.680222  0.932029  0.471351  1
  O  O16  1  0.314251  0.062605  0.535054  1
  O  O17  1  0.683269  0.937385  0.036095  1
  O  O18  1  0.062605  0.314251  0.464946  1
  O  O19  1  0.937385  0.683269  0.963905  1
  O  O20  1  0.932029  0.680222  0.528649  1
  O  O21  1  0.068727  0.322032  0.028909  1
