# generated using pymatgen
data_Sm2Ni2AsPt6
_symmetry_space_group_name_H-M   'P 1'
_cell_length_a   8.69409124
_cell_length_b   8.69409044
_cell_length_c   4.29815100
_cell_angle_alpha   90.00000000
_cell_angle_beta   90.00000000
_cell_angle_gamma   143.02649663
_symmetry_Int_Tables_number   1
_chemical_formula_structural   Sm2Ni2AsPt6
_chemical_formula_sum   'Sm2 Ni2 As1 Pt6'
_cell_volume   195.40082248
_cell_formula_units_Z   1
loop_
 _symmetry_equiv_pos_site_id
 _symmetry_equiv_pos_as_xyz
  1  'x, y, z'
loop_
 _atom_site_type_symbol
 _atom_site_label
 _atom_site_symmetry_multiplicity
 _atom_site_fract_x
 _atom_site_fract_y
 _atom_site_fract_z
 _atom_site_occupancy
  Sm  Sm0  1  0.624270  0.373634  0.500000  1
  Sm  Sm1  1  0.373634  0.624270  0.500000  1
  Ni  Ni2  1  0.100685  0.876747  0.000000  1
  Ni  Ni3  1  0.876747  0.100685  0.000000  1
  As  As4  1  0.229686  0.229686  0.000000  1
  Pt  Pt5  1  0.489501  0.985435  0.000000  1
  Pt  Pt6  1  0.985435  0.489501  0.000000  1
  Pt  Pt7  1  0.189507  0.801071  0.500000  1
  Pt  Pt8  1  0.801071  0.189507  0.500000  1
  Pt  Pt9  1  0.985863  0.985863  0.500000  1
  Pt  Pt10  1  0.657197  0.657197  0.000000  1
