# generated using pymatgen
data_Tm2MnCo8P6Os
_symmetry_space_group_name_H-M   'P 1'
_cell_length_a   3.67370800
_cell_length_b   10.30431100
_cell_length_c   11.76596800
_cell_angle_alpha   90.00000000
_cell_angle_beta   90.00000000
_cell_angle_gamma   90.00000000
_symmetry_Int_Tables_number   1
_chemical_formula_structural   Tm2MnCo8P6Os
_chemical_formula_sum   'Tm4 Mn2 Co16 P12 Os2'
_cell_volume   445.40106874
_cell_formula_units_Z   2
loop_
 _symmetry_equiv_pos_site_id
 _symmetry_equiv_pos_as_xyz
  1  'x, y, z'
loop_
 _atom_site_type_symbol
 _atom_site_label
 _atom_site_symmetry_multiplicity
 _atom_site_fract_x
 _atom_site_fract_y
 _atom_site_fract_z
 _atom_site_occupancy
  Tm  Tm0  1  0.250000  0.581071  0.702841  1
  Tm  Tm1  1  0.250000  0.918929  0.202841  1
  Tm  Tm2  1  0.750000  0.414790  0.294518  1
  Tm  Tm3  1  0.750000  0.085210  0.794518  1
  Mn  Mn4  1  0.750000  0.288259  0.012922  1
  Mn  Mn5  1  0.750000  0.211741  0.512922  1
  Co  Co6  1  0.250000  0.406335  0.485516  1
  Co  Co7  1  0.250000  0.093665  0.985516  1
  Co  Co8  1  0.750000  0.592621  0.511480  1
  Co  Co9  1  0.750000  0.907379  0.011480  1
  Co  Co10  1  0.250000  0.220764  0.176898  1
  Co  Co11  1  0.250000  0.279236  0.676898  1
  Co  Co12  1  0.750000  0.777870  0.822858  1
  Co  Co13  1  0.750000  0.722130  0.322858  1
  Co  Co14  1  0.250000  0.886803  0.702284  1
  Co  Co15  1  0.250000  0.613197  0.202284  1
  Co  Co16  1  0.750000  0.115985  0.300214  1
  Co  Co17  1  0.750000  0.384015  0.800214  1
  Co  Co18  1  0.250000  0.465858  0.932730  1
  Co  Co19  1  0.250000  0.034142  0.432730  1
  Co  Co20  1  0.750000  0.535901  0.068329  1
  Co  Co21  1  0.750000  0.964099  0.568329  1
  P  P22  1  0.250000  0.416903  0.112950  1
  P  P23  1  0.250000  0.083097  0.612950  1
  P  P24  1  0.750000  0.578354  0.885458  1
  P  P25  1  0.750000  0.921646  0.385458  1
  P  P26  1  0.250000  0.269637  0.867455  1
  P  P27  1  0.250000  0.230363  0.367455  1
  P  P28  1  0.750000  0.731917  0.133763  1
  P  P29  1  0.750000  0.768083  0.633763  1
  P  P30  1  0.250000  0.594255  0.389931  1
  P  P31  1  0.250000  0.905745  0.889931  1
  P  P32  1  0.750000  0.399738  0.608591  1
  P  P33  1  0.750000  0.100262  0.108591  1
  Os  Os34  1  0.250000  0.713158  0.991263  1
  Os  Os35  1  0.250000  0.786842  0.491263  1
