# generated using pymatgen
data_Y2ZnSi(BRh3)2
_symmetry_space_group_name_H-M   'P 1'
_cell_length_a   5.40120400
_cell_length_b   5.40120497
_cell_length_c   6.92100300
_cell_angle_alpha   90.00000000
_cell_angle_beta   90.00000000
_cell_angle_gamma   119.99999403
_symmetry_Int_Tables_number   1
_chemical_formula_structural   Y2ZnSi(BRh3)2
_chemical_formula_sum   'Y2 Zn1 Si1 B2 Rh6'
_cell_volume   174.85615928
_cell_formula_units_Z   1
loop_
 _symmetry_equiv_pos_site_id
 _symmetry_equiv_pos_as_xyz
  1  'x, y, z'
loop_
 _atom_site_type_symbol
 _atom_site_label
 _atom_site_symmetry_multiplicity
 _atom_site_fract_x
 _atom_site_fract_y
 _atom_site_fract_z
 _atom_site_occupancy
  Y  Y0  1  0.000000  0.000000  0.500000  1
  Y  Y1  1  0.000000  0.000000  0.000000  1
  Zn  Zn2  1  0.333333  0.666667  0.000000  1
  Si  Si3  1  0.666667  0.333333  0.000000  1
  B  B4  1  0.666667  0.333333  0.500000  1
  B  B5  1  0.333333  0.666667  0.500000  1
  Rh  Rh6  1  0.501560  0.003119  0.284902  1
  Rh  Rh7  1  0.501560  0.498440  0.284902  1
  Rh  Rh8  1  0.996881  0.498440  0.284902  1
  Rh  Rh9  1  0.501560  0.003119  0.715098  1
  Rh  Rh10  1  0.501560  0.498440  0.715098  1
  Rh  Rh11  1  0.996881  0.498440  0.715098  1
