# generated using pymatgen
data_Er4Tm4Sc12Si15Ag
_symmetry_space_group_name_H-M   'P 1'
_cell_length_a   7.10306362
_cell_length_b   7.34723129
_cell_length_c   14.02318581
_cell_angle_alpha   89.88981306
_cell_angle_beta   89.54640918
_cell_angle_gamma   90.17051149
_symmetry_Int_Tables_number   1
_chemical_formula_structural   Er4Tm4Sc12Si15Ag
_chemical_formula_sum   'Er4 Tm4 Sc12 Si15 Ag1'
_cell_volume   731.81237460
_cell_formula_units_Z   1
loop_
 _symmetry_equiv_pos_site_id
 _symmetry_equiv_pos_as_xyz
  1  'x, y, z'
loop_
 _atom_site_type_symbol
 _atom_site_label
 _atom_site_symmetry_multiplicity
 _atom_site_fract_x
 _atom_site_fract_y
 _atom_site_fract_z
 _atom_site_occupancy
  Er  Er0  1  0.012066  0.175761  0.097488  1
  Er  Er1  1  0.987940  0.825612  0.904183  1
  Er  Er2  1  0.487508  0.677669  0.904115  1
  Er  Er3  1  0.989448  0.830391  0.597504  1
  Tm  Tm4  1  0.511899  0.322763  0.096435  1
  Tm  Tm5  1  0.008125  0.172010  0.398811  1
  Tm  Tm6  1  0.511031  0.321894  0.400449  1
  Tm  Tm7  1  0.494488  0.678930  0.599665  1
  Sc  Sc8  1  0.163768  0.502408  0.753004  1
  Sc  Sc9  1  0.837060  0.497839  0.251032  1
  Sc  Sc10  1  0.337012  0.000788  0.248969  1
  Sc  Sc11  1  0.665519  0.995660  0.751189  1
  Sc  Sc12  1  0.342602  0.173619  0.626792  1
  Sc  Sc13  1  0.663748  0.823258  0.373532  1
  Sc  Sc14  1  0.166537  0.675019  0.371700  1
  Sc  Sc15  1  0.669331  0.824350  0.124897  1
  Sc  Sc16  1  0.827068  0.325608  0.625392  1
  Sc  Sc17  1  0.329093  0.175333  0.876229  1
  Sc  Sc18  1  0.830774  0.322705  0.875991  1
  Sc  Sc19  1  0.168949  0.676205  0.125299  1
  Si  Si20  1  0.036479  0.119499  0.750090  1
  Si  Si21  1  0.964858  0.885118  0.248546  1
  Si  Si22  1  0.466594  0.612726  0.248025  1
  Si  Si23  1  0.534498  0.387842  0.752342  1
  Si  Si24  1  0.285968  0.872186  0.750946  1
  Si  Si25  1  0.712152  0.129458  0.248452  1
  Si  Si26  1  0.214285  0.368542  0.248380  1
  Si  Si27  1  0.788481  0.629621  0.752528  1
  Si  Si28  1  0.832936  0.536710  0.459369  1
  Si  Si29  1  0.335171  0.962208  0.460959  1
  Si  Si30  1  0.842158  0.534755  0.039238  1
  Si  Si31  1  0.661542  0.035942  0.537629  1
  Si  Si32  1  0.156772  0.464882  0.962045  1
  Si  Si33  1  0.658441  0.034858  0.960815  1
  Si  Si34  1  0.341650  0.965093  0.039994  1
  Ag  Ag35  1  0.164046  0.462732  0.537970  1
