# generated using pymatgen
data_TbAl2GaCu
_symmetry_space_group_name_H-M   'P 1'
_cell_length_a   4.09912676
_cell_length_b   4.09962919
_cell_length_c   6.10576706
_cell_angle_alpha   70.38382490
_cell_angle_beta   70.38632162
_cell_angle_gamma   90.00001659
_symmetry_Int_Tables_number   1
_chemical_formula_structural   TbAl2GaCu
_chemical_formula_sum   'Tb1 Al2 Ga1 Cu1'
_cell_volume   90.30652047
_cell_formula_units_Z   1
loop_
 _symmetry_equiv_pos_site_id
 _symmetry_equiv_pos_as_xyz
  1  'x, y, z'
loop_
 _atom_site_type_symbol
 _atom_site_label
 _atom_site_symmetry_multiplicity
 _atom_site_fract_x
 _atom_site_fract_y
 _atom_site_fract_z
 _atom_site_occupancy
  Tb  Tb0  1  0.992577  0.992577  0.014846  1
  Al  Al1  1  0.743304  0.243304  0.513392  1
  Al  Al2  1  0.243368  0.743368  0.513263  1
  Ga  Ga3  1  0.400423  0.400423  0.199155  1
  Cu  Cu4  1  0.620328  0.620328  0.759344  1
