# generated using pymatgen
data_NdMnP3Rh4
_symmetry_space_group_name_H-M   'P 1'
_cell_length_a   3.92312200
_cell_length_b   10.82031700
_cell_length_c   12.55451700
_cell_angle_alpha   90.00000000
_cell_angle_beta   90.00000000
_cell_angle_gamma   90.00000000
_symmetry_Int_Tables_number   1
_chemical_formula_structural   NdMnP3Rh4
_chemical_formula_sum   'Nd4 Mn4 P12 Rh16'
_cell_volume   532.93201110
_cell_formula_units_Z   4
loop_
 _symmetry_equiv_pos_site_id
 _symmetry_equiv_pos_as_xyz
  1  'x, y, z'
loop_
 _atom_site_type_symbol
 _atom_site_label
 _atom_site_symmetry_multiplicity
 _atom_site_fract_x
 _atom_site_fract_y
 _atom_site_fract_z
 _atom_site_occupancy
  Nd  Nd0  1  0.250000  0.584451  0.707318  1
  Nd  Nd1  1  0.250000  0.915549  0.207318  1
  Nd  Nd2  1  0.750000  0.415549  0.292682  1
  Nd  Nd3  1  0.750000  0.084451  0.792682  1
  Mn  Mn4  1  0.250000  0.464043  0.936926  1
  Mn  Mn5  1  0.250000  0.035957  0.436926  1
  Mn  Mn6  1  0.750000  0.535957  0.063074  1
  Mn  Mn7  1  0.750000  0.964043  0.563074  1
  P  P8  1  0.250000  0.426661  0.108004  1
  P  P9  1  0.250000  0.073339  0.608004  1
  P  P10  1  0.750000  0.573339  0.891996  1
  P  P11  1  0.750000  0.926661  0.391996  1
  P  P12  1  0.250000  0.273151  0.870464  1
  P  P13  1  0.250000  0.226849  0.370464  1
  P  P14  1  0.750000  0.726849  0.129536  1
  P  P15  1  0.750000  0.773151  0.629536  1
  P  P16  1  0.250000  0.602054  0.389894  1
  P  P17  1  0.250000  0.897946  0.889894  1
  P  P18  1  0.750000  0.397946  0.610106  1
  P  P19  1  0.750000  0.102054  0.110106  1
  Rh  Rh20  1  0.250000  0.714571  0.988943  1
  Rh  Rh21  1  0.250000  0.785429  0.488943  1
  Rh  Rh22  1  0.750000  0.285429  0.011057  1
  Rh  Rh23  1  0.750000  0.214571  0.511057  1
  Rh  Rh24  1  0.250000  0.407922  0.483004  1
  Rh  Rh25  1  0.250000  0.092078  0.983004  1
  Rh  Rh26  1  0.750000  0.592078  0.516996  1
  Rh  Rh27  1  0.750000  0.907922  0.016996  1
  Rh  Rh28  1  0.250000  0.226302  0.175713  1
  Rh  Rh29  1  0.250000  0.273698  0.675713  1
  Rh  Rh30  1  0.750000  0.773698  0.824287  1
  Rh  Rh31  1  0.750000  0.726302  0.324287  1
  Rh  Rh32  1  0.250000  0.883264  0.699434  1
  Rh  Rh33  1  0.250000  0.616736  0.199434  1
  Rh  Rh34  1  0.750000  0.116736  0.300566  1
  Rh  Rh35  1  0.750000  0.383264  0.800566  1
