# generated using pymatgen
data_Zr8Ti9Ge16W3
_symmetry_space_group_name_H-M   'P 1'
_cell_length_a   6.75392800
_cell_length_b   6.88415700
_cell_length_c   13.19313400
_cell_angle_alpha   90.00000000
_cell_angle_beta   90.00000000
_cell_angle_gamma   89.99868096
_symmetry_Int_Tables_number   1
_chemical_formula_structural   Zr8Ti9Ge16W3
_chemical_formula_sum   'Zr8 Ti9 Ge16 W3'
_cell_volume   613.41609404
_cell_formula_units_Z   1
loop_
 _symmetry_equiv_pos_site_id
 _symmetry_equiv_pos_as_xyz
  1  'x, y, z'
loop_
 _atom_site_type_symbol
 _atom_site_label
 _atom_site_symmetry_multiplicity
 _atom_site_fract_x
 _atom_site_fract_y
 _atom_site_fract_z
 _atom_site_occupancy
  Zr  Zr0  1  0.491766  0.673256  0.092828  1
  Zr  Zr1  1  0.989821  0.826120  0.406914  1
  Zr  Zr2  1  0.508743  0.325605  0.592723  1
  Zr  Zr3  1  0.007530  0.173072  0.906918  1
  Zr  Zr4  1  0.508743  0.325605  0.907277  1
  Zr  Zr5  1  0.007530  0.173072  0.593082  1
  Zr  Zr6  1  0.491766  0.673256  0.407172  1
  Zr  Zr7  1  0.989821  0.826120  0.093086  1
  Ti  Ti8  1  0.166510  0.507691  0.750000  1
  Ti  Ti9  1  0.660627  0.165648  0.125107  1
  Ti  Ti10  1  0.160459  0.334635  0.374630  1
  Ti  Ti11  1  0.340443  0.834378  0.625212  1
  Ti  Ti12  1  0.837403  0.667153  0.875132  1
  Ti  Ti13  1  0.340443  0.834378  0.874788  1
  Ti  Ti14  1  0.837403  0.667153  0.624868  1
  Ti  Ti15  1  0.660627  0.165648  0.374893  1
  Ti  Ti16  1  0.160459  0.334635  0.125370  1
  Ge  Ge17  1  0.693588  0.855083  0.250000  1
  Ge  Ge18  1  0.194378  0.645979  0.250000  1
  Ge  Ge19  1  0.305300  0.146531  0.750000  1
  Ge  Ge20  1  0.809023  0.356912  0.750000  1
  Ge  Ge21  1  0.680403  0.958192  0.960402  1
  Ge  Ge22  1  0.179828  0.541246  0.540121  1
  Ge  Ge23  1  0.319838  0.041609  0.460272  1
  Ge  Ge24  1  0.820401  0.458112  0.039728  1
  Ge  Ge25  1  0.319838  0.041609  0.039728  1
  Ge  Ge26  1  0.820401  0.458112  0.460272  1
  Ge  Ge27  1  0.680403  0.958192  0.539598  1
  Ge  Ge28  1  0.179828  0.541246  0.959879  1
  Ge  Ge29  1  0.463652  0.379730  0.250000  1
  Ge  Ge30  1  0.963216  0.120620  0.250000  1
  Ge  Ge31  1  0.535884  0.619832  0.750000  1
  Ge  Ge32  1  0.038285  0.876653  0.750000  1
  W  W33  1  0.334625  0.010523  0.250000  1
  W  W34  1  0.834863  0.490897  0.250000  1
  W  W35  1  0.666150  0.991500  0.750000  1
