# generated using pymatgen
data_Nb12CoNi7(MoN)4
_symmetry_space_group_name_H-M   'P 1'
_cell_length_a   8.17849433
_cell_length_b   8.18292129
_cell_length_c   8.18292100
_cell_angle_alpha   59.99999712
_cell_angle_beta   59.98208968
_cell_angle_gamma   59.98208647
_symmetry_Int_Tables_number   1
_chemical_formula_structural   Nb12CoNi7(MoN)4
_chemical_formula_sum   'Nb12 Co1 Ni7 Mo4 N4'
_cell_volume   387.13055314
_cell_formula_units_Z   1
loop_
 _symmetry_equiv_pos_site_id
 _symmetry_equiv_pos_as_xyz
  1  'x, y, z'
loop_
 _atom_site_type_symbol
 _atom_site_label
 _atom_site_symmetry_multiplicity
 _atom_site_fract_x
 _atom_site_fract_y
 _atom_site_fract_z
 _atom_site_occupancy
  Nb  Nb0  1  0.313132  0.686911  0.686911  1
  Nb  Nb1  1  0.561967  0.562975  0.937529  1
  Nb  Nb2  1  0.313132  0.686911  0.313045  1
  Nb  Nb3  1  0.313132  0.313045  0.686911  1
  Nb  Nb4  1  0.687821  0.312855  0.312855  1
  Nb  Nb5  1  0.936975  0.937535  0.562745  1
  Nb  Nb6  1  0.936975  0.562745  0.937535  1
  Nb  Nb7  1  0.936975  0.562745  0.562745  1
  Nb  Nb8  1  0.561967  0.937529  0.937529  1
  Nb  Nb9  1  0.687821  0.686469  0.312855  1
  Nb  Nb10  1  0.687821  0.312855  0.686469  1
  Nb  Nb11  1  0.561967  0.937529  0.562975  1
  Co  Co12  1  0.019401  0.326867  0.326867  1
  Ni  Ni13  1  0.920304  0.920457  0.920457  1
  Ni  Ni14  1  0.330270  0.329113  0.011504  1
  Ni  Ni15  1  0.920304  0.920457  0.238782  1
  Ni  Ni16  1  0.239267  0.920244  0.920244  1
  Ni  Ni17  1  0.330270  0.011504  0.329113  1
  Ni  Ni18  1  0.920304  0.238782  0.920457  1
  Ni  Ni19  1  0.330270  0.329113  0.329113  1
  Mo  Mo20  1  0.121389  0.127641  0.623329  1
  Mo  Mo21  1  0.121389  0.127641  0.127641  1
  Mo  Mo22  1  0.626053  0.124649  0.124649  1
  Mo  Mo23  1  0.121389  0.623329  0.127641  1
  N  N24  1  0.625197  0.124569  0.625117  1
  N  N25  1  0.625197  0.625117  0.124569  1
  N  N26  1  0.124114  0.625295  0.625295  1
  N  N27  1  0.625197  0.625117  0.625117  1
