# generated using pymatgen
data_Tm2Lu3RuPb3
_symmetry_space_group_name_H-M   'P 1'
_cell_length_a   9.18592200
_cell_length_b   9.18592167
_cell_length_c   6.47993500
_cell_angle_alpha   90.00000000
_cell_angle_beta   90.00000000
_cell_angle_gamma   119.99999400
_symmetry_Int_Tables_number   1
_chemical_formula_structural   Tm2Lu3RuPb3
_chemical_formula_sum   'Tm4 Lu6 Ru2 Pb6'
_cell_volume   473.52923667
_cell_formula_units_Z   2
loop_
 _symmetry_equiv_pos_site_id
 _symmetry_equiv_pos_as_xyz
  1  'x, y, z'
loop_
 _atom_site_type_symbol
 _atom_site_label
 _atom_site_symmetry_multiplicity
 _atom_site_fract_x
 _atom_site_fract_y
 _atom_site_fract_z
 _atom_site_occupancy
  Tm  Tm0  1  0.666667  0.333333  0.000000  1
  Tm  Tm1  1  0.333333  0.666667  0.000000  1
  Tm  Tm2  1  0.333333  0.666667  0.500000  1
  Tm  Tm3  1  0.666667  0.333333  0.500000  1
  Lu  Lu4  1  0.764453  0.764453  0.750000  1
  Lu  Lu5  1  0.235547  0.000000  0.750000  1
  Lu  Lu6  1  0.000000  0.235547  0.750000  1
  Lu  Lu7  1  0.235547  0.235547  0.250000  1
  Lu  Lu8  1  0.764453  0.000000  0.250000  1
  Lu  Lu9  1  0.000000  0.764453  0.250000  1
  Ru  Ru10  1  0.000000  0.000000  0.000000  1
  Ru  Ru11  1  0.000000  0.000000  0.500000  1
  Pb  Pb12  1  0.403330  0.403330  0.750000  1
  Pb  Pb13  1  0.596670  0.000000  0.750000  1
  Pb  Pb14  1  0.000000  0.596670  0.750000  1
  Pb  Pb15  1  0.596670  0.596670  0.250000  1
  Pb  Pb16  1  0.403330  0.000000  0.250000  1
  Pb  Pb17  1  0.000000  0.403330  0.250000  1
