# generated using pymatgen
data_Lu8Ga3Co
_symmetry_space_group_name_H-M   'P 1'
_cell_length_a   9.79042600
_cell_length_b   9.79096825
_cell_length_c   6.76125800
_cell_angle_alpha   90.00000000
_cell_angle_beta   90.00000000
_cell_angle_gamma   119.99795451
_symmetry_Int_Tables_number   1
_chemical_formula_structural   Lu8Ga3Co
_chemical_formula_sum   'Lu16 Ga6 Co2'
_cell_volume   561.29907009
_cell_formula_units_Z   2
loop_
 _symmetry_equiv_pos_site_id
 _symmetry_equiv_pos_as_xyz
  1  'x, y, z'
loop_
 _atom_site_type_symbol
 _atom_site_label
 _atom_site_symmetry_multiplicity
 _atom_site_fract_x
 _atom_site_fract_y
 _atom_site_fract_z
 _atom_site_occupancy
  Lu  Lu0  1  0.173517  0.826478  0.510457  1
  Lu  Lu1  1  0.652960  0.826484  0.510452  1
  Lu  Lu2  1  0.173529  0.347052  0.510452  1
  Lu  Lu3  1  0.826483  0.173522  0.010457  1
  Lu  Lu4  1  0.347040  0.173516  0.010452  1
  Lu  Lu5  1  0.826471  0.652948  0.010452  1
  Lu  Lu6  1  0.333336  0.666673  0.827965  1
  Lu  Lu7  1  0.666664  0.333327  0.327965  1
  Lu  Lu8  1  0.464029  0.535982  0.207186  1
  Lu  Lu9  1  0.071938  0.535961  0.207179  1
  Lu  Lu10  1  0.464030  0.928060  0.207187  1
  Lu  Lu11  1  0.535971  0.464018  0.707186  1
  Lu  Lu12  1  0.928062  0.464039  0.707179  1
  Lu  Lu13  1  0.535970  0.071940  0.707187  1
  Lu  Lu14  1  0.000005  0.999991  0.232763  1
  Lu  Lu15  1  0.999995  0.000009  0.732763  1
  Ga  Ga16  1  0.163298  0.836728  0.959977  1
  Ga  Ga17  1  0.673412  0.836690  0.959952  1
  Ga  Ga18  1  0.163306  0.326594  0.959957  1
  Ga  Ga19  1  0.836702  0.163272  0.459977  1
  Ga  Ga20  1  0.326588  0.163310  0.459952  1
  Ga  Ga21  1  0.836694  0.673406  0.459957  1
  Co  Co22  1  0.333333  0.666671  0.443891  1
  Co  Co23  1  0.666667  0.333329  0.943891  1
