# generated using pymatgen
data_Ca2HgPd6
_symmetry_space_group_name_H-M   'P 1'
_cell_length_a   5.35819919
_cell_length_b   5.37660592
_cell_length_c   13.67949800
_cell_angle_alpha   90.00000000
_cell_angle_beta   90.00000000
_cell_angle_gamma   119.84095069
_symmetry_Int_Tables_number   1
_chemical_formula_structural   Ca2HgPd6
_chemical_formula_sum   'Ca4 Hg2 Pd12'
_cell_volume   341.83904095
_cell_formula_units_Z   2
loop_
 _symmetry_equiv_pos_site_id
 _symmetry_equiv_pos_as_xyz
  1  'x, y, z'
loop_
 _atom_site_type_symbol
 _atom_site_label
 _atom_site_symmetry_multiplicity
 _atom_site_fract_x
 _atom_site_fract_y
 _atom_site_fract_z
 _atom_site_occupancy
  Ca  Ca0  1  0.323799  0.324030  0.119397  1
  Ca  Ca1  1  0.676201  0.675970  0.619397  1
  Ca  Ca2  1  0.329152  0.322347  0.379399  1
  Ca  Ca3  1  0.670848  0.677653  0.879399  1
  Hg  Hg4  1  0.998536  0.665242  0.075076  1
  Hg  Hg5  1  0.001464  0.334758  0.575076  1
  Pd  Pd6  1  0.832795  0.831011  0.251082  1
  Pd  Pd7  1  0.167205  0.168989  0.751082  1
  Pd  Pd8  1  0.827187  0.328374  0.251550  1
  Pd  Pd9  1  0.172813  0.671626  0.751550  1
  Pd  Pd10  1  0.331268  0.825510  0.250546  1
  Pd  Pd11  1  0.668732  0.174490  0.750546  1
  Pd  Pd12  1  0.651733  0.987609  0.421586  1
  Pd  Pd13  1  0.348267  0.012391  0.921586  1
  Pd  Pd14  1  0.998017  0.329247  0.922127  1
  Pd  Pd15  1  0.001983  0.670753  0.422127  1
  Pd  Pd16  1  0.338889  0.004201  0.579237  1
  Pd  Pd17  1  0.661111  0.995799  0.079237  1
