# generated using pymatgen
data_Y5Zr(SnIr)6
_symmetry_space_group_name_H-M   'P 1'
_cell_length_a   7.55302429
_cell_length_b   7.47326595
_cell_length_c   7.82922300
_cell_angle_alpha   90.00000000
_cell_angle_beta   90.00000000
_cell_angle_gamma   120.38966433
_symmetry_Int_Tables_number   1
_chemical_formula_structural   Y5Zr(SnIr)6
_chemical_formula_sum   'Y5 Zr1 Sn6 Ir6'
_cell_volume   381.20792720
_cell_formula_units_Z   1
loop_
 _symmetry_equiv_pos_site_id
 _symmetry_equiv_pos_as_xyz
  1  'x, y, z'
loop_
 _atom_site_type_symbol
 _atom_site_label
 _atom_site_symmetry_multiplicity
 _atom_site_fract_x
 _atom_site_fract_y
 _atom_site_fract_z
 _atom_site_occupancy
  Y  Y0  1  0.409036  0.001601  0.250000  1
  Y  Y1  1  0.596492  0.595543  0.750000  1
  Y  Y2  1  0.592893  0.596710  0.250000  1
  Y  Y3  1  0.994994  0.402927  0.250000  1
  Y  Y4  1  0.005233  0.406280  0.750000  1
  Zr  Zr5  1  0.398921  0.998669  0.750000  1
  Sn  Sn6  1  0.261296  0.263471  0.498620  1
  Sn  Sn7  1  0.261296  0.263471  0.001380  1
  Sn  Sn8  1  0.743597  0.000404  0.991419  1
  Sn  Sn9  1  0.996865  0.735977  0.499108  1
  Sn  Sn10  1  0.743597  0.000404  0.508581  1
  Sn  Sn11  1  0.996865  0.735977  0.000892  1
  Ir  Ir12  1  0.655948  0.319363  0.515565  1
  Ir  Ir13  1  0.655948  0.319363  0.984435  1
  Ir  Ir14  1  0.336147  0.679989  0.990509  1
  Ir  Ir15  1  0.336147  0.679989  0.509491  1
  Ir  Ir16  1  0.015249  0.999982  0.750000  1
  Ir  Ir17  1  0.999477  0.999880  0.250000  1
