# generated using pymatgen
data_Hf2VCr3
_symmetry_space_group_name_H-M   'P 1'
_cell_length_a   5.02285696
_cell_length_b   5.08815559
_cell_length_c   5.02285800
_cell_angle_alpha   60.42363329
_cell_angle_beta   60.00000630
_cell_angle_gamma   60.42363123
_symmetry_Int_Tables_number   1
_chemical_formula_structural   Hf2VCr3
_chemical_formula_sum   'Hf2 V1 Cr3'
_cell_volume   91.34788878
_cell_formula_units_Z   1
loop_
 _symmetry_equiv_pos_site_id
 _symmetry_equiv_pos_as_xyz
  1  'x, y, z'
loop_
 _atom_site_type_symbol
 _atom_site_label
 _atom_site_symmetry_multiplicity
 _atom_site_fract_x
 _atom_site_fract_y
 _atom_site_fract_z
 _atom_site_occupancy
  Hf  Hf0  1  0.500924  0.497227  0.500924  1
  Hf  Hf1  1  0.749076  0.752773  0.749076  1
  V  V2  1  0.125000  0.625000  0.125000  1
  Cr  Cr3  1  0.125000  0.125000  0.125000  1
  Cr  Cr4  1  0.625000  0.125000  0.125000  1
  Cr  Cr5  1  0.125000  0.125000  0.625000  1
