# generated using pymatgen
data_LaErTa2Bi2O11
_symmetry_space_group_name_H-M   'P 1'
_cell_length_a   6.61618104
_cell_length_b   7.72945517
_cell_length_c   9.84632383
_cell_angle_alpha   101.31618339
_cell_angle_beta   90.16730713
_cell_angle_gamma   90.16826942
_symmetry_Int_Tables_number   1
_chemical_formula_structural   LaErTa2Bi2O11
_chemical_formula_sum   'La2 Er2 Ta4 Bi4 O22'
_cell_volume   493.74145891
_cell_formula_units_Z   2
loop_
 _symmetry_equiv_pos_site_id
 _symmetry_equiv_pos_as_xyz
  1  'x, y, z'
loop_
 _atom_site_type_symbol
 _atom_site_label
 _atom_site_symmetry_multiplicity
 _atom_site_fract_x
 _atom_site_fract_y
 _atom_site_fract_z
 _atom_site_occupancy
  La  La0  1  0.751125  0.367618  0.491113  1
  La  La1  1  0.248875  0.632382  0.508887  1
  Er  Er2  1  0.757464  0.873264  0.480503  1
  Er  Er3  1  0.242536  0.126736  0.519497  1
  Ta  Ta4  1  0.913597  0.702636  0.804874  1
  Ta  Ta5  1  0.086403  0.297364  0.195126  1
  Ta  Ta6  1  0.914736  0.199870  0.806463  1
  Ta  Ta7  1  0.085264  0.800130  0.193537  1
  Bi  Bi8  1  0.440614  0.956599  0.814115  1
  Bi  Bi9  1  0.559386  0.043401  0.185885  1
  Bi  Bi10  1  0.386300  0.456320  0.827463  1
  Bi  Bi11  1  0.613700  0.543680  0.172537  1
  O  O12  1  0.215940  0.728378  0.762324  1
  O  O13  1  0.784060  0.271622  0.237676  1
  O  O14  1  0.629541  0.659634  0.836699  1
  O  O15  1  0.370459  0.340366  0.163301  1
  O  O16  1  0.630213  0.255126  0.838541  1
  O  O17  1  0.369787  0.744874  0.161459  1
  O  O18  1  0.894072  0.134597  0.591914  1
  O  O19  1  0.105928  0.865403  0.408086  1
  O  O20  1  0.215765  0.148269  0.754238  1
  O  O21  1  0.784235  0.851731  0.245762  1
  O  O22  1  0.890772  0.662656  0.592842  1
  O  O23  1  0.109228  0.337344  0.407158  1
  O  O24  1  0.031424  0.554936  0.218403  1
  O  O25  1  0.968576  0.445064  0.781597  1
  O  O26  1  0.994297  0.759874  0.001718  1
  O  O27  1  0.005703  0.240126  0.998282  1
  O  O28  1  0.582889  0.605230  0.390606  1
  O  O29  1  0.417111  0.394770  0.609394  1
  O  O30  1  0.164110  0.050034  0.198950  1
  O  O31  1  0.835890  0.949966  0.801050  1
  O  O32  1  0.534170  0.095844  0.402224  1
  O  O33  1  0.465830  0.904156  0.597776  1
