# generated using pymatgen
data_Y6Lu4In7Hg
_symmetry_space_group_name_H-M   'P 1'
_cell_length_a   9.22332100
_cell_length_b   9.22332186
_cell_length_c   6.64747400
_cell_angle_alpha   90.00000000
_cell_angle_beta   90.00000000
_cell_angle_gamma   120.00000049
_symmetry_Int_Tables_number   1
_chemical_formula_structural   Y6Lu4In7Hg
_chemical_formula_sum   'Y6 Lu4 In7 Hg1'
_cell_volume   489.73592684
_cell_formula_units_Z   1
loop_
 _symmetry_equiv_pos_site_id
 _symmetry_equiv_pos_as_xyz
  1  'x, y, z'
loop_
 _atom_site_type_symbol
 _atom_site_label
 _atom_site_symmetry_multiplicity
 _atom_site_fract_x
 _atom_site_fract_y
 _atom_site_fract_z
 _atom_site_occupancy
  Y  Y0  1  0.288514  0.000000  0.749171  1
  Y  Y1  1  0.711486  0.000000  0.250829  1
  Y  Y2  1  0.000000  0.288514  0.749171  1
  Y  Y3  1  0.000000  0.711486  0.250829  1
  Y  Y4  1  0.711486  0.711486  0.749171  1
  Y  Y5  1  0.288514  0.288514  0.250829  1
  Lu  Lu6  1  0.333333  0.666667  0.500000  1
  Lu  Lu7  1  0.666667  0.333333  0.500000  1
  Lu  Lu8  1  0.666667  0.333333  0.000000  1
  Lu  Lu9  1  0.333333  0.666667  0.000000  1
  In  In10  1  0.000000  0.000000  0.000000  1
  In  In11  1  0.625888  0.000000  0.750139  1
  In  In12  1  0.374112  0.000000  0.249861  1
  In  In13  1  0.000000  0.625888  0.750139  1
  In  In14  1  0.000000  0.374112  0.249861  1
  In  In15  1  0.374112  0.374112  0.750139  1
  In  In16  1  0.625888  0.625888  0.249861  1
  Hg  Hg17  1  0.000000  0.000000  0.500000  1
