# generated using pymatgen
data_Li2Ca2Zn15
_symmetry_space_group_name_H-M   'P 1'
_cell_length_a   6.86750585
_cell_length_b   6.86750473
_cell_length_c   6.86750497
_cell_angle_alpha   84.48750727
_cell_angle_beta   84.48751198
_cell_angle_gamma   84.48751127
_symmetry_Int_Tables_number   1
_chemical_formula_structural   Li2Ca2Zn15
_chemical_formula_sum   'Li2 Ca2 Zn15'
_cell_volume   319.66586320
_cell_formula_units_Z   1
loop_
 _symmetry_equiv_pos_site_id
 _symmetry_equiv_pos_as_xyz
  1  'x, y, z'
loop_
 _atom_site_type_symbol
 _atom_site_label
 _atom_site_symmetry_multiplicity
 _atom_site_fract_x
 _atom_site_fract_y
 _atom_site_fract_z
 _atom_site_occupancy
  Li  Li0  1  0.899510  0.899510  0.899510  1
  Li  Li1  1  0.100490  0.100490  0.100490  1
  Ca  Ca2  1  0.657093  0.657093  0.657093  1
  Ca  Ca3  1  0.342907  0.342907  0.342907  1
  Zn  Zn4  1  0.000000  0.000000  0.500000  1
  Zn  Zn5  1  0.000000  0.500000  0.000000  1
  Zn  Zn6  1  0.500000  0.000000  0.000000  1
  Zn  Zn7  1  0.296794  0.703206  0.000000  1
  Zn  Zn8  1  0.703206  0.000000  0.296794  1
  Zn  Zn9  1  0.000000  0.296794  0.703206  1
  Zn  Zn10  1  0.296794  0.000000  0.703206  1
  Zn  Zn11  1  0.000000  0.703206  0.296794  1
  Zn  Zn12  1  0.703206  0.296794  0.000000  1
  Zn  Zn13  1  0.350521  0.350521  0.839750  1
  Zn  Zn14  1  0.350521  0.839750  0.350521  1
  Zn  Zn15  1  0.839750  0.350521  0.350521  1
  Zn  Zn16  1  0.649479  0.649479  0.160250  1
  Zn  Zn17  1  0.649479  0.160250  0.649479  1
  Zn  Zn18  1  0.160250  0.649479  0.649479  1
