# generated using pymatgen
data_Hf16Ni4MoRuRh2
_symmetry_space_group_name_H-M   'P 1'
_cell_length_a   8.63900620
_cell_length_b   8.67396156
_cell_length_c   8.63169500
_cell_angle_alpha   60.16107219
_cell_angle_beta   60.02800293
_cell_angle_gamma   60.17055949
_symmetry_Int_Tables_number   1
_chemical_formula_structural   Hf16Ni4MoRuRh2
_chemical_formula_sum   'Hf16 Ni4 Mo1 Ru1 Rh2'
_cell_volume   458.60478897
_cell_formula_units_Z   1
loop_
 _symmetry_equiv_pos_site_id
 _symmetry_equiv_pos_as_xyz
  1  'x, y, z'
loop_
 _atom_site_type_symbol
 _atom_site_label
 _atom_site_symmetry_multiplicity
 _atom_site_fract_x
 _atom_site_fract_y
 _atom_site_fract_z
 _atom_site_occupancy
  Hf  Hf0  1  0.683568  0.106367  0.105031  1
  Hf  Hf1  1  0.108737  0.672799  0.109231  1
  Hf  Hf2  1  0.103633  0.104239  0.688723  1
  Hf  Hf3  1  0.103633  0.104239  0.103404  1
  Hf  Hf4  1  0.316197  0.315762  0.684021  1
  Hf  Hf5  1  0.682031  0.690517  0.313726  1
  Hf  Hf6  1  0.315506  0.691622  0.314535  1
  Hf  Hf7  1  0.688436  0.315941  0.680838  1
  Hf  Hf8  1  0.688436  0.315941  0.314784  1
  Hf  Hf9  1  0.315506  0.691622  0.678335  1
  Hf  Hf10  1  0.952361  0.948512  0.549564  1
  Hf  Hf11  1  0.551239  0.552087  0.948337  1
  Hf  Hf12  1  0.947882  0.551878  0.948737  1
  Hf  Hf13  1  0.552138  0.945512  0.552149  1
  Hf  Hf14  1  0.552138  0.945512  0.950202  1
  Hf  Hf15  1  0.947882  0.551878  0.551504  1
  Ni  Ni16  1  0.320819  0.888211  0.895484  1
  Ni  Ni17  1  0.889732  0.324619  0.892824  1
  Ni  Ni18  1  0.894295  0.890038  0.319182  1
  Ni  Ni19  1  0.894295  0.890038  0.896485  1
  Mo  Mo20  1  0.331172  0.002499  0.333164  1
  Ru  Ru21  1  0.990150  0.333513  0.338168  1
  Rh  Rh22  1  0.335104  0.333324  0.993382  1
  Rh  Rh23  1  0.335104  0.333324  0.338187  1
