# generated using pymatgen
data_Th2Nb3Ni9As7
_symmetry_space_group_name_H-M   'P 1'
_cell_length_a   3.94031900
_cell_length_b   9.63189719
_cell_length_c   9.63189900
_cell_angle_alpha   120.00000185
_cell_angle_beta   90.00000000
_cell_angle_gamma   90.00000000
_symmetry_Int_Tables_number   1
_chemical_formula_structural   Th2Nb3Ni9As7
_chemical_formula_sum   'Th2 Nb3 Ni9 As7'
_cell_volume   316.58166933
_cell_formula_units_Z   1
loop_
 _symmetry_equiv_pos_site_id
 _symmetry_equiv_pos_as_xyz
  1  'x, y, z'
loop_
 _atom_site_type_symbol
 _atom_site_label
 _atom_site_symmetry_multiplicity
 _atom_site_fract_x
 _atom_site_fract_y
 _atom_site_fract_z
 _atom_site_occupancy
  Th  Th0  1  0.000000  0.666667  0.333333  1
  Th  Th1  1  0.500000  0.333333  0.666667  1
  Nb  Nb2  1  0.500000  0.781288  0.889223  1
  Nb  Nb3  1  0.500000  0.107936  0.218712  1
  Nb  Nb4  1  0.500000  0.110777  0.892064  1
  Ni  Ni5  1  0.000000  0.572411  0.929240  1
  Ni  Ni6  1  0.000000  0.356828  0.427589  1
  Ni  Ni7  1  0.000000  0.070760  0.643172  1
  Ni  Ni8  1  0.000000  0.865415  0.150392  1
  Ni  Ni9  1  0.000000  0.284978  0.134585  1
  Ni  Ni10  1  0.000000  0.849608  0.715022  1
  Ni  Ni11  1  0.500000  0.933510  0.372320  1
  Ni  Ni12  1  0.500000  0.438811  0.066490  1
  Ni  Ni13  1  0.500000  0.627680  0.561189  1
  As  As14  1  0.500000  0.701373  0.106080  1
  As  As15  1  0.500000  0.404709  0.298627  1
  As  As16  1  0.500000  0.893920  0.595291  1
  As  As17  1  0.000000  0.000000  0.000000  1
  As  As18  1  0.000000  0.587476  0.687771  1
  As  As19  1  0.000000  0.100294  0.412524  1
  As  As20  1  0.000000  0.312229  0.899706  1
