# generated using pymatgen
data_LiTb2HoCd3Pd2
_symmetry_space_group_name_H-M   'P 1'
_cell_length_a   7.71336900
_cell_length_b   7.70809099
_cell_length_c   3.82025300
_cell_angle_alpha   90.00000000
_cell_angle_beta   90.00000000
_cell_angle_gamma   120.02265776
_symmetry_Int_Tables_number   1
_chemical_formula_structural   LiTb2HoCd3Pd2
_chemical_formula_sum   'Li1 Tb2 Ho1 Cd3 Pd2'
_cell_volume   196.65930359
_cell_formula_units_Z   1
loop_
 _symmetry_equiv_pos_site_id
 _symmetry_equiv_pos_as_xyz
  1  'x, y, z'
loop_
 _atom_site_type_symbol
 _atom_site_label
 _atom_site_symmetry_multiplicity
 _atom_site_fract_x
 _atom_site_fract_y
 _atom_site_fract_z
 _atom_site_occupancy
  Li  Li0  1  0.999499  0.000000  0.000000  1
  Tb  Tb1  1  0.999895  0.577922  0.000000  1
  Tb  Tb2  1  0.421973  0.422078  0.000000  1
  Ho  Ho3  1  0.577982  0.000000  0.000000  1
  Cd  Cd4  1  0.247937  0.000000  0.500000  1
  Cd  Cd5  1  0.998729  0.245544  0.500000  1
  Cd  Cd6  1  0.753186  0.754456  0.500000  1
  Pd  Pd7  1  0.334719  0.668641  0.500000  1
  Pd  Pd8  1  0.666080  0.331359  0.500000  1
