# generated using pymatgen
data_Dy2UIr3
_symmetry_space_group_name_H-M   'P 1'
_cell_length_a   5.75301426
_cell_length_b   5.36562958
_cell_length_c   5.75301500
_cell_angle_alpha   57.58153462
_cell_angle_beta   59.99999002
_cell_angle_gamma   57.58153828
_symmetry_Int_Tables_number   1
_chemical_formula_structural   Dy2UIr3
_chemical_formula_sum   'Dy2 U1 Ir3'
_cell_volume   120.78513804
_cell_formula_units_Z   1
loop_
 _symmetry_equiv_pos_site_id
 _symmetry_equiv_pos_as_xyz
  1  'x, y, z'
loop_
 _atom_site_type_symbol
 _atom_site_label
 _atom_site_symmetry_multiplicity
 _atom_site_fract_x
 _atom_site_fract_y
 _atom_site_fract_z
 _atom_site_occupancy
  Dy  Dy0  1  0.750618  0.748147  0.750618  1
  Dy  Dy1  1  0.499382  0.501853  0.499382  1
  U  U2  1  0.125000  0.625000  0.125000  1
  Ir  Ir3  1  0.125000  0.125000  0.625000  1
  Ir  Ir4  1  0.625000  0.125000  0.125000  1
  Ir  Ir5  1  0.125000  0.125000  0.125000  1
