# generated using pymatgen
data_Hf18Ti3Fe2RePt4
_symmetry_space_group_name_H-M   'P 1'
_cell_length_a   8.54056800
_cell_length_b   8.54761312
_cell_length_c   8.60724747
_cell_angle_alpha   119.85454074
_cell_angle_beta   90.00000000
_cell_angle_gamma   90.00000000
_symmetry_Int_Tables_number   1
_chemical_formula_structural   Hf18Ti3Fe2RePt4
_chemical_formula_sum   'Hf18 Ti3 Fe2 Re1 Pt4'
_cell_volume   544.95574297
_cell_formula_units_Z   1
loop_
 _symmetry_equiv_pos_site_id
 _symmetry_equiv_pos_as_xyz
  1  'x, y, z'
loop_
 _atom_site_type_symbol
 _atom_site_label
 _atom_site_symmetry_multiplicity
 _atom_site_fract_x
 _atom_site_fract_y
 _atom_site_fract_z
 _atom_site_occupancy
  Hf  Hf0  1  0.563641  0.796602  0.592565  1
  Hf  Hf1  1  0.563694  0.800548  0.210215  1
  Hf  Hf2  1  0.548281  0.403461  0.203050  1
  Hf  Hf3  1  0.445690  0.200442  0.399337  1
  Hf  Hf4  1  0.435425  0.207240  0.799535  1
  Hf  Hf5  1  0.438439  0.591908  0.796399  1
  Hf  Hf6  1  0.054310  0.200442  0.399337  1
  Hf  Hf7  1  0.064575  0.207240  0.799535  1
  Hf  Hf8  1  0.061561  0.591908  0.796399  1
  Hf  Hf9  1  0.936359  0.796602  0.592565  1
  Hf  Hf10  1  0.936306  0.800548  0.210215  1
  Hf  Hf11  1  0.951719  0.403461  0.203050  1
  Hf  Hf12  1  0.750000  0.460517  0.923463  1
  Hf  Hf13  1  0.750000  0.455135  0.537044  1
  Hf  Hf14  1  0.750000  0.087216  0.540808  1
  Hf  Hf15  1  0.250000  0.544360  0.085495  1
  Hf  Hf16  1  0.250000  0.538970  0.459510  1
  Hf  Hf17  1  0.250000  0.921271  0.461606  1
  Ti  Ti18  1  0.750000  0.109266  0.227913  1
  Ti  Ti19  1  0.499555  0.997431  0.994891  1
  Ti  Ti20  1  0.000445  0.997431  0.994891  1
  Fe  Fe21  1  0.750000  0.658664  0.334405  1
  Fe  Fe22  1  0.250000  0.338076  0.666942  1
  Re  Re23  1  0.250000  0.230303  0.109001  1
  Pt  Pt24  1  0.750000  0.116186  0.887757  1
  Pt  Pt25  1  0.750000  0.769849  0.889201  1
  Pt  Pt26  1  0.250000  0.887762  0.772664  1
  Pt  Pt27  1  0.250000  0.887159  0.112201  1
