# generated using pymatgen
data_TlP5(RhO8)2
_symmetry_space_group_name_H-M   'P 1'
_cell_length_a   9.54632700
_cell_length_b   7.64499335
_cell_length_c   10.46660100
_cell_angle_alpha   68.39181630
_cell_angle_beta   90.00000000
_cell_angle_gamma   90.00000000
_symmetry_Int_Tables_number   1
_chemical_formula_structural   TlP5(RhO8)2
_chemical_formula_sum   'Tl2 P10 Rh4 O32'
_cell_volume   710.18759241
_cell_formula_units_Z   2
loop_
 _symmetry_equiv_pos_site_id
 _symmetry_equiv_pos_as_xyz
  1  'x, y, z'
loop_
 _atom_site_type_symbol
 _atom_site_label
 _atom_site_symmetry_multiplicity
 _atom_site_fract_x
 _atom_site_fract_y
 _atom_site_fract_z
 _atom_site_occupancy
  Tl  Tl0  1  0.212402  0.986068  0.278902  1
  Tl  Tl1  1  0.787598  0.986068  0.778902  1
  P  P2  1  0.582695  0.124628  0.026997  1
  P  P3  1  0.417305  0.124628  0.526997  1
  P  P4  1  0.543143  0.521291  0.988647  1
  P  P5  1  0.456857  0.521291  0.488647  1
  P  P6  1  0.292205  0.576588  0.121912  1
  P  P7  1  0.707795  0.576588  0.621912  1
  P  P8  1  0.136762  0.616766  0.869429  1
  P  P9  1  0.863238  0.616766  0.369429  1
  P  P10  1  0.122568  0.277865  0.796665  1
  P  P11  1  0.877432  0.277865  0.296665  1
  Rh  Rh12  1  0.855959  0.382850  0.960050  1
  Rh  Rh13  1  0.144041  0.382850  0.460050  1
  Rh  Rh14  1  0.633264  0.921654  0.364368  1
  Rh  Rh15  1  0.366736  0.921654  0.864368  1
  O  O16  1  0.537529  0.020538  0.934039  1
  O  O17  1  0.462471  0.020538  0.434039  1
  O  O18  1  0.532198  0.044693  0.176079  1
  O  O19  1  0.467802  0.044693  0.676079  1
  O  O20  1  0.742232  0.144982  0.011866  1
  O  O21  1  0.257768  0.144982  0.511866  1
  O  O22  1  0.508980  0.335017  0.959481  1
  O  O23  1  0.491020  0.335017  0.459481  1
  O  O24  1  0.485994  0.689473  0.870668  1
  O  O25  1  0.514006  0.689473  0.370668  1
  O  O26  1  0.697749  0.526090  0.021570  1
  O  O27  1  0.302251  0.526090  0.521570  1
  O  O28  1  0.451229  0.499801  0.124322  1
  O  O29  1  0.548771  0.499801  0.624322  1
  O  O30  1  0.289686  0.791608  0.064013  1
  O  O31  1  0.710314  0.791608  0.564013  1
  O  O32  1  0.994559  0.223791  0.406518  1
  O  O33  1  0.005441  0.223791  0.906518  1
  O  O34  1  0.746153  0.159932  0.348060  1
  O  O35  1  0.253847  0.159932  0.848060  1
  O  O36  1  0.937869  0.294566  0.155702  1
  O  O37  1  0.062131  0.294566  0.655702  1
  O  O38  1  0.828413  0.492499  0.281679  1
  O  O39  1  0.171587  0.492499  0.781679  1
  O  O40  1  0.801994  0.811063  0.297493  1
  O  O41  1  0.198006  0.811063  0.797493  1
  O  O42  1  0.019512  0.622942  0.397738  1
  O  O43  1  0.980488  0.622942  0.897738  1
  O  O44  1  0.782981  0.501864  0.513452  1
  O  O45  1  0.217019  0.501864  0.013452  1
  O  O46  1  0.768201  0.478034  0.760651  1
  O  O47  1  0.231799  0.478034  0.260651  1
