# generated using pymatgen
data_Y2Co9Tc3Ge4As3
_symmetry_space_group_name_H-M   'P 1'
_cell_length_a   3.82248000
_cell_length_b   9.39023297
_cell_length_c   9.39023500
_cell_angle_alpha   120.00000363
_cell_angle_beta   90.00000000
_cell_angle_gamma   90.00000000
_symmetry_Int_Tables_number   1
_chemical_formula_structural   Y2Co9Tc3Ge4As3
_chemical_formula_sum   'Y2 Co9 Tc3 Ge4 As3'
_cell_volume   291.89635086
_cell_formula_units_Z   1
loop_
 _symmetry_equiv_pos_site_id
 _symmetry_equiv_pos_as_xyz
  1  'x, y, z'
loop_
 _atom_site_type_symbol
 _atom_site_label
 _atom_site_symmetry_multiplicity
 _atom_site_fract_x
 _atom_site_fract_y
 _atom_site_fract_z
 _atom_site_occupancy
  Y  Y0  1  0.000000  0.666667  0.333333  1
  Y  Y1  1  0.500000  0.333333  0.666667  1
  Co  Co2  1  0.000000  0.571655  0.946531  1
  Co  Co3  1  0.000000  0.374876  0.428345  1
  Co  Co4  1  0.000000  0.053469  0.625124  1
  Co  Co5  1  0.000000  0.874234  0.157514  1
  Co  Co6  1  0.000000  0.283279  0.125766  1
  Co  Co7  1  0.000000  0.842486  0.716721  1
  Co  Co8  1  0.500000  0.946726  0.380947  1
  Co  Co9  1  0.500000  0.434220  0.053274  1
  Co  Co10  1  0.500000  0.619053  0.565780  1
  Tc  Tc11  1  0.500000  0.783453  0.900558  1
  Tc  Tc12  1  0.500000  0.117105  0.216547  1
  Tc  Tc13  1  0.500000  0.099442  0.882895  1
  Ge  Ge14  1  0.000000  0.000000  0.000000  1
  Ge  Ge15  1  0.000000  0.588300  0.703592  1
  Ge  Ge16  1  0.000000  0.115291  0.411700  1
  Ge  Ge17  1  0.000000  0.296408  0.884709  1
  As  As18  1  0.500000  0.706811  0.115631  1
  As  As19  1  0.500000  0.408821  0.293189  1
  As  As20  1  0.500000  0.884369  0.591179  1
