# generated using pymatgen
data_Pr8Ho11ScSi15Ge
_symmetry_space_group_name_H-M   'P 1'
_cell_length_a   7.48292764
_cell_length_b   7.78993148
_cell_length_c   14.82230228
_cell_angle_alpha   90.03708362
_cell_angle_beta   89.76282896
_cell_angle_gamma   89.97653180
_symmetry_Int_Tables_number   1
_chemical_formula_structural   Pr8Ho11ScSi15Ge
_chemical_formula_sum   'Pr8 Ho11 Sc1 Si15 Ge1'
_cell_volume   864.00648165
_cell_formula_units_Z   1
loop_
 _symmetry_equiv_pos_site_id
 _symmetry_equiv_pos_as_xyz
  1  'x, y, z'
loop_
 _atom_site_type_symbol
 _atom_site_label
 _atom_site_symmetry_multiplicity
 _atom_site_fract_x
 _atom_site_fract_y
 _atom_site_fract_z
 _atom_site_occupancy
  Pr  Pr0  1  0.016243  0.178130  0.402098  1
  Pr  Pr1  1  0.517758  0.320561  0.401627  1
  Pr  Pr2  1  0.481227  0.677694  0.900282  1
  Pr  Pr3  1  0.483979  0.678318  0.600097  1
  Pr  Pr4  1  0.983836  0.820721  0.599395  1
  Pr  Pr5  1  0.983617  0.820490  0.900687  1
  Pr  Pr6  1  0.518200  0.321109  0.097858  1
  Pr  Pr7  1  0.018085  0.179165  0.097479  1
  Ho  Ho8  1  0.327447  0.176520  0.625194  1
  Ho  Ho9  1  0.672373  0.822644  0.376674  1
  Ho  Ho10  1  0.659629  0.990974  0.750103  1
  Ho  Ho11  1  0.171241  0.678785  0.377295  1
  Ho  Ho12  1  0.826641  0.323429  0.875633  1
  Ho  Ho13  1  0.827166  0.324032  0.624179  1
  Ho  Ho14  1  0.839893  0.490288  0.250094  1
  Ho  Ho15  1  0.339908  0.010041  0.249986  1
  Ho  Ho16  1  0.324648  0.178750  0.875943  1
  Ho  Ho17  1  0.173759  0.678310  0.122427  1
  Ho  Ho18  1  0.673837  0.821718  0.122603  1
  Sc  Sc19  1  0.159400  0.507974  0.751463  1
  Si  Si20  1  0.277661  0.873026  0.750238  1
  Si  Si21  1  0.464992  0.614634  0.249726  1
  Si  Si22  1  0.032776  0.114073  0.750047  1
  Si  Si23  1  0.528086  0.389394  0.750317  1
  Si  Si24  1  0.966113  0.886524  0.249540  1
  Si  Si25  1  0.722800  0.120216  0.249604  1
  Si  Si26  1  0.851435  0.532678  0.038272  1
  Si  Si27  1  0.351678  0.967268  0.038161  1
  Si  Si28  1  0.148441  0.468346  0.959058  1
  Si  Si29  1  0.650830  0.033247  0.539310  1
  Si  Si30  1  0.349896  0.966987  0.461989  1
  Si  Si31  1  0.843973  0.534133  0.460682  1
  Si  Si32  1  0.784251  0.620915  0.750081  1
  Si  Si33  1  0.222232  0.380346  0.249993  1
  Si  Si34  1  0.648955  0.032852  0.960486  1
  Ge  Ge35  1  0.156990  0.465708  0.541377  1
