# generated using pymatgen
data_Ta7Nb(CoTe4)2
_symmetry_space_group_name_H-M   'P 1'
_cell_length_a   4.79985400
_cell_length_b   10.95122710
_cell_length_c   19.20639613
_cell_angle_alpha   90.01432596
_cell_angle_beta   90.00000000
_cell_angle_gamma   90.00000000
_symmetry_Int_Tables_number   1
_chemical_formula_structural   Ta7Nb(CoTe4)2
_chemical_formula_sum   'Ta14 Nb2 Co4 Te16'
_cell_volume   1009.57056732
_cell_formula_units_Z   2
loop_
 _symmetry_equiv_pos_site_id
 _symmetry_equiv_pos_as_xyz
  1  'x, y, z'
loop_
 _atom_site_type_symbol
 _atom_site_label
 _atom_site_symmetry_multiplicity
 _atom_site_fract_x
 _atom_site_fract_y
 _atom_site_fract_z
 _atom_site_occupancy
  Ta  Ta0  1  0.500000  0.437128  0.614808  1
  Ta  Ta1  1  0.500000  0.063629  0.114447  1
  Ta  Ta2  1  0.500000  0.936452  0.885360  1
  Ta  Ta3  1  0.500000  0.701339  0.534712  1
  Ta  Ta4  1  0.500000  0.298767  0.463827  1
  Ta  Ta5  1  0.500000  0.201394  0.964081  1
  Ta  Ta6  1  0.500000  0.798528  0.036055  1
  Ta  Ta7  1  0.000000  0.312543  0.555861  1
  Ta  Ta8  1  0.000000  0.187169  0.055844  1
  Ta  Ta9  1  0.000000  0.812819  0.944109  1
  Ta  Ta10  1  0.000000  0.402826  0.394025  1
  Ta  Ta11  1  0.000000  0.597002  0.606397  1
  Ta  Ta12  1  0.000000  0.902521  0.106353  1
  Ta  Ta13  1  0.000000  0.097123  0.893500  1
  Nb  Nb14  1  0.500000  0.566089  0.384455  1
  Nb  Nb15  1  0.000000  0.689261  0.442973  1
  Co  Co16  1  0.249601  0.497837  0.501387  1
  Co  Co17  1  0.750044  0.999850  0.999955  1
  Co  Co18  1  0.750399  0.497837  0.501387  1
  Co  Co19  1  0.249956  0.999850  0.999955  1
  Te  Te20  1  0.000000  0.846519  0.562802  1
  Te  Te21  1  0.000000  0.151806  0.438264  1
  Te  Te22  1  0.000000  0.347314  0.937581  1
  Te  Te23  1  0.000000  0.652397  0.062261  1
  Te  Te24  1  0.500000  0.332850  0.316593  1
  Te  Te25  1  0.500000  0.668593  0.683161  1
  Te  Te26  1  0.500000  0.832299  0.183877  1
  Te  Te27  1  0.500000  0.167823  0.816132  1
  Te  Te28  1  0.500000  0.825773  0.403784  1
  Te  Te29  1  0.500000  0.177113  0.596434  1
  Te  Te30  1  0.500000  0.323689  0.096154  1
  Te  Te31  1  0.500000  0.676461  0.903861  1
  Te  Te32  1  0.000000  0.607525  0.301482  1
  Te  Te33  1  0.000000  0.390268  0.698248  1
  Te  Te34  1  0.000000  0.109052  0.198101  1
  Te  Te35  1  0.000000  0.890552  0.801776  1
