# generated using pymatgen
data_Nb10Pt4Rh
_symmetry_space_group_name_H-M   'P 1'
_cell_length_a   9.98465200
_cell_length_b   9.98465200
_cell_length_c   5.19216800
_cell_angle_alpha   90.00000000
_cell_angle_beta   90.00000000
_cell_angle_gamma   90.00000000
_symmetry_Int_Tables_number   1
_chemical_formula_structural   Nb10Pt4Rh
_chemical_formula_sum   'Nb20 Pt8 Rh2'
_cell_volume   517.62423518
_cell_formula_units_Z   2
loop_
 _symmetry_equiv_pos_site_id
 _symmetry_equiv_pos_as_xyz
  1  'x, y, z'
loop_
 _atom_site_type_symbol
 _atom_site_label
 _atom_site_symmetry_multiplicity
 _atom_site_fract_x
 _atom_site_fract_y
 _atom_site_fract_z
 _atom_site_occupancy
  Nb  Nb0  1  0.394106  0.394106  0.000000  1
  Nb  Nb1  1  0.894106  0.105894  0.500000  1
  Nb  Nb2  1  0.105894  0.894106  0.500000  1
  Nb  Nb3  1  0.605894  0.605894  0.000000  1
  Nb  Nb4  1  0.125389  0.460595  0.000000  1
  Nb  Nb5  1  0.960595  0.374611  0.500000  1
  Nb  Nb6  1  0.039405  0.625389  0.500000  1
  Nb  Nb7  1  0.874611  0.539405  0.000000  1
  Nb  Nb8  1  0.374611  0.960595  0.500000  1
  Nb  Nb9  1  0.625389  0.039405  0.500000  1
  Nb  Nb10  1  0.460595  0.125389  0.000000  1
  Nb  Nb11  1  0.539405  0.874611  0.000000  1
  Nb  Nb12  1  0.177130  0.177130  0.253220  1
  Nb  Nb13  1  0.677130  0.322870  0.753220  1
  Nb  Nb14  1  0.322870  0.677130  0.753220  1
  Nb  Nb15  1  0.822870  0.822870  0.253220  1
  Nb  Nb16  1  0.322870  0.677130  0.246780  1
  Nb  Nb17  1  0.677130  0.322870  0.246780  1
  Nb  Nb18  1  0.177130  0.177130  0.746780  1
  Nb  Nb19  1  0.822870  0.822870  0.746780  1
  Pt  Pt20  1  0.262785  0.931735  0.000000  1
  Pt  Pt21  1  0.431735  0.237215  0.500000  1
  Pt  Pt22  1  0.568265  0.762785  0.500000  1
  Pt  Pt23  1  0.737215  0.068265  0.000000  1
  Pt  Pt24  1  0.237215  0.431735  0.500000  1
  Pt  Pt25  1  0.762785  0.568265  0.500000  1
  Pt  Pt26  1  0.931735  0.262785  0.000000  1
  Pt  Pt27  1  0.068265  0.737215  0.000000  1
  Rh  Rh28  1  0.000000  0.000000  0.000000  1
  Rh  Rh29  1  0.500000  0.500000  0.500000  1
