# generated using pymatgen
data_VTe(P2O7)2
_symmetry_space_group_name_H-M   'P 1'
_cell_length_a   8.40895020
_cell_length_b   4.94864839
_cell_length_c   7.12210886
_cell_angle_alpha   74.22848464
_cell_angle_beta   90.57772608
_cell_angle_gamma   89.74397096
_symmetry_Int_Tables_number   1
_chemical_formula_structural   VTe(P2O7)2
_chemical_formula_sum   'V1 Te1 P4 O14'
_cell_volume   285.19193005
_cell_formula_units_Z   1
loop_
 _symmetry_equiv_pos_site_id
 _symmetry_equiv_pos_as_xyz
  1  'x, y, z'
loop_
 _atom_site_type_symbol
 _atom_site_label
 _atom_site_symmetry_multiplicity
 _atom_site_fract_x
 _atom_site_fract_y
 _atom_site_fract_z
 _atom_site_occupancy
  V  V0  1  0.500146  0.218875  0.279324  1
  Te  Te1  1  0.006082  0.778854  0.728607  1
  P  P2  1  0.254898  0.232018  0.893950  1
  P  P3  1  0.815336  0.384824  0.477083  1
  P  P4  1  0.712241  0.770127  0.109148  1
  P  P5  1  0.323782  0.614291  0.514331  1
  O  O6  1  0.829850  0.558397  0.627492  1
  O  O7  1  0.796528  0.867790  0.917586  1
  O  O8  1  0.097801  0.392031  0.906623  1
  O  O9  1  0.366141  0.443882  0.735231  1
  O  O10  1  0.224904  0.972387  0.822772  1
  O  O11  1  0.844184  0.596823  0.264843  1
  O  O12  1  0.945549  0.160799  0.500435  1
  O  O13  1  0.337032  0.412950  0.385315  1
  O  O14  1  0.661098  0.021937  0.184474  1
  O  O15  1  0.646050  0.271050  0.483740  1
  O  O16  1  0.346629  0.163945  0.085439  1
  O  O17  1  0.145767  0.708174  0.511313  1
  O  O18  1  0.570755  0.573731  0.109238  1
  O  O19  1  0.437831  0.857114  0.463057  1
