# generated using pymatgen
data_HoLuPu3(SiB4)2
_symmetry_space_group_name_H-M   'P 1'
_cell_length_a   7.18791401
_cell_length_b   7.18791412
_cell_length_c   8.03978000
_cell_angle_alpha   90.00000000
_cell_angle_beta   90.00000000
_cell_angle_gamma   89.93428601
_symmetry_Int_Tables_number   1
_chemical_formula_structural   HoLuPu3(SiB4)2
_chemical_formula_sum   'Ho2 Lu2 Pu6 Si4 B16'
_cell_volume   415.38387337
_cell_formula_units_Z   2
loop_
 _symmetry_equiv_pos_site_id
 _symmetry_equiv_pos_as_xyz
  1  'x, y, z'
loop_
 _atom_site_type_symbol
 _atom_site_label
 _atom_site_symmetry_multiplicity
 _atom_site_fract_x
 _atom_site_fract_y
 _atom_site_fract_z
 _atom_site_occupancy
  Ho  Ho0  1  0.181526  0.318474  0.777606  1
  Ho  Ho1  1  0.181526  0.318474  0.222394  1
  Lu  Lu2  1  0.999612  0.998708  0.500000  1
  Lu  Lu3  1  0.501292  0.500388  0.500000  1
  Pu  Pu4  1  0.682996  0.182671  0.229881  1
  Pu  Pu5  1  0.317329  0.817004  0.770119  1
  Pu  Pu6  1  0.317329  0.817004  0.229881  1
  Pu  Pu7  1  0.816500  0.683500  0.229979  1
  Pu  Pu8  1  0.816500  0.683500  0.770021  1
  Pu  Pu9  1  0.682996  0.182671  0.770119  1
  Si  Si10  1  0.117455  0.614932  0.500000  1
  Si  Si11  1  0.885068  0.382545  0.500000  1
  Si  Si12  1  0.382039  0.117961  0.500000  1
  Si  Si13  1  0.614155  0.885845  0.500000  1
  B  B14  1  0.173808  0.038492  0.000000  1
  B  B15  1  0.826034  0.959674  0.000000  1
  B  B16  1  0.958505  0.172521  0.000000  1
  B  B17  1  0.327479  0.541495  0.000000  1
  B  B18  1  0.040163  0.825511  0.000000  1
  B  B19  1  0.674489  0.459837  0.000000  1
  B  B20  1  0.540326  0.673966  0.000000  1
  B  B21  1  0.461508  0.326192  0.000000  1
  B  B22  1  0.090175  0.589229  0.000000  1
  B  B23  1  0.910771  0.409825  0.000000  1
  B  B24  1  0.409952  0.090048  0.000000  1
  B  B25  1  0.588955  0.911045  0.000000  1
  B  B26  1  0.999700  0.998946  0.162801  1
  B  B27  1  0.999700  0.998946  0.837199  1
  B  B28  1  0.501054  0.500300  0.837199  1
  B  B29  1  0.501054  0.500300  0.162801  1
