# generated using pymatgen
data_SrYb3(Ir2O7)2
_symmetry_space_group_name_H-M   'P 1'
_cell_length_a   7.22317796
_cell_length_b   7.22317669
_cell_length_c   7.28216507
_cell_angle_alpha   119.92251377
_cell_angle_beta   118.49900262
_cell_angle_gamma   90.92008722
_symmetry_Int_Tables_number   1
_chemical_formula_structural   SrYb3(Ir2O7)2
_chemical_formula_sum   'Sr1 Yb3 Ir4 O14'
_cell_volume   272.81900600
_cell_formula_units_Z   1
loop_
 _symmetry_equiv_pos_site_id
 _symmetry_equiv_pos_as_xyz
  1  'x, y, z'
loop_
 _atom_site_type_symbol
 _atom_site_label
 _atom_site_symmetry_multiplicity
 _atom_site_fract_x
 _atom_site_fract_y
 _atom_site_fract_z
 _atom_site_occupancy
  Sr  Sr0  1  0.500000  0.000000  0.000000  1
  Yb  Yb1  1  0.500000  0.500000  0.500000  1
  Yb  Yb2  1  0.500000  0.500000  0.000000  1
  Yb  Yb3  1  0.000000  0.000000  0.000000  1
  Ir  Ir4  1  0.000000  0.500000  0.000000  1
  Ir  Ir5  1  0.000000  0.000000  0.500000  1
  Ir  Ir6  1  0.000000  0.500000  0.500000  1
  Ir  Ir7  1  0.500000  0.000000  0.500000  1
  O  O8  1  0.948263  0.597093  0.775650  1
  O  O9  1  0.052178  0.826856  0.649753  1
  O  O10  1  0.677103  0.902425  0.350247  1
  O  O11  1  0.321443  0.672612  0.224350  1
  O  O12  1  0.051737  0.402907  0.224350  1
  O  O13  1  0.947822  0.173144  0.350247  1
  O  O14  1  0.322897  0.097575  0.649753  1
  O  O15  1  0.678557  0.327388  0.775650  1
  O  O16  1  0.107040  0.248915  0.855955  1
  O  O17  1  0.892960  0.751085  0.144045  1
  O  O18  1  0.676635  0.418919  0.282983  1
  O  O19  1  0.323365  0.581081  0.717017  1
  O  O20  1  0.364063  0.106349  0.282983  1
  O  O21  1  0.635937  0.893651  0.717017  1
