# generated using pymatgen
data_Rb2P2WO8
_symmetry_space_group_name_H-M   'P 1'
_cell_length_a   5.16613501
_cell_length_b   5.16650888
_cell_length_c   9.51690901
_cell_angle_alpha   89.99750696
_cell_angle_beta   90.00533324
_cell_angle_gamma   119.99846829
_symmetry_Int_Tables_number   1
_chemical_formula_structural   Rb2P2WO8
_chemical_formula_sum   'Rb2 P2 W1 O8'
_cell_volume   219.98657677
_cell_formula_units_Z   1
loop_
 _symmetry_equiv_pos_site_id
 _symmetry_equiv_pos_as_xyz
  1  'x, y, z'
loop_
 _atom_site_type_symbol
 _atom_site_label
 _atom_site_symmetry_multiplicity
 _atom_site_fract_x
 _atom_site_fract_y
 _atom_site_fract_z
 _atom_site_occupancy
  Rb  Rb0  1  0.333331  0.666673  0.144928  1
  Rb  Rb1  1  0.666669  0.333327  0.855072  1
  P  P2  1  0.333361  0.666644  0.682689  1
  P  P3  1  0.666639  0.333356  0.317311  1
  W  W4  1  0.000000  0.000000  0.500000  1
  O  O5  1  0.081719  0.724777  0.628620  1
  O  O6  1  0.275261  0.357019  0.628640  1
  O  O7  1  0.666672  0.333352  0.156528  1
  O  O8  1  0.643026  0.918252  0.628655  1
  O  O9  1  0.724739  0.642981  0.371360  1
  O  O10  1  0.918281  0.275223  0.371380  1
  O  O11  1  0.333328  0.666648  0.843472  1
  O  O12  1  0.356974  0.081748  0.371345  1
