# generated using pymatgen
data_LiBr35
_symmetry_space_group_name_H-M   'P 1'
_cell_length_a   15.98197694
_cell_length_b   11.40028128
_cell_length_c   10.79188300
_cell_angle_alpha   88.81408278
_cell_angle_beta   66.02770512
_cell_angle_gamma   92.31545406
_symmetry_Int_Tables_number   1
_chemical_formula_structural   LiBr35
_chemical_formula_sum   'Li1 Br35'
_cell_volume   1793.71352310
_cell_formula_units_Z   1
loop_
 _symmetry_equiv_pos_site_id
 _symmetry_equiv_pos_as_xyz
  1  'x, y, z'
loop_
 _atom_site_type_symbol
 _atom_site_label
 _atom_site_symmetry_multiplicity
 _atom_site_fract_x
 _atom_site_fract_y
 _atom_site_fract_z
 _atom_site_occupancy
  Li  Li0  1  0.234304  0.414255  0.429201  1
  Br  Br1  1  0.492745  0.264953  0.574751  1
  Br  Br2  1  0.741283  0.574121  0.604759  1
  Br  Br3  1  0.490350  0.674522  0.751710  1
  Br  Br4  1  0.069539  0.870559  0.822680  1
  Br  Br5  1  0.923243  0.159491  0.035852  1
  Br  Br6  1  0.594136  0.342620  0.340489  1
  Br  Br7  1  0.611515  0.300242  0.882081  1
  Br  Br8  1  0.373095  0.746048  0.650863  1
  Br  Br9  1  0.343498  0.547252  0.220188  1
  Br  Br10  1  0.688573  0.133288  0.769997  1
  Br  Br11  1  0.872645  0.544139  0.385519  1
  Br  Br12  1  0.102784  0.903771  0.568480  1
  Br  Br13  1  0.919789  0.112674  0.277357  1
  Br  Br14  1  0.927601  0.218950  0.810459  1
  Br  Br15  1  0.676882  0.074349  0.131286  1
  Br  Br16  1  0.030377  0.831442  0.071610  1
  Br  Br17  1  0.367746  0.961274  0.743813  1
  Br  Br18  1  0.892062  0.323218  0.346467  1
  Br  Br19  1  0.924106  0.927944  0.604395  1
  Br  Br20  1  0.803997  0.630213  0.905412  1
  Br  Br21  1  0.334764  0.016310  0.229491  1
  Br  Br22  1  0.322109  0.299239  0.221428  1
  Br  Br23  1  0.606327  0.617662  0.835757  1
  Br  Br24  1  0.071269  0.461990  0.465641  1
  Br  Br25  1  0.764602  0.933011  0.638759  1
  Br  Br26  1  0.859887  0.436565  0.862442  1
  Br  Br27  1  0.516248  0.044945  0.181052  1
  Br  Br28  1  0.210182  0.341327  0.669689  1
  Br  Br29  1  0.679822  0.782883  0.260468  1
  Br  Br30  1  0.853245  0.804858  0.167997  1
  Br  Br31  1  0.387346  0.163384  0.811556  1
  Br  Br32  1  0.271996  0.537129  0.680127  1
  Br  Br33  1  0.635024  0.564321  0.313533  1
  Br  Br34  1  0.086597  0.665268  0.514002  1
  Br  Br35  1  0.320312  0.775784  0.220694  1
