# generated using pymatgen
data_CeNd2PaRh4
_symmetry_space_group_name_H-M   'P 1'
_cell_length_a   3.76626900
_cell_length_b   4.55399900
_cell_length_c   10.44600100
_cell_angle_alpha   90.00000000
_cell_angle_beta   90.00000000
_cell_angle_gamma   90.00000000
_symmetry_Int_Tables_number   1
_chemical_formula_structural   CeNd2PaRh4
_chemical_formula_sum   'Ce1 Nd2 Pa1 Rh4'
_cell_volume   179.16547677
_cell_formula_units_Z   1
loop_
 _symmetry_equiv_pos_site_id
 _symmetry_equiv_pos_as_xyz
  1  'x, y, z'
loop_
 _atom_site_type_symbol
 _atom_site_label
 _atom_site_symmetry_multiplicity
 _atom_site_fract_x
 _atom_site_fract_y
 _atom_site_fract_z
 _atom_site_occupancy
  Ce  Ce0  1  0.000000  0.250000  0.139118  1
  Nd  Nd1  1  0.000000  0.750000  0.866364  1
  Nd  Nd2  1  0.500000  0.250000  0.637770  1
  Pa  Pa3  1  0.500000  0.750000  0.362228  1
  Rh  Rh4  1  0.500000  0.750000  0.117726  1
  Rh  Rh5  1  0.000000  0.750000  0.560275  1
  Rh  Rh6  1  0.000000  0.250000  0.389677  1
  Rh  Rh7  1  0.500000  0.250000  0.926843  1
