# generated using pymatgen
data_Pa2ZnRh5
_symmetry_space_group_name_H-M   'P 1'
_cell_length_a   4.14557000
_cell_length_b   5.74839400
_cell_length_c   11.36782700
_cell_angle_alpha   90.00000000
_cell_angle_beta   90.00000000
_cell_angle_gamma   90.00000000
_symmetry_Int_Tables_number   1
_chemical_formula_structural   Pa2ZnRh5
_chemical_formula_sum   'Pa4 Zn2 Rh10'
_cell_volume   270.89952026
_cell_formula_units_Z   2
loop_
 _symmetry_equiv_pos_site_id
 _symmetry_equiv_pos_as_xyz
  1  'x, y, z'
loop_
 _atom_site_type_symbol
 _atom_site_label
 _atom_site_symmetry_multiplicity
 _atom_site_fract_x
 _atom_site_fract_y
 _atom_site_fract_z
 _atom_site_occupancy
  Pa  Pa0  1  0.500000  0.301898  0.136545  1
  Pa  Pa1  1  0.500000  0.698102  0.863455  1
  Pa  Pa2  1  0.500000  0.801898  0.363455  1
  Pa  Pa3  1  0.500000  0.198102  0.636545  1
  Zn  Zn4  1  0.000000  0.000000  0.000000  1
  Zn  Zn5  1  0.000000  0.500000  0.500000  1
  Rh  Rh6  1  0.000000  0.000000  0.500000  1
  Rh  Rh7  1  0.000000  0.500000  0.000000  1
  Rh  Rh8  1  0.000000  0.054073  0.243689  1
  Rh  Rh9  1  0.000000  0.945927  0.756311  1
  Rh  Rh10  1  0.000000  0.554073  0.256311  1
  Rh  Rh11  1  0.000000  0.445927  0.743689  1
  Rh  Rh12  1  0.500000  0.293411  0.387279  1
  Rh  Rh13  1  0.500000  0.706589  0.612721  1
  Rh  Rh14  1  0.500000  0.793411  0.112721  1
  Rh  Rh15  1  0.500000  0.206589  0.887279  1
