# generated using pymatgen
data_Mg2Ta3(Re7Tc5)2
_symmetry_space_group_name_H-M   'P 1'
_cell_length_a   8.36980950
_cell_length_b   8.36455985
_cell_length_c   8.36327100
_cell_angle_alpha   109.48834145
_cell_angle_beta   109.51881115
_cell_angle_gamma   109.54709486
_symmetry_Int_Tables_number   1
_chemical_formula_structural   Mg2Ta3(Re7Tc5)2
_chemical_formula_sum   'Mg2 Ta3 Re14 Tc10'
_cell_volume   449.94254292
_cell_formula_units_Z   1
loop_
 _symmetry_equiv_pos_site_id
 _symmetry_equiv_pos_as_xyz
  1  'x, y, z'
loop_
 _atom_site_type_symbol
 _atom_site_label
 _atom_site_symmetry_multiplicity
 _atom_site_fract_x
 _atom_site_fract_y
 _atom_site_fract_z
 _atom_site_occupancy
  Mg  Mg0  1  0.995930  0.999399  0.999596  1
  Mg  Mg1  1  0.637374  0.999842  0.999795  1
  Ta  Ta2  1  0.000166  0.634085  0.999950  1
  Ta  Ta3  1  0.999644  0.999389  0.633591  1
  Ta  Ta4  1  0.365866  0.365773  0.364880  1
  Re  Re5  1  0.281554  0.602275  0.602338  1
  Re  Re6  1  0.599967  0.280871  0.602877  1
  Re  Re7  1  0.377274  0.193943  0.000142  1
  Re  Re8  1  0.183495  0.807466  0.807630  1
  Re  Re9  1  0.377785  0.001292  0.194235  1
  Re  Re10  1  0.197400  0.375817  0.000132  1
  Re  Re11  1  0.000162  0.375499  0.192556  1
  Re  Re12  1  0.808024  0.182577  0.808482  1
  Re  Re13  1  0.807274  0.807967  0.183502  1
  Re  Re14  1  0.999831  0.191911  0.375555  1
  Re  Re15  1  0.197062  0.000563  0.375720  1
  Re  Re16  1  0.623422  0.623630  0.815963  1
  Re  Re17  1  0.820401  0.624027  0.623590  1
  Re  Re18  1  0.623336  0.814950  0.623711  1
  Tc  Tc19  1  0.396503  0.676532  0.000194  1
  Tc  Tc20  1  0.721119  0.324024  0.323267  1
  Tc  Tc21  1  0.397045  0.000515  0.676223  1
  Tc  Tc22  1  0.680576  0.398132  0.000025  1
  Tc  Tc23  1  0.997066  0.397904  0.679087  1
  Tc  Tc24  1  0.317486  0.719355  0.319912  1
  Tc  Tc25  1  0.317548  0.320344  0.719662  1
  Tc  Tc26  1  0.996959  0.678845  0.397665  1
  Tc  Tc27  1  0.680075  0.000207  0.398282  1
  Tc  Tc28  1  0.599660  0.602865  0.281436  1
