# generated using pymatgen
data_Tb2Dy2Ni2C5
_symmetry_space_group_name_H-M   'P 1'
_cell_length_a   3.65857500
_cell_length_b   3.70081000
_cell_length_c   11.66440100
_cell_angle_alpha   90.00000000
_cell_angle_beta   90.00000000
_cell_angle_gamma   90.00000000
_symmetry_Int_Tables_number   1
_chemical_formula_structural   Tb2Dy2Ni2C5
_chemical_formula_sum   'Tb2 Dy2 Ni2 C5'
_cell_volume   157.93238461
_cell_formula_units_Z   1
loop_
 _symmetry_equiv_pos_site_id
 _symmetry_equiv_pos_as_xyz
  1  'x, y, z'
loop_
 _atom_site_type_symbol
 _atom_site_label
 _atom_site_symmetry_multiplicity
 _atom_site_fract_x
 _atom_site_fract_y
 _atom_site_fract_z
 _atom_site_occupancy
  Tb  Tb0  1  0.500000  0.208207  0.500000  1
  Tb  Tb1  1  0.000000  0.998309  0.000000  1
  Dy  Dy2  1  0.500000  0.503541  0.203699  1
  Dy  Dy3  1  0.500000  0.503541  0.796301  1
  Ni  Ni4  1  0.000000  0.698426  0.383304  1
  Ni  Ni5  1  0.000000  0.698426  0.616696  1
  C  C6  1  0.000000  0.001184  0.230109  1
  C  C7  1  0.000000  0.001184  0.769891  1
  C  C8  1  0.000000  0.197214  0.331798  1
  C  C9  1  0.000000  0.197214  0.668202  1
  C  C10  1  0.500000  0.494255  0.000000  1
