# generated using pymatgen
data_Pr8Er12Si15Sb
_symmetry_space_group_name_H-M   'P 1'
_cell_length_a   7.58568444
_cell_length_b   7.76877675
_cell_length_c   14.79691300
_cell_angle_alpha   90.12681555
_cell_angle_beta   86.71736722
_cell_angle_gamma   90.08252660
_symmetry_Int_Tables_number   1
_chemical_formula_structural   Pr8Er12Si15Sb
_chemical_formula_sum   'Pr8 Er12 Si15 Sb1'
_cell_volume   870.57046182
_cell_formula_units_Z   1
loop_
 _symmetry_equiv_pos_site_id
 _symmetry_equiv_pos_as_xyz
  1  'x, y, z'
loop_
 _atom_site_type_symbol
 _atom_site_label
 _atom_site_symmetry_multiplicity
 _atom_site_fract_x
 _atom_site_fract_y
 _atom_site_fract_z
 _atom_site_occupancy
  Pr  Pr0  1  0.023046  0.181204  0.100137  1
  Pr  Pr1  1  0.977177  0.820864  0.900228  1
  Pr  Pr2  1  0.477724  0.679702  0.900454  1
  Pr  Pr3  1  0.998615  0.824564  0.599814  1
  Pr  Pr4  1  0.523430  0.319533  0.101162  1
  Pr  Pr5  1  0.999399  0.176576  0.399493  1
  Pr  Pr6  1  0.508433  0.316679  0.397657  1
  Pr  Pr7  1  0.507599  0.683970  0.601597  1
  Er  Er8  1  0.166037  0.503013  0.751599  1
  Er  Er9  1  0.833045  0.497503  0.254136  1
  Er  Er10  1  0.333453  0.005095  0.253476  1
  Er  Er11  1  0.669117  0.995393  0.748328  1
  Er  Er12  1  0.353911  0.154524  0.623555  1
  Er  Er13  1  0.650870  0.833154  0.379152  1
  Er  Er14  1  0.147538  0.677078  0.373145  1
  Er  Er15  1  0.675111  0.823572  0.121911  1
  Er  Er16  1  0.836453  0.330997  0.622633  1
  Er  Er17  1  0.323733  0.175958  0.877585  1
  Er  Er18  1  0.824167  0.322949  0.877456  1
  Er  Er19  1  0.175265  0.677214  0.122726  1
  Si  Si20  1  0.041426  0.118757  0.751721  1
  Si  Si21  1  0.956582  0.884968  0.246276  1
  Si  Si22  1  0.458142  0.617811  0.247272  1
  Si  Si23  1  0.539081  0.382613  0.752692  1
  Si  Si24  1  0.286077  0.873858  0.752926  1
  Si  Si25  1  0.716166  0.120962  0.247212  1
  Si  Si26  1  0.214947  0.379712  0.247943  1
  Si  Si27  1  0.787310  0.622550  0.752350  1
  Si  Si28  1  0.805599  0.539729  0.455814  1
  Si  Si29  1  0.309257  0.962479  0.455905  1
  Si  Si30  1  0.856606  0.531570  0.041069  1
  Si  Si31  1  0.692173  0.037182  0.543750  1
  Si  Si32  1  0.142007  0.469372  0.959079  1
  Si  Si33  1  0.641911  0.031271  0.958711  1
  Si  Si34  1  0.356479  0.969838  0.041673  1
  Sb  Sb35  1  0.192111  0.457788  0.539364  1
