# generated using pymatgen
data_Hf2GaPt2Rh3
_symmetry_space_group_name_H-M   'P 1'
_cell_length_a   4.14454000
_cell_length_b   5.55882300
_cell_length_c   10.99930100
_cell_angle_alpha   90.00000000
_cell_angle_beta   90.00000000
_cell_angle_gamma   90.00000000
_symmetry_Int_Tables_number   1
_chemical_formula_structural   Hf2GaPt2Rh3
_chemical_formula_sum   'Hf4 Ga2 Pt4 Rh6'
_cell_volume   253.41030294
_cell_formula_units_Z   2
loop_
 _symmetry_equiv_pos_site_id
 _symmetry_equiv_pos_as_xyz
  1  'x, y, z'
loop_
 _atom_site_type_symbol
 _atom_site_label
 _atom_site_symmetry_multiplicity
 _atom_site_fract_x
 _atom_site_fract_y
 _atom_site_fract_z
 _atom_site_occupancy
  Hf  Hf0  1  0.500000  0.185230  0.633998  1
  Hf  Hf1  1  0.500000  0.814770  0.366002  1
  Hf  Hf2  1  0.500000  0.685230  0.866002  1
  Hf  Hf3  1  0.500000  0.314770  0.133998  1
  Ga  Ga4  1  0.000000  0.500000  0.500000  1
  Ga  Ga5  1  0.000000  0.000000  0.000000  1
  Pt  Pt6  1  0.000000  0.437432  0.746499  1
  Pt  Pt7  1  0.000000  0.562568  0.253501  1
  Pt  Pt8  1  0.000000  0.062568  0.246499  1
  Pt  Pt9  1  0.000000  0.937432  0.753501  1
  Rh  Rh10  1  0.500000  0.193967  0.888411  1
  Rh  Rh11  1  0.500000  0.806033  0.111589  1
  Rh  Rh12  1  0.500000  0.693967  0.611589  1
  Rh  Rh13  1  0.500000  0.306033  0.388411  1
  Rh  Rh14  1  0.000000  0.000000  0.500000  1
  Rh  Rh15  1  0.000000  0.500000  0.000000  1
