# generated using pymatgen
data_Er2Pu2B3C4
_symmetry_space_group_name_H-M   'P 1'
_cell_length_a   3.47012290
_cell_length_b   3.63761493
_cell_length_c   11.45321225
_cell_angle_alpha   90.24597802
_cell_angle_beta   98.34794141
_cell_angle_gamma   89.97434566
_symmetry_Int_Tables_number   1
_chemical_formula_structural   Er2Pu2B3C4
_chemical_formula_sum   'Er2 Pu2 B3 C4'
_cell_volume   143.04043707
_cell_formula_units_Z   1
loop_
 _symmetry_equiv_pos_site_id
 _symmetry_equiv_pos_as_xyz
  1  'x, y, z'
loop_
 _atom_site_type_symbol
 _atom_site_label
 _atom_site_symmetry_multiplicity
 _atom_site_fract_x
 _atom_site_fract_y
 _atom_site_fract_z
 _atom_site_occupancy
  Er  Er0  1  0.819831  0.003869  0.648893  1
  Er  Er1  1  0.180169  0.996131  0.351107  1
  Pu  Pu2  1  0.426274  0.506429  0.869390  1
  Pu  Pu3  1  0.573726  0.493571  0.130610  1
  B  B4  1  0.000000  0.000000  0.000000  1
  B  B5  1  0.267020  0.501599  0.540081  1
  B  B6  1  0.732980  0.498401  0.459919  1
  C  C7  1  0.927717  0.006414  0.868565  1
  C  C8  1  0.072283  0.993586  0.131435  1
  C  C9  1  0.331321  0.504925  0.674901  1
  C  C10  1  0.668679  0.495075  0.325099  1
