# generated using pymatgen
data_Y3HoAl18(ZnOs2)2
_symmetry_space_group_name_H-M   'P 1'
_cell_length_a   7.62060162
_cell_length_b   7.62053033
_cell_length_c   9.53515800
_cell_angle_alpha   90.00000000
_cell_angle_beta   90.00000000
_cell_angle_gamma   119.35470396
_symmetry_Int_Tables_number   1
_chemical_formula_structural   Y3HoAl18(ZnOs2)2
_chemical_formula_sum   'Y3 Ho1 Al18 Zn2 Os4'
_cell_volume   482.63674407
_cell_formula_units_Z   1
loop_
 _symmetry_equiv_pos_site_id
 _symmetry_equiv_pos_as_xyz
  1  'x, y, z'
loop_
 _atom_site_type_symbol
 _atom_site_label
 _atom_site_symmetry_multiplicity
 _atom_site_fract_x
 _atom_site_fract_y
 _atom_site_fract_z
 _atom_site_occupancy
  Y  Y0  1  0.997196  0.679872  0.250000  1
  Y  Y1  1  0.002975  0.320174  0.750000  1
  Y  Y2  1  0.679421  0.997100  0.250000  1
  Ho  Ho3  1  0.319750  0.002682  0.750000  1
  Al  Al4  1  0.142371  0.142348  0.250000  1
  Al  Al5  1  0.858296  0.857914  0.750000  1
  Al  Al6  1  0.002639  0.348166  0.076212  1
  Al  Al7  1  0.997751  0.652157  0.923247  1
  Al  Al8  1  0.997751  0.652157  0.576753  1
  Al  Al9  1  0.348009  0.002659  0.424211  1
  Al  Al10  1  0.002639  0.348166  0.423788  1
  Al  Al11  1  0.651622  0.997486  0.576917  1
  Al  Al12  1  0.651622  0.997486  0.923083  1
  Al  Al13  1  0.348009  0.002659  0.075789  1
  Al  Al14  1  0.344327  0.344076  0.554719  1
  Al  Al15  1  0.655521  0.655442  0.446351  1
  Al  Al16  1  0.655521  0.655442  0.053649  1
  Al  Al17  1  0.344327  0.344076  0.945281  1
  Al  Al18  1  0.338222  0.554833  0.250000  1
  Al  Al19  1  0.661441  0.444505  0.750000  1
  Al  Al20  1  0.554921  0.338153  0.250000  1
  Al  Al21  1  0.445204  0.662269  0.750000  1
  Zn  Zn22  1  0.000155  0.000027  0.999972  1
  Zn  Zn23  1  0.000155  0.000027  0.500028  1
  Os  Os24  1  0.672235  0.327716  0.999866  1
  Os  Os25  1  0.327842  0.672346  0.999837  1
  Os  Os26  1  0.327842  0.672346  0.500163  1
  Os  Os27  1  0.672235  0.327716  0.500134  1
