# generated using pymatgen
data_Ho11ErTc4
_symmetry_space_group_name_H-M   'P 1'
_cell_length_a   6.22298189
_cell_length_b   7.37633289
_cell_length_c   9.13038106
_cell_angle_alpha   90.00551518
_cell_angle_beta   90.00726247
_cell_angle_gamma   90.03201304
_symmetry_Int_Tables_number   1
_chemical_formula_structural   Ho11ErTc4
_chemical_formula_sum   'Ho11 Er1 Tc4'
_cell_volume   419.10985739
_cell_formula_units_Z   1
loop_
 _symmetry_equiv_pos_site_id
 _symmetry_equiv_pos_as_xyz
  1  'x, y, z'
loop_
 _atom_site_type_symbol
 _atom_site_label
 _atom_site_symmetry_multiplicity
 _atom_site_fract_x
 _atom_site_fract_y
 _atom_site_fract_z
 _atom_site_occupancy
  Ho  Ho0  1  0.337352  0.674922  0.062566  1
  Ho  Ho1  1  0.162231  0.175217  0.437126  1
  Ho  Ho2  1  0.662496  0.325150  0.562538  1
  Ho  Ho3  1  0.837921  0.825141  0.937645  1
  Ho  Ho4  1  0.662366  0.325173  0.937678  1
  Ho  Ho5  1  0.837717  0.824831  0.562431  1
  Ho  Ho6  1  0.337638  0.674889  0.437314  1
  Ho  Ho7  1  0.872784  0.539822  0.249907  1
  Ho  Ho8  1  0.627551  0.040206  0.249708  1
  Ho  Ho9  1  0.127427  0.459865  0.750130  1
  Ho  Ho10  1  0.372053  0.960064  0.750237  1
  Er  Er11  1  0.162256  0.174749  0.062725  1
  Tc  Tc12  1  0.040605  0.885054  0.249866  1
  Tc  Tc13  1  0.459250  0.384648  0.249655  1
  Tc  Tc14  1  0.960271  0.115042  0.750565  1
  Tc  Tc15  1  0.540081  0.615227  0.749909  1
