# generated using pymatgen
data_Tb2Gd3W2C7
_symmetry_space_group_name_H-M   'P 1'
_cell_length_a   8.52490628
_cell_length_b   8.50671086
_cell_length_c   3.45401500
_cell_angle_alpha   90.00000000
_cell_angle_beta   90.00000000
_cell_angle_gamma   123.56035452
_symmetry_Int_Tables_number   1
_chemical_formula_structural   Tb2Gd3W2C7
_chemical_formula_sum   'Tb2 Gd3 W2 C7'
_cell_volume   208.72715242
_cell_formula_units_Z   1
loop_
 _symmetry_equiv_pos_site_id
 _symmetry_equiv_pos_as_xyz
  1  'x, y, z'
loop_
 _atom_site_type_symbol
 _atom_site_label
 _atom_site_symmetry_multiplicity
 _atom_site_fract_x
 _atom_site_fract_y
 _atom_site_fract_z
 _atom_site_occupancy
  Tb  Tb0  1  0.499125  0.499389  0.000000  1
  Tb  Tb1  1  0.330568  0.071937  0.500000  1
  Gd  Gd2  1  0.070693  0.327669  0.500000  1
  Gd  Gd3  1  0.928728  0.672118  0.500000  1
  Gd  Gd4  1  0.670805  0.929079  0.500000  1
  W  W5  1  0.711603  0.288256  0.000000  1
  W  W6  1  0.287443  0.711731  0.000000  1
  C  C7  1  0.626688  0.374099  0.500000  1
  C  C8  1  0.372792  0.626264  0.500000  1
  C  C9  1  0.000835  0.999693  0.000000  1
  C  C10  1  0.169879  0.167294  0.000000  1
  C  C11  1  0.831782  0.832470  0.000000  1
  C  C12  1  0.999687  0.499826  0.000000  1
  C  C13  1  0.499372  0.000177  0.000000  1
