# generated using pymatgen
data_PrNd2WO7
_symmetry_space_group_name_H-M   'P 1'
_cell_length_a   6.69209722
_cell_length_b   6.69209804
_cell_length_c   7.76514300
_cell_angle_alpha   90.00000000
_cell_angle_beta   90.00000000
_cell_angle_gamma   109.38687513
_symmetry_Int_Tables_number   1
_chemical_formula_structural   PrNd2WO7
_chemical_formula_sum   'Pr2 Nd4 W2 O14'
_cell_volume   328.03730918
_cell_formula_units_Z   2
loop_
 _symmetry_equiv_pos_site_id
 _symmetry_equiv_pos_as_xyz
  1  'x, y, z'
loop_
 _atom_site_type_symbol
 _atom_site_label
 _atom_site_symmetry_multiplicity
 _atom_site_fract_x
 _atom_site_fract_y
 _atom_site_fract_z
 _atom_site_occupancy
  Pr  Pr0  1  0.500000  0.500000  0.500000  1
  Pr  Pr1  1  0.500000  0.500000  0.000000  1
  Nd  Nd2  1  0.999838  0.534371  0.250000  1
  Nd  Nd3  1  0.000162  0.465629  0.750000  1
  Nd  Nd4  1  0.534371  0.999838  0.750000  1
  Nd  Nd5  1  0.465629  0.000162  0.250000  1
  W  W6  1  0.000000  0.000000  0.500000  1
  W  W7  1  0.000000  0.000000  0.000000  1
  O  O8  1  0.935186  0.064814  0.750000  1
  O  O9  1  0.064814  0.935186  0.250000  1
  O  O10  1  0.364193  0.635807  0.250000  1
  O  O11  1  0.635807  0.364193  0.750000  1
  O  O12  1  0.368523  0.631477  0.750000  1
  O  O13  1  0.631477  0.368523  0.250000  1
  O  O14  1  0.314271  0.071406  0.972673  1
  O  O15  1  0.685729  0.928594  0.472673  1
  O  O16  1  0.314271  0.071406  0.527327  1
  O  O17  1  0.685729  0.928594  0.027327  1
  O  O18  1  0.071406  0.314271  0.472673  1
  O  O19  1  0.928594  0.685729  0.972673  1
  O  O20  1  0.928594  0.685729  0.527327  1
  O  O21  1  0.071406  0.314271  0.027327  1
