# generated using pymatgen
data_NdThCdPt2
_symmetry_space_group_name_H-M   'P 1'
_cell_length_a   7.96248700
_cell_length_b   7.97780100
_cell_length_c   3.82372500
_cell_angle_alpha   90.00000000
_cell_angle_beta   90.00000000
_cell_angle_gamma   90.00000000
_symmetry_Int_Tables_number   1
_chemical_formula_structural   NdThCdPt2
_chemical_formula_sum   'Nd2 Th2 Cd2 Pt4'
_cell_volume   242.89500607
_cell_formula_units_Z   2
loop_
 _symmetry_equiv_pos_site_id
 _symmetry_equiv_pos_as_xyz
  1  'x, y, z'
loop_
 _atom_site_type_symbol
 _atom_site_label
 _atom_site_symmetry_multiplicity
 _atom_site_fract_x
 _atom_site_fract_y
 _atom_site_fract_z
 _atom_site_occupancy
  Nd  Nd0  1  0.171748  0.328243  0.500000  1
  Nd  Nd1  1  0.328252  0.828243  0.500000  1
  Th  Th2  1  0.832931  0.669926  0.500000  1
  Th  Th3  1  0.667069  0.169926  0.500000  1
  Cd  Cd4  1  0.495788  0.502511  0.000000  1
  Cd  Cd5  1  0.004212  0.002511  0.000000  1
  Pt  Pt6  1  0.640808  0.869177  0.000000  1
  Pt  Pt7  1  0.117176  0.630143  0.000000  1
  Pt  Pt8  1  0.859192  0.369177  0.000000  1
  Pt  Pt9  1  0.382824  0.130143  0.000000  1
