# generated using pymatgen
data_Th2Si5TcRh2
_symmetry_space_group_name_H-M   'P 1'
_cell_length_a   8.25940009
_cell_length_b   8.25939807
_cell_length_c   8.25939865
_cell_angle_alpha   137.36555367
_cell_angle_beta   106.82461120
_cell_angle_gamma   88.55984489
_symmetry_Int_Tables_number   1
_chemical_formula_structural   Th2Si5TcRh2
_chemical_formula_sum   'Th4 Si10 Tc2 Rh4'
_cell_volume   349.62835299
_cell_formula_units_Z   2
loop_
 _symmetry_equiv_pos_site_id
 _symmetry_equiv_pos_as_xyz
  1  'x, y, z'
loop_
 _atom_site_type_symbol
 _atom_site_label
 _atom_site_symmetry_multiplicity
 _atom_site_fract_x
 _atom_site_fract_y
 _atom_site_fract_z
 _atom_site_occupancy
  Th  Th0  1  0.865246  0.628191  0.237056  1
  Th  Th1  1  0.134754  0.371809  0.762944  1
  Th  Th2  1  0.391134  0.128191  0.262944  1
  Th  Th3  1  0.608866  0.871809  0.737056  1
  Si  Si4  1  0.500000  0.750000  0.250000  1
  Si  Si5  1  0.500000  0.250000  0.750000  1
  Si  Si6  1  0.224972  0.974972  0.750000  1
  Si  Si7  1  0.775028  0.525028  0.750000  1
  Si  Si8  1  0.775028  0.025028  0.250000  1
  Si  Si9  1  0.224972  0.474972  0.250000  1
  Si  Si10  1  0.043264  0.894176  0.149089  1
  Si  Si11  1  0.956736  0.105824  0.850911  1
  Si  Si12  1  0.745086  0.394176  0.350911  1
  Si  Si13  1  0.254914  0.605824  0.649089  1
  Tc  Tc14  1  0.000000  0.750000  0.750000  1
  Tc  Tc15  1  0.000000  0.250000  0.250000  1
  Rh  Rh16  1  0.248966  0.859028  0.389938  1
  Rh  Rh17  1  0.751034  0.140972  0.610062  1
  Rh  Rh18  1  0.469091  0.359028  0.110062  1
  Rh  Rh19  1  0.530909  0.640972  0.889938  1
