# generated using pymatgen
data_Tb5Ir2Os
_symmetry_space_group_name_H-M   'P 1'
_cell_length_a   10.92131900
_cell_length_b   10.92131900
_cell_length_c   6.44734800
_cell_angle_alpha   90.00000000
_cell_angle_beta   90.00000000
_cell_angle_gamma   90.00000000
_symmetry_Int_Tables_number   1
_chemical_formula_structural   Tb5Ir2Os
_chemical_formula_sum   'Tb20 Ir8 Os4'
_cell_volume   769.00877826
_cell_formula_units_Z   4
loop_
 _symmetry_equiv_pos_site_id
 _symmetry_equiv_pos_as_xyz
  1  'x, y, z'
loop_
 _atom_site_type_symbol
 _atom_site_label
 _atom_site_symmetry_multiplicity
 _atom_site_fract_x
 _atom_site_fract_y
 _atom_site_fract_z
 _atom_site_occupancy
  Tb  Tb0  1  0.293733  0.086672  0.378066  1
  Tb  Tb1  1  0.293733  0.913328  0.878066  1
  Tb  Tb2  1  0.706267  0.086672  0.878066  1
  Tb  Tb3  1  0.706267  0.913328  0.378066  1
  Tb  Tb4  1  0.586672  0.793733  0.878066  1
  Tb  Tb5  1  0.586672  0.206267  0.378066  1
  Tb  Tb6  1  0.413328  0.793733  0.378066  1
  Tb  Tb7  1  0.413328  0.206267  0.878066  1
  Tb  Tb8  1  0.206267  0.413328  0.621934  1
  Tb  Tb9  1  0.206267  0.586672  0.121934  1
  Tb  Tb10  1  0.793733  0.413328  0.121934  1
  Tb  Tb11  1  0.793733  0.586672  0.621934  1
  Tb  Tb12  1  0.913328  0.706267  0.121934  1
  Tb  Tb13  1  0.913328  0.293733  0.621934  1
  Tb  Tb14  1  0.086672  0.706267  0.621934  1
  Tb  Tb15  1  0.086672  0.293733  0.121934  1
  Tb  Tb16  1  0.000000  0.000000  0.500000  1
  Tb  Tb17  1  0.000000  0.000000  0.000000  1
  Tb  Tb18  1  0.500000  0.500000  0.000000  1
  Tb  Tb19  1  0.500000  0.500000  0.500000  1
  Ir  Ir20  1  0.847824  0.152176  0.250000  1
  Ir  Ir21  1  0.847824  0.847824  0.750000  1
  Ir  Ir22  1  0.152176  0.152176  0.750000  1
  Ir  Ir23  1  0.152176  0.847824  0.250000  1
  Ir  Ir24  1  0.652176  0.347824  0.750000  1
  Ir  Ir25  1  0.652176  0.652176  0.250000  1
  Ir  Ir26  1  0.347824  0.347824  0.250000  1
  Ir  Ir27  1  0.347824  0.652176  0.750000  1
  Os  Os28  1  0.500000  0.000000  0.121972  1
  Os  Os29  1  0.500000  0.000000  0.621972  1
  Os  Os30  1  0.000000  0.500000  0.878028  1
  Os  Os31  1  0.000000  0.500000  0.378028  1
