# generated using pymatgen
data_Dy3Y3Al24(RuRh3)2
_symmetry_space_group_name_H-M   'P 1'
_cell_length_a   8.84596900
_cell_length_b   8.84596799
_cell_length_c   9.50739100
_cell_angle_alpha   90.00000000
_cell_angle_beta   90.00000000
_cell_angle_gamma   120.00000003
_symmetry_Int_Tables_number   1
_chemical_formula_structural   Dy3Y3Al24(RuRh3)2
_chemical_formula_sum   'Dy3 Y3 Al24 Ru2 Rh6'
_cell_volume   644.29203623
_cell_formula_units_Z   1
loop_
 _symmetry_equiv_pos_site_id
 _symmetry_equiv_pos_as_xyz
  1  'x, y, z'
loop_
 _atom_site_type_symbol
 _atom_site_label
 _atom_site_symmetry_multiplicity
 _atom_site_fract_x
 _atom_site_fract_y
 _atom_site_fract_z
 _atom_site_occupancy
  Dy  Dy0  1  0.808231  0.191769  0.750000  1
  Dy  Dy1  1  0.808231  0.616461  0.750000  1
  Dy  Dy2  1  0.383539  0.191769  0.750000  1
  Y  Y3  1  0.191913  0.808087  0.250000  1
  Y  Y4  1  0.191913  0.383826  0.250000  1
  Y  Y5  1  0.616174  0.808087  0.250000  1
  Al  Al6  1  0.561780  0.438220  0.250000  1
  Al  Al7  1  0.561780  0.123559  0.250000  1
  Al  Al8  1  0.876441  0.438220  0.250000  1
  Al  Al9  1  0.438193  0.561807  0.750000  1
  Al  Al10  1  0.438193  0.876387  0.750000  1
  Al  Al11  1  0.123613  0.561807  0.750000  1
  Al  Al12  1  0.325922  0.162961  0.424119  1
  Al  Al13  1  0.837039  0.162961  0.424119  1
  Al  Al14  1  0.837039  0.674078  0.424119  1
  Al  Al15  1  0.674138  0.837068  0.576141  1
  Al  Al16  1  0.162932  0.837068  0.576141  1
  Al  Al17  1  0.162932  0.325862  0.576141  1
  Al  Al18  1  0.674138  0.837068  0.923859  1
  Al  Al19  1  0.162932  0.837068  0.923859  1
  Al  Al20  1  0.162932  0.325862  0.923859  1
  Al  Al21  1  0.325922  0.162961  0.075881  1
  Al  Al22  1  0.837039  0.162961  0.075881  1
  Al  Al23  1  0.837039  0.674078  0.075881  1
  Al  Al24  1  0.666667  0.333333  0.528653  1
  Al  Al25  1  0.333333  0.666667  0.471449  1
  Al  Al26  1  0.333333  0.666667  0.028551  1
  Al  Al27  1  0.666667  0.333333  0.971347  1
  Al  Al28  1  0.000000  0.000000  0.250000  1
  Al  Al29  1  0.000000  0.000000  0.750000  1
  Ru  Ru30  1  0.000000  0.000000  0.499577  1
  Ru  Ru31  1  0.000000  0.000000  0.000423  1
  Rh  Rh32  1  0.500048  0.499952  0.500043  1
  Rh  Rh33  1  0.500048  0.000096  0.500043  1
  Rh  Rh34  1  0.999904  0.499952  0.500043  1
  Rh  Rh35  1  0.500048  0.499952  0.999957  1
  Rh  Rh36  1  0.500048  0.000096  0.999957  1
  Rh  Rh37  1  0.999904  0.499952  0.999957  1
