# generated using pymatgen
data_Tb3Al12Tc3Ni
_symmetry_space_group_name_H-M   'P 1'
_cell_length_a   8.85362639
_cell_length_b   8.85362641
_cell_length_c   9.62713145
_cell_angle_alpha   90.42788099
_cell_angle_beta   89.57212150
_cell_angle_gamma   120.35092508
_symmetry_Int_Tables_number   1
_chemical_formula_structural   Tb3Al12Tc3Ni
_chemical_formula_sum   'Tb6 Al24 Tc6 Ni2'
_cell_volume   651.18922822
_cell_formula_units_Z   2
loop_
 _symmetry_equiv_pos_site_id
 _symmetry_equiv_pos_as_xyz
  1  'x, y, z'
loop_
 _atom_site_type_symbol
 _atom_site_label
 _atom_site_symmetry_multiplicity
 _atom_site_fract_x
 _atom_site_fract_y
 _atom_site_fract_z
 _atom_site_occupancy
  Tb  Tb0  1  0.388500  0.197053  0.248655  1
  Tb  Tb1  1  0.807989  0.192011  0.247233  1
  Tb  Tb2  1  0.802947  0.611500  0.248655  1
  Tb  Tb3  1  0.611500  0.802947  0.751345  1
  Tb  Tb4  1  0.192011  0.807989  0.752767  1
  Tb  Tb5  1  0.197053  0.388500  0.751345  1
  Al  Al6  1  0.438336  0.879643  0.255440  1
  Al  Al7  1  0.120357  0.561664  0.255440  1
  Al  Al8  1  0.436942  0.563058  0.252583  1
  Al  Al9  1  0.561664  0.120357  0.744560  1
  Al  Al10  1  0.879643  0.438336  0.744560  1
  Al  Al11  1  0.563058  0.436942  0.747417  1
  Al  Al12  1  0.162387  0.837613  0.424677  1
  Al  Al13  1  0.162835  0.326296  0.425429  1
  Al  Al14  1  0.673704  0.837165  0.425429  1
  Al  Al15  1  0.837613  0.162387  0.575323  1
  Al  Al16  1  0.837165  0.673704  0.574571  1
  Al  Al17  1  0.326296  0.162835  0.574571  1
  Al  Al18  1  0.837336  0.162664  0.918870  1
  Al  Al19  1  0.836965  0.672671  0.922563  1
  Al  Al20  1  0.327329  0.163035  0.922563  1
  Al  Al21  1  0.162664  0.837336  0.081130  1
  Al  Al22  1  0.163035  0.327329  0.077437  1
  Al  Al23  1  0.672671  0.836965  0.077437  1
  Al  Al24  1  0.331595  0.668405  0.514132  1
  Al  Al25  1  0.668405  0.331595  0.485868  1
  Al  Al26  1  0.666935  0.333065  0.014579  1
  Al  Al27  1  0.333065  0.666935  0.985421  1
  Al  Al28  1  0.000354  0.999646  0.250458  1
  Al  Al29  1  0.999646  0.000354  0.749542  1
  Tc  Tc30  1  0.000000  0.000000  0.500000  1
  Tc  Tc31  1  0.000000  0.000000  0.000000  1
  Tc  Tc32  1  0.500000  0.500000  0.500000  1
  Tc  Tc33  1  0.500000  0.000000  0.000000  1
  Tc  Tc34  1  0.000000  0.500000  0.000000  1
  Tc  Tc35  1  0.500000  0.500000  0.000000  1
  Ni  Ni36  1  0.500000  0.000000  0.500000  1
  Ni  Ni37  1  0.000000  0.500000  0.500000  1
