# generated using pymatgen
data_V12Ga5Cu3N4
_symmetry_space_group_name_H-M   'P 1'
_cell_length_a   6.55253256
_cell_length_b   6.55253256
_cell_length_c   6.55253256
_cell_angle_alpha   90.03350236
_cell_angle_beta   90.03350236
_cell_angle_gamma   90.03350236
_symmetry_Int_Tables_number   1
_chemical_formula_structural   V12Ga5Cu3N4
_chemical_formula_sum   'V12 Ga5 Cu3 N4'
_cell_volume   281.33731620
_cell_formula_units_Z   1
loop_
 _symmetry_equiv_pos_site_id
 _symmetry_equiv_pos_as_xyz
  1  'x, y, z'
loop_
 _atom_site_type_symbol
 _atom_site_label
 _atom_site_symmetry_multiplicity
 _atom_site_fract_x
 _atom_site_fract_y
 _atom_site_fract_z
 _atom_site_occupancy
  V  V0  1  0.788871  0.960057  0.376818  1
  V  V1  1  0.710673  0.039184  0.873449  1
  V  V2  1  0.211050  0.459116  0.125675  1
  V  V3  1  0.290054  0.540715  0.625470  1
  V  V4  1  0.960057  0.376818  0.788871  1
  V  V5  1  0.039184  0.873449  0.710673  1
  V  V6  1  0.459116  0.125675  0.211050  1
  V  V7  1  0.540715  0.625470  0.290054  1
  V  V8  1  0.376818  0.788871  0.960057  1
  V  V9  1  0.873449  0.710673  0.039184  1
  V  V10  1  0.125675  0.211050  0.459116  1
  V  V11  1  0.625470  0.290054  0.540715  1
  Ga  Ga12  1  0.678088  0.678088  0.678088  1
  Ga  Ga13  1  0.570492  0.418922  0.934568  1
  Ga  Ga14  1  0.418922  0.934568  0.570492  1
  Ga  Ga15  1  0.934568  0.570492  0.418922  1
  Ga  Ga16  1  0.073163  0.073163  0.073163  1
  Cu  Cu17  1  0.179195  0.821734  0.318203  1
  Cu  Cu18  1  0.318203  0.179195  0.821734  1
  Cu  Cu19  1  0.821734  0.318203  0.179195  1
  N  N20  1  0.878305  0.125554  0.624357  1
  N  N21  1  0.624357  0.878305  0.125554  1
  N  N22  1  0.125554  0.624357  0.878305  1
  N  N23  1  0.376284  0.376284  0.376284  1
