# generated using pymatgen
data_Sr3Bi2Pt3O14
_symmetry_space_group_name_H-M   'P 1'
_cell_length_a   7.61604202
_cell_length_b   7.44222695
_cell_length_c   7.44222400
_cell_angle_alpha   59.99997753
_cell_angle_beta   60.75212891
_cell_angle_gamma   60.75216073
_symmetry_Int_Tables_number   1
_chemical_formula_structural   Sr3Bi2Pt3O14
_chemical_formula_sum   'Sr3 Bi2 Pt3 O14'
_cell_volume   301.62324964
_cell_formula_units_Z   1
loop_
 _symmetry_equiv_pos_site_id
 _symmetry_equiv_pos_as_xyz
  1  'x, y, z'
loop_
 _atom_site_type_symbol
 _atom_site_label
 _atom_site_symmetry_multiplicity
 _atom_site_fract_x
 _atom_site_fract_y
 _atom_site_fract_z
 _atom_site_occupancy
  Sr  Sr0  1  0.500000  0.500000  0.000000  1
  Sr  Sr1  1  0.500001  0.500001  0.499999  1
  Sr  Sr2  1  0.499999  0.000000  0.500001  1
  Bi  Bi3  1  0.500001  0.000000  0.000000  1
  Bi  Bi4  1  0.000000  0.499999  0.500001  1
  Pt  Pt5  1  0.000000  0.000000  0.000000  1
  Pt  Pt6  1  0.000000  0.499998  0.000000  1
  Pt  Pt7  1  0.000000  0.000000  0.500001  1
  O  O8  1  0.679889  0.651882  0.084114  1
  O  O9  1  0.679889  0.084115  0.084114  1
  O  O10  1  0.064035  0.670858  0.094249  1
  O  O11  1  0.935968  0.329141  0.329140  1
  O  O12  1  0.320110  0.915885  0.348120  1
  O  O13  1  0.935967  0.905750  0.329141  1
  O  O14  1  0.329861  0.390046  0.390046  1
  O  O15  1  0.670141  0.609953  0.609954  1
  O  O16  1  0.064033  0.094250  0.670860  1
  O  O17  1  0.679886  0.084115  0.651881  1
  O  O18  1  0.064032  0.670859  0.670861  1
  O  O19  1  0.320113  0.348117  0.915886  1
  O  O20  1  0.935967  0.329140  0.905751  1
  O  O21  1  0.320113  0.915885  0.915886  1
