# generated using pymatgen
data_Tb13Dy3In4Ir3Pt
_symmetry_space_group_name_H-M   'P 1'
_cell_length_a   9.68893566
_cell_length_b   9.68108348
_cell_length_c   9.67896672
_cell_angle_alpha   60.42079101
_cell_angle_beta   60.44791508
_cell_angle_gamma   60.45814243
_symmetry_Int_Tables_number   1
_chemical_formula_structural   Tb13Dy3In4Ir3Pt
_chemical_formula_sum   'Tb13 Dy3 In4 Ir3 Pt1'
_cell_volume   648.38806717
_cell_formula_units_Z   1
loop_
 _symmetry_equiv_pos_site_id
 _symmetry_equiv_pos_as_xyz
  1  'x, y, z'
loop_
 _atom_site_type_symbol
 _atom_site_label
 _atom_site_symmetry_multiplicity
 _atom_site_fract_x
 _atom_site_fract_y
 _atom_site_fract_z
 _atom_site_occupancy
  Tb  Tb0  1  0.310678  0.690758  0.311423  1
  Tb  Tb1  1  0.941536  0.558782  0.558616  1
  Tb  Tb2  1  0.310648  0.311804  0.690657  1
  Tb  Tb3  1  0.096015  0.096780  0.096688  1
  Tb  Tb4  1  0.558759  0.558659  0.941356  1
  Tb  Tb5  1  0.102692  0.102259  0.698384  1
  Tb  Tb6  1  0.690218  0.313128  0.689948  1
  Tb  Tb7  1  0.690487  0.690190  0.312725  1
  Tb  Tb8  1  0.690717  0.311459  0.311157  1
  Tb  Tb9  1  0.311985  0.690683  0.690736  1
  Tb  Tb10  1  0.559183  0.940987  0.558854  1
  Tb  Tb11  1  0.698584  0.102717  0.102799  1
  Tb  Tb12  1  0.554187  0.941415  0.941581  1
  Dy  Dy13  1  0.102490  0.698839  0.102144  1
  Dy  Dy14  1  0.942217  0.941227  0.554082  1
  Dy  Dy15  1  0.942389  0.553955  0.941533  1
  In  In16  1  0.332658  0.332818  0.332547  1
  In  In17  1  0.002482  0.332897  0.332505  1
  In  In18  1  0.332248  0.002902  0.332382  1
  In  In19  1  0.332327  0.332695  0.002775  1
  Ir  Ir20  1  0.890321  0.889466  0.325250  1
  Ir  Ir21  1  0.324688  0.889381  0.890253  1
  Ir  Ir22  1  0.889903  0.325704  0.889982  1
  Pt  Pt23  1  0.892586  0.890490  0.891622  1
