# generated using pymatgen
data_Lu5Sc3Re3B24Rh
_symmetry_space_group_name_H-M   'P 1'
_cell_length_a   3.57375400
_cell_length_b   8.97592905
_cell_length_c   11.33510206
_cell_angle_alpha   90.09290780
_cell_angle_beta   90.00000000
_cell_angle_gamma   90.00000000
_symmetry_Int_Tables_number   1
_chemical_formula_structural   Lu5Sc3Re3B24Rh
_chemical_formula_sum   'Lu5 Sc3 Re3 B24 Rh1'
_cell_volume   363.60423226
_cell_formula_units_Z   1
loop_
 _symmetry_equiv_pos_site_id
 _symmetry_equiv_pos_as_xyz
  1  'x, y, z'
loop_
 _atom_site_type_symbol
 _atom_site_label
 _atom_site_symmetry_multiplicity
 _atom_site_fract_x
 _atom_site_fract_y
 _atom_site_fract_z
 _atom_site_occupancy
  Lu  Lu0  1  0.000000  0.317623  0.415629  1
  Lu  Lu1  1  0.000000  0.679464  0.591351  1
  Lu  Lu2  1  0.000000  0.824351  0.080950  1
  Lu  Lu3  1  0.000000  0.178655  0.912130  1
  Lu  Lu4  1  0.000000  0.944938  0.372165  1
  Sc  Sc5  1  0.000000  0.055676  0.630104  1
  Sc  Sc6  1  0.000000  0.441589  0.126217  1
  Sc  Sc7  1  0.000000  0.555963  0.871337  1
  Re  Re8  1  0.000000  0.360633  0.680557  1
  Re  Re9  1  0.000000  0.141966  0.179624  1
  Re  Re10  1  0.000000  0.859907  0.819822  1
  B  B11  1  0.500000  0.553635  0.434323  1
  B  B12  1  0.500000  0.445938  0.566452  1
  B  B13  1  0.500000  0.054126  0.065460  1
  B  B14  1  0.500000  0.946210  0.933384  1
  B  B15  1  0.500000  0.750355  0.421105  1
  B  B16  1  0.500000  0.246792  0.581578  1
  B  B17  1  0.500000  0.254127  0.079794  1
  B  B18  1  0.500000  0.746717  0.919505  1
  B  B19  1  0.500000  0.791947  0.263336  1
  B  B20  1  0.500000  0.205573  0.735892  1
  B  B21  1  0.500000  0.296207  0.235528  1
  B  B22  1  0.500000  0.705185  0.765113  1
  B  B23  1  0.500000  0.629180  0.181022  1
  B  B24  1  0.500000  0.371339  0.817093  1
  B  B25  1  0.500000  0.132010  0.316644  1
  B  B26  1  0.500000  0.870071  0.683654  1
  B  B27  1  0.500000  0.981761  0.211734  1
  B  B28  1  0.500000  0.019152  0.786636  1
  B  B29  1  0.500000  0.481277  0.285995  1
  B  B30  1  0.500000  0.519754  0.713617  1
  B  B31  1  0.500000  0.598433  0.026974  1
  B  B32  1  0.500000  0.402890  0.973316  1
  B  B33  1  0.500000  0.100051  0.474386  1
  B  B34  1  0.500000  0.899093  0.528938  1
  Rh  Rh35  1  0.000000  0.637411  0.318637  1
