# generated using pymatgen
data_SiNi2W3N
_symmetry_space_group_name_H-M   'P 1'
_cell_length_a   7.82210333
_cell_length_b   7.82210278
_cell_length_c   7.82210200
_cell_angle_alpha   59.99999483
_cell_angle_beta   59.99999716
_cell_angle_gamma   60.00000065
_symmetry_Int_Tables_number   1
_chemical_formula_structural   SiNi2W3N
_chemical_formula_sum   'Si4 Ni8 W12 N4'
_cell_volume   338.41960904
_cell_formula_units_Z   4
loop_
 _symmetry_equiv_pos_site_id
 _symmetry_equiv_pos_as_xyz
  1  'x, y, z'
loop_
 _atom_site_type_symbol
 _atom_site_label
 _atom_site_symmetry_multiplicity
 _atom_site_fract_x
 _atom_site_fract_y
 _atom_site_fract_z
 _atom_site_occupancy
  Si  Si0  1  0.625000  0.125000  0.125000  1
  Si  Si1  1  0.125000  0.125000  0.625000  1
  Si  Si2  1  0.125000  0.625000  0.125000  1
  Si  Si3  1  0.125000  0.125000  0.125000  1
  Ni  Ni4  1  0.247054  0.917649  0.917649  1
  Ni  Ni5  1  0.917649  0.247054  0.917649  1
  Ni  Ni6  1  0.917649  0.917649  0.917649  1
  Ni  Ni7  1  0.917649  0.917649  0.247054  1
  Ni  Ni8  1  0.002946  0.332351  0.332351  1
  Ni  Ni9  1  0.332351  0.332351  0.002946  1
  Ni  Ni10  1  0.332351  0.002946  0.332351  1
  Ni  Ni11  1  0.332351  0.332351  0.332351  1
  W  W12  1  0.693849  0.306151  0.693849  1
  W  W13  1  0.556151  0.556151  0.943849  1
  W  W14  1  0.556151  0.943849  0.556151  1
  W  W15  1  0.943849  0.943849  0.556151  1
  W  W16  1  0.943849  0.556151  0.556151  1
  W  W17  1  0.943849  0.556151  0.943849  1
  W  W18  1  0.693849  0.306151  0.306151  1
  W  W19  1  0.306151  0.693849  0.306151  1
  W  W20  1  0.306151  0.306151  0.693849  1
  W  W21  1  0.306151  0.693849  0.693849  1
  W  W22  1  0.693849  0.693849  0.306151  1
  W  W23  1  0.556151  0.943849  0.943849  1
  N  N24  1  0.625000  0.625000  0.625000  1
  N  N25  1  0.125000  0.625000  0.625000  1
  N  N26  1  0.625000  0.125000  0.625000  1
  N  N27  1  0.625000  0.625000  0.125000  1
