# generated using pymatgen
data_Dy2Y18Ir7Rh5
_symmetry_space_group_name_H-M   'P 1'
_cell_length_a   10.94142105
_cell_length_b   10.94142055
_cell_length_c   6.40921402
_cell_angle_alpha   89.98313812
_cell_angle_beta   89.98314123
_cell_angle_gamma   89.90429280
_symmetry_Int_Tables_number   1
_chemical_formula_structural   Dy2Y18Ir7Rh5
_chemical_formula_sum   'Dy2 Y18 Ir7 Rh5'
_cell_volume   767.27592772
_cell_formula_units_Z   1
loop_
 _symmetry_equiv_pos_site_id
 _symmetry_equiv_pos_as_xyz
  1  'x, y, z'
loop_
 _atom_site_type_symbol
 _atom_site_label
 _atom_site_symmetry_multiplicity
 _atom_site_fract_x
 _atom_site_fract_y
 _atom_site_fract_z
 _atom_site_occupancy
  Dy  Dy0  1  0.499851  0.499615  0.999788  1
  Dy  Dy1  1  0.500385  0.500149  0.500212  1
  Y  Y2  1  0.290312  0.089060  0.381454  1
  Y  Y3  1  0.290826  0.910678  0.880678  1
  Y  Y4  1  0.708653  0.088799  0.879859  1
  Y  Y5  1  0.708534  0.908627  0.381395  1
  Y  Y6  1  0.589047  0.790363  0.881578  1
  Y  Y7  1  0.587392  0.209605  0.380875  1
  Y  Y8  1  0.410341  0.790599  0.381339  1
  Y  Y9  1  0.410662  0.209246  0.880984  1
  Y  Y10  1  0.209637  0.410953  0.618422  1
  Y  Y11  1  0.209401  0.589659  0.118661  1
  Y  Y12  1  0.790395  0.412608  0.119125  1
  Y  Y13  1  0.790754  0.589338  0.619016  1
  Y  Y14  1  0.910940  0.709688  0.118546  1
  Y  Y15  1  0.911201  0.291347  0.620141  1
  Y  Y16  1  0.089322  0.709174  0.619322  1
  Y  Y17  1  0.091373  0.291466  0.118605  1
  Y  Y18  1  0.999734  0.999771  0.499847  1
  Y  Y19  1  0.000229  0.000266  0.000153  1
  Ir  Ir20  1  0.845943  0.847019  0.750154  1
  Ir  Ir21  1  0.152981  0.154057  0.749846  1
  Ir  Ir22  1  0.153986  0.846014  0.250000  1
  Ir  Ir23  1  0.653512  0.346488  0.750000  1
  Ir  Ir24  1  0.652846  0.652035  0.249563  1
  Ir  Ir25  1  0.347965  0.347154  0.250437  1
  Ir  Ir26  1  0.347388  0.652612  0.750000  1
  Rh  Rh27  1  0.845509  0.154491  0.250000  1
  Rh  Rh28  1  0.500768  0.000249  0.127852  1
  Rh  Rh29  1  0.500526  0.000164  0.626670  1
  Rh  Rh30  1  0.999836  0.499474  0.873330  1
  Rh  Rh31  1  0.999751  0.499232  0.372148  1
