# generated using pymatgen
data_Y3CdHg4
_symmetry_space_group_name_H-M   'P 1'
_cell_length_a   6.42224471
_cell_length_b   6.42224618
_cell_length_c   10.22342900
_cell_angle_alpha   90.00000000
_cell_angle_beta   90.00000000
_cell_angle_gamma   107.89726972
_symmetry_Int_Tables_number   1
_chemical_formula_structural   Y3CdHg4
_chemical_formula_sum   'Y6 Cd2 Hg8'
_cell_volume   401.26284389
_cell_formula_units_Z   2
loop_
 _symmetry_equiv_pos_site_id
 _symmetry_equiv_pos_as_xyz
  1  'x, y, z'
loop_
 _atom_site_type_symbol
 _atom_site_label
 _atom_site_symmetry_multiplicity
 _atom_site_fract_x
 _atom_site_fract_y
 _atom_site_fract_z
 _atom_site_occupancy
  Y  Y0  1  0.549765  0.549765  0.250000  1
  Y  Y1  1  0.450235  0.450235  0.750000  1
  Y  Y2  1  0.221539  0.778461  0.500000  1
  Y  Y3  1  0.221539  0.778461  0.000000  1
  Y  Y4  1  0.778461  0.221539  0.500000  1
  Y  Y5  1  0.778461  0.221539  0.000000  1
  Cd  Cd6  1  0.983497  0.983497  0.250000  1
  Cd  Cd7  1  0.016503  0.016503  0.750000  1
  Hg  Hg8  1  0.277791  0.277791  0.023142  1
  Hg  Hg9  1  0.722209  0.722209  0.976858  1
  Hg  Hg10  1  0.277791  0.277791  0.476858  1
  Hg  Hg11  1  0.722209  0.722209  0.523142  1
  Hg  Hg12  1  0.485693  0.027791  0.250000  1
  Hg  Hg13  1  0.972209  0.514307  0.750000  1
  Hg  Hg14  1  0.514307  0.972209  0.750000  1
  Hg  Hg15  1  0.027791  0.485693  0.250000  1
