# generated using pymatgen
data_Na4HfPdBr12
_symmetry_space_group_name_H-M   'P 1'
_cell_length_a   7.33140672
_cell_length_b   6.97665038
_cell_length_c   12.20414700
_cell_angle_alpha   54.81379517
_cell_angle_beta   89.39499733
_cell_angle_gamma   90.10737286
_symmetry_Int_Tables_number   1
_chemical_formula_structural   Na4HfPdBr12
_chemical_formula_sum   'Na4 Hf1 Pd1 Br12'
_cell_volume   510.11690304
_cell_formula_units_Z   1
loop_
 _symmetry_equiv_pos_site_id
 _symmetry_equiv_pos_as_xyz
  1  'x, y, z'
loop_
 _atom_site_type_symbol
 _atom_site_label
 _atom_site_symmetry_multiplicity
 _atom_site_fract_x
 _atom_site_fract_y
 _atom_site_fract_z
 _atom_site_occupancy
  Na  Na0  1  0.411420  0.716298  0.259336  1
  Na  Na1  1  0.911990  0.258473  0.256879  1
  Na  Na2  1  0.088010  0.741527  0.743121  1
  Na  Na3  1  0.588580  0.283702  0.740664  1
  Hf  Hf4  1  0.000000  0.000000  0.000000  1
  Pd  Pd5  1  0.500000  0.000000  0.500000  1
  Br  Br6  1  0.819736  0.368257  0.944751  1
  Br  Br7  1  0.526834  0.125621  0.261613  1
  Br  Br8  1  0.473166  0.874379  0.738387  1
  Br  Br9  1  0.309663  0.223326  0.950779  1
  Br  Br10  1  0.312995  0.648407  0.560041  1
  Br  Br11  1  0.211765  0.229732  0.446791  1
  Br  Br12  1  0.180264  0.631743  0.055249  1
  Br  Br13  1  0.788235  0.770268  0.553209  1
  Br  Br14  1  0.690337  0.776674  0.049221  1
  Br  Br15  1  0.023047  0.848357  0.252331  1
  Br  Br16  1  0.976953  0.151643  0.747669  1
  Br  Br17  1  0.687005  0.351593  0.439959  1
