# generated using pymatgen
data_Tb5DyLu4(Si3H)2
_symmetry_space_group_name_H-M   'P 1'
_cell_length_a   8.41008142
_cell_length_b   8.41468974
_cell_length_c   6.15198900
_cell_angle_alpha   90.00000000
_cell_angle_beta   90.00000000
_cell_angle_gamma   120.01812295
_symmetry_Int_Tables_number   1
_chemical_formula_structural   Tb5DyLu4(Si3H)2
_chemical_formula_sum   'Tb5 Dy1 Lu4 Si6 H2'
_cell_volume   376.96857717
_cell_formula_units_Z   1
loop_
 _symmetry_equiv_pos_site_id
 _symmetry_equiv_pos_as_xyz
  1  'x, y, z'
loop_
 _atom_site_type_symbol
 _atom_site_label
 _atom_site_symmetry_multiplicity
 _atom_site_fract_x
 _atom_site_fract_y
 _atom_site_fract_z
 _atom_site_occupancy
  Tb  Tb0  1  0.749594  0.749534  0.750000  1
  Tb  Tb1  1  0.250406  0.999940  0.750000  1
  Tb  Tb2  1  0.000000  0.250529  0.750000  1
  Tb  Tb3  1  0.250438  0.250462  0.250000  1
  Tb  Tb4  1  0.749562  0.000024  0.250000  1
  Dy  Dy5  1  0.000000  0.749284  0.250000  1
  Lu  Lu6  1  0.666723  0.333409  0.000027  1
  Lu  Lu7  1  0.333277  0.666686  0.000027  1
  Lu  Lu8  1  0.333277  0.666686  0.499973  1
  Lu  Lu9  1  0.666723  0.333409  0.499973  1
  Si  Si10  1  0.391866  0.391852  0.750000  1
  Si  Si11  1  0.608134  0.999986  0.750000  1
  Si  Si12  1  0.000000  0.608178  0.750000  1
  Si  Si13  1  0.608534  0.608270  0.250000  1
  Si  Si14  1  0.391466  0.999736  0.250000  1
  Si  Si15  1  0.000000  0.392120  0.250000  1
  H  H16  1  0.000000  0.999946  0.499881  1
  H  H17  1  0.000000  0.999946  0.000119  1
