# generated using pymatgen
data_Hf8Nb2Sn7Ge
_symmetry_space_group_name_H-M   'P 1'
_cell_length_a   5.82326401
_cell_length_b   8.64990918
_cell_length_c   8.64997500
_cell_angle_alpha   119.99975607
_cell_angle_beta   90.00278725
_cell_angle_gamma   89.99441358
_symmetry_Int_Tables_number   1
_chemical_formula_structural   Hf8Nb2Sn7Ge
_chemical_formula_sum   'Hf8 Nb2 Sn7 Ge1'
_cell_volume   377.33281655
_cell_formula_units_Z   1
loop_
 _symmetry_equiv_pos_site_id
 _symmetry_equiv_pos_as_xyz
  1  'x, y, z'
loop_
 _atom_site_type_symbol
 _atom_site_label
 _atom_site_symmetry_multiplicity
 _atom_site_fract_x
 _atom_site_fract_y
 _atom_site_fract_z
 _atom_site_occupancy
  Hf  Hf0  1  0.000001  0.666662  0.333325  1
  Hf  Hf1  1  0.000001  0.333337  0.666675  1
  Hf  Hf2  1  0.737250  0.275912  0.000000  1
  Hf  Hf3  1  0.737240  0.724081  0.724097  1
  Hf  Hf4  1  0.737240  0.999984  0.275903  1
  Hf  Hf5  1  0.262755  0.724093  0.000000  1
  Hf  Hf6  1  0.262757  0.275920  0.275902  1
  Hf  Hf7  1  0.262757  0.000018  0.724098  1
  Nb  Nb8  1  0.500000  0.333343  0.666692  1
  Nb  Nb9  1  0.500000  0.666651  0.333308  1
  Sn  Sn10  1  0.752904  0.610455  0.000000  1
  Sn  Sn11  1  0.752906  0.389547  0.389548  1
  Sn  Sn12  1  0.752906  0.999999  0.610452  1
  Sn  Sn13  1  0.247095  0.389546  0.000000  1
  Sn  Sn14  1  0.247093  0.610452  0.610453  1
  Sn  Sn15  1  0.247093  0.999999  0.389547  1
  Sn  Sn16  1  0.999998  0.000001  0.000000  1
  Ge  Ge17  1  0.500004  0.000000  0.000000  1
