# generated using pymatgen
data_La20Ir4RuPt7
_symmetry_space_group_name_H-M   'P 1'
_cell_length_a   11.57945799
_cell_length_b   11.57606109
_cell_length_c   6.65719206
_cell_angle_alpha   89.98527494
_cell_angle_beta   89.99976409
_cell_angle_gamma   89.95250655
_symmetry_Int_Tables_number   1
_chemical_formula_structural   La20Ir4RuPt7
_chemical_formula_sum   'La20 Ir4 Ru1 Pt7'
_cell_volume   892.35973179
_cell_formula_units_Z   1
loop_
 _symmetry_equiv_pos_site_id
 _symmetry_equiv_pos_as_xyz
  1  'x, y, z'
loop_
 _atom_site_type_symbol
 _atom_site_label
 _atom_site_symmetry_multiplicity
 _atom_site_fract_x
 _atom_site_fract_y
 _atom_site_fract_z
 _atom_site_occupancy
  La  La0  1  0.296121  0.088525  0.379883  1
  La  La1  1  0.297014  0.908013  0.882581  1
  La  La2  1  0.703156  0.088333  0.883215  1
  La  La3  1  0.703661  0.910912  0.379942  1
  La  La4  1  0.586440  0.795638  0.883064  1
  La  La5  1  0.588722  0.203817  0.380870  1
  La  La6  1  0.409695  0.793710  0.386875  1
  La  La7  1  0.411096  0.202765  0.884106  1
  La  La8  1  0.206030  0.412788  0.619018  1
  La  La9  1  0.207375  0.590991  0.112432  1
  La  La10  1  0.795086  0.410753  0.117993  1
  La  La11  1  0.795654  0.589845  0.617975  1
  La  La12  1  0.910805  0.704989  0.119051  1
  La  La13  1  0.910594  0.295280  0.618921  1
  La  La14  1  0.093123  0.704393  0.619541  1
  La  La15  1  0.089723  0.295341  0.118914  1
  La  La16  1  0.999770  0.999758  0.499429  1
  La  La17  1  0.000165  0.000308  0.998981  1
  La  La18  1  0.497819  0.502035  0.997673  1
  La  La19  1  0.497982  0.502179  0.500876  1
  Ir  Ir20  1  0.346059  0.653019  0.749658  1
  Ir  Ir21  1  0.500377  0.001092  0.616858  1
  Ir  Ir22  1  0.998696  0.499568  0.884599  1
  Ir  Ir23  1  0.999542  0.499522  0.383574  1
  Ru  Ru24  1  0.500424  0.000591  0.113980  1
  Pt  Pt25  1  0.845954  0.155158  0.250190  1
  Pt  Pt26  1  0.845534  0.845392  0.749983  1
  Pt  Pt27  1  0.154131  0.154973  0.749507  1
  Pt  Pt28  1  0.153558  0.845488  0.250168  1
  Pt  Pt29  1  0.654951  0.345576  0.749661  1
  Pt  Pt30  1  0.655997  0.654321  0.250140  1
  Pt  Pt31  1  0.344748  0.344925  0.250345  1
