# generated using pymatgen
data_Tb6Al41Cr6
_symmetry_space_group_name_H-M   'P 1'
_cell_length_a   10.84593400
_cell_length_b   10.84593368
_cell_length_c   17.42144800
_cell_angle_alpha   90.00000000
_cell_angle_beta   90.00000000
_cell_angle_gamma   120.00000098
_symmetry_Int_Tables_number   1
_chemical_formula_structural   Tb6Al41Cr6
_chemical_formula_sum   'Tb12 Al82 Cr12'
_cell_volume   1774.79737671
_cell_formula_units_Z   2
loop_
 _symmetry_equiv_pos_site_id
 _symmetry_equiv_pos_as_xyz
  1  'x, y, z'
loop_
 _atom_site_type_symbol
 _atom_site_label
 _atom_site_symmetry_multiplicity
 _atom_site_fract_x
 _atom_site_fract_y
 _atom_site_fract_z
 _atom_site_occupancy
  Tb  Tb0  1  0.000000  0.532926  0.402222  1
  Tb  Tb1  1  0.467074  0.467074  0.402222  1
  Tb  Tb2  1  0.532926  0.000000  0.402222  1
  Tb  Tb3  1  0.000000  0.467074  0.597778  1
  Tb  Tb4  1  0.532926  0.532926  0.597778  1
  Tb  Tb5  1  0.467074  0.000000  0.597778  1
  Tb  Tb6  1  0.000000  0.464949  0.904615  1
  Tb  Tb7  1  0.535051  0.535051  0.904615  1
  Tb  Tb8  1  0.464949  0.000000  0.904615  1
  Tb  Tb9  1  0.000000  0.535051  0.095385  1
  Tb  Tb10  1  0.464949  0.464949  0.095385  1
  Tb  Tb11  1  0.535051  0.000000  0.095385  1
  Al  Al12  1  0.000000  0.750381  0.971920  1
  Al  Al13  1  0.249619  0.249619  0.971920  1
  Al  Al14  1  0.750381  0.000000  0.971920  1
  Al  Al15  1  0.000000  0.249619  0.028080  1
  Al  Al16  1  0.750381  0.750381  0.028080  1
  Al  Al17  1  0.249619  0.000000  0.028080  1
  Al  Al18  1  0.000000  0.250617  0.469420  1
  Al  Al19  1  0.749383  0.749383  0.469420  1
  Al  Al20  1  0.250617  0.000000  0.469420  1
  Al  Al21  1  0.000000  0.749383  0.530580  1
  Al  Al22  1  0.250617  0.250617  0.530580  1
  Al  Al23  1  0.749383  0.000000  0.530580  1
  Al  Al24  1  0.608837  0.767057  0.333884  1
  Al  Al25  1  0.232943  0.841782  0.333884  1
  Al  Al26  1  0.158218  0.391163  0.333884  1
  Al  Al27  1  0.391163  0.158218  0.333884  1
  Al  Al28  1  0.767057  0.608837  0.333884  1
  Al  Al29  1  0.841782  0.232943  0.333884  1
  Al  Al30  1  0.391163  0.232943  0.666116  1
  Al  Al31  1  0.767057  0.158218  0.666116  1
  Al  Al32  1  0.841782  0.608837  0.666116  1
  Al  Al33  1  0.608837  0.841782  0.666116  1
  Al  Al34  1  0.232943  0.391163  0.666116  1
  Al  Al35  1  0.158218  0.767057  0.666116  1
  Al  Al36  1  0.399105  0.233876  0.839651  1
  Al  Al37  1  0.766124  0.165230  0.839651  1
  Al  Al38  1  0.834770  0.600895  0.839651  1
  Al  Al39  1  0.600895  0.834770  0.839651  1
  Al  Al40  1  0.233876  0.399105  0.839651  1
  Al  Al41  1  0.165230  0.766124  0.839651  1
  Al  Al42  1  0.600895  0.766124  0.160349  1
  Al  Al43  1  0.233876  0.834770  0.160349  1
  Al  Al44  1  0.165230  0.399105  0.160349  1
  Al  Al45  1  0.399105  0.165230  0.160349  1
  Al  Al46  1  0.766124  0.600895  0.160349  1
  Al  Al47  1  0.834770  0.233876  0.160349  1
  Al  Al48  1  0.000000  0.149978  0.247590  1
  Al  Al49  1  0.850022  0.850022  0.247590  1
  Al  Al50  1  0.149978  0.000000  0.247590  1
  Al  Al51  1  0.000000  0.850022  0.752410  1
  Al  Al52  1  0.149978  0.149978  0.752410  1
  Al  Al53  1  0.850022  0.000000  0.752410  1
  Al  Al54  1  0.452985  0.849643  0.246263  1
  Al  Al55  1  0.150357  0.603342  0.246263  1
  Al  Al56  1  0.396658  0.547015  0.246263  1
  Al  Al57  1  0.547015  0.396658  0.246263  1
  Al  Al58  1  0.849643  0.452985  0.246263  1
  Al  Al59  1  0.603342  0.150357  0.246263  1
  Al  Al60  1  0.547015  0.150357  0.753737  1
  Al  Al61  1  0.849643  0.396658  0.753737  1
  Al  Al62  1  0.603342  0.452985  0.753737  1
  Al  Al63  1  0.452985  0.603342  0.753737  1
  Al  Al64  1  0.150357  0.547015  0.753737  1
  Al  Al65  1  0.396658  0.849643  0.753737  1
  Al  Al66  1  0.505660  0.752830  0.500000  1
  Al  Al67  1  0.247170  0.752830  0.500000  1
  Al  Al68  1  0.247170  0.494340  0.500000  1
  Al  Al69  1  0.494340  0.247170  0.500000  1
  Al  Al70  1  0.752830  0.505660  0.500000  1
  Al  Al71  1  0.752830  0.247170  0.500000  1
  Al  Al72  1  0.503777  0.251889  0.000000  1
  Al  Al73  1  0.748111  0.251889  0.000000  1
  Al  Al74  1  0.748111  0.496223  0.000000  1
  Al  Al75  1  0.496223  0.748111  0.000000  1
  Al  Al76  1  0.251889  0.503777  0.000000  1
  Al  Al77  1  0.251889  0.748111  0.000000  1
  Al  Al78  1  0.000000  0.845251  0.383637  1
  Al  Al79  1  0.154749  0.154749  0.383637  1
  Al  Al80  1  0.845251  0.000000  0.383637  1
  Al  Al81  1  0.000000  0.154749  0.616363  1
  Al  Al82  1  0.845251  0.845251  0.616363  1
  Al  Al83  1  0.154749  0.000000  0.616363  1
  Al  Al84  1  0.000000  0.154614  0.884403  1
  Al  Al85  1  0.845386  0.845386  0.884403  1
  Al  Al86  1  0.154614  0.000000  0.884403  1
  Al  Al87  1  0.000000  0.845386  0.115597  1
  Al  Al88  1  0.154614  0.154614  0.115597  1
  Al  Al89  1  0.845386  0.000000  0.115597  1
  Al  Al90  1  0.333333  0.666667  0.372892  1
  Al  Al91  1  0.666667  0.333333  0.372892  1
  Al  Al92  1  0.666667  0.333333  0.627108  1
  Al  Al93  1  0.333333  0.666667  0.627108  1
  Cr  Cr94  1  0.000000  0.000000  0.500000  1
  Cr  Cr95  1  0.000000  0.000000  0.000000  1
  Cr  Cr96  1  0.000000  0.738199  0.250815  1
  Cr  Cr97  1  0.261801  0.261801  0.250815  1
  Cr  Cr98  1  0.738199  0.000000  0.250815  1
  Cr  Cr99  1  0.000000  0.261801  0.749185  1
  Cr  Cr100  1  0.738199  0.738199  0.749185  1
  Cr  Cr101  1  0.261801  0.000000  0.749185  1
  Cr  Cr102  1  0.666667  0.333333  0.865698  1
  Cr  Cr103  1  0.333333  0.666667  0.865698  1
  Cr  Cr104  1  0.333333  0.666667  0.134302  1
  Cr  Cr105  1  0.666667  0.333333  0.134302  1
