# generated using pymatgen
data_SmLuNb2(SnPt)4
_symmetry_space_group_name_H-M   'P 1'
_cell_length_a   6.46634110
_cell_length_b   4.54712900
_cell_length_c   9.12513697
_cell_angle_alpha   90.00000000
_cell_angle_beta   90.09241306
_cell_angle_gamma   90.00000000
_symmetry_Int_Tables_number   1
_chemical_formula_structural   SmLuNb2(SnPt)4
_chemical_formula_sum   'Sm1 Lu1 Nb2 Sn4 Pt4'
_cell_volume   268.30867355
_cell_formula_units_Z   1
loop_
 _symmetry_equiv_pos_site_id
 _symmetry_equiv_pos_as_xyz
  1  'x, y, z'
loop_
 _atom_site_type_symbol
 _atom_site_label
 _atom_site_symmetry_multiplicity
 _atom_site_fract_x
 _atom_site_fract_y
 _atom_site_fract_z
 _atom_site_occupancy
  Sm  Sm0  1  0.002339  0.000000  0.376091  1
  Lu  Lu1  1  0.502864  0.500001  0.623981  1
  Nb  Nb2  1  0.498333  0.500001  0.123889  1
  Nb  Nb3  1  0.996596  0.000000  0.875960  1
  Sn  Sn4  1  0.988826  0.500001  0.121302  1
  Sn  Sn5  1  0.510115  0.000000  0.373346  1
  Sn  Sn6  1  0.008837  0.500001  0.630733  1
  Sn  Sn7  1  0.485650  0.000000  0.874627  1
  Pt  Pt8  1  0.735731  0.000000  0.110232  1
  Pt  Pt9  1  0.272104  0.500001  0.359583  1
  Pt  Pt10  1  0.759301  0.000000  0.644072  1
  Pt  Pt11  1  0.239298  0.500001  0.886187  1
