# generated using pymatgen
data_Hf18ReMo7PdSe
_symmetry_space_group_name_H-M   'P 1'
_cell_length_a   8.74780400
_cell_length_b   8.74780357
_cell_length_c   8.60542700
_cell_angle_alpha   90.00000000
_cell_angle_beta   90.00000000
_cell_angle_gamma   120.00000161
_symmetry_Int_Tables_number   1
_chemical_formula_structural   Hf18ReMo7PdSe
_chemical_formula_sum   'Hf18 Re1 Mo7 Pd1 Se1'
_cell_volume   570.29703809
_cell_formula_units_Z   1
loop_
 _symmetry_equiv_pos_site_id
 _symmetry_equiv_pos_as_xyz
  1  'x, y, z'
loop_
 _atom_site_type_symbol
 _atom_site_label
 _atom_site_symmetry_multiplicity
 _atom_site_fract_x
 _atom_site_fract_y
 _atom_site_fract_z
 _atom_site_occupancy
  Hf  Hf0  1  0.196089  0.803911  0.448121  1
  Hf  Hf1  1  0.196089  0.392177  0.448121  1
  Hf  Hf2  1  0.607823  0.803911  0.448121  1
  Hf  Hf3  1  0.806094  0.193906  0.546846  1
  Hf  Hf4  1  0.806094  0.612187  0.546846  1
  Hf  Hf5  1  0.387813  0.193906  0.546846  1
  Hf  Hf6  1  0.807424  0.192576  0.952897  1
  Hf  Hf7  1  0.807424  0.614848  0.952897  1
  Hf  Hf8  1  0.385152  0.192576  0.952897  1
  Hf  Hf9  1  0.195200  0.804800  0.052317  1
  Hf  Hf10  1  0.195200  0.390400  0.052317  1
  Hf  Hf11  1  0.609600  0.804800  0.052317  1
  Hf  Hf12  1  0.542745  0.457255  0.249515  1
  Hf  Hf13  1  0.542745  0.085491  0.249515  1
  Hf  Hf14  1  0.914509  0.457255  0.249515  1
  Hf  Hf15  1  0.455699  0.544301  0.750336  1
  Hf  Hf16  1  0.455699  0.911398  0.750336  1
  Hf  Hf17  1  0.088602  0.544301  0.750336  1
  Re  Re18  1  0.000000  0.000000  0.000528  1
  Mo  Mo19  1  0.888904  0.111096  0.250369  1
  Mo  Mo20  1  0.888904  0.777809  0.250369  1
  Mo  Mo21  1  0.222191  0.111096  0.250369  1
  Mo  Mo22  1  0.110379  0.889621  0.749710  1
  Mo  Mo23  1  0.110379  0.220759  0.749710  1
  Mo  Mo24  1  0.779241  0.889621  0.749710  1
  Mo  Mo25  1  0.000000  0.000000  0.498722  1
  Pd  Pd26  1  0.333333  0.666667  0.249458  1
  Se  Se27  1  0.666667  0.333333  0.750956  1
