# generated using pymatgen
data_Hf8Nb2CoSiSn6
_symmetry_space_group_name_H-M   'P 1'
_cell_length_a   5.73491400
_cell_length_b   8.56574358
_cell_length_c   8.56574300
_cell_angle_alpha   119.99999389
_cell_angle_beta   90.00000000
_cell_angle_gamma   90.00000000
_symmetry_Int_Tables_number   1
_chemical_formula_structural   Hf8Nb2CoSiSn6
_chemical_formula_sum   'Hf8 Nb2 Co1 Si1 Sn6'
_cell_volume   364.40781115
_cell_formula_units_Z   1
loop_
 _symmetry_equiv_pos_site_id
 _symmetry_equiv_pos_as_xyz
  1  'x, y, z'
loop_
 _atom_site_type_symbol
 _atom_site_label
 _atom_site_symmetry_multiplicity
 _atom_site_fract_x
 _atom_site_fract_y
 _atom_site_fract_z
 _atom_site_occupancy
  Hf  Hf0  1  0.758049  0.746104  0.746104  1
  Hf  Hf1  1  0.241951  0.253896  0.253896  1
  Hf  Hf2  1  0.758049  0.000000  0.253896  1
  Hf  Hf3  1  0.241951  0.000000  0.746104  1
  Hf  Hf4  1  0.758049  0.253896  0.000000  1
  Hf  Hf5  1  0.241951  0.746104  0.000000  1
  Hf  Hf6  1  0.500000  0.333333  0.666667  1
  Hf  Hf7  1  0.500000  0.666667  0.333333  1
  Nb  Nb8  1  0.000000  0.666667  0.333333  1
  Nb  Nb9  1  0.000000  0.333333  0.666667  1
  Co  Co10  1  0.000000  0.000000  0.000000  1
  Si  Si11  1  0.500000  0.000000  0.000000  1
  Sn  Sn12  1  0.755162  0.396117  0.396117  1
  Sn  Sn13  1  0.244838  0.603883  0.603883  1
  Sn  Sn14  1  0.755162  0.000000  0.603883  1
  Sn  Sn15  1  0.244838  0.000000  0.396117  1
  Sn  Sn16  1  0.755162  0.603883  0.000000  1
  Sn  Sn17  1  0.244838  0.396117  0.000000  1
