# generated using pymatgen
data_Yb10Cu2RuPt
_symmetry_space_group_name_H-M   'P 1'
_cell_length_a   8.61830630
_cell_length_b   8.62147376
_cell_length_c   7.53958520
_cell_angle_alpha   82.99737991
_cell_angle_beta   83.20684234
_cell_angle_gamma   44.51786598
_symmetry_Int_Tables_number   1
_chemical_formula_structural   Yb10Cu2RuPt
_chemical_formula_sum   'Yb10 Cu2 Ru1 Pt1'
_cell_volume   389.45511100
_cell_formula_units_Z   1
loop_
 _symmetry_equiv_pos_site_id
 _symmetry_equiv_pos_as_xyz
  1  'x, y, z'
loop_
 _atom_site_type_symbol
 _atom_site_label
 _atom_site_symmetry_multiplicity
 _atom_site_fract_x
 _atom_site_fract_y
 _atom_site_fract_z
 _atom_site_occupancy
  Yb  Yb0  1  0.020584  0.793807  0.914314  1
  Yb  Yb1  1  0.201070  0.966849  0.577244  1
  Yb  Yb2  1  0.969350  0.203576  0.078218  1
  Yb  Yb3  1  0.801386  0.011645  0.422292  1
  Yb  Yb4  1  0.359692  0.212331  0.814263  1
  Yb  Yb5  1  0.809354  0.633606  0.678267  1
  Yb  Yb6  1  0.633854  0.806574  0.179112  1
  Yb  Yb7  1  0.209572  0.363664  0.326944  1
  Yb  Yb8  1  0.573888  0.421035  0.747318  1
  Yb  Yb9  1  0.416397  0.577124  0.260792  1
  Cu  Cu10  1  0.404528  0.816499  0.919575  1
  Cu  Cu11  1  0.818239  0.404366  0.417576  1
  Ru  Ru12  1  0.176784  0.609899  0.582553  1
  Pt  Pt13  1  0.605303  0.179029  0.081531  1
