# generated using pymatgen
data_K2WCl5F
_symmetry_space_group_name_H-M   'P 1'
_cell_length_a   7.20397700
_cell_length_b   9.87926700
_cell_length_c   14.10519800
_cell_angle_alpha   90.00000000
_cell_angle_beta   90.00000000
_cell_angle_gamma   90.00000000
_symmetry_Int_Tables_number   1
_chemical_formula_structural   K2WCl5F
_chemical_formula_sum   'K8 W4 Cl20 F4'
_cell_volume   1003.86711438
_cell_formula_units_Z   4
loop_
 _symmetry_equiv_pos_site_id
 _symmetry_equiv_pos_as_xyz
  1  'x, y, z'
loop_
 _atom_site_type_symbol
 _atom_site_label
 _atom_site_symmetry_multiplicity
 _atom_site_fract_x
 _atom_site_fract_y
 _atom_site_fract_z
 _atom_site_occupancy
  K  K0  1  0.812673  0.999601  0.133278  1
  K  K1  1  0.687327  0.500399  0.633278  1
  K  K2  1  0.187327  0.499601  0.866722  1
  K  K3  1  0.312673  0.000399  0.366722  1
  K  K4  1  0.187327  0.000399  0.866722  1
  K  K5  1  0.312673  0.499601  0.366722  1
  K  K6  1  0.812673  0.500399  0.133278  1
  K  K7  1  0.687327  0.999601  0.633278  1
  W  W8  1  0.802735  0.750000  0.387478  1
  W  W9  1  0.697265  0.750000  0.887478  1
  W  W10  1  0.197265  0.250000  0.612522  1
  W  W11  1  0.302735  0.250000  0.112522  1
  Cl  Cl12  1  0.532902  0.750000  0.496995  1
  Cl  Cl13  1  0.967098  0.750000  0.996995  1
  Cl  Cl14  1  0.467098  0.250000  0.503005  1
  Cl  Cl15  1  0.032902  0.250000  0.003005  1
  Cl  Cl16  1  0.591066  0.750000  0.251700  1
  Cl  Cl17  1  0.908934  0.750000  0.751700  1
  Cl  Cl18  1  0.408934  0.250000  0.748300  1
  Cl  Cl19  1  0.091066  0.250000  0.248300  1
  Cl  Cl20  1  0.069022  0.750000  0.277432  1
  Cl  Cl21  1  0.430978  0.750000  0.777432  1
  Cl  Cl22  1  0.930978  0.250000  0.722568  1
  Cl  Cl23  1  0.569022  0.250000  0.222568  1
  Cl  Cl24  1  0.802297  0.994834  0.387985  1
  Cl  Cl25  1  0.697703  0.505166  0.887985  1
  Cl  Cl26  1  0.197703  0.494834  0.612015  1
  Cl  Cl27  1  0.302297  0.005166  0.112015  1
  Cl  Cl28  1  0.197703  0.005166  0.612015  1
  Cl  Cl29  1  0.302297  0.494834  0.112015  1
  Cl  Cl30  1  0.802297  0.505166  0.387985  1
  Cl  Cl31  1  0.697703  0.994834  0.887985  1
  F  F32  1  0.970687  0.750000  0.496696  1
  F  F33  1  0.529313  0.750000  0.996696  1
  F  F34  1  0.029313  0.250000  0.503304  1
  F  F35  1  0.470687  0.250000  0.003304  1
