# generated using pymatgen
data_Li4RhO5
_symmetry_space_group_name_H-M   'P 1'
_cell_length_a   5.08392036
_cell_length_b   5.12360058
_cell_length_c   7.75248772
_cell_angle_alpha   108.81255834
_cell_angle_beta   101.70405938
_cell_angle_gamma   101.14456415
_symmetry_Int_Tables_number   1
_chemical_formula_structural   Li4RhO5
_chemical_formula_sum   'Li8 Rh2 O10'
_cell_volume   179.73644339
_cell_formula_units_Z   2
loop_
 _symmetry_equiv_pos_site_id
 _symmetry_equiv_pos_as_xyz
  1  'x, y, z'
loop_
 _atom_site_type_symbol
 _atom_site_label
 _atom_site_symmetry_multiplicity
 _atom_site_fract_x
 _atom_site_fract_y
 _atom_site_fract_z
 _atom_site_occupancy
  Li  Li0  1  0.415434  0.800824  0.301610  1
  Li  Li1  1  0.584566  0.199176  0.698390  1
  Li  Li2  1  0.000000  0.000000  0.500000  1
  Li  Li3  1  0.500000  0.000000  0.000000  1
  Li  Li4  1  0.212214  0.399982  0.900266  1
  Li  Li5  1  0.787786  0.600018  0.099734  1
  Li  Li6  1  0.302582  0.607504  0.605235  1
  Li  Li7  1  0.697418  0.392496  0.394765  1
  Rh  Rh8  1  0.893849  0.789111  0.788530  1
  Rh  Rh9  1  0.106151  0.210889  0.211470  1
  O  O10  1  0.568233  0.606346  0.846349  1
  O  O11  1  0.431767  0.393654  0.153651  1
  O  O12  1  0.051183  0.574528  0.337459  1
  O  O13  1  0.948817  0.425472  0.662541  1
  O  O14  1  0.134896  0.819578  0.044074  1
  O  O15  1  0.865104  0.180422  0.955926  1
  O  O16  1  0.228703  0.992040  0.750487  1
  O  O17  1  0.771297  0.007960  0.249513  1
  O  O18  1  0.336797  0.190868  0.433200  1
  O  O19  1  0.663203  0.809132  0.566800  1
