# generated using pymatgen
data_K(S8Cl)3
_symmetry_space_group_name_H-M   'P 1'
_cell_length_a   5.18251267
_cell_length_b   14.51000322
_cell_length_c   14.99256639
_cell_angle_alpha   119.97754423
_cell_angle_beta   95.40656095
_cell_angle_gamma   97.53055575
_symmetry_Int_Tables_number   1
_chemical_formula_structural   K(S8Cl)3
_chemical_formula_sum   'K1 S24 Cl3'
_cell_volume   951.27798957
_cell_formula_units_Z   1
loop_
 _symmetry_equiv_pos_site_id
 _symmetry_equiv_pos_as_xyz
  1  'x, y, z'
loop_
 _atom_site_type_symbol
 _atom_site_label
 _atom_site_symmetry_multiplicity
 _atom_site_fract_x
 _atom_site_fract_y
 _atom_site_fract_z
 _atom_site_occupancy
  K  K0  1  0.572341  0.001060  0.063690  1
  S  S1  1  0.352864  0.397380  0.995192  1
  S  S2  1  0.567015  0.731679  0.004421  1
  S  S3  1  0.269517  0.521959  0.130022  1
  S  S4  1  0.412625  0.757373  0.135297  1
  S  S5  1  0.555003  0.660830  0.184903  1
  S  S6  1  0.663857  0.377976  0.248772  1
  S  S7  1  0.834923  0.268629  0.272422  1
  S  S8  1  0.897340  0.531704  0.344315  1
  S  S9  1  0.136363  0.864319  0.390347  1
  S  S10  1  0.653779  0.242457  0.377182  1
  S  S11  1  0.356568  0.000118  0.402570  1
  S  S12  1  0.364533  0.808246  0.466260  1
  S  S13  1  0.745452  0.612705  0.479063  1
  S  S14  1  0.272104  0.135733  0.526020  1
  S  S15  1  0.892711  0.339034  0.523465  1
  S  S16  1  0.953976  0.602472  0.597445  1
  S  S17  1  0.273338  0.863029  0.613278  1
  S  S18  1  0.745880  0.477585  0.607420  1
  S  S19  1  0.556930  0.192152  0.658037  1
  S  S20  1  0.552233  0.000273  0.721938  1
  S  S21  1  0.411152  0.137413  0.750391  1
  S  S22  1  0.366370  0.468480  0.813027  1
  S  S23  1  0.286226  0.622021  0.871395  1
  S  S24  1  0.133757  0.386967  0.866523  1
  Cl  Cl25  1  0.054406  0.080223  0.944239  1
  Cl  Cl26  1  0.098074  0.000723  0.149591  1
  Cl  Cl27  1  0.973578  0.917462  0.862776  1
