# generated using pymatgen
data_K4TiSe4
_symmetry_space_group_name_H-M   'P 1'
_cell_length_a   8.46485100
_cell_length_b   10.01343900
_cell_length_c   15.00705800
_cell_angle_alpha   90.00000000
_cell_angle_beta   90.00000000
_cell_angle_gamma   90.00000000
_symmetry_Int_Tables_number   1
_chemical_formula_structural   K4TiSe4
_chemical_formula_sum   'K16 Ti4 Se16'
_cell_volume   1272.03228908
_cell_formula_units_Z   4
loop_
 _symmetry_equiv_pos_site_id
 _symmetry_equiv_pos_as_xyz
  1  'x, y, z'
loop_
 _atom_site_type_symbol
 _atom_site_label
 _atom_site_symmetry_multiplicity
 _atom_site_fract_x
 _atom_site_fract_y
 _atom_site_fract_z
 _atom_site_occupancy
  K  K0  1  0.500000  0.500000  0.500000  1
  K  K1  1  0.152260  0.447341  0.275611  1
  K  K2  1  0.152260  0.052659  0.275611  1
  K  K3  1  0.014491  0.750000  0.430929  1
  K  K4  1  0.985509  0.250000  0.569071  1
  K  K5  1  0.652260  0.947341  0.224389  1
  K  K6  1  0.347740  0.052659  0.775611  1
  K  K7  1  0.847740  0.947341  0.724389  1
  K  K8  1  0.347740  0.447341  0.775611  1
  K  K9  1  0.000000  0.500000  0.000000  1
  K  K10  1  0.514491  0.250000  0.069071  1
  K  K11  1  0.652260  0.552659  0.224389  1
  K  K12  1  0.485509  0.750000  0.930929  1
  K  K13  1  0.000000  0.000000  0.000000  1
  K  K14  1  0.847740  0.552659  0.724389  1
  K  K15  1  0.500000  0.000000  0.500000  1
  Ti  Ti16  1  0.748271  0.250000  0.832853  1
  Ti  Ti17  1  0.751729  0.250000  0.332853  1
  Ti  Ti18  1  0.248271  0.750000  0.667147  1
  Ti  Ti19  1  0.251729  0.750000  0.167147  1
  Se  Se20  1  0.533069  0.750000  0.672827  1
  Se  Se21  1  0.466931  0.250000  0.327173  1
  Se  Se22  1  0.361188  0.750000  0.316667  1
  Se  Se23  1  0.138812  0.750000  0.816667  1
  Se  Se24  1  0.033069  0.250000  0.827173  1
  Se  Se25  1  0.966931  0.750000  0.172827  1
  Se  Se26  1  0.638812  0.250000  0.683333  1
  Se  Se27  1  0.861188  0.250000  0.183333  1
  Se  Se28  1  0.839566  0.447703  0.408470  1
  Se  Se29  1  0.660434  0.052297  0.908470  1
  Se  Se30  1  0.339566  0.947703  0.091530  1
  Se  Se31  1  0.339566  0.552297  0.091530  1
  Se  Se32  1  0.160434  0.552297  0.591530  1
  Se  Se33  1  0.839566  0.052297  0.408470  1
  Se  Se34  1  0.160434  0.947703  0.591530  1
  Se  Se35  1  0.660434  0.447703  0.908470  1
