# generated using pymatgen
data_Ho12Co4TcSb
_symmetry_space_group_name_H-M   'P 1'
_cell_length_a   8.27040493
_cell_length_b   8.27038096
_cell_length_c   8.27040583
_cell_angle_alpha   111.62021939
_cell_angle_beta   110.51618315
_cell_angle_gamma   106.32450234
_symmetry_Int_Tables_number   1
_chemical_formula_structural   Ho12Co4TcSb
_chemical_formula_sum   'Ho12 Co4 Tc1 Sb1'
_cell_volume   434.44737454
_cell_formula_units_Z   1
loop_
 _symmetry_equiv_pos_site_id
 _symmetry_equiv_pos_as_xyz
  1  'x, y, z'
loop_
 _atom_site_type_symbol
 _atom_site_label
 _atom_site_symmetry_multiplicity
 _atom_site_fract_x
 _atom_site_fract_y
 _atom_site_fract_z
 _atom_site_occupancy
  Ho  Ho0  1  0.816608  0.716567  0.533176  1
  Ho  Ho1  1  0.183392  0.283433  0.466824  1
  Ho  Ho2  1  0.183392  0.716567  0.899958  1
  Ho  Ho3  1  0.816608  0.283433  0.100042  1
  Ho  Ho4  1  0.689086  0.381657  0.692572  1
  Ho  Ho5  1  0.310914  0.618343  0.307428  1
  Ho  Ho6  1  0.689086  0.996514  0.307428  1
  Ho  Ho7  1  0.310914  0.003486  0.692572  1
  Ho  Ho8  1  0.588212  0.784046  0.804175  1
  Ho  Ho9  1  0.411788  0.215954  0.195825  1
  Ho  Ho10  1  0.979871  0.784046  0.195834  1
  Ho  Ho11  1  0.020129  0.215954  0.804166  1
  Co  Co12  1  0.622381  0.000000  0.622381  1
  Co  Co13  1  0.377619  0.000000  0.377619  1
  Co  Co14  1  0.111305  0.611304  0.499999  1
  Co  Co15  1  0.888695  0.388696  0.500001  1
  Tc  Tc16  1  0.000000  0.000000  0.000000  1
  Sb  Sb17  1  0.500000  0.500000  0.000000  1
