# generated using pymatgen
data_TbYTh2(Al8Pt3)3
_symmetry_space_group_name_H-M   'P 1'
_cell_length_a   7.59273284
_cell_length_b   7.60655226
_cell_length_c   13.20190800
_cell_angle_alpha   84.48931285
_cell_angle_beta   78.96288860
_cell_angle_gamma   59.94168409
_symmetry_Int_Tables_number   1
_chemical_formula_structural   TbYTh2(Al8Pt3)3
_chemical_formula_sum   'Tb1 Y1 Th2 Al24 Pt9'
_cell_volume   647.72341712
_cell_formula_units_Z   1
loop_
 _symmetry_equiv_pos_site_id
 _symmetry_equiv_pos_as_xyz
  1  'x, y, z'
loop_
 _atom_site_type_symbol
 _atom_site_label
 _atom_site_symmetry_multiplicity
 _atom_site_fract_x
 _atom_site_fract_y
 _atom_site_fract_z
 _atom_site_occupancy
  Tb  Tb0  1  0.266532  0.501476  0.192749  1
  Y  Y1  1  0.733468  0.498524  0.807251  1
  Th  Th2  1  0.394821  0.168057  0.806720  1
  Th  Th3  1  0.605179  0.831943  0.193280  1
  Al  Al4  1  0.687787  0.830769  0.944106  1
  Al  Al5  1  0.312213  0.169231  0.055894  1
  Al  Al6  1  0.145805  0.832856  0.561498  1
  Al  Al7  1  0.854195  0.167144  0.438502  1
  Al  Al8  1  0.480810  0.167146  0.557618  1
  Al  Al9  1  0.519190  0.832854  0.442382  1
  Al  Al10  1  0.212771  0.168736  0.333202  1
  Al  Al11  1  0.787229  0.831264  0.666798  1
  Al  Al12  1  0.438466  0.510183  0.667158  1
  Al  Al13  1  0.561534  0.489817  0.332842  1
  Al  Al14  1  0.107715  0.159948  0.665574  1
  Al  Al15  1  0.892285  0.840052  0.334426  1
  Al  Al16  1  0.351956  0.502311  0.945863  1
  Al  Al17  1  0.648044  0.497689  0.054137  1
  Al  Al18  1  0.012602  0.167419  0.954588  1
  Al  Al19  1  0.987398  0.832581  0.045412  1
  Al  Al20  1  0.186179  0.500011  0.441029  1
  Al  Al21  1  0.813821  0.499989  0.558971  1
  Al  Al22  1  0.735039  0.166836  0.183652  1
  Al  Al23  1  0.264961  0.833164  0.816348  1
  Al  Al24  1  0.059725  0.634080  0.814852  1
  Al  Al25  1  0.940275  0.365920  0.185148  1
  Al  Al26  1  0.859380  0.040799  0.815772  1
  Al  Al27  1  0.140620  0.959201  0.184229  1
  Pt  Pt28  1  0.120944  0.491589  0.638506  1
  Pt  Pt29  1  0.879056  0.508411  0.361494  1
  Pt  Pt30  1  0.656646  0.170970  0.999899  1
  Pt  Pt31  1  0.343354  0.829030  0.000101  1
  Pt  Pt32  1  0.537921  0.165847  0.361401  1
  Pt  Pt33  1  0.462079  0.834153  0.638599  1
  Pt  Pt34  1  0.778531  0.174852  0.637515  1
  Pt  Pt35  1  0.221469  0.825148  0.362485  1
  Pt  Pt36  1  0.000000  0.500000  0.000000  1
