# generated using pymatgen
data_Dy4HoEr7Ni4SnAu
_symmetry_space_group_name_H-M   'P 1'
_cell_length_a   8.32779176
_cell_length_b   8.32774625
_cell_length_c   8.32779242
_cell_angle_alpha   112.79667373
_cell_angle_beta   109.06690803
_cell_angle_gamma   106.61083876
_symmetry_Int_Tables_number   1
_chemical_formula_structural   Dy4HoEr7Ni4SnAu
_chemical_formula_sum   'Dy4 Ho1 Er7 Ni4 Sn1 Au1'
_cell_volume   443.27249236
_cell_formula_units_Z   1
loop_
 _symmetry_equiv_pos_site_id
 _symmetry_equiv_pos_as_xyz
  1  'x, y, z'
loop_
 _atom_site_type_symbol
 _atom_site_label
 _atom_site_symmetry_multiplicity
 _atom_site_fract_x
 _atom_site_fract_y
 _atom_site_fract_z
 _atom_site_occupancy
  Dy  Dy0  1  0.180615  0.205338  0.385971  1
  Dy  Dy1  1  0.819368  0.205338  0.024722  1
  Dy  Dy2  1  0.180688  0.794668  0.975293  1
  Dy  Dy3  1  0.819376  0.794668  0.613979  1
  Ho  Ho4  1  0.675688  0.483632  0.807942  1
  Er  Er5  1  0.023367  0.721206  0.302198  1
  Er  Er6  1  0.976730  0.278805  0.697878  1
  Er  Er7  1  0.580927  0.278805  0.302074  1
  Er  Er8  1  0.419008  0.721206  0.697841  1
  Er  Er9  1  0.675644  0.867648  0.192004  1
  Er  Er10  1  0.324345  0.516278  0.191934  1
  Er  Er11  1  0.324319  0.132372  0.808054  1
  Ni  Ni12  1  0.639877  0.499994  0.139988  1
  Ni  Ni13  1  0.360006  0.499994  0.860117  1
  Ni  Ni14  1  0.874260  0.874333  0.000073  1
  Ni  Ni15  1  0.125821  0.125809  0.999988  1
  Sn  Sn16  1  0.499959  0.999896  0.499937  1
  Au  Au17  1  0.000001  0.500008  0.500006  1
