# generated using pymatgen
data_Tb5Al2SiC4
_symmetry_space_group_name_H-M   'P 1'
_cell_length_a   10.81647800
_cell_length_b   10.81647800
_cell_length_c   3.53278900
_cell_angle_alpha   90.00000000
_cell_angle_beta   90.00000000
_cell_angle_gamma   90.00000000
_symmetry_Int_Tables_number   1
_chemical_formula_structural   Tb5Al2SiC4
_chemical_formula_sum   'Tb10 Al4 Si2 C8'
_cell_volume   413.32287542
_cell_formula_units_Z   2
loop_
 _symmetry_equiv_pos_site_id
 _symmetry_equiv_pos_as_xyz
  1  'x, y, z'
loop_
 _atom_site_type_symbol
 _atom_site_label
 _atom_site_symmetry_multiplicity
 _atom_site_fract_x
 _atom_site_fract_y
 _atom_site_fract_z
 _atom_site_occupancy
  Tb  Tb0  1  0.550800  0.724141  0.500000  1
  Tb  Tb1  1  0.449200  0.275859  0.500000  1
  Tb  Tb2  1  0.050800  0.775859  0.500000  1
  Tb  Tb3  1  0.949200  0.224141  0.500000  1
  Tb  Tb4  1  0.275859  0.550800  0.500000  1
  Tb  Tb5  1  0.724141  0.449200  0.500000  1
  Tb  Tb6  1  0.224141  0.050800  0.500000  1
  Tb  Tb7  1  0.775859  0.949200  0.500000  1
  Tb  Tb8  1  0.500000  0.000000  0.000000  1
  Tb  Tb9  1  0.000000  0.500000  0.000000  1
  Al  Al10  1  0.703702  0.203702  0.000000  1
  Al  Al11  1  0.296298  0.796298  0.000000  1
  Al  Al12  1  0.203702  0.296298  0.000000  1
  Al  Al13  1  0.796298  0.703702  0.000000  1
  Si  Si14  1  0.500000  0.500000  0.000000  1
  Si  Si15  1  0.000000  0.000000  0.000000  1
  C  C16  1  0.634188  0.134188  0.500000  1
  C  C17  1  0.365812  0.865812  0.500000  1
  C  C18  1  0.134188  0.365812  0.500000  1
  C  C19  1  0.865812  0.634188  0.500000  1
  C  C20  1  0.163431  0.663431  0.000000  1
  C  C21  1  0.836569  0.336569  0.000000  1
  C  C22  1  0.663431  0.836569  0.000000  1
  C  C23  1  0.336569  0.163431  0.000000  1
