# generated using pymatgen
data_Cs2Zr4AlGa(PO4)8
_symmetry_space_group_name_H-M   'P 1'
_cell_length_a   8.86450100
_cell_length_b   9.55197000
_cell_length_c   18.27578300
_cell_angle_alpha   90.00000000
_cell_angle_beta   90.00000000
_cell_angle_gamma   90.00000000
_symmetry_Int_Tables_number   1
_chemical_formula_structural   Cs2Zr4AlGa(PO4)8
_chemical_formula_sum   'Cs4 Zr8 Al2 Ga2 P16 O64'
_cell_volume   1547.47355451
_cell_formula_units_Z   2
loop_
 _symmetry_equiv_pos_site_id
 _symmetry_equiv_pos_as_xyz
  1  'x, y, z'
loop_
 _atom_site_type_symbol
 _atom_site_label
 _atom_site_symmetry_multiplicity
 _atom_site_fract_x
 _atom_site_fract_y
 _atom_site_fract_z
 _atom_site_occupancy
  Cs  Cs0  1  0.343991  0.751393  0.250000  1
  Cs  Cs1  1  0.656009  0.248607  0.750000  1
  Cs  Cs2  1  0.347170  0.750353  0.750000  1
  Cs  Cs3  1  0.652830  0.249647  0.250000  1
  Zr  Zr4  1  0.247676  0.030868  0.428511  1
  Zr  Zr5  1  0.752324  0.969132  0.928511  1
  Zr  Zr6  1  0.248331  0.468876  0.571520  1
  Zr  Zr7  1  0.751669  0.531124  0.071520  1
  Zr  Zr8  1  0.752324  0.969132  0.571489  1
  Zr  Zr9  1  0.247676  0.030868  0.071489  1
  Zr  Zr10  1  0.751669  0.531124  0.428480  1
  Zr  Zr11  1  0.248331  0.468876  0.928480  1
  Al  Al12  1  0.794509  0.603428  0.750000  1
  Al  Al13  1  0.205491  0.396572  0.250000  1
  Ga  Ga14  1  0.800166  0.895591  0.250000  1
  Ga  Ga15  1  0.199834  0.104409  0.750000  1
  P  P16  1  0.099803  0.076697  0.250000  1
  P  P17  1  0.900197  0.923303  0.750000  1
  P  P18  1  0.095100  0.425078  0.750000  1
  P  P19  1  0.904900  0.574922  0.250000  1
  P  P20  1  0.034785  0.749786  0.500070  1
  P  P21  1  0.965215  0.250214  0.000070  1
  P  P22  1  0.965215  0.250214  0.499930  1
  P  P23  1  0.034785  0.749786  0.999930  1
  P  P24  1  0.605834  0.873227  0.398943  1
  P  P25  1  0.394166  0.126773  0.898943  1
  P  P26  1  0.606953  0.627299  0.601564  1
  P  P27  1  0.393047  0.372701  0.101564  1
  P  P28  1  0.394166  0.126773  0.601057  1
  P  P29  1  0.605834  0.873227  0.101057  1
  P  P30  1  0.393047  0.372701  0.398436  1
  P  P31  1  0.606953  0.627299  0.898436  1
  O  O32  1  0.112839  0.237486  0.250000  1
  O  O33  1  0.887161  0.762514  0.750000  1
  O  O34  1  0.087965  0.262679  0.750000  1
  O  O35  1  0.912035  0.737321  0.250000  1
  O  O36  1  0.927652  0.047704  0.250000  1
  O  O37  1  0.072348  0.952296  0.750000  1
  O  O38  1  0.927426  0.468553  0.750000  1
  O  O39  1  0.072574  0.531447  0.250000  1
  O  O40  1  0.175390  0.013673  0.318002  1
  O  O41  1  0.824610  0.986327  0.818002  1
  O  O42  1  0.176307  0.482013  0.682172  1
  O  O43  1  0.823693  0.517987  0.182172  1
  O  O44  1  0.824610  0.986327  0.681998  1
  O  O45  1  0.175390  0.013673  0.181998  1
  O  O46  1  0.823693  0.517987  0.317828  1
  O  O47  1  0.176307  0.482013  0.817828  1
  O  O48  1  0.064165  0.160863  0.448416  1
  O  O49  1  0.935835  0.839137  0.948416  1
  O  O50  1  0.064134  0.340048  0.551221  1
  O  O51  1  0.935866  0.659952  0.051221  1
  O  O52  1  0.935835  0.839137  0.551584  1
  O  O53  1  0.064165  0.160863  0.051584  1
  O  O54  1  0.935866  0.659952  0.448779  1
  O  O55  1  0.064134  0.340048  0.948779  1
  O  O56  1  0.133627  0.847734  0.453000  1
  O  O57  1  0.866373  0.152266  0.953000  1
  O  O58  1  0.135251  0.652396  0.546795  1
  O  O59  1  0.864749  0.347604  0.046795  1
  O  O60  1  0.866373  0.152266  0.547000  1
  O  O61  1  0.133627  0.847734  0.047000  1
  O  O62  1  0.864749  0.347604  0.453205  1
  O  O63  1  0.135251  0.652396  0.953205  1
  O  O64  1  0.436282  0.908822  0.398768  1
  O  O65  1  0.563718  0.091178  0.898768  1
  O  O66  1  0.438092  0.588568  0.603062  1
  O  O67  1  0.561908  0.411432  0.103062  1
  O  O68  1  0.563718  0.091178  0.601232  1
  O  O69  1  0.436282  0.908822  0.101232  1
  O  O70  1  0.561908  0.411432  0.396938  1
  O  O71  1  0.438092  0.588568  0.896938  1
  O  O72  1  0.684615  0.945503  0.463488  1
  O  O73  1  0.315385  0.054497  0.963488  1
  O  O74  1  0.684824  0.554165  0.536897  1
  O  O75  1  0.315176  0.445835  0.036897  1
  O  O76  1  0.315385  0.054497  0.536512  1
  O  O77  1  0.684615  0.945503  0.036512  1
  O  O78  1  0.315176  0.445835  0.463103  1
  O  O79  1  0.684824  0.554165  0.963103  1
  O  O80  1  0.626552  0.713579  0.399524  1
  O  O81  1  0.373448  0.286421  0.899524  1
  O  O82  1  0.624248  0.787384  0.599384  1
  O  O83  1  0.375752  0.212616  0.099384  1
  O  O84  1  0.373448  0.286421  0.600476  1
  O  O85  1  0.626552  0.713579  0.100476  1
  O  O86  1  0.375752  0.212616  0.400616  1
  O  O87  1  0.624248  0.787384  0.900616  1
  O  O88  1  0.670706  0.933636  0.325951  1
  O  O89  1  0.329294  0.066364  0.825951  1
  O  O90  1  0.676895  0.572770  0.674603  1
  O  O91  1  0.323105  0.427230  0.174603  1
  O  O92  1  0.329294  0.066364  0.674049  1
  O  O93  1  0.670706  0.933636  0.174049  1
  O  O94  1  0.323105  0.427230  0.325397  1
  O  O95  1  0.676895  0.572770  0.825397  1
