# generated using pymatgen
data_PrNd3LuRu2
_symmetry_space_group_name_H-M   'P 1'
_cell_length_a   8.80303908
_cell_length_b   8.80304257
_cell_length_c   7.35746800
_cell_angle_alpha   83.89388723
_cell_angle_beta   83.89389134
_cell_angle_gamma   44.01213510
_symmetry_Int_Tables_number   1
_chemical_formula_structural   PrNd3LuRu2
_chemical_formula_sum   'Pr2 Nd6 Lu2 Ru4'
_cell_volume   393.53475899
_cell_formula_units_Z   2
loop_
 _symmetry_equiv_pos_site_id
 _symmetry_equiv_pos_as_xyz
  1  'x, y, z'
loop_
 _atom_site_type_symbol
 _atom_site_label
 _atom_site_symmetry_multiplicity
 _atom_site_fract_x
 _atom_site_fract_y
 _atom_site_fract_z
 _atom_site_occupancy
  Pr  Pr0  1  0.977763  0.204603  0.084198  1
  Pr  Pr1  1  0.795397  0.022237  0.415802  1
  Nd  Nd2  1  0.204463  0.977666  0.585111  1
  Nd  Nd3  1  0.022334  0.795537  0.914889  1
  Nd  Nd4  1  0.209027  0.362001  0.313163  1
  Nd  Nd5  1  0.637999  0.790973  0.186837  1
  Nd  Nd6  1  0.790135  0.638547  0.687399  1
  Nd  Nd7  1  0.361453  0.209865  0.812601  1
  Lu  Lu8  1  0.567998  0.432002  0.750000  1
  Lu  Lu9  1  0.431594  0.568406  0.250000  1
  Ru  Ru10  1  0.188057  0.598833  0.572489  1
  Ru  Ru11  1  0.401167  0.811943  0.927511  1
  Ru  Ru12  1  0.813269  0.400657  0.428664  1
  Ru  Ru13  1  0.599343  0.186731  0.071336  1
