# generated using pymatgen
data_K3Li3(TaSe4)2
_symmetry_space_group_name_H-M   'P 1'
_cell_length_a   13.09809662
_cell_length_b   13.09809575
_cell_length_c   14.63939800
_cell_angle_alpha   61.82062221
_cell_angle_beta   61.82062425
_cell_angle_gamma   27.01999660
_symmetry_Int_Tables_number   1
_chemical_formula_structural   K3Li3(TaSe4)2
_chemical_formula_sum   'K6 Li6 Ta4 Se16'
_cell_volume   997.39021391
_cell_formula_units_Z   2
loop_
 _symmetry_equiv_pos_site_id
 _symmetry_equiv_pos_as_xyz
  1  'x, y, z'
loop_
 _atom_site_type_symbol
 _atom_site_label
 _atom_site_symmetry_multiplicity
 _atom_site_fract_x
 _atom_site_fract_y
 _atom_site_fract_z
 _atom_site_occupancy
  K  K0  1  0.226948  0.382565  0.604100  1
  K  K1  1  0.773052  0.617435  0.395900  1
  K  K2  1  0.382565  0.226948  0.104100  1
  K  K3  1  0.000000  0.000000  0.500000  1
  K  K4  1  0.617435  0.773052  0.895900  1
  K  K5  1  0.000000  0.000000  0.000000  1
  Li  Li6  1  0.317990  0.682010  0.250000  1
  Li  Li7  1  0.070095  0.679388  0.790708  1
  Li  Li8  1  0.682010  0.317990  0.750000  1
  Li  Li9  1  0.679388  0.070095  0.290708  1
  Li  Li10  1  0.320612  0.929905  0.709292  1
  Li  Li11  1  0.929905  0.320612  0.209292  1
  Ta  Ta12  1  0.177120  0.566319  0.279693  1
  Ta  Ta13  1  0.566319  0.177120  0.779693  1
  Ta  Ta14  1  0.433681  0.822880  0.220307  1
  Ta  Ta15  1  0.822880  0.433681  0.720307  1
  Se  Se16  1  0.745120  0.678462  0.110524  1
  Se  Se17  1  0.580630  0.513032  0.342255  1
  Se  Se18  1  0.191279  0.995102  0.119107  1
  Se  Se19  1  0.419370  0.486968  0.657745  1
  Se  Se20  1  0.995102  0.191279  0.619107  1
  Se  Se21  1  0.098876  0.215100  0.816095  1
  Se  Se22  1  0.678462  0.745120  0.610524  1
  Se  Se23  1  0.486968  0.419370  0.157745  1
  Se  Se24  1  0.513032  0.580630  0.842255  1
  Se  Se25  1  0.321538  0.254880  0.389476  1
  Se  Se26  1  0.784900  0.901124  0.683905  1
  Se  Se27  1  0.808721  0.004898  0.880893  1
  Se  Se28  1  0.254880  0.321538  0.889476  1
  Se  Se29  1  0.004898  0.808721  0.380893  1
  Se  Se30  1  0.901124  0.784900  0.183905  1
  Se  Se31  1  0.215100  0.098876  0.316095  1
