# generated using pymatgen
data_DyEr3(Co3Si5)2
_symmetry_space_group_name_H-M   'P 1'
_cell_length_a   7.83504736
_cell_length_b   7.83631778
_cell_length_c   5.49454304
_cell_angle_alpha   70.77620139
_cell_angle_beta   70.79060027
_cell_angle_gamma   93.45299681
_symmetry_Int_Tables_number   1
_chemical_formula_structural   DyEr3(Co3Si5)2
_chemical_formula_sum   'Dy1 Er3 Co6 Si10'
_cell_volume   295.38301561
_cell_formula_units_Z   1
loop_
 _symmetry_equiv_pos_site_id
 _symmetry_equiv_pos_as_xyz
  1  'x, y, z'
loop_
 _atom_site_type_symbol
 _atom_site_label
 _atom_site_symmetry_multiplicity
 _atom_site_fract_x
 _atom_site_fract_y
 _atom_site_fract_z
 _atom_site_occupancy
  Dy  Dy0  1  0.598138  0.869866  0.262672  1
  Er  Er1  1  0.869603  0.597983  0.763344  1
  Er  Er2  1  0.402108  0.130067  0.736646  1
  Er  Er3  1  0.129864  0.401924  0.237192  1
  Co  Co4  1  0.538689  0.262574  0.125372  1
  Co  Co5  1  0.996752  0.003805  0.249826  1
  Co  Co6  1  0.261953  0.538488  0.625883  1
  Co  Co7  1  0.460878  0.737365  0.874892  1
  Co  Co8  1  0.737905  0.461265  0.374519  1
  Co  Co9  1  0.003949  0.996408  0.749926  1
  Si  Si10  1  0.771060  0.229477  0.749527  1
  Si  Si11  1  0.228558  0.770873  0.250153  1
  Si  Si12  1  0.510859  0.488742  0.750089  1
  Si  Si13  1  0.488723  0.510375  0.250409  1
  Si  Si14  1  0.214496  0.785367  0.749860  1
  Si  Si15  1  0.785575  0.215172  0.250062  1
  Si  Si16  1  0.064284  0.261989  0.834570  1
  Si  Si17  1  0.261912  0.064612  0.334549  1
  Si  Si18  1  0.936357  0.737657  0.165302  1
  Si  Si19  1  0.738337  0.935992  0.665207  1
