# generated using pymatgen
data_HoEr7Si8Pd3Pt5
_symmetry_space_group_name_H-M   'P 1'
_cell_length_a   4.25619900
_cell_length_b   7.48086459
_cell_length_c   13.93873614
_cell_angle_alpha   89.98542776
_cell_angle_beta   90.00000000
_cell_angle_gamma   90.00000000
_symmetry_Int_Tables_number   1
_chemical_formula_structural   HoEr7Si8Pd3Pt5
_chemical_formula_sum   'Ho1 Er7 Si8 Pd3 Pt5'
_cell_volume   443.81001854
_cell_formula_units_Z   1
loop_
 _symmetry_equiv_pos_site_id
 _symmetry_equiv_pos_as_xyz
  1  'x, y, z'
loop_
 _atom_site_type_symbol
 _atom_site_label
 _atom_site_symmetry_multiplicity
 _atom_site_fract_x
 _atom_site_fract_y
 _atom_site_fract_z
 _atom_site_occupancy
  Ho  Ho0  1  0.000000  0.300068  0.000217  1
  Er  Er1  1  0.500000  0.700318  0.500188  1
  Er  Er2  1  0.000000  0.292664  0.499689  1
  Er  Er3  1  0.500000  0.706994  0.999890  1
  Er  Er4  1  0.000000  0.203286  0.250069  1
  Er  Er5  1  0.500000  0.795694  0.249685  1
  Er  Er6  1  0.000000  0.203815  0.749612  1
  Er  Er7  1  0.500000  0.796115  0.750686  1
  Si  Si8  1  0.000000  0.906824  0.592233  1
  Si  Si9  1  0.500000  0.092917  0.907816  1
  Si  Si10  1  0.000000  0.907024  0.408040  1
  Si  Si11  1  0.500000  0.094476  0.093117  1
  Si  Si12  1  0.000000  0.593667  0.144202  1
  Si  Si13  1  0.500000  0.403978  0.353940  1
  Si  Si14  1  0.000000  0.595843  0.857415  1
  Si  Si15  1  0.500000  0.404202  0.642990  1
  Pd  Pd16  1  0.000000  0.580408  0.344142  1
  Pd  Pd17  1  0.500000  0.421595  0.840444  1
  Pd  Pd18  1  0.000000  0.578946  0.657922  1
  Pt  Pt19  1  0.500000  0.074726  0.609063  1
  Pt  Pt20  1  0.000000  0.925182  0.890984  1
  Pt  Pt21  1  0.500000  0.074689  0.391455  1
  Pt  Pt22  1  0.000000  0.923851  0.109188  1
  Pt  Pt23  1  0.500000  0.422716  0.157011  1
