# generated using pymatgen
data_NdEuCd2(Ga3Ni)2
_symmetry_space_group_name_H-M   'P 1'
_cell_length_a   4.24823830
_cell_length_b   6.58705900
_cell_length_c   8.28646605
_cell_angle_alpha   90.00000000
_cell_angle_beta   104.85276612
_cell_angle_gamma   90.00000000
_symmetry_Int_Tables_number   1
_chemical_formula_structural   NdEuCd2(Ga3Ni)2
_chemical_formula_sum   'Nd1 Eu1 Cd2 Ga6 Ni2'
_cell_volume   224.13571037
_cell_formula_units_Z   1
loop_
 _symmetry_equiv_pos_site_id
 _symmetry_equiv_pos_as_xyz
  1  'x, y, z'
loop_
 _atom_site_type_symbol
 _atom_site_label
 _atom_site_symmetry_multiplicity
 _atom_site_fract_x
 _atom_site_fract_y
 _atom_site_fract_z
 _atom_site_occupancy
  Nd  Nd0  1  0.124817  0.250000  0.249635  1
  Eu  Eu1  1  0.875728  0.750000  0.751455  1
  Cd  Cd2  1  0.499926  0.500565  0.999851  1
  Cd  Cd3  1  0.499926  0.999435  0.999851  1
  Ga  Ga4  1  0.073968  0.750000  0.147936  1
  Ga  Ga5  1  0.925727  0.250000  0.851454  1
  Ga  Ga6  1  0.689423  0.552062  0.378846  1
  Ga  Ga7  1  0.310844  0.448777  0.621688  1
  Ga  Ga8  1  0.689423  0.947938  0.378846  1
  Ga  Ga9  1  0.310844  0.051223  0.621688  1
  Ni  Ni10  1  0.221285  0.750000  0.442570  1
  Ni  Ni11  1  0.778090  0.250000  0.556179  1
