# generated using pymatgen
data_Pr16MgAg3IrPt3
_symmetry_space_group_name_H-M   'P 1'
_cell_length_a   10.02257480
_cell_length_b   10.05690788
_cell_length_c   10.05690700
_cell_angle_alpha   59.99999301
_cell_angle_beta   59.88661104
_cell_angle_gamma   59.88660530
_symmetry_Int_Tables_number   1
_chemical_formula_structural   Pr16MgAg3IrPt3
_chemical_formula_sum   'Pr16 Mg1 Ag3 Ir1 Pt3'
_cell_volume   715.56108936
_cell_formula_units_Z   1
loop_
 _symmetry_equiv_pos_site_id
 _symmetry_equiv_pos_as_xyz
  1  'x, y, z'
loop_
 _atom_site_type_symbol
 _atom_site_label
 _atom_site_symmetry_multiplicity
 _atom_site_fract_x
 _atom_site_fract_y
 _atom_site_fract_z
 _atom_site_occupancy
  Pr  Pr0  1  0.353559  0.348246  0.348246  1
  Pr  Pr1  1  0.353559  0.348246  0.949948  1
  Pr  Pr2  1  0.353559  0.949948  0.348246  1
  Pr  Pr3  1  0.929479  0.356841  0.356841  1
  Pr  Pr4  1  0.805421  0.190727  0.190727  1
  Pr  Pr5  1  0.188394  0.810511  0.810511  1
  Pr  Pr6  1  0.188394  0.810511  0.190586  1
  Pr  Pr7  1  0.805421  0.190727  0.813125  1
  Pr  Pr8  1  0.188394  0.190586  0.810511  1
  Pr  Pr9  1  0.805421  0.813125  0.190727  1
  Pr  Pr10  1  0.937054  0.563672  0.563672  1
  Pr  Pr11  1  0.565932  0.935831  0.935831  1
  Pr  Pr12  1  0.565932  0.935831  0.562407  1
  Pr  Pr13  1  0.937054  0.563672  0.935602  1
  Pr  Pr14  1  0.565932  0.562407  0.935831  1
  Pr  Pr15  1  0.937054  0.935602  0.563672  1
  Mg  Mg16  1  0.291768  0.569410  0.569410  1
  Ag  Ag17  1  0.579724  0.585903  0.585903  1
  Ag  Ag18  1  0.579724  0.585903  0.248471  1
  Ag  Ag19  1  0.579724  0.248471  0.585903  1
  Ir  Ir20  1  0.570747  0.143084  0.143084  1
  Pt  Pt21  1  0.139252  0.145638  0.145638  1
  Pt  Pt22  1  0.139252  0.145638  0.569471  1
  Pt  Pt23  1  0.139252  0.569471  0.145638  1
