# generated using pymatgen
data_LiY9Se10
_symmetry_space_group_name_H-M   'P 1'
_cell_length_a   7.03575580
_cell_length_b   8.15159700
_cell_length_c   9.15952518
_cell_angle_alpha   103.35815566
_cell_angle_beta   97.09495073
_cell_angle_gamma   106.69819375
_symmetry_Int_Tables_number   1
_chemical_formula_structural   LiY9Se10
_chemical_formula_sum   'Li1 Y9 Se10'
_cell_volume   479.28594079
_cell_formula_units_Z   1
loop_
 _symmetry_equiv_pos_site_id
 _symmetry_equiv_pos_as_xyz
  1  'x, y, z'
loop_
 _atom_site_type_symbol
 _atom_site_label
 _atom_site_symmetry_multiplicity
 _atom_site_fract_x
 _atom_site_fract_y
 _atom_site_fract_z
 _atom_site_occupancy
  Li  Li0  1  0.000000  0.500000  0.000000  1
  Y  Y1  1  0.800185  0.600220  0.597952  1
  Y  Y2  1  0.598055  0.199563  0.203527  1
  Y  Y3  1  0.401945  0.800437  0.796473  1
  Y  Y4  1  0.600366  0.703566  0.204817  1
  Y  Y5  1  0.199815  0.399780  0.402048  1
  Y  Y6  1  0.399634  0.296434  0.795183  1
  Y  Y7  1  0.000000  0.000000  0.000000  1
  Y  Y8  1  0.202054  0.901573  0.404047  1
  Y  Y9  1  0.797946  0.098427  0.595953  1
  Se  Se10  1  0.705349  0.646120  0.903627  1
  Se  Se11  1  0.500798  0.251232  0.499785  1
  Se  Se12  1  0.706425  0.158420  0.904000  1
  Se  Se13  1  0.293575  0.841580  0.096000  1
  Se  Se14  1  0.499202  0.748768  0.500215  1
  Se  Se15  1  0.096387  0.451359  0.708305  1
  Se  Se16  1  0.294651  0.353880  0.096373  1
  Se  Se17  1  0.902919  0.050355  0.298676  1
  Se  Se18  1  0.097081  0.949645  0.701324  1
  Se  Se19  1  0.903613  0.548641  0.291695  1
