# generated using pymatgen
data_Dy4Tm4V(B8Rh)3
_symmetry_space_group_name_H-M   'P 1'
_cell_length_a   3.62450900
_cell_length_b   9.13049412
_cell_length_c   11.50905597
_cell_angle_alpha   90.23418460
_cell_angle_beta   90.00000000
_cell_angle_gamma   90.00000000
_symmetry_Int_Tables_number   1
_chemical_formula_structural   Dy4Tm4V(B8Rh)3
_chemical_formula_sum   'Dy4 Tm4 V1 B24 Rh3'
_cell_volume   380.87243101
_cell_formula_units_Z   1
loop_
 _symmetry_equiv_pos_site_id
 _symmetry_equiv_pos_as_xyz
  1  'x, y, z'
loop_
 _atom_site_type_symbol
 _atom_site_label
 _atom_site_symmetry_multiplicity
 _atom_site_fract_x
 _atom_site_fract_y
 _atom_site_fract_z
 _atom_site_occupancy
  Dy  Dy0  1  0.500000  0.318774  0.410642  1
  Dy  Dy1  1  0.500000  0.676622  0.584465  1
  Dy  Dy2  1  0.500000  0.177704  0.917806  1
  Dy  Dy3  1  0.500000  0.825037  0.087427  1
  Tm  Tm4  1  0.500000  0.443460  0.126098  1
  Tm  Tm5  1  0.500000  0.556994  0.872300  1
  Tm  Tm6  1  0.500000  0.055657  0.628742  1
  Tm  Tm7  1  0.500000  0.946736  0.372584  1
  V  V8  1  0.500000  0.139274  0.179404  1
  B  B9  1  0.000000  0.106318  0.472474  1
  B  B10  1  0.000000  0.893430  0.529687  1
  B  B11  1  0.000000  0.396456  0.970028  1
  B  B12  1  0.000000  0.606436  0.028363  1
  B  B13  1  0.000000  0.132019  0.315956  1
  B  B14  1  0.000000  0.867078  0.683568  1
  B  B15  1  0.000000  0.368031  0.816777  1
  B  B16  1  0.000000  0.632573  0.183970  1
  B  B17  1  0.000000  0.052010  0.066201  1
  B  B18  1  0.000000  0.946932  0.933286  1
  B  B19  1  0.000000  0.445447  0.565895  1
  B  B20  1  0.000000  0.553074  0.432985  1
  B  B21  1  0.000000  0.482541  0.286922  1
  B  B22  1  0.000000  0.517121  0.712043  1
  B  B23  1  0.000000  0.016962  0.787370  1
  B  B24  1  0.000000  0.981883  0.213636  1
  B  B25  1  0.000000  0.250328  0.080221  1
  B  B26  1  0.000000  0.750682  0.919380  1
  B  B27  1  0.000000  0.249680  0.579768  1
  B  B28  1  0.000000  0.750225  0.419954  1
  B  B29  1  0.000000  0.294574  0.235327  1
  B  B30  1  0.000000  0.705768  0.764213  1
  B  B31  1  0.000000  0.207214  0.736028  1
  B  B32  1  0.000000  0.793226  0.265927  1
  Rh  Rh33  1  0.500000  0.859795  0.819745  1
  Rh  Rh34  1  0.500000  0.360492  0.679994  1
  Rh  Rh35  1  0.500000  0.639447  0.320814  1
