# generated using pymatgen
data_Si16Mo4(Pt3Rh)3
_symmetry_space_group_name_H-M   'P 1'
_cell_length_a   5.52482123
_cell_length_b   3.49605200
_cell_length_c   24.62435807
_cell_angle_alpha   90.00000000
_cell_angle_beta   90.03359745
_cell_angle_gamma   90.00000000
_symmetry_Int_Tables_number   1
_chemical_formula_structural   Si16Mo4(Pt3Rh)3
_chemical_formula_sum   'Si16 Mo4 Pt9 Rh3'
_cell_volume   475.62092913
_cell_formula_units_Z   1
loop_
 _symmetry_equiv_pos_site_id
 _symmetry_equiv_pos_as_xyz
  1  'x, y, z'
loop_
 _atom_site_type_symbol
 _atom_site_label
 _atom_site_symmetry_multiplicity
 _atom_site_fract_x
 _atom_site_fract_y
 _atom_site_fract_z
 _atom_site_occupancy
  Si  Si0  1  0.175124  0.749999  0.521246  1
  Si  Si1  1  0.330306  0.250000  0.018810  1
  Si  Si2  1  0.669623  0.749999  0.981073  1
  Si  Si3  1  0.826319  0.250000  0.482628  1
  Si  Si4  1  0.319392  0.250000  0.644267  1
  Si  Si5  1  0.179122  0.749999  0.143456  1
  Si  Si6  1  0.821084  0.250000  0.856286  1
  Si  Si7  1  0.679310  0.749999  0.354282  1
  Si  Si8  1  0.668209  0.749999  0.609041  1
  Si  Si9  1  0.830248  0.250000  0.108235  1
  Si  Si10  1  0.170105  0.749999  0.891561  1
  Si  Si11  1  0.338003  0.250000  0.390486  1
  Si  Si12  1  0.829244  0.250000  0.726589  1
  Si  Si13  1  0.670892  0.749999  0.226047  1
  Si  Si14  1  0.329274  0.250000  0.773519  1
  Si  Si15  1  0.169369  0.749999  0.273190  1
  Mo  Mo16  1  0.503927  0.749999  0.709954  1
  Mo  Mo17  1  0.997640  0.250000  0.209725  1
  Mo  Mo18  1  0.003039  0.749999  0.790019  1
  Mo  Mo19  1  0.494726  0.250000  0.289665  1
  Pt  Pt20  1  0.997529  0.749999  0.425381  1
  Pt  Pt21  1  0.005482  0.749999  0.670352  1
  Pt  Pt22  1  0.494834  0.250000  0.170591  1
  Pt  Pt23  1  0.505557  0.749999  0.829235  1
  Pt  Pt24  1  0.995894  0.250000  0.329814  1
  Pt  Pt25  1  0.499688  0.250000  0.549149  1
  Pt  Pt26  1  0.998810  0.749999  0.049224  1
  Pt  Pt27  1  0.001334  0.250000  0.950703  1
  Pt  Pt28  1  0.496195  0.749999  0.451651  1
  Rh  Rh29  1  0.999385  0.250000  0.573920  1
  Rh  Rh30  1  0.499562  0.749999  0.073849  1
  Rh  Rh31  1  0.500779  0.250000  0.926057  1
