# generated using pymatgen
data_Pr3InHg2Pd3
_symmetry_space_group_name_H-M   'P 1'
_cell_length_a   7.97623839
_cell_length_b   7.87737673
_cell_length_c   3.93462300
_cell_angle_alpha   90.00000000
_cell_angle_beta   90.00000000
_cell_angle_gamma   119.59083342
_symmetry_Int_Tables_number   1
_chemical_formula_structural   Pr3InHg2Pd3
_chemical_formula_sum   'Pr3 In1 Hg2 Pd3'
_cell_volume   214.97570664
_cell_formula_units_Z   1
loop_
 _symmetry_equiv_pos_site_id
 _symmetry_equiv_pos_as_xyz
  1  'x, y, z'
loop_
 _atom_site_type_symbol
 _atom_site_label
 _atom_site_symmetry_multiplicity
 _atom_site_fract_x
 _atom_site_fract_y
 _atom_site_fract_z
 _atom_site_occupancy
  Pr  Pr0  1  0.408916  0.405598  0.500000  1
  Pr  Pr1  1  0.591084  0.996682  0.500000  1
  Pr  Pr2  1  0.000000  0.602263  0.500000  1
  In  In3  1  0.000000  0.254623  0.000000  1
  Hg  Hg4  1  0.736041  0.739028  0.000000  1
  Hg  Hg5  1  0.263959  0.002986  0.000000  1
  Pd  Pd6  1  0.675655  0.332041  0.000000  1
  Pd  Pd7  1  0.324345  0.656386  0.000000  1
  Pd  Pd8  1  0.000000  0.010393  0.500000  1
