# generated using pymatgen
data_ErScTiFe9
_symmetry_space_group_name_H-M   'P 1'
_cell_length_a   8.36967513
_cell_length_b   8.36967480
_cell_length_c   8.36967526
_cell_angle_alpha   34.28443929
_cell_angle_beta   34.28444296
_cell_angle_gamma   34.28443524
_symmetry_Int_Tables_number   1
_chemical_formula_structural   ErScTiFe9
_chemical_formula_sum   'Er1 Sc1 Ti1 Fe9'
_cell_volume   165.91102254
_cell_formula_units_Z   1
loop_
 _symmetry_equiv_pos_site_id
 _symmetry_equiv_pos_as_xyz
  1  'x, y, z'
loop_
 _atom_site_type_symbol
 _atom_site_label
 _atom_site_symmetry_multiplicity
 _atom_site_fract_x
 _atom_site_fract_y
 _atom_site_fract_z
 _atom_site_occupancy
  Er  Er0  1  0.000447  0.000447  0.000447  1
  Sc  Sc1  1  0.856222  0.856222  0.856222  1
  Ti  Ti2  1  0.143705  0.143705  0.143705  1
  Fe  Fe3  1  0.413459  0.413459  0.917530  1
  Fe  Fe4  1  0.917530  0.413459  0.413459  1
  Fe  Fe5  1  0.586290  0.082580  0.586290  1
  Fe  Fe6  1  0.586290  0.586290  0.082580  1
  Fe  Fe7  1  0.413459  0.917530  0.413459  1
  Fe  Fe8  1  0.082580  0.586290  0.586290  1
  Fe  Fe9  1  0.332870  0.332870  0.332870  1
  Fe  Fe10  1  0.667294  0.667294  0.667294  1
  Fe  Fe11  1  0.499855  0.499855  0.499855  1
