# generated using pymatgen
data_Ho3TmAl18(NiIr2)2
_symmetry_space_group_name_H-M   'P 1'
_cell_length_a   7.49645986
_cell_length_b   7.49812170
_cell_length_c   9.37458011
_cell_angle_alpha   89.82798148
_cell_angle_beta   89.81759200
_cell_angle_gamma   119.28246895
_symmetry_Int_Tables_number   1
_chemical_formula_structural   Ho3TmAl18(NiIr2)2
_chemical_formula_sum   'Ho3 Tm1 Al18 Ni2 Ir4'
_cell_volume   459.59778138
_cell_formula_units_Z   1
loop_
 _symmetry_equiv_pos_site_id
 _symmetry_equiv_pos_as_xyz
  1  'x, y, z'
loop_
 _atom_site_type_symbol
 _atom_site_label
 _atom_site_symmetry_multiplicity
 _atom_site_fract_x
 _atom_site_fract_y
 _atom_site_fract_z
 _atom_site_occupancy
  Ho  Ho0  1  0.995695  0.673965  0.250224  1
  Ho  Ho1  1  0.004594  0.326077  0.749781  1
  Ho  Ho2  1  0.673806  0.995513  0.250219  1
  Tm  Tm3  1  0.325722  0.004535  0.749532  1
  Al  Al4  1  0.131966  0.131858  0.248616  1
  Al  Al5  1  0.868401  0.868179  0.751397  1
  Al  Al6  1  0.998184  0.337647  0.074533  1
  Al  Al7  1  0.002395  0.662785  0.925001  1
  Al  Al8  1  0.998776  0.663491  0.575836  1
  Al  Al9  1  0.336736  0.001484  0.424952  1
  Al  Al10  1  0.001526  0.336755  0.424595  1
  Al  Al11  1  0.662843  0.998486  0.575910  1
  Al  Al12  1  0.661883  0.001904  0.924987  1
  Al  Al13  1  0.337660  0.998135  0.074072  1
  Al  Al14  1  0.333575  0.333316  0.551717  1
  Al  Al15  1  0.666472  0.666439  0.448867  1
  Al  Al16  1  0.665092  0.665094  0.051898  1
  Al  Al17  1  0.334985  0.334586  0.947434  1
  Al  Al18  1  0.340822  0.552399  0.246250  1
  Al  Al19  1  0.658760  0.446987  0.753852  1
  Al  Al20  1  0.552362  0.340697  0.246226  1
  Al  Al21  1  0.447410  0.659572  0.753864  1
  Ni  Ni22  1  0.671462  0.328453  0.999922  1
  Ni  Ni23  1  0.328510  0.671553  0.999927  1
  Ir  Ir24  1  0.328189  0.671870  0.500185  1
  Ir  Ir25  1  0.671689  0.328056  0.500182  1
  Ir  Ir26  1  0.000265  0.000086  0.999752  1
  Ir  Ir27  1  0.000219  0.000080  0.500271  1
