# generated using pymatgen
data_LaTb2(SiIr2)3
_symmetry_space_group_name_H-M   'P 1'
_cell_length_a   5.61129300
_cell_length_b   5.61129437
_cell_length_c   15.21056000
_cell_angle_alpha   90.00000000
_cell_angle_beta   90.00000000
_cell_angle_gamma   120.00000962
_symmetry_Int_Tables_number   1
_chemical_formula_structural   LaTb2(SiIr2)3
_chemical_formula_sum   'La2 Tb4 Si6 Ir12'
_cell_volume   414.76470465
_cell_formula_units_Z   2
loop_
 _symmetry_equiv_pos_site_id
 _symmetry_equiv_pos_as_xyz
  1  'x, y, z'
loop_
 _atom_site_type_symbol
 _atom_site_label
 _atom_site_symmetry_multiplicity
 _atom_site_fract_x
 _atom_site_fract_y
 _atom_site_fract_z
 _atom_site_occupancy
  La  La0  1  0.333333  0.666667  0.750000  1
  La  La1  1  0.666667  0.333333  0.250000  1
  Tb  Tb2  1  0.333333  0.666667  0.538924  1
  Tb  Tb3  1  0.666667  0.333333  0.461076  1
  Tb  Tb4  1  0.666667  0.333333  0.038924  1
  Tb  Tb5  1  0.333333  0.666667  0.961076  1
  Si  Si6  1  0.000000  0.000000  0.250000  1
  Si  Si7  1  0.000000  0.000000  0.750000  1
  Si  Si8  1  0.333333  0.666667  0.250000  1
  Si  Si9  1  0.666667  0.333333  0.750000  1
  Si  Si10  1  0.000000  0.000000  0.000000  1
  Si  Si11  1  0.000000  0.000000  0.500000  1
  Ir  Ir12  1  0.167344  0.334688  0.129692  1
  Ir  Ir13  1  0.832656  0.665312  0.870308  1
  Ir  Ir14  1  0.665312  0.832656  0.129692  1
  Ir  Ir15  1  0.832656  0.665312  0.629692  1
  Ir  Ir16  1  0.334688  0.167344  0.870308  1
  Ir  Ir17  1  0.167344  0.334688  0.370308  1
  Ir  Ir18  1  0.167344  0.832656  0.129692  1
  Ir  Ir19  1  0.334688  0.167344  0.629692  1
  Ir  Ir20  1  0.832656  0.167344  0.870308  1
  Ir  Ir21  1  0.665312  0.832656  0.370308  1
  Ir  Ir22  1  0.832656  0.167344  0.629692  1
  Ir  Ir23  1  0.167344  0.832656  0.370308  1
