# generated using pymatgen
data_NaCr2Sb12OsPt
_symmetry_space_group_name_H-M   'P 1'
_cell_length_a   8.25082134
_cell_length_b   8.26550029
_cell_length_c   8.21260838
_cell_angle_alpha   109.52471471
_cell_angle_beta   109.46622627
_cell_angle_gamma   109.88622210
_symmetry_Int_Tables_number   1
_chemical_formula_structural   NaCr2Sb12OsPt
_chemical_formula_sum   'Na1 Cr2 Sb12 Os1 Pt1'
_cell_volume   428.65812496
_cell_formula_units_Z   1
loop_
 _symmetry_equiv_pos_site_id
 _symmetry_equiv_pos_as_xyz
  1  'x, y, z'
loop_
 _atom_site_type_symbol
 _atom_site_label
 _atom_site_symmetry_multiplicity
 _atom_site_fract_x
 _atom_site_fract_y
 _atom_site_fract_z
 _atom_site_occupancy
  Na  Na0  1  0.000000  0.000000  0.000000  1
  Cr  Cr1  1  0.000000  0.000000  0.500000  1
  Cr  Cr2  1  0.500000  0.500000  0.500000  1
  Sb  Sb3  1  0.342513  0.182455  0.848237  1
  Sb  Sb4  1  0.657487  0.817545  0.151763  1
  Sb  Sb5  1  0.655538  0.503426  0.846998  1
  Sb  Sb6  1  0.344462  0.496574  0.153002  1
  Sb  Sb7  1  0.191714  0.849393  0.344771  1
  Sb  Sb8  1  0.808286  0.150607  0.655229  1
  Sb  Sb9  1  0.506328  0.847278  0.664609  1
  Sb  Sb10  1  0.493672  0.152722  0.335391  1
  Sb  Sb11  1  0.843539  0.337567  0.189168  1
  Sb  Sb12  1  0.156461  0.662433  0.810832  1
  Sb  Sb13  1  0.844380  0.658645  0.503330  1
  Sb  Sb14  1  0.155620  0.341355  0.496670  1
  Os  Os15  1  0.500000  0.000000  0.000000  1
  Pt  Pt16  1  0.000000  0.500000  0.000000  1
