# generated using pymatgen
data_SmNpTeN2
_symmetry_space_group_name_H-M   'P 1'
_cell_length_a   6.98369989
_cell_length_b   6.98369981
_cell_length_c   6.98369986
_cell_angle_alpha   147.34207425
_cell_angle_beta   147.34206869
_cell_angle_gamma   46.85755003
_symmetry_Int_Tables_number   1
_chemical_formula_structural   SmNpTeN2
_chemical_formula_sum   'Sm1 Np1 Te1 N2'
_cell_volume   98.81680112
_cell_formula_units_Z   1
loop_
 _symmetry_equiv_pos_site_id
 _symmetry_equiv_pos_as_xyz
  1  'x, y, z'
loop_
 _atom_site_type_symbol
 _atom_site_label
 _atom_site_symmetry_multiplicity
 _atom_site_fract_x
 _atom_site_fract_y
 _atom_site_fract_z
 _atom_site_occupancy
  Sm  Sm0  1  0.343181  0.343181  0.000000  1
  Np  Np1  1  0.668986  0.668986  0.000000  1
  Te  Te2  1  0.005351  0.005351  0.000000  1
  N  N3  1  0.741241  0.241241  0.500000  1
  N  N4  1  0.241241  0.741241  0.500000  1
