# generated using pymatgen
data_LiYb3Cd2Sn3
_symmetry_space_group_name_H-M   'P 1'
_cell_length_a   7.55931646
_cell_length_b   7.57184328
_cell_length_c   4.69402200
_cell_angle_alpha   90.00000000
_cell_angle_beta   90.00000000
_cell_angle_gamma   120.05482448
_symmetry_Int_Tables_number   1
_chemical_formula_structural   LiYb3Cd2Sn3
_chemical_formula_sum   'Li1 Yb3 Cd2 Sn3'
_cell_volume   232.55180002
_cell_formula_units_Z   1
loop_
 _symmetry_equiv_pos_site_id
 _symmetry_equiv_pos_as_xyz
  1  'x, y, z'
loop_
 _atom_site_type_symbol
 _atom_site_label
 _atom_site_symmetry_multiplicity
 _atom_site_fract_x
 _atom_site_fract_y
 _atom_site_fract_z
 _atom_site_occupancy
  Li  Li0  1  0.000000  0.764142  0.000000  1
  Yb  Yb1  1  0.000000  0.427187  0.500000  1
  Yb  Yb2  1  0.565523  0.567302  0.500000  1
  Yb  Yb3  1  0.434477  0.001779  0.500000  1
  Cd  Cd4  1  0.244338  0.243305  0.000000  1
  Cd  Cd5  1  0.755662  0.998966  0.000000  1
  Sn  Sn6  1  0.324675  0.667626  0.000000  1
  Sn  Sn7  1  0.675325  0.342950  0.000000  1
  Sn  Sn8  1  0.000000  0.986745  0.500000  1
