# generated using pymatgen
data_Tm2Th2Cd2CoCu3
_symmetry_space_group_name_H-M   'P 1'
_cell_length_a   3.67063900
_cell_length_b   7.63283857
_cell_length_c   7.63283953
_cell_angle_alpha   91.68115319
_cell_angle_beta   90.00000000
_cell_angle_gamma   90.00000000
_symmetry_Int_Tables_number   1
_chemical_formula_structural   Tm2Th2Cd2CoCu3
_chemical_formula_sum   'Tm2 Th2 Cd2 Co1 Cu3'
_cell_volume   213.76023001
_cell_formula_units_Z   1
loop_
 _symmetry_equiv_pos_site_id
 _symmetry_equiv_pos_as_xyz
  1  'x, y, z'
loop_
 _atom_site_type_symbol
 _atom_site_label
 _atom_site_symmetry_multiplicity
 _atom_site_fract_x
 _atom_site_fract_y
 _atom_site_fract_z
 _atom_site_occupancy
  Tm  Tm0  1  0.500000  0.330406  0.169594  1
  Tm  Tm1  1  0.500000  0.684576  0.815424  1
  Th  Th2  1  0.500000  0.154029  0.680835  1
  Th  Th3  1  0.500000  0.819165  0.345971  1
  Cd  Cd4  1  0.000000  0.995991  0.009679  1
  Cd  Cd5  1  0.000000  0.490321  0.504009  1
  Co  Co6  1  0.000000  0.890517  0.609483  1
  Cu  Cu7  1  0.000000  0.619540  0.115415  1
  Cu  Cu8  1  0.000000  0.384585  0.880460  1
  Cu  Cu9  1  0.000000  0.130870  0.369130  1
