# generated using pymatgen
data_Th5Cr3(P3Ir4)4
_symmetry_space_group_name_H-M   'P 1'
_cell_length_a   12.69578500
_cell_length_b   12.69578546
_cell_length_c   4.04821400
_cell_angle_alpha   90.00000000
_cell_angle_beta   90.00000000
_cell_angle_gamma   120.00000661
_symmetry_Int_Tables_number   1
_chemical_formula_structural   Th5Cr3(P3Ir4)4
_chemical_formula_sum   'Th5 Cr3 P12 Ir16'
_cell_volume   565.08424549
_cell_formula_units_Z   1
loop_
 _symmetry_equiv_pos_site_id
 _symmetry_equiv_pos_as_xyz
  1  'x, y, z'
loop_
 _atom_site_type_symbol
 _atom_site_label
 _atom_site_symmetry_multiplicity
 _atom_site_fract_x
 _atom_site_fract_y
 _atom_site_fract_z
 _atom_site_occupancy
  Th  Th0  1  0.666667  0.333333  0.000000  1
  Th  Th1  1  0.333333  0.666667  0.000000  1
  Th  Th2  1  0.818827  0.818827  0.500000  1
  Th  Th3  1  0.181173  0.000000  0.500000  1
  Th  Th4  1  0.000000  0.181173  0.500000  1
  Cr  Cr5  1  0.291291  0.291291  0.500000  1
  Cr  Cr6  1  0.708709  0.000000  0.500000  1
  Cr  Cr7  1  0.000000  0.708709  0.500000  1
  P  P8  1  0.690484  0.164479  0.500000  1
  P  P9  1  0.835521  0.526005  0.500000  1
  P  P10  1  0.473995  0.309516  0.500000  1
  P  P11  1  0.164479  0.690484  0.500000  1
  P  P12  1  0.526005  0.835521  0.500000  1
  P  P13  1  0.309516  0.473995  0.500000  1
  P  P14  1  0.635173  0.635173  0.000000  1
  P  P15  1  0.364827  0.000000  0.000000  1
  P  P16  1  0.000000  0.364827  0.000000  1
  P  P17  1  0.185188  0.185188  0.000000  1
  P  P18  1  0.814812  0.000000  0.000000  1
  P  P19  1  0.000000  0.814812  0.000000  1
  Ir  Ir20  1  0.803952  0.181096  0.000000  1
  Ir  Ir21  1  0.818904  0.622857  0.000000  1
  Ir  Ir22  1  0.377143  0.196048  0.000000  1
  Ir  Ir23  1  0.181096  0.803952  0.000000  1
  Ir  Ir24  1  0.622857  0.818904  0.000000  1
  Ir  Ir25  1  0.196048  0.377143  0.000000  1
  Ir  Ir26  1  0.452022  0.452022  0.000000  1
  Ir  Ir27  1  0.547978  0.000000  0.000000  1
  Ir  Ir28  1  0.000000  0.547978  0.000000  1
  Ir  Ir29  1  0.869574  0.362500  0.500000  1
  Ir  Ir30  1  0.637500  0.507075  0.500000  1
  Ir  Ir31  1  0.492925  0.130426  0.500000  1
  Ir  Ir32  1  0.362500  0.869574  0.500000  1
  Ir  Ir33  1  0.507075  0.637500  0.500000  1
  Ir  Ir34  1  0.130426  0.492925  0.500000  1
  Ir  Ir35  1  0.000000  0.000000  0.000000  1
