# generated using pymatgen
data_CaAc19Sn16
_symmetry_space_group_name_H-M   'P 1'
_cell_length_a   8.81020846
_cell_length_b   8.89781388
_cell_length_c   17.05977600
_cell_angle_alpha   90.00000000
_cell_angle_beta   90.00000000
_cell_angle_gamma   90.07465696
_symmetry_Int_Tables_number   1
_chemical_formula_structural   CaAc19Sn16
_chemical_formula_sum   'Ca1 Ac19 Sn16'
_cell_volume   1337.34191737
_cell_formula_units_Z   1
loop_
 _symmetry_equiv_pos_site_id
 _symmetry_equiv_pos_as_xyz
  1  'x, y, z'
loop_
 _atom_site_type_symbol
 _atom_site_label
 _atom_site_symmetry_multiplicity
 _atom_site_fract_x
 _atom_site_fract_y
 _atom_site_fract_z
 _atom_site_occupancy
  Ca  Ca0  1  0.793390  0.498101  0.750000  1
  Ac  Ac1  1  0.020397  0.179743  0.401535  1
  Ac  Ac2  1  0.372121  0.842478  0.115966  1
  Ac  Ac3  1  0.124210  0.343075  0.617958  1
  Ac  Ac4  1  0.482054  0.679002  0.899636  1
  Ac  Ac5  1  0.870963  0.656265  0.115636  1
  Ac  Ac6  1  0.124210  0.343075  0.882042  1
  Ac  Ac7  1  0.202854  0.504479  0.250000  1
  Ac  Ac8  1  0.701687  0.995965  0.250000  1
  Ac  Ac9  1  0.482054  0.679002  0.600364  1
  Ac  Ac10  1  0.297396  0.999867  0.750000  1
  Ac  Ac11  1  0.628959  0.160212  0.617840  1
  Ac  Ac12  1  0.870963  0.656265  0.384364  1
  Ac  Ac13  1  0.020397  0.179743  0.098465  1
  Ac  Ac14  1  0.978662  0.816754  0.900308  1
  Ac  Ac15  1  0.628959  0.160212  0.882160  1
  Ac  Ac16  1  0.520245  0.318767  0.097914  1
  Ac  Ac17  1  0.372121  0.842478  0.384034  1
  Ac  Ac18  1  0.978662  0.816754  0.599692  1
  Ac  Ac19  1  0.520245  0.318767  0.402086  1
  Sn  Sn20  1  0.785475  0.466783  0.546395  1
  Sn  Sn21  1  0.715262  0.964296  0.456865  1
  Sn  Sn22  1  0.684302  0.858209  0.750000  1
  Sn  Sn23  1  0.215231  0.534933  0.456602  1
  Sn  Sn24  1  0.285545  0.036670  0.955456  1
  Sn  Sn25  1  0.820310  0.359620  0.250000  1
  Sn  Sn26  1  0.785475  0.466783  0.953605  1
  Sn  Sn27  1  0.576581  0.612232  0.250000  1
  Sn  Sn28  1  0.215231  0.534933  0.043398  1
  Sn  Sn29  1  0.428543  0.393279  0.750000  1
  Sn  Sn30  1  0.176200  0.637115  0.750000  1
  Sn  Sn31  1  0.924190  0.114268  0.750000  1
  Sn  Sn32  1  0.285545  0.036670  0.544544  1
  Sn  Sn33  1  0.715262  0.964296  0.043135  1
  Sn  Sn34  1  0.319805  0.141541  0.250000  1
  Sn  Sn35  1  0.076487  0.887373  0.250000  1
