# generated using pymatgen
data_Al4V10Zn
_symmetry_space_group_name_H-M   'P 1'
_cell_length_a   9.34440800
_cell_length_b   9.34440800
_cell_length_c   4.77135100
_cell_angle_alpha   90.00000000
_cell_angle_beta   90.00000000
_cell_angle_gamma   90.00000000
_symmetry_Int_Tables_number   1
_chemical_formula_structural   Al4V10Zn
_chemical_formula_sum   'Al8 V20 Zn2'
_cell_volume   416.62463992
_cell_formula_units_Z   2
loop_
 _symmetry_equiv_pos_site_id
 _symmetry_equiv_pos_as_xyz
  1  'x, y, z'
loop_
 _atom_site_type_symbol
 _atom_site_label
 _atom_site_symmetry_multiplicity
 _atom_site_fract_x
 _atom_site_fract_y
 _atom_site_fract_z
 _atom_site_occupancy
  Al  Al0  1  0.263364  0.935577  0.000000  1
  Al  Al1  1  0.435577  0.236636  0.500000  1
  Al  Al2  1  0.564423  0.763364  0.500000  1
  Al  Al3  1  0.736636  0.064423  0.000000  1
  Al  Al4  1  0.236636  0.435577  0.500000  1
  Al  Al5  1  0.763364  0.564423  0.500000  1
  Al  Al6  1  0.935577  0.263364  0.000000  1
  Al  Al7  1  0.064423  0.736636  0.000000  1
  V  V8  1  0.396651  0.396651  0.000000  1
  V  V9  1  0.896651  0.103349  0.500000  1
  V  V10  1  0.103349  0.896651  0.500000  1
  V  V11  1  0.603349  0.603349  0.000000  1
  V  V12  1  0.127616  0.465862  0.000000  1
  V  V13  1  0.965862  0.372384  0.500000  1
  V  V14  1  0.034138  0.627616  0.500000  1
  V  V15  1  0.872384  0.534138  0.000000  1
  V  V16  1  0.372384  0.965862  0.500000  1
  V  V17  1  0.627616  0.034138  0.500000  1
  V  V18  1  0.465862  0.127616  0.000000  1
  V  V19  1  0.534138  0.872384  0.000000  1
  V  V20  1  0.181783  0.181783  0.256413  1
  V  V21  1  0.681783  0.318217  0.756413  1
  V  V22  1  0.318217  0.681783  0.756413  1
  V  V23  1  0.818217  0.818217  0.256413  1
  V  V24  1  0.318217  0.681783  0.243587  1
  V  V25  1  0.681783  0.318217  0.243587  1
  V  V26  1  0.181783  0.181783  0.743587  1
  V  V27  1  0.818217  0.818217  0.743587  1
  Zn  Zn28  1  0.000000  0.000000  0.000000  1
  Zn  Zn29  1  0.500000  0.500000  0.500000  1
