# generated using pymatgen
data_Be6Re3Ni2Mo
_symmetry_space_group_name_H-M   'P 1'
_cell_length_a   4.45517128
_cell_length_b   4.42907708
_cell_length_c   7.29811602
_cell_angle_alpha   89.88245229
_cell_angle_beta   90.03667707
_cell_angle_gamma   119.79475675
_symmetry_Int_Tables_number   1
_chemical_formula_structural   Be6Re3Ni2Mo
_chemical_formula_sum   'Be6 Re3 Ni2 Mo1'
_cell_volume   124.97195575
_cell_formula_units_Z   1
loop_
 _symmetry_equiv_pos_site_id
 _symmetry_equiv_pos_as_xyz
  1  'x, y, z'
loop_
 _atom_site_type_symbol
 _atom_site_label
 _atom_site_symmetry_multiplicity
 _atom_site_fract_x
 _atom_site_fract_y
 _atom_site_fract_z
 _atom_site_occupancy
  Be  Be0  1  0.000225  0.002078  0.998951  1
  Be  Be1  1  0.999950  0.001419  0.499775  1
  Be  Be2  1  0.659320  0.825877  0.749046  1
  Be  Be3  1  0.342100  0.168026  0.251122  1
  Be  Be4  1  0.829464  0.169401  0.251018  1
  Be  Be5  1  0.170084  0.338365  0.749029  1
  Re  Re6  1  0.661032  0.329267  0.559653  1
  Re  Re7  1  0.659866  0.327086  0.938965  1
  Re  Re8  1  0.339456  0.667703  0.441976  1
  Ni  Ni9  1  0.838765  0.670565  0.250713  1
  Ni  Ni10  1  0.161647  0.831449  0.748979  1
  Mo  Mo11  1  0.338091  0.668764  0.060773  1
