# generated using pymatgen
data_Li4Ce3Si4
_symmetry_space_group_name_H-M   'P 1'
_cell_length_a   4.40062505
_cell_length_b   6.66786567
_cell_length_c   8.21965983
_cell_angle_alpha   113.92901228
_cell_angle_beta   105.52680746
_cell_angle_gamma   89.99999509
_symmetry_Int_Tables_number   1
_chemical_formula_structural   Li4Ce3Si4
_chemical_formula_sum   'Li4 Ce3 Si4'
_cell_volume   210.79131000
_cell_formula_units_Z   1
loop_
 _symmetry_equiv_pos_site_id
 _symmetry_equiv_pos_as_xyz
  1  'x, y, z'
loop_
 _atom_site_type_symbol
 _atom_site_label
 _atom_site_symmetry_multiplicity
 _atom_site_fract_x
 _atom_site_fract_y
 _atom_site_fract_z
 _atom_site_occupancy
  Li  Li0  1  0.670506  0.980572  0.341011  1
  Li  Li1  1  0.329494  0.019428  0.658989  1
  Li  Li2  1  0.329494  0.639561  0.658989  1
  Li  Li3  1  0.670506  0.360439  0.341011  1
  Ce  Ce4  1  0.000000  0.000000  0.000000  1
  Ce  Ce5  1  0.130358  0.630358  0.260716  1
  Ce  Ce6  1  0.869642  0.369642  0.739284  1
  Si  Si7  1  0.500000  0.679084  0.000000  1
  Si  Si8  1  0.500000  0.320916  0.000000  1
  Si  Si9  1  0.787035  0.787035  0.574069  1
  Si  Si10  1  0.212965  0.212965  0.425931  1
