# generated using pymatgen
data_Tb4MnCoC8
_symmetry_space_group_name_H-M   'P 1'
_cell_length_a   6.63561621
_cell_length_b   6.63561666
_cell_length_c   6.63561602
_cell_angle_alpha   135.03150334
_cell_angle_beta   111.00692459
_cell_angle_gamma   86.21709755
_symmetry_Int_Tables_number   1
_chemical_formula_structural   Tb4MnCoC8
_chemical_formula_sum   'Tb4 Mn1 Co1 C8'
_cell_volume   184.80072632
_cell_formula_units_Z   1
loop_
 _symmetry_equiv_pos_site_id
 _symmetry_equiv_pos_as_xyz
  1  'x, y, z'
loop_
 _atom_site_type_symbol
 _atom_site_label
 _atom_site_symmetry_multiplicity
 _atom_site_fract_x
 _atom_site_fract_y
 _atom_site_fract_z
 _atom_site_occupancy
  Tb  Tb0  1  0.512870  0.357058  0.159156  1
  Tb  Tb1  1  0.487130  0.646286  0.844188  1
  Tb  Tb2  1  0.197902  0.853714  0.340844  1
  Tb  Tb3  1  0.802098  0.142942  0.655812  1
  Mn  Mn4  1  0.000000  0.750000  0.750000  1
  Co  Co5  1  0.000000  0.250000  0.250000  1
  C  C6  1  0.245411  0.062947  0.150686  1
  C  C7  1  0.754589  0.905274  0.817535  1
  C  C8  1  0.912261  0.594726  0.349314  1
  C  C9  1  0.087739  0.437053  0.682465  1
  C  C10  1  0.465125  0.133710  0.342690  1
  C  C11  1  0.534875  0.877566  0.668585  1
  C  C12  1  0.791020  0.622434  0.157310  1
  C  C13  1  0.208980  0.366290  0.831415  1
