# generated using pymatgen
data_Lu10Ir3Ru
_symmetry_space_group_name_H-M   'P 1'
_cell_length_a   6.35607254
_cell_length_b   7.12239981
_cell_length_c   8.24120953
_cell_angle_alpha   96.48475631
_cell_angle_beta   112.50457869
_cell_angle_gamma   90.02009063
_symmetry_Int_Tables_number   1
_chemical_formula_structural   Lu10Ir3Ru
_chemical_formula_sum   'Lu10 Ir3 Ru1'
_cell_volume   342.08149409
_cell_formula_units_Z   1
loop_
 _symmetry_equiv_pos_site_id
 _symmetry_equiv_pos_as_xyz
  1  'x, y, z'
loop_
 _atom_site_type_symbol
 _atom_site_label
 _atom_site_symmetry_multiplicity
 _atom_site_fract_x
 _atom_site_fract_y
 _atom_site_fract_z
 _atom_site_occupancy
  Lu  Lu0  1  0.426505  0.749958  0.999991  1
  Lu  Lu1  1  0.574762  0.251182  0.000736  1
  Lu  Lu2  1  0.968355  0.917969  0.181769  1
  Lu  Lu3  1  0.212101  0.419991  0.182249  1
  Lu  Lu4  1  0.787845  0.318576  0.441467  1
  Lu  Lu5  1  0.655379  0.817196  0.441801  1
  Lu  Lu6  1  0.211680  0.682273  0.557076  1
  Lu  Lu7  1  0.345282  0.182492  0.557617  1
  Lu  Lu8  1  0.787307  0.580302  0.819143  1
  Lu  Lu9  1  0.031237  0.080247  0.818661  1
  Ir  Ir10  1  0.390455  0.073006  0.217898  1
  Ir  Ir11  1  0.608743  0.927388  0.781928  1
  Ir  Ir12  1  0.173092  0.426567  0.782069  1
  Ru  Ru13  1  0.827260  0.572852  0.217595  1
