# generated using pymatgen
data_Tb2ErAl10(SiRu2)2
_symmetry_space_group_name_H-M   'P 1'
_cell_length_a   8.69017846
_cell_length_b   8.69017875
_cell_length_c   9.63258600
_cell_angle_alpha   90.00000000
_cell_angle_beta   90.00000000
_cell_angle_gamma   120.03735236
_symmetry_Int_Tables_number   1
_chemical_formula_structural   Tb2ErAl10(SiRu2)2
_chemical_formula_sum   'Tb4 Er2 Al20 Si4 Ru8'
_cell_volume   629.74879549
_cell_formula_units_Z   2
loop_
 _symmetry_equiv_pos_site_id
 _symmetry_equiv_pos_as_xyz
  1  'x, y, z'
loop_
 _atom_site_type_symbol
 _atom_site_label
 _atom_site_symmetry_multiplicity
 _atom_site_fract_x
 _atom_site_fract_y
 _atom_site_fract_z
 _atom_site_occupancy
  Tb  Tb0  1  0.194437  0.389226  0.250000  1
  Tb  Tb1  1  0.805563  0.610774  0.750000  1
  Tb  Tb2  1  0.610774  0.805563  0.250000  1
  Tb  Tb3  1  0.389226  0.194437  0.750000  1
  Er  Er4  1  0.195887  0.804113  0.250000  1
  Er  Er5  1  0.804113  0.195887  0.750000  1
  Al  Al6  1  0.164654  0.329926  0.577098  1
  Al  Al7  1  0.835346  0.670074  0.422902  1
  Al  Al8  1  0.670074  0.835346  0.577098  1
  Al  Al9  1  0.835346  0.670074  0.077098  1
  Al  Al10  1  0.329926  0.164654  0.422902  1
  Al  Al11  1  0.164654  0.329926  0.922902  1
  Al  Al12  1  0.165094  0.834906  0.576481  1
  Al  Al13  1  0.329926  0.164654  0.077098  1
  Al  Al14  1  0.834906  0.165094  0.423519  1
  Al  Al15  1  0.670074  0.835346  0.922902  1
  Al  Al16  1  0.834906  0.165094  0.076481  1
  Al  Al17  1  0.165094  0.834906  0.923519  1
  Al  Al18  1  0.563138  0.126881  0.250000  1
  Al  Al19  1  0.436862  0.873119  0.750000  1
  Al  Al20  1  0.873119  0.436862  0.250000  1
  Al  Al21  1  0.126881  0.563138  0.750000  1
  Al  Al22  1  0.563781  0.436219  0.250000  1
  Al  Al23  1  0.436219  0.563781  0.750000  1
  Al  Al24  1  0.000825  0.999175  0.250000  1
  Al  Al25  1  0.999175  0.000825  0.750000  1
  Si  Si26  1  0.333094  0.666906  0.036934  1
  Si  Si27  1  0.666906  0.333094  0.963066  1
  Si  Si28  1  0.666906  0.333094  0.536934  1
  Si  Si29  1  0.333094  0.666906  0.463066  1
  Ru  Ru30  1  0.500000  0.000000  0.000000  1
  Ru  Ru31  1  0.000000  0.500000  0.000000  1
  Ru  Ru32  1  0.500000  0.000000  0.500000  1
  Ru  Ru33  1  0.500000  0.500000  0.000000  1
  Ru  Ru34  1  0.000000  0.500000  0.500000  1
  Ru  Ru35  1  0.500000  0.500000  0.500000  1
  Ru  Ru36  1  0.000000  0.000000  0.000000  1
  Ru  Ru37  1  0.000000  0.000000  0.500000  1
