# generated using pymatgen
data_Dy3Ho5B24Ir3Ru
_symmetry_space_group_name_H-M   'P 1'
_cell_length_a   3.64426900
_cell_length_b   9.18980211
_cell_length_c   11.50226605
_cell_angle_alpha   90.03374375
_cell_angle_beta   90.00000000
_cell_angle_gamma   90.00000000
_symmetry_Int_Tables_number   1
_chemical_formula_structural   Dy3Ho5B24Ir3Ru
_chemical_formula_sum   'Dy3 Ho5 B24 Ir3 Ru1'
_cell_volume   385.21209959
_cell_formula_units_Z   1
loop_
 _symmetry_equiv_pos_site_id
 _symmetry_equiv_pos_as_xyz
  1  'x, y, z'
loop_
 _atom_site_type_symbol
 _atom_site_label
 _atom_site_symmetry_multiplicity
 _atom_site_fract_x
 _atom_site_fract_y
 _atom_site_fract_z
 _atom_site_occupancy
  Dy  Dy0  1  0.000000  0.321298  0.412943  1
  Dy  Dy1  1  0.000000  0.679946  0.588357  1
  Dy  Dy2  1  0.000000  0.821604  0.085351  1
  Ho  Ho3  1  0.000000  0.176801  0.912700  1
  Ho  Ho4  1  0.000000  0.944317  0.374140  1
  Ho  Ho5  1  0.000000  0.054210  0.626729  1
  Ho  Ho6  1  0.000000  0.444199  0.125514  1
  Ho  Ho7  1  0.000000  0.557452  0.874549  1
  B  B8  1  0.500000  0.553420  0.434228  1
  B  B9  1  0.500000  0.446745  0.566105  1
  B  B10  1  0.500000  0.052980  0.065906  1
  B  B11  1  0.500000  0.946255  0.933192  1
  B  B12  1  0.500000  0.749703  0.420894  1
  B  B13  1  0.500000  0.250538  0.579276  1
  B  B14  1  0.500000  0.249144  0.079075  1
  B  B15  1  0.500000  0.752106  0.919866  1
  B  B16  1  0.500000  0.792958  0.265630  1
  B  B17  1  0.500000  0.207065  0.733905  1
  B  B18  1  0.500000  0.293428  0.234317  1
  B  B19  1  0.500000  0.708000  0.766527  1
  B  B20  1  0.500000  0.632135  0.184368  1
  B  B21  1  0.500000  0.367692  0.815689  1
  B  B22  1  0.500000  0.132552  0.315493  1
  B  B23  1  0.500000  0.868056  0.685613  1
  B  B24  1  0.500000  0.982021  0.213025  1
  B  B25  1  0.500000  0.016503  0.786620  1
  B  B26  1  0.500000  0.482211  0.286538  1
  B  B27  1  0.500000  0.517750  0.713894  1
  B  B28  1  0.500000  0.611417  0.031046  1
  B  B29  1  0.500000  0.387706  0.969280  1
  B  B30  1  0.500000  0.111401  0.469209  1
  B  B31  1  0.500000  0.888682  0.530316  1
  Ir  Ir32  1  0.000000  0.638082  0.321856  1
  Ir  Ir33  1  0.000000  0.362037  0.678770  1
  Ir  Ir34  1  0.000000  0.137698  0.177873  1
  Ru  Ru35  1  0.000000  0.861888  0.821204  1
