# generated using pymatgen
data_NdTi(Sb4Os)3
_symmetry_space_group_name_H-M   'P 1'
_cell_length_a   8.17457212
_cell_length_b   8.25715213
_cell_length_c   8.25715257
_cell_angle_alpha   109.67292496
_cell_angle_beta   109.26874695
_cell_angle_gamma   109.26875804
_symmetry_Int_Tables_number   1
_chemical_formula_structural   NdTi(Sb4Os)3
_chemical_formula_sum   'Nd1 Ti1 Sb12 Os3'
_cell_volume   430.11326479
_cell_formula_units_Z   1
loop_
 _symmetry_equiv_pos_site_id
 _symmetry_equiv_pos_as_xyz
  1  'x, y, z'
loop_
 _atom_site_type_symbol
 _atom_site_label
 _atom_site_symmetry_multiplicity
 _atom_site_fract_x
 _atom_site_fract_y
 _atom_site_fract_z
 _atom_site_occupancy
  Nd  Nd0  1  0.000000  0.000000  0.000000  1
  Ti  Ti1  1  0.500000  0.000000  0.000000  1
  Sb  Sb2  1  0.147129  0.813499  0.652866  1
  Sb  Sb3  1  0.852871  0.186501  0.347134  1
  Sb  Sb4  1  0.844257  0.506621  0.663851  1
  Sb  Sb5  1  0.155743  0.493379  0.336149  1
  Sb  Sb6  1  0.819593  0.663851  0.157231  1
  Sb  Sb7  1  0.180407  0.336149  0.842769  1
  Sb  Sb8  1  0.505738  0.652866  0.839367  1
  Sb  Sb9  1  0.494262  0.347134  0.160633  1
  Sb  Sb10  1  0.666370  0.160633  0.813499  1
  Sb  Sb11  1  0.333630  0.839367  0.186501  1
  Sb  Sb12  1  0.662363  0.842769  0.506621  1
  Sb  Sb13  1  0.337637  0.157231  0.493379  1
  Os  Os14  1  0.000000  0.000000  0.500000  1
  Os  Os15  1  0.000000  0.500000  0.000000  1
  Os  Os16  1  0.500000  0.500000  0.500000  1
