# generated using pymatgen
data_LaTbP7Ru12
_symmetry_space_group_name_H-M   'P 1'
_cell_length_a   9.47041700
_cell_length_b   9.47041650
_cell_length_c   3.97135000
_cell_angle_alpha   90.00000000
_cell_angle_beta   90.00000000
_cell_angle_gamma   119.99999125
_symmetry_Int_Tables_number   1
_chemical_formula_structural   LaTbP7Ru12
_chemical_formula_sum   'La1 Tb1 P7 Ru12'
_cell_volume   308.46579651
_cell_formula_units_Z   1
loop_
 _symmetry_equiv_pos_site_id
 _symmetry_equiv_pos_as_xyz
  1  'x, y, z'
loop_
 _atom_site_type_symbol
 _atom_site_label
 _atom_site_symmetry_multiplicity
 _atom_site_fract_x
 _atom_site_fract_y
 _atom_site_fract_z
 _atom_site_occupancy
  La  La0  1  0.333333  0.666667  0.000000  1
  Tb  Tb1  1  0.666667  0.333333  0.500000  1
  P  P2  1  0.607025  0.718669  0.500000  1
  P  P3  1  0.000000  0.000000  0.000000  1
  P  P4  1  0.281331  0.888356  0.500000  1
  P  P5  1  0.111644  0.392975  0.500000  1
  P  P6  1  0.888012  0.571718  0.000000  1
  P  P7  1  0.428282  0.316292  0.000000  1
  P  P8  1  0.683708  0.111988  0.000000  1
  Ru  Ru9  1  0.559798  0.955985  0.500000  1
  Ru  Ru10  1  0.396187  0.440202  0.500000  1
  Ru  Ru11  1  0.914713  0.118693  0.500000  1
  Ru  Ru12  1  0.203980  0.085287  0.500000  1
  Ru  Ru13  1  0.881307  0.796020  0.500000  1
  Ru  Ru14  1  0.729241  0.892997  0.000000  1
  Ru  Ru15  1  0.107003  0.836243  0.000000  1
  Ru  Ru16  1  0.163757  0.270759  0.000000  1
  Ru  Ru17  1  0.420883  0.069504  0.000000  1
  Ru  Ru18  1  0.930496  0.351381  0.000000  1
  Ru  Ru19  1  0.648619  0.579117  0.000000  1
  Ru  Ru20  1  0.044015  0.603813  0.500000  1
