# generated using pymatgen
data_Ho13Er7FeCo3Sb8
_symmetry_space_group_name_H-M   'P 1'
_cell_length_a   7.83354083
_cell_length_b   8.76065825
_cell_length_c   12.13274503
_cell_angle_alpha   90.00791863
_cell_angle_beta   90.12259641
_cell_angle_gamma   90.02631080
_symmetry_Int_Tables_number   1
_chemical_formula_structural   Ho13Er7FeCo3Sb8
_chemical_formula_sum   'Ho13 Er7 Fe1 Co3 Sb8'
_cell_volume   832.63157740
_cell_formula_units_Z   1
loop_
 _symmetry_equiv_pos_site_id
 _symmetry_equiv_pos_as_xyz
  1  'x, y, z'
loop_
 _atom_site_type_symbol
 _atom_site_label
 _atom_site_symmetry_multiplicity
 _atom_site_fract_x
 _atom_site_fract_y
 _atom_site_fract_z
 _atom_site_occupancy
  Ho  Ho0  1  0.157596  0.750063  0.205645  1
  Ho  Ho1  1  0.654809  0.249885  0.296191  1
  Ho  Ho2  1  0.845291  0.249951  0.797647  1
  Ho  Ho3  1  0.344824  0.750066  0.702854  1
  Ho  Ho4  1  0.453351  0.750020  0.997374  1
  Ho  Ho5  1  0.949466  0.249944  0.503040  1
  Ho  Ho6  1  0.545291  0.249968  0.002144  1
  Ho  Ho7  1  0.046486  0.750134  0.496944  1
  Ho  Ho8  1  0.622438  0.750153  0.306128  1
  Ho  Ho9  1  0.123469  0.249979  0.191830  1
  Ho  Ho10  1  0.377927  0.249863  0.692796  1
  Ho  Ho11  1  0.877667  0.750027  0.807596  1
  Ho  Ho12  1  0.324699  0.468233  0.436681  1
  Er  Er13  1  0.822479  0.963516  0.065381  1
  Er  Er14  1  0.325112  0.031975  0.436681  1
  Er  Er15  1  0.176985  0.464647  0.935010  1
  Er  Er16  1  0.678311  0.539809  0.564989  1
  Er  Er17  1  0.176970  0.035403  0.934994  1
  Er  Er18  1  0.678193  0.960039  0.564980  1
  Er  Er19  1  0.822508  0.536430  0.065372  1
  Fe  Fe20  1  0.427813  0.749978  0.487605  1
  Co  Co21  1  0.935066  0.250017  0.009554  1
  Co  Co22  1  0.567565  0.249841  0.509459  1
  Co  Co23  1  0.066123  0.749990  0.991489  1
  Sb  Sb24  1  0.929679  0.993027  0.326801  1
  Sb  Sb25  1  0.429535  0.008438  0.172287  1
  Sb  Sb26  1  0.069972  0.491567  0.672661  1
  Sb  Sb27  1  0.570695  0.507874  0.827124  1
  Sb  Sb28  1  0.069881  0.008471  0.672673  1
  Sb  Sb29  1  0.570739  0.992124  0.827103  1
  Sb  Sb30  1  0.929436  0.506979  0.326774  1
  Sb  Sb31  1  0.429628  0.491588  0.172194  1
