# generated using pymatgen
data_YbAgH6Rh
_symmetry_space_group_name_H-M   'P 1'
_cell_length_a   4.93874917
_cell_length_b   4.93874951
_cell_length_c   4.93874900
_cell_angle_alpha   59.99999670
_cell_angle_beta   59.99999441
_cell_angle_gamma   59.99999857
_symmetry_Int_Tables_number   1
_chemical_formula_structural   YbAgH6Rh
_chemical_formula_sum   'Yb1 Ag1 H6 Rh1'
_cell_volume   85.17965797
_cell_formula_units_Z   1
loop_
 _symmetry_equiv_pos_site_id
 _symmetry_equiv_pos_as_xyz
  1  'x, y, z'
loop_
 _atom_site_type_symbol
 _atom_site_label
 _atom_site_symmetry_multiplicity
 _atom_site_fract_x
 _atom_site_fract_y
 _atom_site_fract_z
 _atom_site_occupancy
  Yb  Yb0  1  0.750000  0.750000  0.750000  1
  Ag  Ag1  1  0.250001  0.250001  0.250001  1
  H  H2  1  0.761460  0.238540  0.238540  1
  H  H3  1  0.238540  0.761460  0.238540  1
  H  H4  1  0.761460  0.761460  0.238540  1
  H  H5  1  0.761460  0.238540  0.761460  1
  H  H6  1  0.238540  0.238540  0.761460  1
  H  H7  1  0.238540  0.761460  0.761460  1
  Rh  Rh8  1  0.000000  0.000000  0.000000  1
