# generated using pymatgen
data_Os2NOF6
_symmetry_space_group_name_H-M   'P 1'
_cell_length_a   6.70101101
_cell_length_b   7.52084783
_cell_length_c   8.36556096
_cell_angle_alpha   99.66034491
_cell_angle_beta   108.51494267
_cell_angle_gamma   110.83988065
_symmetry_Int_Tables_number   1
_chemical_formula_structural   Os2NOF6
_chemical_formula_sum   'Os4 N2 O2 F12'
_cell_volume   354.37691500
_cell_formula_units_Z   2
loop_
 _symmetry_equiv_pos_site_id
 _symmetry_equiv_pos_as_xyz
  1  'x, y, z'
loop_
 _atom_site_type_symbol
 _atom_site_label
 _atom_site_symmetry_multiplicity
 _atom_site_fract_x
 _atom_site_fract_y
 _atom_site_fract_z
 _atom_site_occupancy
  Os  Os0  1  0.000410  0.007904  0.197616  1
  Os  Os1  1  0.858661  0.615155  0.398543  1
  Os  Os2  1  0.145149  0.385106  0.604556  1
  Os  Os3  1  0.997907  0.992830  0.791175  1
  N  N4  1  0.930685  0.800024  0.602075  1
  N  N5  1  0.070044  0.186797  0.697128  1
  O  O6  1  0.928141  0.811292  0.294307  1
  O  O7  1  0.071182  0.204996  0.389781  1
  F  F8  1  0.060229  0.185289  0.049021  1
  F  F9  1  0.683574  0.961982  0.087714  1
  F  F10  1  0.788939  0.413194  0.189698  1
  F  F11  1  0.319473  0.051539  0.268347  1
  F  F12  1  0.531383  0.542032  0.314105  1
  F  F13  1  0.185627  0.612951  0.484340  1
  F  F14  1  0.816163  0.390287  0.510212  1
  F  F15  1  0.469179  0.446789  0.688622  1
  F  F16  1  0.678778  0.947212  0.740216  1
  F  F17  1  0.213458  0.589840  0.805000  1
  F  F18  1  0.312695  0.037137  0.921590  1
  F  F19  1  0.938321  0.817645  0.965953  1
