# generated using pymatgen
data_EuUBr6
_symmetry_space_group_name_H-M   'P 1'
_cell_length_a   7.78907700
_cell_length_b   7.78907802
_cell_length_c   14.31897700
_cell_angle_alpha   84.00460319
_cell_angle_beta   84.00460241
_cell_angle_gamma   119.30653733
_symmetry_Int_Tables_number   1
_chemical_formula_structural   EuUBr6
_chemical_formula_sum   'Eu2 U2 Br12'
_cell_volume   741.17781125
_cell_formula_units_Z   2
loop_
 _symmetry_equiv_pos_site_id
 _symmetry_equiv_pos_as_xyz
  1  'x, y, z'
loop_
 _atom_site_type_symbol
 _atom_site_label
 _atom_site_symmetry_multiplicity
 _atom_site_fract_x
 _atom_site_fract_y
 _atom_site_fract_z
 _atom_site_occupancy
  Eu  Eu0  1  0.084704  0.915296  0.250000  1
  Eu  Eu1  1  0.915296  0.084704  0.750000  1
  U  U2  1  0.419581  0.580419  0.250000  1
  U  U3  1  0.580419  0.419581  0.750000  1
  Br  Br4  1  0.307848  0.439251  0.639753  1
  Br  Br5  1  0.439251  0.307848  0.139753  1
  Br  Br6  1  0.227125  0.086008  0.861394  1
  Br  Br7  1  0.086008  0.227125  0.361394  1
  Br  Br8  1  0.175475  0.649688  0.137314  1
  Br  Br9  1  0.649688  0.175475  0.637314  1
  Br  Br10  1  0.350312  0.824525  0.362686  1
  Br  Br11  1  0.824525  0.350312  0.862686  1
  Br  Br12  1  0.772875  0.913992  0.138606  1
  Br  Br13  1  0.913992  0.772875  0.638606  1
  Br  Br14  1  0.560749  0.692152  0.860247  1
  Br  Br15  1  0.692152  0.560749  0.360247  1
