# generated using pymatgen
data_CeY3(CrB4)4
_symmetry_space_group_name_H-M   'P 1'
_cell_length_a   3.46209800
_cell_length_b   5.95262880
_cell_length_c   11.50756264
_cell_angle_alpha   89.95112966
_cell_angle_beta   90.00000000
_cell_angle_gamma   90.00000000
_symmetry_Int_Tables_number   1
_chemical_formula_structural   CeY3(CrB4)4
_chemical_formula_sum   'Ce1 Y3 Cr4 B16'
_cell_volume   237.15448819
_cell_formula_units_Z   1
loop_
 _symmetry_equiv_pos_site_id
 _symmetry_equiv_pos_as_xyz
  1  'x, y, z'
loop_
 _atom_site_type_symbol
 _atom_site_label
 _atom_site_symmetry_multiplicity
 _atom_site_fract_x
 _atom_site_fract_y
 _atom_site_fract_z
 _atom_site_occupancy
  Ce  Ce0  1  0.000000  0.375877  0.651114  1
  Y  Y1  1  0.000000  0.624324  0.347867  1
  Y  Y2  1  0.000000  0.876418  0.850102  1
  Y  Y3  1  0.000000  0.123876  0.150964  1
  Cr  Cr4  1  0.000000  0.377266  0.919103  1
  Cr  Cr5  1  0.000000  0.623936  0.081041  1
  Cr  Cr6  1  0.000000  0.876126  0.581210  1
  Cr  Cr7  1  0.000000  0.123638  0.418786  1
  B  B8  1  0.500000  0.024683  0.690956  1
  B  B9  1  0.500000  0.974651  0.308179  1
  B  B10  1  0.500000  0.525493  0.810314  1
  B  B11  1  0.500000  0.474815  0.191214  1
  B  B12  1  0.500000  0.111390  0.545651  1
  B  B13  1  0.500000  0.886026  0.452569  1
  B  B14  1  0.500000  0.614065  0.954260  1
  B  B15  1  0.500000  0.386861  0.046918  1
  B  B16  1  0.500000  0.280597  0.315045  1
  B  B17  1  0.500000  0.720324  0.683851  1
  B  B18  1  0.500000  0.781128  0.184099  1
  B  B19  1  0.500000  0.218819  0.817166  1
  B  B20  1  0.500000  0.361090  0.466162  1
  B  B21  1  0.500000  0.638608  0.532242  1
  B  B22  1  0.500000  0.862480  0.033104  1
  B  B23  1  0.500000  0.137509  0.968080  1
