# generated using pymatgen
data_HoScB6Ru
_symmetry_space_group_name_H-M   'P 1'
_cell_length_a   3.55910400
_cell_length_b   8.96313700
_cell_length_c   11.34427500
_cell_angle_alpha   90.00000000
_cell_angle_beta   90.00000000
_cell_angle_gamma   90.00000000
_symmetry_Int_Tables_number   1
_chemical_formula_structural   HoScB6Ru
_chemical_formula_sum   'Ho4 Sc4 B24 Ru4'
_cell_volume   361.89073039
_cell_formula_units_Z   4
loop_
 _symmetry_equiv_pos_site_id
 _symmetry_equiv_pos_as_xyz
  1  'x, y, z'
loop_
 _atom_site_type_symbol
 _atom_site_label
 _atom_site_symmetry_multiplicity
 _atom_site_fract_x
 _atom_site_fract_y
 _atom_site_fract_z
 _atom_site_occupancy
  Ho  Ho0  1  0.500000  0.320732  0.414000  1
  Ho  Ho1  1  0.500000  0.679268  0.586000  1
  Ho  Ho2  1  0.500000  0.179268  0.914000  1
  Ho  Ho3  1  0.500000  0.820732  0.086000  1
  Sc  Sc4  1  0.500000  0.445455  0.125926  1
  Sc  Sc5  1  0.500000  0.554545  0.874074  1
  Sc  Sc6  1  0.500000  0.054545  0.625926  1
  Sc  Sc7  1  0.500000  0.945455  0.374074  1
  B  B8  1  0.000000  0.100611  0.472962  1
  B  B9  1  0.000000  0.899389  0.527038  1
  B  B10  1  0.000000  0.399389  0.972962  1
  B  B11  1  0.000000  0.600611  0.027038  1
  B  B12  1  0.000000  0.129628  0.317634  1
  B  B13  1  0.000000  0.870372  0.682366  1
  B  B14  1  0.000000  0.370372  0.817634  1
  B  B15  1  0.000000  0.629628  0.182366  1
  B  B16  1  0.000000  0.055195  0.067187  1
  B  B17  1  0.000000  0.944805  0.932813  1
  B  B18  1  0.000000  0.444805  0.567187  1
  B  B19  1  0.000000  0.555195  0.432813  1
  B  B20  1  0.000000  0.482355  0.285318  1
  B  B21  1  0.000000  0.517645  0.714682  1
  B  B22  1  0.000000  0.017645  0.785318  1
  B  B23  1  0.000000  0.982355  0.214682  1
  B  B24  1  0.000000  0.253058  0.080937  1
  B  B25  1  0.000000  0.746942  0.919063  1
  B  B26  1  0.000000  0.246942  0.580937  1
  B  B27  1  0.000000  0.753058  0.419063  1
  B  B28  1  0.000000  0.294069  0.234805  1
  B  B29  1  0.000000  0.705931  0.765195  1
  B  B30  1  0.000000  0.205931  0.734805  1
  B  B31  1  0.000000  0.794069  0.265195  1
  Ru  Ru32  1  0.500000  0.140498  0.181429  1
  Ru  Ru33  1  0.500000  0.859502  0.818571  1
  Ru  Ru34  1  0.500000  0.359502  0.681429  1
  Ru  Ru35  1  0.500000  0.640498  0.318571  1
