# generated using pymatgen
data_Sm2Er3Lu(RuI3)2
_symmetry_space_group_name_H-M   'P 1'
_cell_length_a   4.22148100
_cell_length_b   8.92948783
_cell_length_c   12.31315870
_cell_angle_alpha   94.58869393
_cell_angle_beta   90.00000000
_cell_angle_gamma   90.00000000
_symmetry_Int_Tables_number   1
_chemical_formula_structural   Sm2Er3Lu(RuI3)2
_chemical_formula_sum   'Sm2 Er3 Lu1 Ru2 I6'
_cell_volume   462.66492757
_cell_formula_units_Z   1
loop_
 _symmetry_equiv_pos_site_id
 _symmetry_equiv_pos_as_xyz
  1  'x, y, z'
loop_
 _atom_site_type_symbol
 _atom_site_label
 _atom_site_symmetry_multiplicity
 _atom_site_fract_x
 _atom_site_fract_y
 _atom_site_fract_z
 _atom_site_occupancy
  Sm  Sm0  1  0.750000  0.270044  0.604112  1
  Sm  Sm1  1  0.250000  0.730803  0.397448  1
  Er  Er2  1  0.250000  0.122107  0.374126  1
  Er  Er3  1  0.750000  0.897078  0.185264  1
  Er  Er4  1  0.250000  0.100903  0.814364  1
  Lu  Lu5  1  0.750000  0.881303  0.625171  1
  Ru  Ru6  1  0.750000  0.942488  0.406626  1
  Ru  Ru7  1  0.250000  0.056579  0.593681  1
  I  I8  1  0.750000  0.417766  0.363365  1
  I  I9  1  0.250000  0.584783  0.637686  1
  I  I10  1  0.750000  0.863959  0.888305  1
  I  I11  1  0.250000  0.133436  0.109513  1
  I  I12  1  0.750000  0.351697  0.868975  1
  I  I13  1  0.250000  0.647053  0.131363  1
