# generated using pymatgen
data_Ac2P3Au
_symmetry_space_group_name_H-M   'P 1'
_cell_length_a   8.09019300
_cell_length_b   4.39254600
_cell_length_c   16.95566400
_cell_angle_alpha   90.00000000
_cell_angle_beta   90.00000000
_cell_angle_gamma   90.00000000
_symmetry_Int_Tables_number   1
_chemical_formula_structural   Ac2P3Au
_chemical_formula_sum   'Ac8 P12 Au4'
_cell_volume   602.54571507
_cell_formula_units_Z   4
loop_
 _symmetry_equiv_pos_site_id
 _symmetry_equiv_pos_as_xyz
  1  'x, y, z'
loop_
 _atom_site_type_symbol
 _atom_site_label
 _atom_site_symmetry_multiplicity
 _atom_site_fract_x
 _atom_site_fract_y
 _atom_site_fract_z
 _atom_site_occupancy
  Ac  Ac0  1  0.259530  0.750000  0.019593  1
  Ac  Ac1  1  0.907861  0.750000  0.209730  1
  Ac  Ac2  1  0.407860  0.750000  0.290270  1
  Ac  Ac3  1  0.759529  0.750000  0.480407  1
  Ac  Ac4  1  0.240470  0.249999  0.519593  1
  Ac  Ac5  1  0.592139  0.249999  0.709730  1
  Ac  Ac6  1  0.092139  0.249999  0.790270  1
  Ac  Ac7  1  0.740471  0.249999  0.980407  1
  P  P8  1  0.609266  0.750000  0.096031  1
  P  P9  1  0.033338  0.249999  0.094805  1
  P  P10  1  0.201393  0.249999  0.197693  1
  P  P11  1  0.701392  0.249999  0.302307  1
  P  P12  1  0.533338  0.249999  0.405195  1
  P  P13  1  0.109266  0.750000  0.403969  1
  P  P14  1  0.890734  0.249999  0.596031  1
  P  P15  1  0.466661  0.750000  0.594805  1
  P  P16  1  0.298607  0.750000  0.697692  1
  P  P17  1  0.798607  0.750000  0.802307  1
  P  P18  1  0.966661  0.750000  0.905195  1
  P  P19  1  0.390733  0.249999  0.903969  1
  Au  Au20  1  0.498601  0.249999  0.141628  1
  Au  Au21  1  0.998600  0.249999  0.358372  1
  Au  Au22  1  0.001399  0.750000  0.641628  1
  Au  Au23  1  0.501399  0.750000  0.858372  1
