# generated using pymatgen
data_Ho4Si4OsRu2Rh
_symmetry_space_group_name_H-M   'P 1'
_cell_length_a   4.31090100
_cell_length_b   6.95504338
_cell_length_c   7.16068725
_cell_angle_alpha   89.90703960
_cell_angle_beta   90.00000000
_cell_angle_gamma   90.00000000
_symmetry_Int_Tables_number   1
_chemical_formula_structural   Ho4Si4OsRu2Rh
_chemical_formula_sum   'Ho4 Si4 Os1 Ru2 Rh1'
_cell_volume   214.69504757
_cell_formula_units_Z   1
loop_
 _symmetry_equiv_pos_site_id
 _symmetry_equiv_pos_as_xyz
  1  'x, y, z'
loop_
 _atom_site_type_symbol
 _atom_site_label
 _atom_site_symmetry_multiplicity
 _atom_site_fract_x
 _atom_site_fract_y
 _atom_site_fract_z
 _atom_site_occupancy
  Ho  Ho0  1  0.250000  0.485754  0.687294  1
  Ho  Ho1  1  0.750000  0.513143  0.312438  1
  Ho  Ho2  1  0.250000  0.992680  0.815042  1
  Ho  Ho3  1  0.750000  0.011368  0.185486  1
  Si  Si4  1  0.250000  0.300967  0.108295  1
  Si  Si5  1  0.750000  0.698111  0.884578  1
  Si  Si6  1  0.250000  0.801589  0.400329  1
  Si  Si7  1  0.750000  0.196206  0.605693  1
  Os  Os8  1  0.750000  0.844362  0.567629  1
  Ru  Ru9  1  0.250000  0.153725  0.432069  1
  Ru  Ru10  1  0.750000  0.348056  0.934993  1
  Rh  Rh11  1  0.250000  0.654039  0.066156  1
