# generated using pymatgen
data_Er4Al17Ga(Ir2Pd)2
_symmetry_space_group_name_H-M   'P 1'
_cell_length_a   7.56012276
_cell_length_b   7.56047079
_cell_length_c   9.44246400
_cell_angle_alpha   90.00000000
_cell_angle_beta   90.00000000
_cell_angle_gamma   119.50543941
_symmetry_Int_Tables_number   1
_chemical_formula_structural   Er4Al17Ga(Ir2Pd)2
_chemical_formula_sum   'Er4 Al17 Ga1 Ir4 Pd2'
_cell_volume   469.71720902
_cell_formula_units_Z   1
loop_
 _symmetry_equiv_pos_site_id
 _symmetry_equiv_pos_as_xyz
  1  'x, y, z'
loop_
 _atom_site_type_symbol
 _atom_site_label
 _atom_site_symmetry_multiplicity
 _atom_site_fract_x
 _atom_site_fract_y
 _atom_site_fract_z
 _atom_site_occupancy
  Er  Er0  1  0.994489  0.674766  0.250000  1
  Er  Er1  1  0.003753  0.328770  0.750000  1
  Er  Er2  1  0.674756  0.994493  0.250000  1
  Er  Er3  1  0.328764  0.003751  0.750000  1
  Al  Al4  1  0.870095  0.870088  0.750000  1
  Al  Al5  1  0.000771  0.339397  0.076717  1
  Al  Al6  1  0.998895  0.661423  0.923136  1
  Al  Al7  1  0.998895  0.661423  0.576864  1
  Al  Al8  1  0.339409  0.000764  0.423278  1
  Al  Al9  1  0.000771  0.339397  0.423283  1
  Al  Al10  1  0.661411  0.998898  0.576866  1
  Al  Al11  1  0.661411  0.998898  0.923134  1
  Al  Al12  1  0.339409  0.000764  0.076722  1
  Al  Al13  1  0.335667  0.335682  0.558451  1
  Al  Al14  1  0.661965  0.661949  0.444540  1
  Al  Al15  1  0.661965  0.661949  0.055460  1
  Al  Al16  1  0.335667  0.335682  0.941549  1
  Al  Al17  1  0.337211  0.550359  0.250000  1
  Al  Al18  1  0.662439  0.451479  0.750000  1
  Al  Al19  1  0.550357  0.337211  0.250000  1
  Al  Al20  1  0.451483  0.662437  0.750000  1
  Ga  Ga21  1  0.136120  0.136122  0.250000  1
  Ir  Ir22  1  0.671205  0.327081  0.999952  1
  Ir  Ir23  1  0.327084  0.671207  0.999955  1
  Ir  Ir24  1  0.327084  0.671207  0.500045  1
  Ir  Ir25  1  0.671205  0.327081  0.500048  1
  Pd  Pd26  1  0.998860  0.998859  0.998704  1
  Pd  Pd27  1  0.998860  0.998859  0.501296  1
