# generated using pymatgen
data_Nd3MgCd2PtPb2
_symmetry_space_group_name_H-M   'P 1'
_cell_length_a   7.56885600
_cell_length_b   7.62782063
_cell_length_c   4.73336500
_cell_angle_alpha   90.00000000
_cell_angle_beta   90.00000000
_cell_angle_gamma   119.74462322
_symmetry_Int_Tables_number   1
_chemical_formula_structural   Nd3MgCd2PtPb2
_chemical_formula_sum   'Nd3 Mg1 Cd2 Pt1 Pb2'
_cell_volume   237.27019626
_cell_formula_units_Z   1
loop_
 _symmetry_equiv_pos_site_id
 _symmetry_equiv_pos_as_xyz
  1  'x, y, z'
loop_
 _atom_site_type_symbol
 _atom_site_label
 _atom_site_symmetry_multiplicity
 _atom_site_fract_x
 _atom_site_fract_y
 _atom_site_fract_z
 _atom_site_occupancy
  Nd  Nd0  1  0.393376  0.395938  0.000000  1
  Nd  Nd1  1  0.613395  0.000000  0.000000  1
  Nd  Nd2  1  0.997438  0.604062  0.000000  1
  Mg  Mg3  1  0.218104  0.000000  0.500000  1
  Cd  Cd4  1  0.001445  0.230510  0.500000  1
  Cd  Cd5  1  0.770935  0.769490  0.500000  1
  Pt  Pt6  1  0.014075  0.000000  0.000000  1
  Pb  Pb7  1  0.659191  0.327151  0.500000  1
  Pb  Pb8  1  0.332039  0.672849  0.500000  1
