# generated using pymatgen
data_ZrSc3Tc8
_symmetry_space_group_name_H-M   'P 1'
_cell_length_a   5.25546700
_cell_length_b   5.25546731
_cell_length_c   8.61389600
_cell_angle_alpha   90.00000000
_cell_angle_beta   90.00000000
_cell_angle_gamma   120.00000434
_symmetry_Int_Tables_number   1
_chemical_formula_structural   ZrSc3Tc8
_chemical_formula_sum   'Zr1 Sc3 Tc8'
_cell_volume   206.04063949
_cell_formula_units_Z   1
loop_
 _symmetry_equiv_pos_site_id
 _symmetry_equiv_pos_as_xyz
  1  'x, y, z'
loop_
 _atom_site_type_symbol
 _atom_site_label
 _atom_site_symmetry_multiplicity
 _atom_site_fract_x
 _atom_site_fract_y
 _atom_site_fract_z
 _atom_site_occupancy
  Zr  Zr0  1  0.333333  0.666667  0.437365  1
  Sc  Sc1  1  0.666667  0.333333  0.563163  1
  Sc  Sc2  1  0.666667  0.333333  0.937913  1
  Sc  Sc3  1  0.333333  0.666667  0.061116  1
  Tc  Tc4  1  0.000000  0.000000  0.500336  1
  Tc  Tc5  1  0.000000  0.000000  0.000487  1
  Tc  Tc6  1  0.827850  0.172150  0.249820  1
  Tc  Tc7  1  0.827850  0.655701  0.249820  1
  Tc  Tc8  1  0.344299  0.172150  0.249820  1
  Tc  Tc9  1  0.171910  0.828090  0.750054  1
  Tc  Tc10  1  0.171910  0.343819  0.750054  1
  Tc  Tc11  1  0.656181  0.828090  0.750054  1
