# generated using pymatgen
data_Nb4Pd(RhSe6)2
_symmetry_space_group_name_H-M   'P 1'
_cell_length_a   7.57612469
_cell_length_b   7.57612394
_cell_length_c   19.67234232
_cell_angle_alpha   69.86946689
_cell_angle_beta   69.86946891
_cell_angle_gamma   26.68393159
_symmetry_Int_Tables_number   1
_chemical_formula_structural   Nb4Pd(RhSe6)2
_chemical_formula_sum   'Nb4 Pd1 Rh2 Se12'
_cell_volume   474.28558795
_cell_formula_units_Z   1
loop_
 _symmetry_equiv_pos_site_id
 _symmetry_equiv_pos_as_xyz
  1  'x, y, z'
loop_
 _atom_site_type_symbol
 _atom_site_label
 _atom_site_symmetry_multiplicity
 _atom_site_fract_x
 _atom_site_fract_y
 _atom_site_fract_z
 _atom_site_occupancy
  Nb  Nb0  1  0.745201  0.745201  0.592583  1
  Nb  Nb1  1  0.254799  0.254799  0.407417  1
  Nb  Nb2  1  0.621187  0.621187  0.849629  1
  Nb  Nb3  1  0.378813  0.378813  0.150371  1
  Pd  Pd4  1  0.000000  0.000000  0.000000  1
  Rh  Rh5  1  0.772681  0.772681  0.282420  1
  Rh  Rh6  1  0.227319  0.227319  0.717580  1
  Se  Se7  1  0.858977  0.858977  0.451042  1
  Se  Se8  1  0.021217  0.021217  0.119180  1
  Se  Se9  1  0.801165  0.801165  0.770668  1
  Se  Se10  1  0.395848  0.395848  0.282061  1
  Se  Se11  1  0.175928  0.175928  0.927721  1
  Se  Se12  1  0.604152  0.604152  0.717939  1
  Se  Se13  1  0.141023  0.141023  0.548958  1
  Se  Se14  1  0.824072  0.824072  0.072279  1
  Se  Se15  1  0.370295  0.370295  0.601655  1
  Se  Se16  1  0.978783  0.978783  0.880820  1
  Se  Se17  1  0.198835  0.198835  0.229332  1
  Se  Se18  1  0.629705  0.629705  0.398345  1
