# generated using pymatgen
data_Y4TcOs6W
_symmetry_space_group_name_H-M   'P 1'
_cell_length_a   5.25400607
_cell_length_b   5.25400580
_cell_length_c   9.03286600
_cell_angle_alpha   90.00000000
_cell_angle_beta   90.00000000
_cell_angle_gamma   117.00446599
_symmetry_Int_Tables_number   1
_chemical_formula_structural   Y4TcOs6W
_chemical_formula_sum   'Y4 Tc1 Os6 W1'
_cell_volume   222.16227808
_cell_formula_units_Z   1
loop_
 _symmetry_equiv_pos_site_id
 _symmetry_equiv_pos_as_xyz
  1  'x, y, z'
loop_
 _atom_site_type_symbol
 _atom_site_label
 _atom_site_symmetry_multiplicity
 _atom_site_fract_x
 _atom_site_fract_y
 _atom_site_fract_z
 _atom_site_occupancy
  Y  Y0  1  0.329116  0.670884  0.437199  1
  Y  Y1  1  0.666951  0.333049  0.565403  1
  Y  Y2  1  0.666951  0.333049  0.934597  1
  Y  Y3  1  0.329116  0.670884  0.062801  1
  Tc  Tc4  1  0.172576  0.827424  0.750000  1
  Os  Os5  1  0.994378  0.005622  0.502664  1
  Os  Os6  1  0.994378  0.005622  0.997336  1
  Os  Os7  1  0.824040  0.648409  0.250000  1
  Os  Os8  1  0.351591  0.175960  0.250000  1
  Os  Os9  1  0.171667  0.341967  0.750000  1
  Os  Os10  1  0.658033  0.828333  0.750000  1
  W  W11  1  0.841203  0.158797  0.250000  1
