# generated using pymatgen
data_La8Y11HoGa16
_symmetry_space_group_name_H-M   'P 1'
_cell_length_a   7.78223500
_cell_length_b   8.07793404
_cell_length_c   15.36107200
_cell_angle_alpha   90.00000000
_cell_angle_beta   90.00000000
_cell_angle_gamma   90.00558209
_symmetry_Int_Tables_number   1
_chemical_formula_structural   La8Y11HoGa16
_chemical_formula_sum   'La8 Y11 Ho1 Ga16'
_cell_volume   965.66427821
_cell_formula_units_Z   1
loop_
 _symmetry_equiv_pos_site_id
 _symmetry_equiv_pos_as_xyz
  1  'x, y, z'
loop_
 _atom_site_type_symbol
 _atom_site_label
 _atom_site_symmetry_multiplicity
 _atom_site_fract_x
 _atom_site_fract_y
 _atom_site_fract_z
 _atom_site_occupancy
  La  La0  1  0.976282  0.822214  0.096648  1
  La  La1  1  0.476293  0.677811  0.403369  1
  La  La2  1  0.523668  0.322001  0.903099  1
  La  La3  1  0.023980  0.177651  0.596890  1
  La  La4  1  0.023980  0.177651  0.903110  1
  La  La5  1  0.523668  0.322001  0.596901  1
  La  La6  1  0.476293  0.677811  0.096631  1
  La  La7  1  0.976282  0.822214  0.403352  1
  Y  Y8  1  0.651376  0.989984  0.250000  1
  Y  Y9  1  0.151408  0.510005  0.250000  1
  Y  Y10  1  0.848577  0.489975  0.750000  1
  Y  Y11  1  0.680944  0.822711  0.877347  1
  Y  Y12  1  0.181291  0.677583  0.622631  1
  Y  Y13  1  0.818864  0.322586  0.122514  1
  Y  Y14  1  0.318882  0.177428  0.377496  1
  Y  Y15  1  0.318882  0.177428  0.122504  1
  Y  Y16  1  0.818864  0.322586  0.377486  1
  Y  Y17  1  0.181291  0.677583  0.877369  1
  Y  Y18  1  0.680944  0.822711  0.622653  1
  Ho  Ho19  1  0.348221  0.010083  0.750000  1
  Ga  Ga20  1  0.768446  0.619086  0.250000  1
  Ga  Ga21  1  0.268437  0.880947  0.250000  1
  Ga  Ga22  1  0.731004  0.118979  0.750000  1
  Ga  Ga23  1  0.231595  0.380429  0.750000  1
  Ga  Ga24  1  0.023853  0.112944  0.250000  1
  Ga  Ga25  1  0.523844  0.387073  0.250000  1
  Ga  Ga26  1  0.476152  0.613061  0.750000  1
  Ga  Ga27  1  0.976589  0.887281  0.750000  1
  Ga  Ga28  1  0.854038  0.531053  0.959188  1
  Ga  Ga29  1  0.354063  0.969018  0.540925  1
  Ga  Ga30  1  0.645980  0.031024  0.040762  1
  Ga  Ga31  1  0.145963  0.468997  0.459222  1
  Ga  Ga32  1  0.145963  0.468997  0.040778  1
  Ga  Ga33  1  0.645980  0.031024  0.459238  1
  Ga  Ga34  1  0.354063  0.969018  0.959075  1
  Ga  Ga35  1  0.854038  0.531053  0.540812  1
