# generated using pymatgen
data_Er3Lu(TcB6)2
_symmetry_space_group_name_H-M   'P 1'
_cell_length_a   3.64838900
_cell_length_b   9.09973100
_cell_length_c   11.46741200
_cell_angle_alpha   89.99682445
_cell_angle_beta   90.00000000
_cell_angle_gamma   90.00000000
_symmetry_Int_Tables_number   1
_chemical_formula_structural   Er3Lu(TcB6)2
_chemical_formula_sum   'Er6 Lu2 Tc4 B24'
_cell_volume   380.71072157
_cell_formula_units_Z   2
loop_
 _symmetry_equiv_pos_site_id
 _symmetry_equiv_pos_as_xyz
  1  'x, y, z'
loop_
 _atom_site_type_symbol
 _atom_site_label
 _atom_site_symmetry_multiplicity
 _atom_site_fract_x
 _atom_site_fract_y
 _atom_site_fract_z
 _atom_site_occupancy
  Er  Er0  1  0.000000  0.823812  0.085912  1
  Er  Er1  1  0.000000  0.176188  0.914088  1
  Er  Er2  1  0.000000  0.323451  0.414372  1
  Er  Er3  1  0.000000  0.676549  0.585628  1
  Er  Er4  1  0.000000  0.442870  0.130809  1
  Er  Er5  1  0.000000  0.557130  0.869191  1
  Lu  Lu6  1  0.000000  0.943011  0.369609  1
  Lu  Lu7  1  0.000000  0.056989  0.630391  1
  Tc  Tc8  1  0.000000  0.138360  0.180476  1
  Tc  Tc9  1  0.000000  0.861640  0.819524  1
  Tc  Tc10  1  0.000000  0.639999  0.320707  1
  Tc  Tc11  1  0.000000  0.360001  0.679293  1
  B  B12  1  0.500000  0.053155  0.067040  1
  B  B13  1  0.500000  0.946845  0.932960  1
  B  B14  1  0.500000  0.553647  0.433255  1
  B  B15  1  0.500000  0.446353  0.566745  1
  B  B16  1  0.500000  0.249217  0.081313  1
  B  B17  1  0.500000  0.750783  0.918687  1
  B  B18  1  0.500000  0.750820  0.418986  1
  B  B19  1  0.500000  0.249180  0.581014  1
  B  B20  1  0.500000  0.292022  0.235474  1
  B  B21  1  0.500000  0.707978  0.764526  1
  B  B22  1  0.500000  0.793396  0.265166  1
  B  B23  1  0.500000  0.206604  0.734834  1
  B  B24  1  0.500000  0.129818  0.315736  1
  B  B25  1  0.500000  0.870182  0.684264  1
  B  B26  1  0.500000  0.631150  0.185234  1
  B  B27  1  0.500000  0.368850  0.814766  1
  B  B28  1  0.500000  0.482025  0.288537  1
  B  B29  1  0.500000  0.517975  0.711463  1
  B  B30  1  0.500000  0.981201  0.212359  1
  B  B31  1  0.500000  0.018799  0.787641  1
  B  B32  1  0.500000  0.098275  0.472640  1
  B  B33  1  0.500000  0.901725  0.527360  1
  B  B34  1  0.500000  0.600254  0.027838  1
  B  B35  1  0.500000  0.399746  0.972162  1
