# generated using pymatgen
data_Nd5GeBi2Pb
_symmetry_space_group_name_H-M   'P 1'
_cell_length_a   9.69825500
_cell_length_b   9.70398595
_cell_length_c   6.65489300
_cell_angle_alpha   90.00000000
_cell_angle_beta   90.00000000
_cell_angle_gamma   120.01954180
_symmetry_Int_Tables_number   1
_chemical_formula_structural   Nd5GeBi2Pb
_chemical_formula_sum   'Nd10 Ge2 Bi4 Pb2'
_cell_volume   542.28789934
_cell_formula_units_Z   2
loop_
 _symmetry_equiv_pos_site_id
 _symmetry_equiv_pos_as_xyz
  1  'x, y, z'
loop_
 _atom_site_type_symbol
 _atom_site_label
 _atom_site_symmetry_multiplicity
 _atom_site_fract_x
 _atom_site_fract_y
 _atom_site_fract_z
 _atom_site_occupancy
  Nd  Nd0  1  0.665189  0.331944  0.998541  1
  Nd  Nd1  1  0.334811  0.666757  0.998541  1
  Nd  Nd2  1  0.334811  0.666757  0.501459  1
  Nd  Nd3  1  0.665189  0.331944  0.501459  1
  Nd  Nd4  1  0.745452  0.746723  0.750000  1
  Nd  Nd5  1  0.254548  0.001271  0.750000  1
  Nd  Nd6  1  0.000000  0.254764  0.750000  1
  Nd  Nd7  1  0.252197  0.253082  0.250000  1
  Nd  Nd8  1  0.747803  0.000885  0.250000  1
  Nd  Nd9  1  0.000000  0.747300  0.250000  1
  Ge  Ge10  1  0.000000  0.999981  0.998439  1
  Ge  Ge11  1  0.000000  0.999981  0.501561  1
  Bi  Bi12  1  0.000000  0.609656  0.750000  1
  Bi  Bi13  1  0.608543  0.608155  0.250000  1
  Bi  Bi14  1  0.391457  0.999612  0.250000  1
  Bi  Bi15  1  0.000000  0.390854  0.250000  1
  Pb  Pb16  1  0.390385  0.390359  0.750000  1
  Pb  Pb17  1  0.609615  0.999974  0.750000  1
