# generated using pymatgen
data_YbGaSiRh2
_symmetry_space_group_name_H-M   'P 1'
_cell_length_a   5.83048270
_cell_length_b   5.83048235
_cell_length_c   5.83048290
_cell_angle_alpha   138.09823204
_cell_angle_beta   138.09822926
_cell_angle_gamma   60.75258375
_symmetry_Int_Tables_number   1
_chemical_formula_structural   YbGaSiRh2
_chemical_formula_sum   'Yb1 Ga1 Si1 Rh2'
_cell_volume   87.45024517
_cell_formula_units_Z   1
loop_
 _symmetry_equiv_pos_site_id
 _symmetry_equiv_pos_as_xyz
  1  'x, y, z'
loop_
 _atom_site_type_symbol
 _atom_site_label
 _atom_site_symmetry_multiplicity
 _atom_site_fract_x
 _atom_site_fract_y
 _atom_site_fract_z
 _atom_site_occupancy
  Yb  Yb0  1  0.998801  0.998801  0.000000  1
  Ga  Ga1  1  0.619568  0.619568  0.000000  1
  Si  Si2  1  0.366857  0.366857  0.000000  1
  Rh  Rh3  1  0.257387  0.757387  0.500000  1
  Rh  Rh4  1  0.757387  0.257387  0.500000  1
