# generated using pymatgen
data_Yb6Ga15(Cu5Pd4)2
_symmetry_space_group_name_H-M   'P 1'
_cell_length_a   8.55716178
_cell_length_b   8.55262849
_cell_length_c   8.64562738
_cell_angle_alpha   90.26238531
_cell_angle_beta   89.97578079
_cell_angle_gamma   89.95740579
_symmetry_Int_Tables_number   1
_chemical_formula_structural   Yb6Ga15(Cu5Pd4)2
_chemical_formula_sum   'Yb6 Ga15 Cu10 Pd8'
_cell_volume   632.73396946
_cell_formula_units_Z   1
loop_
 _symmetry_equiv_pos_site_id
 _symmetry_equiv_pos_as_xyz
  1  'x, y, z'
loop_
 _atom_site_type_symbol
 _atom_site_label
 _atom_site_symmetry_multiplicity
 _atom_site_fract_x
 _atom_site_fract_y
 _atom_site_fract_z
 _atom_site_occupancy
  Yb  Yb0  1  0.802808  0.999689  0.501223  1
  Yb  Yb1  1  0.000432  0.498648  0.803510  1
  Yb  Yb2  1  0.500392  0.802470  0.000054  1
  Yb  Yb3  1  0.000461  0.499732  0.194513  1
  Yb  Yb4  1  0.500682  0.199307  0.000775  1
  Yb  Yb5  1  0.197252  0.999621  0.501361  1
  Ga  Ga6  1  0.285369  0.718028  0.283574  1
  Ga  Ga7  1  0.719157  0.280749  0.282683  1
  Ga  Ga8  1  0.287508  0.281508  0.718195  1
  Ga  Ga9  1  0.716962  0.720037  0.716539  1
  Ga  Ga10  1  0.715197  0.279373  0.718924  1
  Ga  Ga11  1  0.285782  0.718482  0.716017  1
  Ga  Ga12  1  0.717343  0.719869  0.282760  1
  Ga  Ga13  1  0.284411  0.282263  0.282960  1
  Ga  Ga14  1  0.685020  0.500103  0.999919  1
  Ga  Ga15  1  0.500305  0.999557  0.685266  1
  Ga  Ga16  1  0.993295  0.669194  0.498709  1
  Ga  Ga17  1  0.500338  0.000216  0.314038  1
  Ga  Ga18  1  0.993795  0.325258  0.492627  1
  Ga  Ga19  1  0.317118  0.500075  0.000121  1
  Ga  Ga20  1  0.000349  0.000732  0.999379  1
  Cu  Cu21  1  0.167330  0.749572  0.000815  1
  Cu  Cu22  1  0.743542  0.001042  0.845825  1
  Cu  Cu23  1  0.744631  0.002179  0.156130  1
  Cu  Cu24  1  0.837469  0.250674  0.005005  1
  Cu  Cu25  1  0.255737  0.001155  0.844453  1
  Cu  Cu26  1  0.833193  0.749996  0.000901  1
  Cu  Cu27  1  0.728559  0.498787  0.498494  1
  Cu  Cu28  1  0.999759  0.165053  0.249061  1
  Cu  Cu29  1  0.254008  0.002780  0.158588  1
  Cu  Cu30  1  0.163286  0.251176  0.004767  1
  Pd  Pd31  1  0.000432  0.836061  0.257436  1
  Pd  Pd32  1  0.000255  0.172397  0.742791  1
  Pd  Pd33  1  0.000479  0.827760  0.745733  1
  Pd  Pd34  1  0.252969  0.498256  0.499288  1
  Pd  Pd35  1  0.503426  0.248638  0.499382  1
  Pd  Pd36  1  0.504150  0.499791  0.251955  1
  Pd  Pd37  1  0.502816  0.749303  0.499198  1
  Pd  Pd38  1  0.503981  0.500470  0.747032  1
