# generated using pymatgen
data_Dy4Er15TmSn16
_symmetry_space_group_name_H-M   'P 1'
_cell_length_a   7.99239456
_cell_length_b   8.10769152
_cell_length_c   15.34606216
_cell_angle_alpha   90.01504813
_cell_angle_beta   90.04189883
_cell_angle_gamma   89.97059744
_symmetry_Int_Tables_number   1
_chemical_formula_structural   Dy4Er15TmSn16
_chemical_formula_sum   'Dy4 Er15 Tm1 Sn16'
_cell_volume   994.42239577
_cell_formula_units_Z   1
loop_
 _symmetry_equiv_pos_site_id
 _symmetry_equiv_pos_as_xyz
  1  'x, y, z'
loop_
 _atom_site_type_symbol
 _atom_site_label
 _atom_site_symmetry_multiplicity
 _atom_site_fract_x
 _atom_site_fract_y
 _atom_site_fract_z
 _atom_site_occupancy
  Dy  Dy0  1  0.479263  0.678539  0.096398  1
  Dy  Dy1  1  0.979414  0.821297  0.403559  1
  Dy  Dy2  1  0.521010  0.321520  0.596564  1
  Dy  Dy3  1  0.020578  0.178748  0.903637  1
  Er  Er4  1  0.367628  0.837407  0.877173  1
  Er  Er5  1  0.867711  0.662263  0.622469  1
  Er  Er6  1  0.632179  0.162562  0.377285  1
  Er  Er7  1  0.132655  0.337721  0.122353  1
  Er  Er8  1  0.631708  0.162297  0.122761  1
  Er  Er9  1  0.131964  0.338035  0.377641  1
  Er  Er10  1  0.368147  0.837663  0.622718  1
  Er  Er11  1  0.867897  0.662006  0.877519  1
  Er  Er12  1  0.521948  0.321316  0.902774  1
  Er  Er13  1  0.021877  0.179017  0.597220  1
  Er  Er14  1  0.477943  0.678709  0.402778  1
  Er  Er15  1  0.978256  0.821004  0.097036  1
  Er  Er16  1  0.698901  0.996327  0.749933  1
  Er  Er17  1  0.801071  0.496037  0.250050  1
  Er  Er18  1  0.301024  0.003856  0.250010  1
  Tm  Tm19  1  0.198983  0.504172  0.749968  1
  Sn  Sn20  1  0.292663  0.036323  0.041752  1
  Sn  Sn21  1  0.792334  0.462724  0.458179  1
  Sn  Sn22  1  0.707569  0.963354  0.541966  1
  Sn  Sn23  1  0.207639  0.536780  0.957842  1
  Sn  Sn24  1  0.706315  0.962164  0.958800  1
  Sn  Sn25  1  0.207165  0.538342  0.541649  1
  Sn  Sn26  1  0.293049  0.038110  0.458844  1
  Sn  Sn27  1  0.793051  0.461223  0.041119  1
  Sn  Sn28  1  0.565230  0.618197  0.750091  1
  Sn  Sn29  1  0.065020  0.881603  0.749941  1
  Sn  Sn30  1  0.434203  0.381828  0.250090  1
  Sn  Sn31  1  0.934866  0.118447  0.249909  1
  Sn  Sn32  1  0.331418  0.149475  0.750267  1
  Sn  Sn33  1  0.832195  0.351123  0.749792  1
  Sn  Sn34  1  0.668635  0.850941  0.250238  1
  Sn  Sn35  1  0.168486  0.648870  0.249676  1
