# generated using pymatgen
data_Ta3Ti2Nb7Al8(PdC)4
_symmetry_space_group_name_H-M   'P 1'
_cell_length_a   8.33809647
_cell_length_b   8.33809684
_cell_length_c   8.34665700
_cell_angle_alpha   59.97879189
_cell_angle_beta   59.97878246
_cell_angle_gamma   60.07540339
_symmetry_Int_Tables_number   1
_chemical_formula_structural   Ta3Ti2Nb7Al8(PdC)4
_chemical_formula_sum   'Ta3 Ti2 Nb7 Al8 Pd4 C4'
_cell_volume   410.42973162
_cell_formula_units_Z   1
loop_
 _symmetry_equiv_pos_site_id
 _symmetry_equiv_pos_as_xyz
  1  'x, y, z'
loop_
 _atom_site_type_symbol
 _atom_site_label
 _atom_site_symmetry_multiplicity
 _atom_site_fract_x
 _atom_site_fract_y
 _atom_site_fract_z
 _atom_site_occupancy
  Ta  Ta0  1  0.932245  0.932467  0.569937  1
  Ta  Ta1  1  0.683200  0.319486  0.680586  1
  Ta  Ta2  1  0.932252  0.569469  0.930403  1
  Ti  Ti3  1  0.568198  0.930257  0.569388  1
  Ti  Ti4  1  0.319740  0.681973  0.680903  1
  Nb  Nb5  1  0.681823  0.316807  0.318982  1
  Nb  Nb6  1  0.316188  0.681423  0.318536  1
  Nb  Nb7  1  0.683819  0.681720  0.319773  1
  Nb  Nb8  1  0.317182  0.317281  0.681138  1
  Nb  Nb9  1  0.568177  0.565939  0.930577  1
  Nb  Nb10  1  0.931430  0.566104  0.568691  1
  Nb  Nb11  1  0.569131  0.933822  0.931437  1
  Al  Al12  1  0.916631  0.916618  0.916970  1
  Al  Al13  1  0.999034  0.333891  0.333432  1
  Al  Al14  1  0.334080  0.996138  0.335984  1
  Al  Al15  1  0.334077  0.336228  0.995503  1
  Al  Al16  1  0.916443  0.251066  0.916255  1
  Al  Al17  1  0.913768  0.915672  0.254481  1
  Al  Al18  1  0.253915  0.916203  0.913954  1
  Al  Al19  1  0.333397  0.333236  0.333397  1
  Pd  Pd20  1  0.124155  0.125609  0.125852  1
  Pd  Pd21  1  0.624363  0.124983  0.125265  1
  Pd  Pd22  1  0.124922  0.626148  0.122554  1
  Pd  Pd23  1  0.124876  0.122995  0.625173  1
  C  C24  1  0.618972  0.629936  0.625357  1
  C  C25  1  0.126937  0.627360  0.626551  1
  C  C26  1  0.625539  0.121351  0.624773  1
  C  C27  1  0.625509  0.625816  0.124149  1
