# generated using pymatgen
data_TbY3(HoPd)4
_symmetry_space_group_name_H-M   'P 1'
_cell_length_a   4.87185500
_cell_length_b   7.17219047
_cell_length_c   8.72257133
_cell_angle_alpha   90.16236473
_cell_angle_beta   90.00000000
_cell_angle_gamma   90.00000000
_symmetry_Int_Tables_number   1
_chemical_formula_structural   TbY3(HoPd)4
_chemical_formula_sum   'Tb1 Y3 Ho4 Pd4'
_cell_volume   304.78174708
_cell_formula_units_Z   1
loop_
 _symmetry_equiv_pos_site_id
 _symmetry_equiv_pos_as_xyz
  1  'x, y, z'
loop_
 _atom_site_type_symbol
 _atom_site_label
 _atom_site_symmetry_multiplicity
 _atom_site_fract_x
 _atom_site_fract_y
 _atom_site_fract_z
 _atom_site_occupancy
  Tb  Tb0  1  0.250000  0.017772  0.330119  1
  Y  Y1  1  0.250000  0.517760  0.170620  1
  Y  Y2  1  0.750000  0.982316  0.671576  1
  Y  Y3  1  0.750000  0.482328  0.828919  1
  Ho  Ho4  1  0.250000  0.143359  0.920661  1
  Ho  Ho5  1  0.250000  0.644030  0.579124  1
  Ho  Ho6  1  0.750000  0.856523  0.079361  1
  Ho  Ho7  1  0.750000  0.356153  0.420464  1
  Pd  Pd8  1  0.250000  0.246833  0.595930  1
  Pd  Pd9  1  0.250000  0.747268  0.903581  1
  Pd  Pd10  1  0.750000  0.752953  0.403786  1
  Pd  Pd11  1  0.750000  0.252706  0.095857  1
