# generated using pymatgen
data_Tb2Ce2ErSn4
_symmetry_space_group_name_H-M   'P 1'
_cell_length_a   8.14597700
_cell_length_b   8.31158800
_cell_length_c   15.70299700
_cell_angle_alpha   90.00000000
_cell_angle_beta   90.00000000
_cell_angle_gamma   90.00000000
_symmetry_Int_Tables_number   1
_chemical_formula_structural   Tb2Ce2ErSn4
_chemical_formula_sum   'Tb8 Ce8 Er4 Sn16'
_cell_volume   1063.18718840
_cell_formula_units_Z   4
loop_
 _symmetry_equiv_pos_site_id
 _symmetry_equiv_pos_as_xyz
  1  'x, y, z'
loop_
 _atom_site_type_symbol
 _atom_site_label
 _atom_site_symmetry_multiplicity
 _atom_site_fract_x
 _atom_site_fract_y
 _atom_site_fract_z
 _atom_site_occupancy
  Tb  Tb0  1  0.363117  0.836888  0.877962  1
  Tb  Tb1  1  0.863117  0.663112  0.622038  1
  Tb  Tb2  1  0.636883  0.163112  0.377962  1
  Tb  Tb3  1  0.136883  0.336888  0.122038  1
  Tb  Tb4  1  0.636883  0.163112  0.122038  1
  Tb  Tb5  1  0.136883  0.336888  0.377962  1
  Tb  Tb6  1  0.363117  0.836888  0.622038  1
  Tb  Tb7  1  0.863117  0.663112  0.877962  1
  Ce  Ce8  1  0.515654  0.320204  0.903185  1
  Ce  Ce9  1  0.015654  0.179796  0.596815  1
  Ce  Ce10  1  0.484346  0.679796  0.403185  1
  Ce  Ce11  1  0.984346  0.820204  0.096815  1
  Ce  Ce12  1  0.484346  0.679796  0.096815  1
  Ce  Ce13  1  0.984346  0.820204  0.403185  1
  Ce  Ce14  1  0.515654  0.320204  0.596815  1
  Ce  Ce15  1  0.015654  0.179796  0.903185  1
  Er  Er16  1  0.196013  0.500809  0.750000  1
  Er  Er17  1  0.696013  0.999191  0.750000  1
  Er  Er18  1  0.803987  0.499191  0.250000  1
  Er  Er19  1  0.303987  0.000809  0.250000  1
  Sn  Sn20  1  0.298027  0.037887  0.042494  1
  Sn  Sn21  1  0.798027  0.462113  0.457506  1
  Sn  Sn22  1  0.701973  0.962113  0.542494  1
  Sn  Sn23  1  0.201973  0.537887  0.957506  1
  Sn  Sn24  1  0.701973  0.962113  0.957506  1
  Sn  Sn25  1  0.201973  0.537887  0.542494  1
  Sn  Sn26  1  0.298027  0.037887  0.457506  1
  Sn  Sn27  1  0.798027  0.462113  0.042494  1
  Sn  Sn28  1  0.560987  0.620952  0.750000  1
  Sn  Sn29  1  0.060987  0.879048  0.750000  1
  Sn  Sn30  1  0.439013  0.379048  0.250000  1
  Sn  Sn31  1  0.939013  0.120952  0.250000  1
  Sn  Sn32  1  0.325012  0.143654  0.750000  1
  Sn  Sn33  1  0.825012  0.356346  0.750000  1
  Sn  Sn34  1  0.674988  0.856346  0.250000  1
  Sn  Sn35  1  0.174988  0.643654  0.250000  1
