# generated using pymatgen
data_Eu4Tc3B16Ru
_symmetry_space_group_name_H-M   'P 1'
_cell_length_a   6.06546934
_cell_length_b   11.74977158
_cell_length_c   3.62959500
_cell_angle_alpha   90.00000000
_cell_angle_beta   90.00000000
_cell_angle_gamma   90.07596348
_symmetry_Int_Tables_number   1
_chemical_formula_structural   Eu4Tc3B16Ru
_chemical_formula_sum   'Eu4 Tc3 B16 Ru1'
_cell_volume   258.67331064
_cell_formula_units_Z   1
loop_
 _symmetry_equiv_pos_site_id
 _symmetry_equiv_pos_as_xyz
  1  'x, y, z'
loop_
 _atom_site_type_symbol
 _atom_site_label
 _atom_site_symmetry_multiplicity
 _atom_site_fract_x
 _atom_site_fract_y
 _atom_site_fract_z
 _atom_site_occupancy
  Eu  Eu0  1  0.627444  0.349653  0.000000  1
  Eu  Eu1  1  0.373455  0.650256  0.000000  1
  Eu  Eu2  1  0.126656  0.151044  0.000000  1
  Eu  Eu3  1  0.873166  0.849008  0.000000  1
  Tc  Tc4  1  0.628463  0.083782  0.000000  1
  Tc  Tc5  1  0.371282  0.915363  0.000000  1
  Tc  Tc6  1  0.132594  0.414308  0.000000  1
  B  B7  1  0.782583  0.183770  0.500000  1
  B  B8  1  0.217033  0.815973  0.500000  1
  B  B9  1  0.282350  0.316033  0.500000  1
  B  B10  1  0.717842  0.683723  0.500000  1
  B  B11  1  0.862090  0.032290  0.500000  1
  B  B12  1  0.137500  0.967570  0.500000  1
  B  B13  1  0.362308  0.468548  0.500000  1
  B  B14  1  0.638346  0.531883  0.500000  1
  B  B15  1  0.887569  0.454088  0.500000  1
  B  B16  1  0.111377  0.547030  0.500000  1
  B  B17  1  0.387097  0.046223  0.500000  1
  B  B18  1  0.612225  0.953464  0.500000  1
  B  B19  1  0.975715  0.309538  0.500000  1
  B  B20  1  0.024506  0.690503  0.500000  1
  B  B21  1  0.476837  0.190530  0.500000  1
  B  B22  1  0.523467  0.809173  0.500000  1
  Ru  Ru23  1  0.868094  0.586245  0.000000  1
