# generated using pymatgen
data_HfZr5Al6(Mo2N)2
_symmetry_space_group_name_H-M   'P 1'
_cell_length_a   7.97972590
_cell_length_b   7.97972712
_cell_length_c   5.37192500
_cell_angle_alpha   90.00000000
_cell_angle_beta   90.00000000
_cell_angle_gamma   120.24270998
_symmetry_Int_Tables_number   1
_chemical_formula_structural   HfZr5Al6(Mo2N)2
_chemical_formula_sum   'Hf1 Zr5 Al6 Mo4 N2'
_cell_volume   295.50798828
_cell_formula_units_Z   1
loop_
 _symmetry_equiv_pos_site_id
 _symmetry_equiv_pos_as_xyz
  1  'x, y, z'
loop_
 _atom_site_type_symbol
 _atom_site_label
 _atom_site_symmetry_multiplicity
 _atom_site_fract_x
 _atom_site_fract_y
 _atom_site_fract_z
 _atom_site_occupancy
  Hf  Hf0  1  0.228622  0.228622  0.750000  1
  Zr  Zr1  1  0.232487  0.000499  0.250000  1
  Zr  Zr2  1  0.000499  0.232487  0.250000  1
  Zr  Zr3  1  0.769744  0.769744  0.250000  1
  Zr  Zr4  1  0.767677  0.999637  0.750000  1
  Zr  Zr5  1  0.999637  0.767677  0.750000  1
  Al  Al6  1  0.584109  0.999723  0.250000  1
  Al  Al7  1  0.999723  0.584109  0.250000  1
  Al  Al8  1  0.415966  0.415966  0.250000  1
  Al  Al9  1  0.415530  0.999847  0.750000  1
  Al  Al10  1  0.999847  0.415530  0.750000  1
  Al  Al11  1  0.583083  0.583083  0.750000  1
  Mo  Mo12  1  0.665350  0.332890  0.999541  1
  Mo  Mo13  1  0.332890  0.665350  0.999541  1
  Mo  Mo14  1  0.665350  0.332890  0.500459  1
  Mo  Mo15  1  0.332890  0.665350  0.500459  1
  N  N16  1  0.003298  0.003298  0.998633  1
  N  N17  1  0.003298  0.003298  0.501367  1
