# generated using pymatgen
data_Na2Co5Ni5As6
_symmetry_space_group_name_H-M   'P 1'
_cell_length_a   3.73741600
_cell_length_b   10.70341300
_cell_length_c   12.30264800
_cell_angle_alpha   90.00000000
_cell_angle_beta   90.00000000
_cell_angle_gamma   90.00000000
_symmetry_Int_Tables_number   1
_chemical_formula_structural   Na2Co5Ni5As6
_chemical_formula_sum   'Na4 Co10 Ni10 As12'
_cell_volume   492.14414434
_cell_formula_units_Z   2
loop_
 _symmetry_equiv_pos_site_id
 _symmetry_equiv_pos_as_xyz
  1  'x, y, z'
loop_
 _atom_site_type_symbol
 _atom_site_label
 _atom_site_symmetry_multiplicity
 _atom_site_fract_x
 _atom_site_fract_y
 _atom_site_fract_z
 _atom_site_occupancy
  Na  Na0  1  0.250000  0.580750  0.704168  1
  Na  Na1  1  0.250000  0.919250  0.204168  1
  Na  Na2  1  0.750000  0.419090  0.296023  1
  Na  Na3  1  0.750000  0.080910  0.796023  1
  Co  Co4  1  0.750000  0.785448  0.825373  1
  Co  Co5  1  0.750000  0.714552  0.325373  1
  Co  Co6  1  0.250000  0.878647  0.695757  1
  Co  Co7  1  0.250000  0.621353  0.195757  1
  Co  Co8  1  0.750000  0.120413  0.304125  1
  Co  Co9  1  0.750000  0.379587  0.804125  1
  Co  Co10  1  0.250000  0.465581  0.933507  1
  Co  Co11  1  0.250000  0.034419  0.433507  1
  Co  Co12  1  0.750000  0.535904  0.066099  1
  Co  Co13  1  0.750000  0.964096  0.566099  1
  Ni  Ni14  1  0.250000  0.708098  0.988554  1
  Ni  Ni15  1  0.250000  0.791902  0.488554  1
  Ni  Ni16  1  0.750000  0.290076  0.009769  1
  Ni  Ni17  1  0.750000  0.209924  0.509769  1
  Ni  Ni18  1  0.250000  0.408124  0.486866  1
  Ni  Ni19  1  0.250000  0.091876  0.986866  1
  Ni  Ni20  1  0.750000  0.593339  0.513460  1
  Ni  Ni21  1  0.750000  0.906661  0.013460  1
  Ni  Ni22  1  0.250000  0.215418  0.175144  1
  Ni  Ni23  1  0.250000  0.284582  0.675144  1
  As  As24  1  0.250000  0.420993  0.116021  1
  As  As25  1  0.250000  0.079007  0.616021  1
  As  As26  1  0.750000  0.582282  0.883253  1
  As  As27  1  0.750000  0.917718  0.383253  1
  As  As28  1  0.250000  0.266058  0.867803  1
  As  As29  1  0.250000  0.233942  0.367803  1
  As  As30  1  0.750000  0.734768  0.134927  1
  As  As31  1  0.750000  0.765232  0.634927  1
  As  As32  1  0.250000  0.601547  0.387095  1
  As  As33  1  0.250000  0.898453  0.887095  1
  As  As34  1  0.750000  0.401837  0.612058  1
  As  As35  1  0.750000  0.098163  0.112058  1
