# generated using pymatgen
data_Er10IrOs3
_symmetry_space_group_name_H-M   'P 1'
_cell_length_a   6.34155081
_cell_length_b   7.31430941
_cell_length_c   8.31855617
_cell_angle_alpha   96.77094494
_cell_angle_beta   112.29151269
_cell_angle_gamma   89.99989275
_symmetry_Int_Tables_number   1
_chemical_formula_structural   Er10IrOs3
_chemical_formula_sum   'Er10 Ir1 Os3'
_cell_volume   354.10224205
_cell_formula_units_Z   1
loop_
 _symmetry_equiv_pos_site_id
 _symmetry_equiv_pos_as_xyz
  1  'x, y, z'
loop_
 _atom_site_type_symbol
 _atom_site_label
 _atom_site_symmetry_multiplicity
 _atom_site_fract_x
 _atom_site_fract_y
 _atom_site_fract_z
 _atom_site_occupancy
  Er  Er0  1  0.970136  0.915700  0.179587  1
  Er  Er1  1  0.789911  0.582088  0.818166  1
  Er  Er2  1  0.025733  0.083295  0.815122  1
  Er  Er3  1  0.208664  0.419091  0.180062  1
  Er  Er4  1  0.649817  0.816934  0.439619  1
  Er  Er5  1  0.210266  0.682009  0.561864  1
  Er  Er6  1  0.350789  0.181628  0.563086  1
  Er  Er7  1  0.792961  0.319417  0.439364  1
  Er  Er8  1  0.422250  0.748880  0.999366  1
  Er  Er9  1  0.578044  0.250537  0.999398  1
  Ir  Ir10  1  0.394538  0.076801  0.221067  1
  Os  Os11  1  0.823642  0.576115  0.218172  1
  Os  Os12  1  0.607556  0.924295  0.782068  1
  Os  Os13  1  0.175694  0.423213  0.783059  1
