# generated using pymatgen
data_PrNd3B4Br5
_symmetry_space_group_name_H-M   'P 1'
_cell_length_a   9.38348216
_cell_length_b   9.38348144
_cell_length_c   9.71737455
_cell_angle_alpha   74.35410848
_cell_angle_beta   74.35410841
_cell_angle_gamma   26.44635693
_symmetry_Int_Tables_number   1
_chemical_formula_structural   PrNd3B4Br5
_chemical_formula_sum   'Pr1 Nd3 B4 Br5'
_cell_volume   366.14050802
_cell_formula_units_Z   1
loop_
 _symmetry_equiv_pos_site_id
 _symmetry_equiv_pos_as_xyz
  1  'x, y, z'
loop_
 _atom_site_type_symbol
 _atom_site_label
 _atom_site_symmetry_multiplicity
 _atom_site_fract_x
 _atom_site_fract_y
 _atom_site_fract_z
 _atom_site_occupancy
  Pr  Pr0  1  0.860486  0.860486  0.069852  1
  Nd  Nd1  1  0.505952  0.505952  0.742129  1
  Nd  Nd2  1  0.495583  0.495583  0.257176  1
  Nd  Nd3  1  0.139674  0.139674  0.929122  1
  B  B4  1  0.315390  0.685665  0.999756  1
  B  B5  1  0.685665  0.315390  0.999756  1
  B  B6  1  0.999855  0.999855  0.098450  1
  B  B7  1  0.001469  0.001469  0.900835  1
  Br  Br8  1  0.676020  0.676020  0.692487  1
  Br  Br9  1  0.325862  0.325862  0.312096  1
  Br  Br10  1  0.328830  0.328830  0.854115  1
  Br  Br11  1  0.672869  0.672869  0.138155  1
  Br  Br12  1  0.006643  0.006643  0.496273  1
