# generated using pymatgen
data_SrLa2(BPt2)3
_symmetry_space_group_name_H-M   'P 1'
_cell_length_a   5.59757210
_cell_length_b   5.59757180
_cell_length_c   7.81717100
_cell_angle_alpha   90.00000000
_cell_angle_beta   90.00000000
_cell_angle_gamma   119.09880745
_symmetry_Int_Tables_number   1
_chemical_formula_structural   SrLa2(BPt2)3
_chemical_formula_sum   'Sr1 La2 B3 Pt6'
_cell_volume   214.01895905
_cell_formula_units_Z   1
loop_
 _symmetry_equiv_pos_site_id
 _symmetry_equiv_pos_as_xyz
  1  'x, y, z'
loop_
 _atom_site_type_symbol
 _atom_site_label
 _atom_site_symmetry_multiplicity
 _atom_site_fract_x
 _atom_site_fract_y
 _atom_site_fract_z
 _atom_site_occupancy
  Sr  Sr0  1  0.500000  0.500000  0.333333  1
  La  La1  1  0.000000  0.500000  0.661522  1
  La  La2  1  0.500000  0.000000  0.005145  1
  B  B3  1  0.000000  0.500000  0.169587  1
  B  B4  1  0.500000  0.500000  0.833333  1
  B  B5  1  0.500000  0.000000  0.497080  1
  Pt  Pt6  1  0.303469  0.147846  0.669443  1
  Pt  Pt7  1  0.149918  0.850082  0.333333  1
  Pt  Pt8  1  0.852154  0.696531  0.997224  1
  Pt  Pt9  1  0.850082  0.149918  0.333333  1
  Pt  Pt10  1  0.147846  0.303469  0.997224  1
  Pt  Pt11  1  0.696531  0.852154  0.669443  1
