# generated using pymatgen
data_Sc4Ga2NiB4Ir9
_symmetry_space_group_name_H-M   'P 1'
_cell_length_a   3.09198900
_cell_length_b   9.32207864
_cell_length_c   9.32207981
_cell_angle_alpha   89.10770407
_cell_angle_beta   90.00000000
_cell_angle_gamma   90.00000000
_symmetry_Int_Tables_number   1
_chemical_formula_structural   Sc4Ga2NiB4Ir9
_chemical_formula_sum   'Sc4 Ga2 Ni1 B4 Ir9'
_cell_volume   268.66485075
_cell_formula_units_Z   1
loop_
 _symmetry_equiv_pos_site_id
 _symmetry_equiv_pos_as_xyz
  1  'x, y, z'
loop_
 _atom_site_type_symbol
 _atom_site_label
 _atom_site_symmetry_multiplicity
 _atom_site_fract_x
 _atom_site_fract_y
 _atom_site_fract_z
 _atom_site_occupancy
  Sc  Sc0  1  0.000000  0.175311  0.675311  1
  Sc  Sc1  1  0.000000  0.824689  0.324689  1
  Sc  Sc2  1  0.000000  0.320639  0.179361  1
  Sc  Sc3  1  0.000000  0.679361  0.820639  1
  Ga  Ga4  1  0.000000  0.000000  0.000000  1
  Ga  Ga5  1  0.000000  0.500000  0.500000  1
  Ni  Ni6  1  0.500000  0.000000  0.500000  1
  B  B7  1  0.000000  0.623123  0.123123  1
  B  B8  1  0.000000  0.376877  0.876877  1
  B  B9  1  0.000000  0.885998  0.614002  1
  B  B10  1  0.000000  0.114002  0.385998  1
  Ir  Ir11  1  0.500000  0.064677  0.224557  1
  Ir  Ir12  1  0.500000  0.935323  0.775443  1
  Ir  Ir13  1  0.500000  0.783944  0.068480  1
  Ir  Ir14  1  0.500000  0.431520  0.716056  1
  Ir  Ir15  1  0.500000  0.216056  0.931520  1
  Ir  Ir16  1  0.500000  0.568480  0.283944  1
  Ir  Ir17  1  0.500000  0.724557  0.564677  1
  Ir  Ir18  1  0.500000  0.275443  0.435323  1
  Ir  Ir19  1  0.500000  0.500000  0.000000  1
