# generated using pymatgen
data_Yb4Bi6O13
_symmetry_space_group_name_H-M   'P 1'
_cell_length_a   7.22556100
_cell_length_b   5.93727250
_cell_length_c   9.27834260
_cell_angle_alpha   71.33655635
_cell_angle_beta   90.00000000
_cell_angle_gamma   90.00000000
_symmetry_Int_Tables_number   1
_chemical_formula_structural   Yb4Bi6O13
_chemical_formula_sum   'Yb4 Bi6 O13'
_cell_volume   377.11087102
_cell_formula_units_Z   1
loop_
 _symmetry_equiv_pos_site_id
 _symmetry_equiv_pos_as_xyz
  1  'x, y, z'
loop_
 _atom_site_type_symbol
 _atom_site_label
 _atom_site_symmetry_multiplicity
 _atom_site_fract_x
 _atom_site_fract_y
 _atom_site_fract_z
 _atom_site_occupancy
  Yb  Yb0  1  0.747491  0.648396  0.568721  1
  Yb  Yb1  1  0.252358  0.215840  0.433538  1
  Yb  Yb2  1  0.252509  0.648396  0.568721  1
  Yb  Yb3  1  0.747642  0.215840  0.433538  1
  Bi  Bi4  1  0.000000  0.874013  0.230838  1
  Bi  Bi5  1  0.000000  0.103309  0.771140  1
  Bi  Bi6  1  0.500000  0.100232  0.774482  1
  Bi  Bi7  1  0.500000  0.872270  0.228066  1
  Bi  Bi8  1  0.770186  0.506979  0.000956  1
  Bi  Bi9  1  0.229814  0.506979  0.000956  1
  O  O10  1  0.500000  0.367164  0.557809  1
  O  O11  1  0.500000  0.925011  0.444501  1
  O  O12  1  0.000000  0.920570  0.445491  1
  O  O13  1  0.000000  0.366281  0.557040  1
  O  O14  1  0.750359  0.940006  0.690731  1
  O  O15  1  0.251785  0.629425  0.311618  1
  O  O16  1  0.249641  0.940006  0.690731  1
  O  O17  1  0.748215  0.629425  0.311618  1
  O  O18  1  0.753894  0.367253  0.818317  1
  O  O19  1  0.241294  0.184468  0.183943  1
  O  O20  1  0.246106  0.367253  0.818317  1
  O  O21  1  0.758706  0.184468  0.183943  1
  O  O22  1  0.500000  0.636612  0.002982  1
