# generated using pymatgen
data_Rb2LuP2Se7
_symmetry_space_group_name_H-M   'P 1'
_cell_length_a   9.74293262
_cell_length_b   9.74293318
_cell_length_c   9.34464200
_cell_angle_alpha   74.81078385
_cell_angle_beta   74.81077687
_cell_angle_gamma   71.58952473
_symmetry_Int_Tables_number   1
_chemical_formula_structural   Rb2LuP2Se7
_chemical_formula_sum   'Rb4 Lu2 P4 Se14'
_cell_volume   796.51904650
_cell_formula_units_Z   2
loop_
 _symmetry_equiv_pos_site_id
 _symmetry_equiv_pos_as_xyz
  1  'x, y, z'
loop_
 _atom_site_type_symbol
 _atom_site_label
 _atom_site_symmetry_multiplicity
 _atom_site_fract_x
 _atom_site_fract_y
 _atom_site_fract_z
 _atom_site_occupancy
  Rb  Rb0  1  0.609317  0.049914  0.163096  1
  Rb  Rb1  1  0.950086  0.390683  0.836904  1
  Rb  Rb2  1  0.390683  0.950086  0.836904  1
  Rb  Rb3  1  0.049914  0.609317  0.163096  1
  Lu  Lu4  1  0.680293  0.319707  0.500000  1
  Lu  Lu5  1  0.319707  0.680293  0.500000  1
  P  P6  1  0.945529  0.945529  0.439067  1
  P  P7  1  0.054471  0.054471  0.560933  1
  P  P8  1  0.391197  0.391197  0.817906  1
  P  P9  1  0.608803  0.608803  0.182094  1
  Se  Se10  1  0.695781  0.366984  0.189875  1
  Se  Se11  1  0.633016  0.304219  0.810125  1
  Se  Se12  1  0.304219  0.633016  0.810125  1
  Se  Se13  1  0.366984  0.695781  0.189875  1
  Se  Se14  1  0.003418  0.003418  0.195159  1
  Se  Se15  1  0.996582  0.996582  0.804841  1
  Se  Se16  1  0.703462  0.020525  0.528529  1
  Se  Se17  1  0.979475  0.296538  0.471471  1
  Se  Se18  1  0.296538  0.979475  0.471471  1
  Se  Se19  1  0.020525  0.703462  0.528529  1
  Se  Se20  1  0.266811  0.266811  0.007264  1
  Se  Se21  1  0.733189  0.733189  0.992736  1
  Se  Se22  1  0.364622  0.364622  0.589534  1
  Se  Se23  1  0.635378  0.635378  0.410466  1
