# generated using pymatgen
data_AuI2Br
_symmetry_space_group_name_H-M   'P 1'
_cell_length_a   21.62638200
_cell_length_b   7.19424016
_cell_length_c   9.91511851
_cell_angle_alpha   64.04850731
_cell_angle_beta   90.00000000
_cell_angle_gamma   90.00000000
_symmetry_Int_Tables_number   1
_chemical_formula_structural   AuI2Br
_chemical_formula_sum   'Au8 I16 Br8'
_cell_volume   1387.09445091
_cell_formula_units_Z   8
loop_
 _symmetry_equiv_pos_site_id
 _symmetry_equiv_pos_as_xyz
  1  'x, y, z'
loop_
 _atom_site_type_symbol
 _atom_site_label
 _atom_site_symmetry_multiplicity
 _atom_site_fract_x
 _atom_site_fract_y
 _atom_site_fract_z
 _atom_site_occupancy
  Au  Au0  1  0.710746  0.632361  0.214622  1
  Au  Au1  1  0.210746  0.367639  0.285378  1
  Au  Au2  1  0.289254  0.367639  0.785378  1
  Au  Au3  1  0.789254  0.632361  0.714622  1
  Au  Au4  1  0.537532  0.739801  0.239261  1
  Au  Au5  1  0.037532  0.260199  0.260739  1
  Au  Au6  1  0.462468  0.260199  0.760739  1
  Au  Au7  1  0.962468  0.739801  0.739261  1
  I  I8  1  0.764971  0.305057  0.210865  1
  I  I9  1  0.264971  0.694943  0.289135  1
  I  I10  1  0.235029  0.694943  0.789135  1
  I  I11  1  0.735029  0.305057  0.710865  1
  I  I12  1  0.817536  0.821999  0.207971  1
  I  I13  1  0.317536  0.178001  0.292029  1
  I  I14  1  0.182464  0.178001  0.792029  1
  I  I15  1  0.682464  0.821999  0.707971  1
  I  I16  1  0.896245  0.432935  0.733873  1
  I  I17  1  0.396245  0.567065  0.766127  1
  I  I18  1  0.103755  0.567065  0.266127  1
  I  I19  1  0.603755  0.432935  0.233873  1
  I  I20  1  0.064161  0.520747  0.767929  1
  I  I21  1  0.564161  0.479253  0.732071  1
  I  I22  1  0.935839  0.479253  0.232071  1
  I  I23  1  0.435839  0.520747  0.267929  1
  Br  Br24  1  0.019959  0.032874  0.744304  1
  Br  Br25  1  0.519959  0.967126  0.755696  1
  Br  Br26  1  0.980041  0.967126  0.255696  1
  Br  Br27  1  0.480041  0.032874  0.244304  1
  Br  Br28  1  0.856625  0.928197  0.709861  1
  Br  Br29  1  0.356625  0.071803  0.790139  1
  Br  Br30  1  0.143375  0.071803  0.290139  1
  Br  Br31  1  0.643375  0.928197  0.209861  1
