# generated using pymatgen
data_La4YbErSi3Ge
_symmetry_space_group_name_H-M   'P 1'
_cell_length_a   7.75937970
_cell_length_b   7.73797851
_cell_length_c   4.52274700
_cell_angle_alpha   90.00000000
_cell_angle_beta   90.00000000
_cell_angle_gamma   89.71264433
_symmetry_Int_Tables_number   1
_chemical_formula_structural   La4YbErSi3Ge
_chemical_formula_sum   'La4 Yb1 Er1 Si3 Ge1'
_cell_volume   271.55096841
_cell_formula_units_Z   1
loop_
 _symmetry_equiv_pos_site_id
 _symmetry_equiv_pos_as_xyz
  1  'x, y, z'
loop_
 _atom_site_type_symbol
 _atom_site_label
 _atom_site_symmetry_multiplicity
 _atom_site_fract_x
 _atom_site_fract_y
 _atom_site_fract_z
 _atom_site_occupancy
  La  La0  1  0.678901  0.175761  0.500000  1
  La  La1  1  0.322639  0.825167  0.500000  1
  La  La2  1  0.176455  0.319203  0.500000  1
  La  La3  1  0.821304  0.678834  0.500000  1
  Yb  Yb4  1  0.999466  0.000383  0.000000  1
  Er  Er5  1  0.502431  0.498701  0.000000  1
  Si  Si6  1  0.879569  0.391693  0.000000  1
  Si  Si7  1  0.605790  0.882202  0.000000  1
  Si  Si8  1  0.394091  0.117445  0.000000  1
  Ge  Ge9  1  0.119354  0.610613  0.000000  1
