# generated using pymatgen
data_Ce3LuP7Ir8
_symmetry_space_group_name_H-M   'P 1'
_cell_length_a   3.97914100
_cell_length_b   12.67449565
_cell_length_c   13.18079409
_cell_angle_alpha   81.56377592
_cell_angle_beta   90.00000000
_cell_angle_gamma   90.00000000
_symmetry_Int_Tables_number   1
_chemical_formula_structural   Ce3LuP7Ir8
_chemical_formula_sum   'Ce6 Lu2 P14 Ir16'
_cell_volume   657.56216996
_cell_formula_units_Z   2
loop_
 _symmetry_equiv_pos_site_id
 _symmetry_equiv_pos_as_xyz
  1  'x, y, z'
loop_
 _atom_site_type_symbol
 _atom_site_label
 _atom_site_symmetry_multiplicity
 _atom_site_fract_x
 _atom_site_fract_y
 _atom_site_fract_z
 _atom_site_occupancy
  Ce  Ce0  1  0.750000  0.483329  0.708189  1
  Ce  Ce1  1  0.250000  0.516671  0.291811  1
  Ce  Ce2  1  0.750000  0.719120  0.899788  1
  Ce  Ce3  1  0.250000  0.105443  0.790239  1
  Ce  Ce4  1  0.750000  0.894557  0.209761  1
  Ce  Ce5  1  0.250000  0.280880  0.100212  1
  Lu  Lu6  1  0.750000  0.792185  0.558814  1
  Lu  Lu7  1  0.250000  0.207815  0.441186  1
  P  P8  1  0.250000  0.907879  0.412614  1
  P  P9  1  0.750000  0.470768  0.127589  1
  P  P10  1  0.250000  0.529232  0.872411  1
  P  P11  1  0.750000  0.092121  0.587386  1
  P  P12  1  0.250000  0.744362  0.081230  1
  P  P13  1  0.750000  0.255638  0.918770  1
  P  P14  1  0.750000  0.157217  0.283370  1
  P  P15  1  0.250000  0.842783  0.716630  1
  P  P16  1  0.250000  0.055150  0.099817  1
  P  P17  1  0.750000  0.944850  0.900183  1
  P  P18  1  0.250000  0.312790  0.687547  1
  P  P19  1  0.750000  0.687210  0.312453  1
  P  P20  1  0.250000  0.610857  0.562352  1
  P  P21  1  0.750000  0.389143  0.437648  1
  Ir  Ir22  1  0.250000  0.988433  0.574965  1
  Ir  Ir23  1  0.750000  0.011567  0.425035  1
  Ir  Ir24  1  0.250000  0.662300  0.726226  1
  Ir  Ir25  1  0.750000  0.337700  0.273774  1
  Ir  Ir26  1  0.250000  0.551333  0.049033  1
  Ir  Ir27  1  0.750000  0.448667  0.950967  1
  Ir  Ir28  1  0.250000  0.061796  0.275985  1
  Ir  Ir29  1  0.750000  0.938204  0.724015  1
  Ir  Ir30  1  0.250000  0.422829  0.525665  1
  Ir  Ir31  1  0.750000  0.577171  0.474335  1
  Ir  Ir32  1  0.250000  0.917636  0.997431  1
  Ir  Ir33  1  0.750000  0.082364  0.002569  1
  Ir  Ir34  1  0.250000  0.729502  0.399294  1
  Ir  Ir35  1  0.750000  0.270498  0.600706  1
  Ir  Ir36  1  0.250000  0.340538  0.858277  1
  Ir  Ir37  1  0.750000  0.659462  0.141723  1
