# generated using pymatgen
data_Tb4MoIrRu6
_symmetry_space_group_name_H-M   'P 1'
_cell_length_a   5.19496906
_cell_length_b   5.19496906
_cell_length_c   9.09997982
_cell_angle_alpha   90.12796547
_cell_angle_beta   89.87203757
_cell_angle_gamma   116.43954083
_symmetry_Int_Tables_number   1
_chemical_formula_structural   Tb4MoIrRu6
_chemical_formula_sum   'Tb4 Mo1 Ir1 Ru6'
_cell_volume   219.89949350
_cell_formula_units_Z   1
loop_
 _symmetry_equiv_pos_site_id
 _symmetry_equiv_pos_as_xyz
  1  'x, y, z'
loop_
 _atom_site_type_symbol
 _atom_site_label
 _atom_site_symmetry_multiplicity
 _atom_site_fract_x
 _atom_site_fract_y
 _atom_site_fract_z
 _atom_site_occupancy
  Tb  Tb0  1  0.327993  0.672007  0.436341  1
  Tb  Tb1  1  0.664092  0.335908  0.568768  1
  Tb  Tb2  1  0.664422  0.335578  0.931092  1
  Tb  Tb3  1  0.327133  0.672867  0.063676  1
  Mo  Mo4  1  0.840684  0.159316  0.247934  1
  Ir  Ir5  1  0.991484  0.008516  0.501630  1
  Ru  Ru6  1  0.988821  0.011179  0.998842  1
  Ru  Ru7  1  0.830059  0.650189  0.250909  1
  Ru  Ru8  1  0.349811  0.169941  0.250909  1
  Ru  Ru9  1  0.178375  0.821625  0.750092  1
  Ru  Ru10  1  0.166060  0.328934  0.749902  1
  Ru  Ru11  1  0.671066  0.833940  0.749902  1
