# generated using pymatgen
data_HgBi3PtRh3O14
_symmetry_space_group_name_H-M   'P 1'
_cell_length_a   7.25129680
_cell_length_b   7.24417916
_cell_length_c   7.25129623
_cell_angle_alpha   61.61205832
_cell_angle_beta   61.71486467
_cell_angle_gamma   61.61205079
_symmetry_Int_Tables_number   1
_chemical_formula_structural   HgBi3PtRh3O14
_chemical_formula_sum   'Hg1 Bi3 Pt1 Rh3 O14'
_cell_volume   279.28583692
_cell_formula_units_Z   1
loop_
 _symmetry_equiv_pos_site_id
 _symmetry_equiv_pos_as_xyz
  1  'x, y, z'
loop_
 _atom_site_type_symbol
 _atom_site_label
 _atom_site_symmetry_multiplicity
 _atom_site_fract_x
 _atom_site_fract_y
 _atom_site_fract_z
 _atom_site_occupancy
  Hg  Hg0  1  0.125000  0.125000  0.125000  1
  Bi  Bi1  1  0.125000  0.125000  0.625000  1
  Bi  Bi2  1  0.125000  0.625000  0.125000  1
  Bi  Bi3  1  0.625000  0.125000  0.125000  1
  Pt  Pt4  1  0.625000  0.125000  0.625000  1
  Rh  Rh5  1  0.625000  0.625000  0.125000  1
  Rh  Rh6  1  0.125000  0.625000  0.625000  1
  Rh  Rh7  1  0.625000  0.625000  0.625000  1
  O  O8  1  0.252573  0.251866  0.252573  1
  O  O9  1  0.997427  0.998134  0.997427  1
  O  O10  1  0.540652  0.956216  0.540652  1
  O  O11  1  0.295182  0.698958  0.295182  1
  O  O12  1  0.542181  0.543031  0.954997  1
  O  O13  1  0.954997  0.543031  0.542181  1
  O  O14  1  0.547571  0.955578  0.956216  1
  O  O15  1  0.956216  0.955578  0.547571  1
  O  O16  1  0.954818  0.551042  0.954818  1
  O  O17  1  0.702429  0.294422  0.293784  1
  O  O18  1  0.295003  0.706969  0.707819  1
  O  O19  1  0.709348  0.293784  0.709348  1
  O  O20  1  0.293784  0.294422  0.702429  1
  O  O21  1  0.707819  0.706969  0.295003  1
