# generated using pymatgen
data_CaTbFe3Re14C3
_symmetry_space_group_name_H-M   'P 1'
_cell_length_a   6.93101117
_cell_length_b   6.93101047
_cell_length_c   6.93100999
_cell_angle_alpha   82.52114190
_cell_angle_beta   82.52114435
_cell_angle_gamma   82.52113584
_symmetry_Int_Tables_number   1
_chemical_formula_structural   CaTbFe3Re14C3
_chemical_formula_sum   'Ca1 Tb1 Fe3 Re14 C3'
_cell_volume   325.13925844
_cell_formula_units_Z   1
loop_
 _symmetry_equiv_pos_site_id
 _symmetry_equiv_pos_as_xyz
  1  'x, y, z'
loop_
 _atom_site_type_symbol
 _atom_site_label
 _atom_site_symmetry_multiplicity
 _atom_site_fract_x
 _atom_site_fract_y
 _atom_site_fract_z
 _atom_site_occupancy
  Ca  Ca0  1  0.648588  0.648588  0.648588  1
  Tb  Tb1  1  0.351410  0.351410  0.351410  1
  Fe  Fe2  1  0.999333  0.999333  0.500144  1
  Fe  Fe3  1  0.500144  0.999333  0.999333  1
  Fe  Fe4  1  0.999333  0.500144  0.999333  1
  Re  Re5  1  0.721552  0.278103  0.000115  1
  Re  Re6  1  0.000115  0.721552  0.278103  1
  Re  Re7  1  0.278103  0.000115  0.721552  1
  Re  Re8  1  0.000115  0.278103  0.721552  1
  Re  Re9  1  0.721552  0.000115  0.278103  1
  Re  Re10  1  0.278103  0.721552  0.000115  1
  Re  Re11  1  0.345735  0.345735  0.861984  1
  Re  Re12  1  0.861984  0.345735  0.345735  1
  Re  Re13  1  0.345735  0.861984  0.345735  1
  Re  Re14  1  0.654132  0.654132  0.139248  1
  Re  Re15  1  0.139248  0.654132  0.654132  1
  Re  Re16  1  0.654132  0.139248  0.654132  1
  Re  Re17  1  0.898552  0.898552  0.898552  1
  Re  Re18  1  0.101940  0.101940  0.101940  1
  C  C19  1  0.499709  0.499709  0.000779  1
  C  C20  1  0.000779  0.499709  0.499709  1
  C  C21  1  0.499709  0.000779  0.499709  1
