# generated using pymatgen
data_Pr2FeCo3O10
_symmetry_space_group_name_H-M   'P 1'
_cell_length_a   5.77795000
_cell_length_b   7.56908247
_cell_length_c   8.63800828
_cell_angle_alpha   89.93307883
_cell_angle_beta   90.00000000
_cell_angle_gamma   90.00000000
_symmetry_Int_Tables_number   1
_chemical_formula_structural   Pr2FeCo3O10
_chemical_formula_sum   'Pr4 Fe2 Co6 O20'
_cell_volume   377.77249665
_cell_formula_units_Z   2
loop_
 _symmetry_equiv_pos_site_id
 _symmetry_equiv_pos_as_xyz
  1  'x, y, z'
loop_
 _atom_site_type_symbol
 _atom_site_label
 _atom_site_symmetry_multiplicity
 _atom_site_fract_x
 _atom_site_fract_y
 _atom_site_fract_z
 _atom_site_occupancy
  Pr  Pr0  1  0.000000  0.354610  0.670071  1
  Pr  Pr1  1  0.000000  0.645390  0.329929  1
  Pr  Pr2  1  0.000000  0.861452  0.825002  1
  Pr  Pr3  1  0.000000  0.138548  0.174998  1
  Fe  Fe4  1  0.500000  0.111446  0.856936  1
  Fe  Fe5  1  0.500000  0.888554  0.143064  1
  Co  Co6  1  0.500000  0.592108  0.650145  1
  Co  Co7  1  0.500000  0.407892  0.349855  1
  Co  Co8  1  0.255434  0.500000  0.000000  1
  Co  Co9  1  0.742458  0.000000  0.500000  1
  Co  Co10  1  0.744566  0.500000  0.000000  1
  Co  Co11  1  0.257542  0.000000  0.500000  1
  O  O12  1  0.249936  0.903949  0.296686  1
  O  O13  1  0.249936  0.096051  0.703314  1
  O  O14  1  0.749232  0.405946  0.205689  1
  O  O15  1  0.749232  0.594054  0.794311  1
  O  O16  1  0.750064  0.096051  0.703314  1
  O  O17  1  0.750064  0.903949  0.296686  1
  O  O18  1  0.250768  0.594054  0.794311  1
  O  O19  1  0.250768  0.405946  0.205689  1
  O  O20  1  0.500000  0.350478  0.938668  1
  O  O21  1  0.500000  0.649522  0.061332  1
  O  O22  1  0.500000  0.848312  0.563007  1
  O  O23  1  0.500000  0.151688  0.436993  1
  O  O24  1  0.272522  0.000000  0.000000  1
  O  O25  1  0.715600  0.500000  0.500000  1
  O  O26  1  0.727478  0.000000  0.000000  1
  O  O27  1  0.284400  0.500000  0.500000  1
  O  O28  1  0.000000  0.154413  0.449449  1
  O  O29  1  0.000000  0.845587  0.550551  1
  O  O30  1  0.000000  0.652434  0.049193  1
  O  O31  1  0.000000  0.347566  0.950807  1
