# generated using pymatgen
data_La4Nd6B2Br15
_symmetry_space_group_name_H-M   'P 1'
_cell_length_a   9.55153647
_cell_length_b   10.30284802
_cell_length_c   11.15740815
_cell_angle_alpha   91.15961028
_cell_angle_beta   114.32954362
_cell_angle_gamma   110.98764634
_symmetry_Int_Tables_number   1
_chemical_formula_structural   La4Nd6B2Br15
_chemical_formula_sum   'La4 Nd6 B2 Br15'
_cell_volume   915.74541696
_cell_formula_units_Z   1
loop_
 _symmetry_equiv_pos_site_id
 _symmetry_equiv_pos_as_xyz
  1  'x, y, z'
loop_
 _atom_site_type_symbol
 _atom_site_label
 _atom_site_symmetry_multiplicity
 _atom_site_fract_x
 _atom_site_fract_y
 _atom_site_fract_z
 _atom_site_occupancy
  La  La0  1  0.805386  0.413178  0.278659  1
  La  La1  1  0.194614  0.586822  0.721341  1
  La  La2  1  0.677887  0.745886  0.817733  1
  La  La3  1  0.322113  0.254114  0.182267  1
  Nd  Nd4  1  0.525277  0.706485  0.095029  1
  Nd  Nd5  1  0.474723  0.293515  0.904971  1
  Nd  Nd6  1  0.585381  0.037766  0.322606  1
  Nd  Nd7  1  0.414619  0.962234  0.677394  1
  Nd  Nd8  1  0.721438  0.073728  0.047096  1
  Nd  Nd9  1  0.278562  0.926272  0.952904  1
  B  B10  1  0.466129  0.816761  0.874268  1
  B  B11  1  0.533871  0.183239  0.125732  1
  Br  Br12  1  0.000000  0.000000  0.000000  1
  Br  Br13  1  0.633427  0.886314  0.581301  1
  Br  Br14  1  0.366573  0.113686  0.418699  1
  Br  Br15  1  0.880227  0.293967  0.528198  1
  Br  Br16  1  0.119773  0.706033  0.471802  1
  Br  Br17  1  0.291807  0.763590  0.178643  1
  Br  Br18  1  0.708193  0.236410  0.821357  1
  Br  Br19  1  0.053200  0.339824  0.224162  1
  Br  Br20  1  0.167699  0.057389  0.705900  1
  Br  Br21  1  0.832301  0.942611  0.294100  1
  Br  Br22  1  0.236705  0.411346  0.945668  1
  Br  Br23  1  0.763295  0.588654  0.054332  1
  Br  Br24  1  0.408269  0.459521  0.661308  1
  Br  Br25  1  0.591731  0.540479  0.338692  1
  Br  Br26  1  0.946800  0.660176  0.775838  1
