# generated using pymatgen
data_Tb8Sc12Ga15Sn
_symmetry_space_group_name_H-M   'P 1'
_cell_length_a   7.32835315
_cell_length_b   7.57767995
_cell_length_c   14.58139726
_cell_angle_alpha   90.08510324
_cell_angle_beta   89.73016564
_cell_angle_gamma   89.95903525
_symmetry_Int_Tables_number   1
_chemical_formula_structural   Tb8Sc12Ga15Sn
_chemical_formula_sum   'Tb8 Sc12 Ga15 Sn1'
_cell_volume   809.72282628
_cell_formula_units_Z   1
loop_
 _symmetry_equiv_pos_site_id
 _symmetry_equiv_pos_as_xyz
  1  'x, y, z'
loop_
 _atom_site_type_symbol
 _atom_site_label
 _atom_site_symmetry_multiplicity
 _atom_site_fract_x
 _atom_site_fract_y
 _atom_site_fract_z
 _atom_site_occupancy
  Tb  Tb0  1  0.012448  0.177467  0.095412  1
  Tb  Tb1  1  0.987931  0.823327  0.905242  1
  Tb  Tb2  1  0.488088  0.676533  0.905177  1
  Tb  Tb3  1  0.987675  0.828407  0.597005  1
  Tb  Tb4  1  0.512113  0.322884  0.095395  1
  Tb  Tb5  1  0.006941  0.171958  0.400774  1
  Tb  Tb6  1  0.512670  0.320349  0.401482  1
  Tb  Tb7  1  0.498636  0.684046  0.598593  1
  Sc  Sc8  1  0.162698  0.502099  0.754032  1
  Sc  Sc9  1  0.837312  0.497914  0.248883  1
  Sc  Sc10  1  0.337308  0.003283  0.249140  1
  Sc  Sc11  1  0.664827  0.997863  0.752254  1
  Sc  Sc12  1  0.339138  0.162248  0.628895  1
  Sc  Sc13  1  0.666255  0.827383  0.373863  1
  Sc  Sc14  1  0.166367  0.681048  0.371349  1
  Sc  Sc15  1  0.669166  0.825231  0.123374  1
  Sc  Sc16  1  0.823223  0.324222  0.625669  1
  Sc  Sc17  1  0.329869  0.174487  0.876209  1
  Sc  Sc18  1  0.830372  0.325363  0.876309  1
  Sc  Sc19  1  0.169892  0.674479  0.124206  1
  Ga  Ga20  1  0.032726  0.118968  0.750679  1
  Ga  Ga21  1  0.965549  0.883244  0.247256  1
  Ga  Ga22  1  0.467407  0.617052  0.249121  1
  Ga  Ga23  1  0.531637  0.383522  0.751865  1
  Ga  Ga24  1  0.285395  0.871015  0.751949  1
  Ga  Ga25  1  0.713258  0.125695  0.248263  1
  Ga  Ga26  1  0.213193  0.373964  0.249836  1
  Ga  Ga27  1  0.787970  0.626587  0.750926  1
  Ga  Ga28  1  0.832439  0.537999  0.458678  1
  Ga  Ga29  1  0.339693  0.964192  0.460092  1
  Ga  Ga30  1  0.840631  0.534409  0.040199  1
  Ga  Ga31  1  0.660368  0.037107  0.538032  1
  Ga  Ga32  1  0.159087  0.464894  0.960716  1
  Ga  Ga33  1  0.658586  0.035541  0.960047  1
  Ga  Ga34  1  0.340710  0.964774  0.040096  1
  Sn  Sn35  1  0.168423  0.460444  0.538983  1
