# generated using pymatgen
data_YbPa3(SnPd2)2
_symmetry_space_group_name_H-M   'P 1'
_cell_length_a   7.77482685
_cell_length_b   7.77482685
_cell_length_c   3.68603500
_cell_angle_alpha   90.00000000
_cell_angle_beta   90.00000000
_cell_angle_gamma   90.12803592
_symmetry_Int_Tables_number   1
_chemical_formula_structural   YbPa3(SnPd2)2
_chemical_formula_sum   'Yb1 Pa3 Sn2 Pd4'
_cell_volume   222.81263890
_cell_formula_units_Z   1
loop_
 _symmetry_equiv_pos_site_id
 _symmetry_equiv_pos_as_xyz
  1  'x, y, z'
loop_
 _atom_site_type_symbol
 _atom_site_label
 _atom_site_symmetry_multiplicity
 _atom_site_fract_x
 _atom_site_fract_y
 _atom_site_fract_z
 _atom_site_occupancy
  Yb  Yb0  1  0.825472  0.674528  0.500000  1
  Pa  Pa1  1  0.675681  0.174186  0.500000  1
  Pa  Pa2  1  0.325814  0.824319  0.500000  1
  Pa  Pa3  1  0.171868  0.328132  0.500000  1
  Sn  Sn4  1  0.995585  0.991424  0.000000  1
  Sn  Sn5  1  0.508576  0.504415  0.000000  1
  Pd  Pd6  1  0.136256  0.624731  0.000000  1
  Pd  Pd7  1  0.875269  0.363744  0.000000  1
  Pd  Pd8  1  0.618270  0.881730  0.000000  1
  Pd  Pd9  1  0.367209  0.132791  0.000000  1
