# generated using pymatgen
data_Ho6Al24ZnFe2Ru5
_symmetry_space_group_name_H-M   'P 1'
_cell_length_a   8.75544267
_cell_length_b   8.78836873
_cell_length_c   9.46986828
_cell_angle_alpha   90.09587143
_cell_angle_beta   89.89520860
_cell_angle_gamma   119.92196291
_symmetry_Int_Tables_number   1
_chemical_formula_structural   Ho6Al24ZnFe2Ru5
_chemical_formula_sum   'Ho6 Al24 Zn1 Fe2 Ru5'
_cell_volume   631.54023925
_cell_formula_units_Z   1
loop_
 _symmetry_equiv_pos_site_id
 _symmetry_equiv_pos_as_xyz
  1  'x, y, z'
loop_
 _atom_site_type_symbol
 _atom_site_label
 _atom_site_symmetry_multiplicity
 _atom_site_fract_x
 _atom_site_fract_y
 _atom_site_fract_z
 _atom_site_occupancy
  Ho  Ho0  1  0.192266  0.384896  0.246315  1
  Ho  Ho1  1  0.807734  0.615104  0.753685  1
  Ho  Ho2  1  0.613671  0.807256  0.246023  1
  Ho  Ho3  1  0.386329  0.192744  0.753977  1
  Ho  Ho4  1  0.194958  0.805612  0.252996  1
  Ho  Ho5  1  0.805042  0.194388  0.747004  1
  Al  Al6  1  0.322812  0.667749  0.020854  1
  Al  Al7  1  0.677188  0.332251  0.979146  1
  Al  Al8  1  0.666316  0.333627  0.516860  1
  Al  Al9  1  0.333684  0.666373  0.483140  1
  Al  Al10  1  0.159269  0.319070  0.574976  1
  Al  Al11  1  0.840731  0.680930  0.425024  1
  Al  Al12  1  0.681013  0.840240  0.574603  1
  Al  Al13  1  0.851337  0.676179  0.080029  1
  Al  Al14  1  0.318987  0.159760  0.425397  1
  Al  Al15  1  0.148663  0.323821  0.919971  1
  Al  Al16  1  0.159515  0.839793  0.577605  1
  Al  Al17  1  0.322669  0.152053  0.081254  1
  Al  Al18  1  0.840485  0.160207  0.422395  1
  Al  Al19  1  0.677331  0.847947  0.918746  1
  Al  Al20  1  0.839419  0.166168  0.077582  1
  Al  Al21  1  0.160581  0.833832  0.922418  1
  Al  Al22  1  0.562419  0.121796  0.249156  1
  Al  Al23  1  0.437581  0.878204  0.750844  1
  Al  Al24  1  0.881263  0.439588  0.244624  1
  Al  Al25  1  0.118737  0.560412  0.755376  1
  Al  Al26  1  0.564247  0.436557  0.254393  1
  Al  Al27  1  0.435753  0.563443  0.745607  1
  Al  Al28  1  0.999358  0.000902  0.256265  1
  Al  Al29  1  0.000642  0.999098  0.743735  1
  Zn  Zn30  1  0.500000  0.500000  0.000000  1
  Fe  Fe31  1  0.000000  0.500000  0.000000  1
  Fe  Fe32  1  0.000000  0.000000  0.500000  1
  Ru  Ru33  1  0.500000  0.000000  0.000000  1
  Ru  Ru34  1  0.500000  0.000000  0.500000  1
  Ru  Ru35  1  0.000000  0.500000  0.500000  1
  Ru  Ru36  1  0.500000  0.500000  0.500000  1
  Ru  Ru37  1  0.000000  0.000000  0.000000  1
