# generated using pymatgen
data_RbUPaSe4
_symmetry_space_group_name_H-M   'P 1'
_cell_length_a   4.21512300
_cell_length_b   7.13215001
_cell_length_c   8.61519200
_cell_angle_alpha   74.15124135
_cell_angle_beta   90.00000000
_cell_angle_gamma   90.00000000
_symmetry_Int_Tables_number   1
_chemical_formula_structural   RbUPaSe4
_chemical_formula_sum   'Rb1 U1 Pa1 Se4'
_cell_volume   249.15201538
_cell_formula_units_Z   1
loop_
 _symmetry_equiv_pos_site_id
 _symmetry_equiv_pos_as_xyz
  1  'x, y, z'
loop_
 _atom_site_type_symbol
 _atom_site_label
 _atom_site_symmetry_multiplicity
 _atom_site_fract_x
 _atom_site_fract_y
 _atom_site_fract_z
 _atom_site_occupancy
  Rb  Rb0  1  0.000000  0.500000  0.500000  1
  U  U1  1  0.000000  0.000000  0.000000  1
  Pa  Pa2  1  0.500000  0.500000  0.000000  1
  Se  Se3  1  0.500000  0.768779  0.194299  1
  Se  Se4  1  0.000000  0.276224  0.190053  1
  Se  Se5  1  0.500000  0.231221  0.805701  1
  Se  Se6  1  0.000000  0.723776  0.809947  1
