# generated using pymatgen
data_SbRh(SeO3)4
_symmetry_space_group_name_H-M   'P 1'
_cell_length_a   8.20624500
_cell_length_b   8.13080810
_cell_length_c   8.20575807
_cell_angle_alpha   89.21670886
_cell_angle_beta   90.00000000
_cell_angle_gamma   90.00000000
_symmetry_Int_Tables_number   1
_chemical_formula_structural   SbRh(SeO3)4
_chemical_formula_sum   'Sb2 Rh2 Se8 O24'
_cell_volume   547.46494189
_cell_formula_units_Z   2
loop_
 _symmetry_equiv_pos_site_id
 _symmetry_equiv_pos_as_xyz
  1  'x, y, z'
loop_
 _atom_site_type_symbol
 _atom_site_label
 _atom_site_symmetry_multiplicity
 _atom_site_fract_x
 _atom_site_fract_y
 _atom_site_fract_z
 _atom_site_occupancy
  Sb  Sb0  1  0.000000  0.000000  0.500000  1
  Sb  Sb1  1  0.500000  0.000000  0.000000  1
  Rh  Rh2  1  0.000000  0.500000  0.000000  1
  Rh  Rh3  1  0.500000  0.500000  0.500000  1
  Se  Se4  1  0.326946  0.653381  0.171038  1
  Se  Se5  1  0.826946  0.346619  0.328962  1
  Se  Se6  1  0.664885  0.818044  0.665833  1
  Se  Se7  1  0.164885  0.181956  0.834167  1
  Se  Se8  1  0.673054  0.346619  0.828962  1
  Se  Se9  1  0.173054  0.653381  0.671038  1
  Se  Se10  1  0.335115  0.181956  0.334167  1
  Se  Se11  1  0.835115  0.818044  0.165833  1
  O  O12  1  0.246964  0.525749  0.025389  1
  O  O13  1  0.746964  0.474251  0.474611  1
  O  O14  1  0.758663  0.968893  0.538361  1
  O  O15  1  0.258663  0.031107  0.961639  1
  O  O16  1  0.535224  0.963525  0.758982  1
  O  O17  1  0.470595  0.520778  0.252784  1
  O  O18  1  0.970595  0.479222  0.247216  1
  O  O19  1  0.035224  0.036475  0.741018  1
  O  O20  1  0.967955  0.240949  0.464550  1
  O  O21  1  0.528634  0.748598  0.525321  1
  O  O22  1  0.467955  0.759051  0.035450  1
  O  O23  1  0.028634  0.251402  0.974679  1
  O  O24  1  0.753036  0.474251  0.974611  1
  O  O25  1  0.253036  0.525749  0.525389  1
  O  O26  1  0.241337  0.031107  0.461639  1
  O  O27  1  0.741337  0.968893  0.038361  1
  O  O28  1  0.464776  0.036475  0.241018  1
  O  O29  1  0.529405  0.479222  0.747216  1
  O  O30  1  0.029405  0.520778  0.752784  1
  O  O31  1  0.964776  0.963525  0.258982  1
  O  O32  1  0.032045  0.759051  0.535450  1
  O  O33  1  0.471366  0.251402  0.474679  1
  O  O34  1  0.532045  0.240949  0.964550  1
  O  O35  1  0.971366  0.748598  0.025321  1
