# generated using pymatgen
data_Li4Dy5Sb4
_symmetry_space_group_name_H-M   'P 1'
_cell_length_a   8.70383526
_cell_length_b   8.70384781
_cell_length_c   8.70394300
_cell_angle_alpha   93.81616395
_cell_angle_beta   93.81671045
_cell_angle_gamma   150.09776850
_symmetry_Int_Tables_number   1
_chemical_formula_structural   Li4Dy5Sb4
_chemical_formula_sum   'Li4 Dy5 Sb4'
_cell_volume   317.58891002
_cell_formula_units_Z   1
loop_
 _symmetry_equiv_pos_site_id
 _symmetry_equiv_pos_as_xyz
  1  'x, y, z'
loop_
 _atom_site_type_symbol
 _atom_site_label
 _atom_site_symmetry_multiplicity
 _atom_site_fract_x
 _atom_site_fract_y
 _atom_site_fract_z
 _atom_site_occupancy
  Li  Li0  1  0.603312  0.083449  0.686787  1
  Li  Li1  1  0.916541  0.603351  0.519895  1
  Li  Li2  1  0.083453  0.396650  0.480102  1
  Li  Li3  1  0.396689  0.916548  0.313213  1
  Dy  Dy4  1  0.122391  0.802812  0.925241  1
  Dy  Dy5  1  0.197180  0.122367  0.319575  1
  Dy  Dy6  1  0.877614  0.197187  0.074763  1
  Dy  Dy7  1  0.500000  0.500000  0.000000  1
  Dy  Dy8  1  0.802821  0.877636  0.680426  1
  Sb  Sb9  1  0.433747  0.241180  0.674989  1
  Sb  Sb10  1  0.566256  0.758822  0.325011  1
  Sb  Sb11  1  0.241191  0.566201  0.807406  1
  Sb  Sb12  1  0.758806  0.433796  0.192593  1
