# generated using pymatgen
data_Dy2MnAl20FeRh2
_symmetry_space_group_name_H-M   'P 1'
_cell_length_a   6.81713830
_cell_length_b   6.81111837
_cell_length_c   9.08507983
_cell_angle_alpha   90.43160988
_cell_angle_beta   90.28063550
_cell_angle_gamma   96.92528041
_symmetry_Int_Tables_number   1
_chemical_formula_structural   Dy2MnAl20FeRh2
_chemical_formula_sum   'Dy2 Mn1 Al20 Fe1 Rh2'
_cell_volume   418.74477836
_cell_formula_units_Z   1
loop_
 _symmetry_equiv_pos_site_id
 _symmetry_equiv_pos_as_xyz
  1  'x, y, z'
loop_
 _atom_site_type_symbol
 _atom_site_label
 _atom_site_symmetry_multiplicity
 _atom_site_fract_x
 _atom_site_fract_y
 _atom_site_fract_z
 _atom_site_occupancy
  Dy  Dy0  1  0.873916  0.127802  0.750241  1
  Dy  Dy1  1  0.126084  0.872198  0.249759  1
  Mn  Mn2  1  0.000000  0.500000  0.000000  1
  Al  Al3  1  0.619872  0.372782  0.549607  1
  Al  Al4  1  0.380128  0.627218  0.450393  1
  Al  Al5  1  0.372300  0.619571  0.049319  1
  Al  Al6  1  0.627700  0.380429  0.950681  1
  Al  Al7  1  0.229580  0.222022  0.496723  1
  Al  Al8  1  0.770420  0.777978  0.503277  1
  Al  Al9  1  0.778186  0.770459  0.003507  1
  Al  Al10  1  0.221814  0.229541  0.996493  1
  Al  Al11  1  0.847985  0.160884  0.099345  1
  Al  Al12  1  0.152015  0.839116  0.900655  1
  Al  Al13  1  0.161196  0.848047  0.600001  1
  Al  Al14  1  0.838804  0.151953  0.399999  1
  Al  Al15  1  0.861146  0.586879  0.753682  1
  Al  Al16  1  0.138854  0.413121  0.246318  1
  Al  Al17  1  0.413123  0.138699  0.746254  1
  Al  Al18  1  0.586877  0.861301  0.253746  1
  Al  Al19  1  0.222102  0.479470  0.755346  1
  Al  Al20  1  0.777898  0.520530  0.244654  1
  Al  Al21  1  0.520364  0.777732  0.744753  1
  Al  Al22  1  0.479636  0.222268  0.255247  1
  Fe  Fe23  1  0.500000  0.000000  0.500000  1
  Rh  Rh24  1  0.000000  0.500000  0.500000  1
  Rh  Rh25  1  0.500000  0.000000  0.000000  1
