# generated using pymatgen
data_Dy4Y6Ir3Os
_symmetry_space_group_name_H-M   'P 1'
_cell_length_a   6.47837916
_cell_length_b   7.27390914
_cell_length_c   8.54207262
_cell_angle_alpha   96.64064551
_cell_angle_beta   112.55168929
_cell_angle_gamma   90.01169859
_symmetry_Int_Tables_number   1
_chemical_formula_structural   Dy4Y6Ir3Os
_chemical_formula_sum   'Dy4 Y6 Ir3 Os1'
_cell_volume   368.81958842
_cell_formula_units_Z   1
loop_
 _symmetry_equiv_pos_site_id
 _symmetry_equiv_pos_as_xyz
  1  'x, y, z'
loop_
 _atom_site_type_symbol
 _atom_site_label
 _atom_site_symmetry_multiplicity
 _atom_site_fract_x
 _atom_site_fract_y
 _atom_site_fract_z
 _atom_site_occupancy
  Dy  Dy0  1  0.788914  0.816744  0.438792  1
  Dy  Dy1  1  0.351066  0.682524  0.562350  1
  Dy  Dy2  1  0.427394  0.250316  0.999728  1
  Dy  Dy3  1  0.572999  0.748780  0.999515  1
  Y  Y4  1  0.789988  0.084295  0.814830  1
  Y  Y5  1  0.972497  0.416671  0.180211  1
  Y  Y6  1  0.208796  0.916296  0.183830  1
  Y  Y7  1  0.023699  0.582527  0.814836  1
  Y  Y8  1  0.213889  0.184754  0.561312  1
  Y  Y9  1  0.649543  0.316381  0.441130  1
  Ir  Ir10  1  0.823656  0.072842  0.221578  1
  Ir  Ir11  1  0.396709  0.575436  0.220716  1
  Ir  Ir12  1  0.175228  0.925469  0.778246  1
  Os  Os13  1  0.605621  0.426966  0.782926  1
