# generated using pymatgen
data_ScSi(PRh2)3
_symmetry_space_group_name_H-M   'P 1'
_cell_length_a   7.04255600
_cell_length_b   7.04255652
_cell_length_c   3.68176600
_cell_angle_alpha   90.00000000
_cell_angle_beta   90.00000000
_cell_angle_gamma   119.99999757
_symmetry_Int_Tables_number   1
_chemical_formula_structural   ScSi(PRh2)3
_chemical_formula_sum   'Sc1 Si1 P3 Rh6'
_cell_volume   158.14209034
_cell_formula_units_Z   1
loop_
 _symmetry_equiv_pos_site_id
 _symmetry_equiv_pos_as_xyz
  1  'x, y, z'
loop_
 _atom_site_type_symbol
 _atom_site_label
 _atom_site_symmetry_multiplicity
 _atom_site_fract_x
 _atom_site_fract_y
 _atom_site_fract_z
 _atom_site_occupancy
  Sc  Sc0  1  0.000000  0.000000  0.000000  1
  Si  Si1  1  0.666667  0.333333  0.000000  1
  P  P2  1  0.195118  0.369818  0.500000  1
  P  P3  1  0.174699  0.804882  0.500000  1
  P  P4  1  0.630182  0.825301  0.500000  1
  Rh  Rh5  1  0.497668  0.928471  0.000000  1
  Rh  Rh6  1  0.430803  0.502332  0.000000  1
  Rh  Rh7  1  0.071529  0.569197  0.000000  1
  Rh  Rh8  1  0.787348  0.611998  0.500000  1
  Rh  Rh9  1  0.824650  0.212652  0.500000  1
  Rh  Rh10  1  0.388002  0.175350  0.500000  1
