# generated using pymatgen
data_Ho5Er11(CdPt)4
_symmetry_space_group_name_H-M   'P 1'
_cell_length_a   9.60347860
_cell_length_b   9.60580587
_cell_length_c   9.60580555
_cell_angle_alpha   60.06580867
_cell_angle_beta   60.00801645
_cell_angle_gamma   60.00801280
_symmetry_Int_Tables_number   1
_chemical_formula_structural   Ho5Er11(CdPt)4
_chemical_formula_sum   'Ho5 Er11 Cd4 Pt4'
_cell_volume   626.97374543
_cell_formula_units_Z   1
loop_
 _symmetry_equiv_pos_site_id
 _symmetry_equiv_pos_as_xyz
  1  'x, y, z'
loop_
 _atom_site_type_symbol
 _atom_site_label
 _atom_site_symmetry_multiplicity
 _atom_site_fract_x
 _atom_site_fract_y
 _atom_site_fract_z
 _atom_site_occupancy
  Ho  Ho0  1  0.561485  0.938515  0.938515  1
  Ho  Ho1  1  0.565794  0.934556  0.564767  1
  Ho  Ho2  1  0.934883  0.564767  0.934556  1
  Ho  Ho3  1  0.565794  0.564767  0.934556  1
  Ho  Ho4  1  0.934883  0.934556  0.564767  1
  Er  Er5  1  0.351773  0.351325  0.351325  1
  Er  Er6  1  0.351642  0.356627  0.940090  1
  Er  Er7  1  0.351642  0.940090  0.356627  1
  Er  Er8  1  0.945577  0.351325  0.351325  1
  Er  Er9  1  0.810106  0.189894  0.189894  1
  Er  Er10  1  0.188073  0.811927  0.811927  1
  Er  Er11  1  0.189759  0.810707  0.189915  1
  Er  Er12  1  0.809619  0.189915  0.810707  1
  Er  Er13  1  0.189759  0.189915  0.810707  1
  Er  Er14  1  0.809619  0.810707  0.189915  1
  Er  Er15  1  0.936871  0.563129  0.563129  1
  Cd  Cd16  1  0.583690  0.580578  0.580578  1
  Cd  Cd17  1  0.581880  0.580953  0.255288  1
  Cd  Cd18  1  0.581880  0.255288  0.580953  1
  Cd  Cd19  1  0.255154  0.580578  0.580578  1
  Pt  Pt20  1  0.146073  0.142596  0.142596  1
  Pt  Pt21  1  0.142656  0.143683  0.571005  1
  Pt  Pt22  1  0.142656  0.571005  0.143683  1
  Pt  Pt23  1  0.568734  0.142596  0.142596  1
