# generated using pymatgen
data_Tm2ThCoSn3Ir2
_symmetry_space_group_name_H-M   'P 1'
_cell_length_a   7.50707741
_cell_length_b   7.55208387
_cell_length_c   3.86714700
_cell_angle_alpha   90.00000000
_cell_angle_beta   90.00000000
_cell_angle_gamma   120.19852685
_symmetry_Int_Tables_number   1
_chemical_formula_structural   Tm2ThCoSn3Ir2
_chemical_formula_sum   'Tm2 Th1 Co1 Sn3 Ir2'
_cell_volume   189.49018920
_cell_formula_units_Z   1
loop_
 _symmetry_equiv_pos_site_id
 _symmetry_equiv_pos_as_xyz
  1  'x, y, z'
loop_
 _atom_site_type_symbol
 _atom_site_label
 _atom_site_symmetry_multiplicity
 _atom_site_fract_x
 _atom_site_fract_y
 _atom_site_fract_z
 _atom_site_occupancy
  Tm  Tm0  1  0.592958  0.591789  0.500000  1
  Tm  Tm1  1  0.407042  0.998831  0.500000  1
  Th  Th2  1  0.000000  0.412727  0.500000  1
  Co  Co3  1  0.000000  0.006494  0.500000  1
  Sn  Sn4  1  0.000000  0.762037  0.000000  1
  Sn  Sn5  1  0.260230  0.248573  0.000000  1
  Sn  Sn6  1  0.739770  0.988343  0.000000  1
  Ir  Ir7  1  0.324904  0.658056  0.000000  1
  Ir  Ir8  1  0.675096  0.333151  0.000000  1
