# generated using pymatgen
data_Nd2Y3Lu(Co3P2)6
_symmetry_space_group_name_H-M   'P 1'
_cell_length_a   3.71560400
_cell_length_b   10.56077000
_cell_length_c   12.22487300
_cell_angle_alpha   89.99846639
_cell_angle_beta   90.00000000
_cell_angle_gamma   90.00000000
_symmetry_Int_Tables_number   1
_chemical_formula_structural   Nd2Y3Lu(Co3P2)6
_chemical_formula_sum   'Nd2 Y3 Lu1 Co18 P12'
_cell_volume   479.69960637
_cell_formula_units_Z   1
loop_
 _symmetry_equiv_pos_site_id
 _symmetry_equiv_pos_as_xyz
  1  'x, y, z'
loop_
 _atom_site_type_symbol
 _atom_site_label
 _atom_site_symmetry_multiplicity
 _atom_site_fract_x
 _atom_site_fract_y
 _atom_site_fract_z
 _atom_site_occupancy
  Nd  Nd0  1  0.000000  0.499879  0.522624  1
  Nd  Nd1  1  0.500000  0.000047  0.477785  1
  Y  Y2  1  0.500000  0.817840  0.204564  1
  Y  Y3  1  0.500000  0.182181  0.204661  1
  Y  Y4  1  0.000000  0.681774  0.795258  1
  Lu  Lu5  1  0.000000  0.317934  0.795255  1
  Co  Co6  1  0.500000  0.499860  0.156748  1
  Co  Co7  1  0.000000  0.000138  0.843099  1
  Co  Co8  1  0.500000  0.498030  0.707412  1
  Co  Co9  1  0.000000  0.000130  0.293275  1
  Co  Co10  1  0.000000  0.499347  0.986808  1
  Co  Co11  1  0.500000  0.000621  0.012065  1
  Co  Co12  1  0.500000  0.333170  0.994332  1
  Co  Co13  1  0.500000  0.666253  0.995031  1
  Co  Co14  1  0.000000  0.167381  0.003890  1
  Co  Co15  1  0.000000  0.833283  0.004627  1
  Co  Co16  1  0.500000  0.296628  0.429559  1
  Co  Co17  1  0.500000  0.703265  0.429184  1
  Co  Co18  1  0.000000  0.203732  0.571892  1
  Co  Co19  1  0.000000  0.796620  0.570915  1
  Co  Co20  1  0.500000  0.879938  0.712452  1
  Co  Co21  1  0.500000  0.121628  0.713257  1
  Co  Co22  1  0.000000  0.620249  0.287472  1
  Co  Co23  1  0.000000  0.379724  0.287612  1
  P  P24  1  0.500000  0.498623  0.883982  1
  P  P25  1  0.000000  0.000235  0.115061  1
  P  P26  1  0.500000  0.500013  0.339759  1
  P  P27  1  0.000000  0.999948  0.660324  1
  P  P28  1  0.500000  0.307792  0.619241  1
  P  P29  1  0.500000  0.692225  0.617498  1
  P  P30  1  0.000000  0.192643  0.382862  1
  P  P31  1  0.000000  0.807519  0.382596  1
  P  P32  1  0.500000  0.846729  0.894050  1
  P  P33  1  0.500000  0.154767  0.893142  1
  P  P34  1  0.000000  0.652961  0.105707  1
  P  P35  1  0.000000  0.346893  0.105999  1
