# generated using pymatgen
data_ErTm2In4AgIr
_symmetry_space_group_name_H-M   'P 1'
_cell_length_a   8.02838702
_cell_length_b   8.03186596
_cell_length_c   3.73198600
_cell_angle_alpha   90.00000000
_cell_angle_beta   90.00000000
_cell_angle_gamma   120.03465650
_symmetry_Int_Tables_number   1
_chemical_formula_structural   ErTm2In4AgIr
_chemical_formula_sum   'Er1 Tm2 In4 Ag1 Ir1'
_cell_volume   208.33566287
_cell_formula_units_Z   1
loop_
 _symmetry_equiv_pos_site_id
 _symmetry_equiv_pos_as_xyz
  1  'x, y, z'
loop_
 _atom_site_type_symbol
 _atom_site_label
 _atom_site_symmetry_multiplicity
 _atom_site_fract_x
 _atom_site_fract_y
 _atom_site_fract_z
 _atom_site_occupancy
  Er  Er0  1  0.046188  0.754816  0.500000  1
  Tm  Tm1  1  0.709785  0.954509  0.500000  1
  Tm  Tm2  1  0.244441  0.290283  0.500000  1
  In  In3  1  0.936829  0.335707  0.000000  1
  In  In4  1  0.399186  0.063105  0.000000  1
  In  In5  1  0.663780  0.600891  0.000000  1
  In  In6  1  0.333676  0.666638  0.000000  1
  Ag  Ag7  1  0.666343  0.333111  0.500000  1
  Ir  Ir8  1  0.999773  0.000941  0.000000  1
