# generated using pymatgen
data_Dy3Lu5(AlPt)2
_symmetry_space_group_name_H-M   'P 1'
_cell_length_a   9.46065513
_cell_length_b   9.46065523
_cell_length_c   9.46065600
_cell_angle_alpha   60.00000431
_cell_angle_beta   60.00000394
_cell_angle_gamma   60.00000300
_symmetry_Int_Tables_number   1
_chemical_formula_structural   Dy3Lu5(AlPt)2
_chemical_formula_sum   'Dy6 Lu10 Al4 Pt4'
_cell_volume   598.75439970
_cell_formula_units_Z   2
loop_
 _symmetry_equiv_pos_site_id
 _symmetry_equiv_pos_as_xyz
  1  'x, y, z'
loop_
 _atom_site_type_symbol
 _atom_site_label
 _atom_site_symmetry_multiplicity
 _atom_site_fract_x
 _atom_site_fract_y
 _atom_site_fract_z
 _atom_site_occupancy
  Dy  Dy0  1  0.936546  0.563454  0.563454  1
  Dy  Dy1  1  0.563454  0.936546  0.936546  1
  Dy  Dy2  1  0.563454  0.936546  0.563454  1
  Dy  Dy3  1  0.936546  0.563453  0.936546  1
  Dy  Dy4  1  0.563454  0.563454  0.936546  1
  Dy  Dy5  1  0.936546  0.936546  0.563453  1
  Lu  Lu6  1  0.353925  0.353925  0.353925  1
  Lu  Lu7  1  0.353925  0.353925  0.938225  1
  Lu  Lu8  1  0.353925  0.938225  0.353925  1
  Lu  Lu9  1  0.938225  0.353925  0.353925  1
  Lu  Lu10  1  0.807763  0.192237  0.192237  1
  Lu  Lu11  1  0.192237  0.807763  0.807763  1
  Lu  Lu12  1  0.192237  0.807763  0.192237  1
  Lu  Lu13  1  0.807763  0.192237  0.807763  1
  Lu  Lu14  1  0.192237  0.192237  0.807763  1
  Lu  Lu15  1  0.807763  0.807763  0.192237  1
  Al  Al16  1  0.577296  0.577296  0.577296  1
  Al  Al17  1  0.577296  0.577296  0.268111  1
  Al  Al18  1  0.577296  0.268111  0.577296  1
  Al  Al19  1  0.268111  0.577296  0.577296  1
  Pt  Pt20  1  0.143196  0.143196  0.143196  1
  Pt  Pt21  1  0.143196  0.143196  0.570414  1
  Pt  Pt22  1  0.143196  0.570414  0.143196  1
  Pt  Pt23  1  0.570414  0.143196  0.143196  1
