# generated using pymatgen
data_La4PRu3Br2
_symmetry_space_group_name_H-M   'P 1'
_cell_length_a   4.29749000
_cell_length_b   4.29749042
_cell_length_c   16.88262900
_cell_angle_alpha   90.00000000
_cell_angle_beta   90.00000000
_cell_angle_gamma   119.99999675
_symmetry_Int_Tables_number   1
_chemical_formula_structural   La4PRu3Br2
_chemical_formula_sum   'La4 P1 Ru3 Br2'
_cell_volume   270.02284889
_cell_formula_units_Z   1
loop_
 _symmetry_equiv_pos_site_id
 _symmetry_equiv_pos_as_xyz
  1  'x, y, z'
loop_
 _atom_site_type_symbol
 _atom_site_label
 _atom_site_symmetry_multiplicity
 _atom_site_fract_x
 _atom_site_fract_y
 _atom_site_fract_z
 _atom_site_occupancy
  La  La0  1  0.000000  0.000000  0.112670  1
  La  La1  1  0.000000  0.000000  0.887552  1
  La  La2  1  0.000000  0.000000  0.605039  1
  La  La3  1  0.000000  0.000000  0.399594  1
  P  P4  1  0.333333  0.666667  0.509253  1
  Ru  Ru5  1  0.666667  0.333333  0.493306  1
  Ru  Ru6  1  0.666667  0.333333  0.004934  1
  Ru  Ru7  1  0.333333  0.666667  0.993695  1
  Br  Br8  1  0.333333  0.666667  0.253943  1
  Br  Br9  1  0.666667  0.333333  0.740018  1
