# generated using pymatgen
data_Tm2Al7Ga2Ir3
_symmetry_space_group_name_H-M   'P 1'
_cell_length_a   7.51440735
_cell_length_b   7.51022506
_cell_length_c   9.50024500
_cell_angle_alpha   90.00000000
_cell_angle_beta   90.00000000
_cell_angle_gamma   119.55483211
_symmetry_Int_Tables_number   1
_chemical_formula_structural   Tm2Al7Ga2Ir3
_chemical_formula_sum   'Tm4 Al14 Ga4 Ir6'
_cell_volume   466.38423085
_cell_formula_units_Z   2
loop_
 _symmetry_equiv_pos_site_id
 _symmetry_equiv_pos_as_xyz
  1  'x, y, z'
loop_
 _atom_site_type_symbol
 _atom_site_label
 _atom_site_symmetry_multiplicity
 _atom_site_fract_x
 _atom_site_fract_y
 _atom_site_fract_z
 _atom_site_occupancy
  Tm  Tm0  1  0.996901  0.672465  0.250000  1
  Tm  Tm1  1  0.003099  0.327535  0.750000  1
  Tm  Tm2  1  0.669939  0.993711  0.250000  1
  Tm  Tm3  1  0.330061  0.006289  0.750000  1
  Al  Al4  1  0.000962  0.334751  0.073482  1
  Al  Al5  1  0.999038  0.665249  0.926518  1
  Al  Al6  1  0.999038  0.665249  0.573482  1
  Al  Al7  1  0.335093  0.001391  0.426427  1
  Al  Al8  1  0.000962  0.334751  0.426518  1
  Al  Al9  1  0.664907  0.998609  0.573573  1
  Al  Al10  1  0.664907  0.998609  0.926427  1
  Al  Al11  1  0.335093  0.001391  0.073573  1
  Al  Al12  1  0.333537  0.333799  0.555571  1
  Al  Al13  1  0.666463  0.666201  0.444429  1
  Al  Al14  1  0.666463  0.666201  0.055571  1
  Al  Al15  1  0.333537  0.333799  0.944429  1
  Al  Al16  1  0.548915  0.338655  0.250000  1
  Al  Al17  1  0.451085  0.661345  0.750000  1
  Ga  Ga18  1  0.128981  0.129489  0.250000  1
  Ga  Ga19  1  0.871019  0.870511  0.750000  1
  Ga  Ga20  1  0.338405  0.546515  0.250000  1
  Ga  Ga21  1  0.661595  0.453485  0.750000  1
  Ir  Ir22  1  0.671505  0.327680  0.002599  1
  Ir  Ir23  1  0.328495  0.672320  0.997401  1
  Ir  Ir24  1  0.328495  0.672320  0.502599  1
  Ir  Ir25  1  0.671505  0.327680  0.497401  1
  Ir  Ir26  1  0.000000  0.000000  0.000000  1
  Ir  Ir27  1  0.000000  0.000000  0.500000  1
