# generated using pymatgen
data_CeEr3(GaRh)4
_symmetry_space_group_name_H-M   'P 1'
_cell_length_a   4.29239200
_cell_length_b   6.83971922
_cell_length_c   7.80920374
_cell_angle_alpha   89.60740910
_cell_angle_beta   90.00000000
_cell_angle_gamma   90.00000000
_symmetry_Int_Tables_number   1
_chemical_formula_structural   CeEr3(GaRh)4
_chemical_formula_sum   'Ce1 Er3 Ga4 Rh4'
_cell_volume   229.26312558
_cell_formula_units_Z   1
loop_
 _symmetry_equiv_pos_site_id
 _symmetry_equiv_pos_as_xyz
  1  'x, y, z'
loop_
 _atom_site_type_symbol
 _atom_site_label
 _atom_site_symmetry_multiplicity
 _atom_site_fract_x
 _atom_site_fract_y
 _atom_site_fract_z
 _atom_site_occupancy
  Ce  Ce0  1  0.250000  0.969287  0.317814  1
  Er  Er1  1  0.250000  0.469597  0.186423  1
  Er  Er2  1  0.750000  0.030986  0.695661  1
  Er  Er3  1  0.750000  0.530190  0.810319  1
  Ga  Ga4  1  0.250000  0.351274  0.569801  1
  Ga  Ga5  1  0.250000  0.845412  0.927698  1
  Ga  Ga6  1  0.750000  0.642070  0.431623  1
  Ga  Ga7  1  0.750000  0.158981  0.066529  1
  Rh  Rh8  1  0.250000  0.237379  0.888483  1
  Rh  Rh9  1  0.250000  0.739594  0.604671  1
  Rh  Rh10  1  0.750000  0.767695  0.111980  1
  Rh  Rh11  1  0.750000  0.257535  0.388998  1
