# generated using pymatgen
data_Dy3(Cu2Ni)4
_symmetry_space_group_name_H-M   'P 1'
_cell_length_a   4.90969143
_cell_length_b   4.90969025
_cell_length_c   10.41901400
_cell_angle_alpha   94.67259259
_cell_angle_beta   94.67257976
_cell_angle_gamma   119.27287948
_symmetry_Int_Tables_number   1
_chemical_formula_structural   Dy3(Cu2Ni)4
_chemical_formula_sum   'Dy3 Cu8 Ni4'
_cell_volume   216.21564922
_cell_formula_units_Z   1
loop_
 _symmetry_equiv_pos_site_id
 _symmetry_equiv_pos_as_xyz
  1  'x, y, z'
loop_
 _atom_site_type_symbol
 _atom_site_label
 _atom_site_symmetry_multiplicity
 _atom_site_fract_x
 _atom_site_fract_y
 _atom_site_fract_z
 _atom_site_occupancy
  Dy  Dy0  1  0.002996  0.002996  0.009135  1
  Dy  Dy1  1  0.125568  0.125568  0.346713  1
  Dy  Dy2  1  0.870586  0.870586  0.645933  1
  Cu  Cu3  1  0.571442  0.571442  0.198402  1
  Cu  Cu4  1  0.805615  0.467808  0.403847  1
  Cu  Cu5  1  0.467808  0.805615  0.403847  1
  Cu  Cu6  1  0.527520  0.194336  0.591894  1
  Cu  Cu7  1  0.194336  0.527520  0.591894  1
  Cu  Cu8  1  0.430737  0.430737  0.802656  1
  Cu  Cu9  1  0.933112  0.431570  0.806408  1
  Cu  Cu10  1  0.431570  0.933112  0.806408  1
  Ni  Ni11  1  0.666669  0.335129  0.001918  1
  Ni  Ni12  1  0.335129  0.666669  0.001918  1
  Ni  Ni13  1  0.568883  0.068030  0.194514  1
  Ni  Ni14  1  0.068030  0.568883  0.194514  1
