# generated using pymatgen
data_LaZn9Ag2
_symmetry_space_group_name_H-M   'P 1'
_cell_length_a   8.41934272
_cell_length_b   8.41934205
_cell_length_c   8.41955642
_cell_angle_alpha   100.03470091
_cell_angle_beta   99.54163091
_cell_angle_gamma   131.29853354
_symmetry_Int_Tables_number   1
_chemical_formula_structural   LaZn9Ag2
_chemical_formula_sum   'La2 Zn18 Ag4'
_cell_volume   408.48992716
_cell_formula_units_Z   2
loop_
 _symmetry_equiv_pos_site_id
 _symmetry_equiv_pos_as_xyz
  1  'x, y, z'
loop_
 _atom_site_type_symbol
 _atom_site_label
 _atom_site_symmetry_multiplicity
 _atom_site_fract_x
 _atom_site_fract_y
 _atom_site_fract_z
 _atom_site_occupancy
  La  La0  1  0.001275  0.001275  0.000000  1
  La  La1  1  0.248426  0.748426  0.500000  1
  Zn  Zn2  1  0.619451  0.371079  0.746447  1
  Zn  Zn3  1  0.621628  0.375826  0.251025  1
  Zn  Zn4  1  0.124801  0.370603  0.748975  1
  Zn  Zn5  1  0.624633  0.873004  0.253553  1
  Zn  Zn6  1  0.818420  0.649990  0.582850  1
  Zn  Zn7  1  0.901769  0.816162  0.328943  1
  Zn  Zn8  1  0.487219  0.572826  0.671057  1
  Zn  Zn9  1  0.067140  0.235571  0.417150  1
  Zn  Zn10  1  0.760671  0.931388  0.586552  1
  Zn  Zn11  1  0.344836  0.174118  0.413448  1
  Zn  Zn12  1  0.421689  0.509642  0.327848  1
  Zn  Zn13  1  0.181794  0.093841  0.672152  1
  Zn  Zn14  1  0.435051  0.105763  0.917774  1
  Zn  Zn15  1  0.353384  0.936602  0.173354  1
  Zn  Zn16  1  0.763248  0.180030  0.826646  1
  Zn  Zn17  1  0.187989  0.517277  0.082226  1
  Zn  Zn18  1  0.490027  0.814508  0.913256  1
  Zn  Zn19  1  0.901252  0.576772  0.086744  1
  Ag  Ag20  1  0.071172  0.659351  0.829043  1
  Ag  Ag21  1  0.830308  0.242129  0.170957  1
  Ag  Ag22  1  0.743474  0.243474  0.500000  1
  Ag  Ag23  1  0.500342  0.500342  0.000000  1
