# generated using pymatgen
data_HfMn(TlI3)4
_symmetry_space_group_name_H-M   'P 1'
_cell_length_a   8.46170008
_cell_length_b   8.05451267
_cell_length_c   13.81904900
_cell_angle_alpha   54.32118730
_cell_angle_beta   89.99202354
_cell_angle_gamma   90.39537152
_symmetry_Int_Tables_number   1
_chemical_formula_structural   HfMn(TlI3)4
_chemical_formula_sum   'Hf1 Mn1 Tl4 I12'
_cell_volume   765.02400801
_cell_formula_units_Z   1
loop_
 _symmetry_equiv_pos_site_id
 _symmetry_equiv_pos_as_xyz
  1  'x, y, z'
loop_
 _atom_site_type_symbol
 _atom_site_label
 _atom_site_symmetry_multiplicity
 _atom_site_fract_x
 _atom_site_fract_y
 _atom_site_fract_z
 _atom_site_occupancy
  Hf  Hf0  1  0.000000  0.000000  0.000000  1
  Mn  Mn1  1  0.500000  0.000000  0.500000  1
  Tl  Tl2  1  0.422048  0.728518  0.253873  1
  Tl  Tl3  1  0.922326  0.255759  0.257454  1
  Tl  Tl4  1  0.077674  0.744241  0.742546  1
  Tl  Tl5  1  0.577952  0.271482  0.746127  1
  I  I6  1  0.822418  0.335563  0.960138  1
  I  I7  1  0.511781  0.153612  0.266546  1
  I  I8  1  0.488219  0.846388  0.733454  1
  I  I9  1  0.289545  0.215486  0.963930  1
  I  I10  1  0.319764  0.683340  0.542658  1
  I  I11  1  0.233287  0.217830  0.459945  1
  I  I12  1  0.177582  0.664437  0.039862  1
  I  I13  1  0.766713  0.782170  0.540055  1
  I  I14  1  0.710455  0.784514  0.036070  1
  I  I15  1  0.009589  0.822292  0.249561  1
  I  I16  1  0.990411  0.177708  0.750439  1
  I  I17  1  0.680236  0.316660  0.457342  1
