# generated using pymatgen
data_Sm(CrN)4
_symmetry_space_group_name_H-M   'P 1'
_cell_length_a   5.80231114
_cell_length_b   5.80231776
_cell_length_c   5.80375526
_cell_angle_alpha   93.95450980
_cell_angle_beta   93.93256497
_cell_angle_gamma   149.58943162
_symmetry_Int_Tables_number   1
_chemical_formula_structural   Sm(CrN)4
_chemical_formula_sum   'Sm1 Cr4 N4'
_cell_volume   95.44630893
_cell_formula_units_Z   1
loop_
 _symmetry_equiv_pos_site_id
 _symmetry_equiv_pos_as_xyz
  1  'x, y, z'
loop_
 _atom_site_type_symbol
 _atom_site_label
 _atom_site_symmetry_multiplicity
 _atom_site_fract_x
 _atom_site_fract_y
 _atom_site_fract_z
 _atom_site_occupancy
  Sm  Sm0  1  0.000079  0.999994  0.000073  1
  Cr  Cr1  1  0.821156  0.362555  0.183728  1
  Cr  Cr2  1  0.637331  0.821263  0.458582  1
  Cr  Cr3  1  0.362494  0.178731  0.541214  1
  Cr  Cr4  1  0.178911  0.637515  0.816423  1
  N  N5  1  0.407326  0.740692  0.148019  1
  N  N6  1  0.740796  0.592677  0.333470  1
  N  N7  1  0.259290  0.407272  0.666568  1
  N  N8  1  0.592621  0.259304  0.851922  1
