# generated using pymatgen
data_Ca20Bi7Sb5
_symmetry_space_group_name_H-M   'P 1'
_cell_length_a   8.38337923
_cell_length_b   9.72754804
_cell_length_c   12.75437740
_cell_angle_alpha   89.99163193
_cell_angle_beta   90.08324520
_cell_angle_gamma   90.00596416
_symmetry_Int_Tables_number   1
_chemical_formula_structural   Ca20Bi7Sb5
_chemical_formula_sum   'Ca20 Bi7 Sb5'
_cell_volume   1040.11484381
_cell_formula_units_Z   1
loop_
 _symmetry_equiv_pos_site_id
 _symmetry_equiv_pos_as_xyz
  1  'x, y, z'
loop_
 _atom_site_type_symbol
 _atom_site_label
 _atom_site_symmetry_multiplicity
 _atom_site_fract_x
 _atom_site_fract_y
 _atom_site_fract_z
 _atom_site_occupancy
  Ca  Ca0  1  0.310618  0.958221  0.076721  1
  Ca  Ca1  1  0.810634  0.041842  0.423244  1
  Ca  Ca2  1  0.689272  0.458160  0.923294  1
  Ca  Ca3  1  0.189790  0.541681  0.576032  1
  Ca  Ca4  1  0.689318  0.041880  0.923355  1
  Ca  Ca5  1  0.189410  0.958211  0.576672  1
  Ca  Ca6  1  0.311775  0.541585  0.078482  1
  Ca  Ca7  1  0.808318  0.458512  0.422732  1
  Ca  Ca8  1  0.678768  0.748202  0.227435  1
  Ca  Ca9  1  0.181865  0.251679  0.273501  1
  Ca  Ca10  1  0.319500  0.249981  0.773087  1
  Ca  Ca11  1  0.819496  0.750007  0.726763  1
  Ca  Ca12  1  0.153585  0.748246  0.294107  1
  Ca  Ca13  1  0.650621  0.251419  0.206783  1
  Ca  Ca14  1  0.848321  0.250015  0.706180  1
  Ca  Ca15  1  0.348308  0.749953  0.793759  1
  Ca  Ca16  1  0.536516  0.748359  0.503570  1
  Ca  Ca17  1  0.037267  0.250002  0.995274  1
  Ca  Ca18  1  0.462453  0.251866  0.494122  1
  Ca  Ca19  1  0.962756  0.749988  0.004913  1
  Bi  Bi20  1  0.937448  0.012146  0.171408  1
  Bi  Bi21  1  0.437475  0.987994  0.328665  1
  Bi  Bi22  1  0.062539  0.512102  0.828630  1
  Bi  Bi23  1  0.562500  0.487952  0.671328  1
  Bi  Bi24  1  0.062560  0.987887  0.828646  1
  Bi  Bi25  1  0.562436  0.012055  0.671211  1
  Bi  Bi26  1  0.937486  0.487888  0.171334  1
  Sb  Sb27  1  0.439120  0.512178  0.328794  1
  Sb  Sb28  1  0.578207  0.749898  0.984639  1
  Sb  Sb29  1  0.078213  0.250131  0.515445  1
  Sb  Sb30  1  0.421747  0.250153  0.015479  1
  Sb  Sb31  1  0.921681  0.749808  0.484392  1
