# generated using pymatgen
data_BaYb(TaS2)6
_symmetry_space_group_name_H-M   'P 1'
_cell_length_a   5.81748000
_cell_length_b   5.81748046
_cell_length_c   15.10032000
_cell_angle_alpha   90.00000000
_cell_angle_beta   90.00000000
_cell_angle_gamma   119.99999737
_symmetry_Int_Tables_number   1
_chemical_formula_structural   BaYb(TaS2)6
_chemical_formula_sum   'Ba1 Yb1 Ta6 S12'
_cell_volume   442.57474347
_cell_formula_units_Z   1
loop_
 _symmetry_equiv_pos_site_id
 _symmetry_equiv_pos_as_xyz
  1  'x, y, z'
loop_
 _atom_site_type_symbol
 _atom_site_label
 _atom_site_symmetry_multiplicity
 _atom_site_fract_x
 _atom_site_fract_y
 _atom_site_fract_z
 _atom_site_occupancy
  Ba  Ba0  1  0.000000  0.000000  0.500000  1
  Yb  Yb1  1  0.000000  0.000000  0.000000  1
  Ta  Ta2  1  0.000000  0.000000  0.237192  1
  Ta  Ta3  1  0.000000  0.000000  0.762808  1
  Ta  Ta4  1  0.333333  0.666667  0.235690  1
  Ta  Ta5  1  0.666667  0.333333  0.764310  1
  Ta  Ta6  1  0.666667  0.333333  0.235690  1
  Ta  Ta7  1  0.333333  0.666667  0.764310  1
  S  S8  1  0.334143  0.000000  0.132728  1
  S  S9  1  0.000000  0.334143  0.132728  1
  S  S10  1  0.665857  0.665857  0.132728  1
  S  S11  1  0.338267  0.338267  0.660480  1
  S  S12  1  0.661733  0.661733  0.339520  1
  S  S13  1  0.661733  0.000000  0.660480  1
  S  S14  1  0.000000  0.661733  0.660480  1
  S  S15  1  0.000000  0.665857  0.867272  1
  S  S16  1  0.334143  0.334143  0.867272  1
  S  S17  1  0.000000  0.338267  0.339520  1
  S  S18  1  0.338267  0.000000  0.339520  1
  S  S19  1  0.665857  0.000000  0.867272  1
