# generated using pymatgen
data_Yb3U3(Cu3Sb4)2
_symmetry_space_group_name_H-M   'P 1'
_cell_length_a   8.29689867
_cell_length_b   8.30417259
_cell_length_c   8.30525541
_cell_angle_alpha   109.66543860
_cell_angle_beta   108.68847630
_cell_angle_gamma   110.11985893
_symmetry_Int_Tables_number   1
_chemical_formula_structural   Yb3U3(Cu3Sb4)2
_chemical_formula_sum   'Yb3 U3 Cu6 Sb8'
_cell_volume   440.11653720
_cell_formula_units_Z   1
loop_
 _symmetry_equiv_pos_site_id
 _symmetry_equiv_pos_as_xyz
  1  'x, y, z'
loop_
 _atom_site_type_symbol
 _atom_site_label
 _atom_site_symmetry_multiplicity
 _atom_site_fract_x
 _atom_site_fract_y
 _atom_site_fract_z
 _atom_site_occupancy
  Yb  Yb0  1  0.873481  0.247013  0.121102  1
  Yb  Yb1  1  0.626527  0.747676  0.373566  1
  Yb  Yb2  1  0.249992  0.128948  0.878944  1
  U  U3  1  0.750006  0.373032  0.623043  1
  U  U4  1  0.125536  0.875767  0.254282  1
  U  U5  1  0.374454  0.628698  0.750186  1
  Cu  Cu6  1  0.375800  0.249848  0.631208  1
  Cu  Cu7  1  0.124213  0.755375  0.874095  1
  Cu  Cu8  1  0.250017  0.616519  0.366541  1
  Cu  Cu9  1  0.749925  0.880023  0.129943  1
  Cu  Cu10  1  0.627197  0.376639  0.247426  1
  Cu  Cu11  1  0.872821  0.120236  0.749446  1
  Sb  Sb12  1  0.663789  0.503888  0.999983  1
  Sb  Sb13  1  0.498851  0.996345  0.657178  1
  Sb  Sb14  1  0.001165  0.658330  0.497502  1
  Sb  Sb15  1  0.836231  0.836168  0.840073  1
  Sb  Sb16  1  0.500180  0.003090  0.163241  1
  Sb  Sb17  1  0.157381  0.501764  0.994990  1
  Sb  Sb18  1  0.999798  0.163060  0.502889  1
  Sb  Sb19  1  0.342635  0.337580  0.344362  1
