# generated using pymatgen
data_Li4Tb3DySn3Sb
_symmetry_space_group_name_H-M   'P 1'
_cell_length_a   9.38897724
_cell_length_b   9.39222770
_cell_length_c   7.28574190
_cell_angle_alpha   89.99999940
_cell_angle_beta   90.06546475
_cell_angle_gamma   120.01144942
_symmetry_Int_Tables_number   1
_chemical_formula_structural   Li4Tb3DySn3Sb
_chemical_formula_sum   'Li8 Tb6 Dy2 Sn6 Sb2'
_cell_volume   556.34068104
_cell_formula_units_Z   2
loop_
 _symmetry_equiv_pos_site_id
 _symmetry_equiv_pos_as_xyz
  1  'x, y, z'
loop_
 _atom_site_type_symbol
 _atom_site_label
 _atom_site_symmetry_multiplicity
 _atom_site_fract_x
 _atom_site_fract_y
 _atom_site_fract_z
 _atom_site_occupancy
  Li  Li0  1  0.167034  0.333628  0.286032  1
  Li  Li1  1  0.167034  0.833407  0.286032  1
  Li  Li2  1  0.666443  0.833221  0.286231  1
  Li  Li3  1  0.832506  0.666358  0.786525  1
  Li  Li4  1  0.832506  0.166149  0.786525  1
  Li  Li5  1  0.333945  0.166973  0.787552  1
  Li  Li6  1  0.334056  0.667028  0.671970  1
  Li  Li7  1  0.666677  0.333338  0.173682  1
  Tb  Tb8  1  0.514066  0.024549  0.492165  1
  Tb  Tb9  1  0.514066  0.489516  0.492165  1
  Tb  Tb10  1  0.974751  0.487375  0.490938  1
  Tb  Tb11  1  0.489967  0.977621  0.995357  1
  Tb  Tb12  1  0.489967  0.512347  0.995357  1
  Tb  Tb13  1  0.020857  0.510429  0.996447  1
  Dy  Dy14  1  0.998033  0.999016  0.497100  1
  Dy  Dy15  1  0.998017  0.999008  0.002694  1
  Sn  Sn16  1  0.667105  0.833553  0.731756  1
  Sn  Sn17  1  0.834257  0.667296  0.231754  1
  Sn  Sn18  1  0.834257  0.166960  0.231754  1
  Sn  Sn19  1  0.332675  0.166337  0.231664  1
  Sn  Sn20  1  0.332639  0.666320  0.261012  1
  Sn  Sn21  1  0.667222  0.333610  0.761481  1
  Sb  Sb22  1  0.165960  0.332805  0.732903  1
  Sb  Sb23  1  0.165960  0.833154  0.732903  1
