# generated using pymatgen
data_Eu5ErTiAl23Os8
_symmetry_space_group_name_H-M   'P 1'
_cell_length_a   8.93834002
_cell_length_b   8.94127536
_cell_length_c   9.72585805
_cell_angle_alpha   90.00049392
_cell_angle_beta   89.99109761
_cell_angle_gamma   120.06039539
_symmetry_Int_Tables_number   1
_chemical_formula_structural   Eu5ErTiAl23Os8
_chemical_formula_sum   'Eu5 Er1 Ti1 Al23 Os8'
_cell_volume   672.74467161
_cell_formula_units_Z   1
loop_
 _symmetry_equiv_pos_site_id
 _symmetry_equiv_pos_as_xyz
  1  'x, y, z'
loop_
 _atom_site_type_symbol
 _atom_site_label
 _atom_site_symmetry_multiplicity
 _atom_site_fract_x
 _atom_site_fract_y
 _atom_site_fract_z
 _atom_site_occupancy
  Eu  Eu0  1  0.193912  0.387014  0.250148  1
  Eu  Eu1  1  0.807481  0.614439  0.749490  1
  Eu  Eu2  1  0.613387  0.806175  0.250227  1
  Eu  Eu3  1  0.385536  0.192479  0.749411  1
  Eu  Eu4  1  0.193626  0.806425  0.250572  1
  Er  Er5  1  0.807726  0.192446  0.747337  1
  Ti  Ti6  1  0.333288  0.666615  0.984593  1
  Al  Al7  1  0.666724  0.333138  0.995816  1
  Al  Al8  1  0.666508  0.333416  0.509015  1
  Al  Al9  1  0.332908  0.667212  0.492489  1
  Al  Al10  1  0.160689  0.322592  0.574691  1
  Al  Al11  1  0.837455  0.675193  0.426623  1
  Al  Al12  1  0.677360  0.839301  0.574655  1
  Al  Al13  1  0.837704  0.675780  0.075623  1
  Al  Al14  1  0.324753  0.162533  0.426597  1
  Al  Al15  1  0.157853  0.318209  0.925602  1
  Al  Al16  1  0.161685  0.838276  0.574204  1
  Al  Al17  1  0.324223  0.162304  0.075586  1
  Al  Al18  1  0.837841  0.162114  0.426601  1
  Al  Al19  1  0.681761  0.842146  0.925747  1
  Al  Al20  1  0.837733  0.162183  0.074408  1
  Al  Al21  1  0.159224  0.840771  0.926588  1
  Al  Al22  1  0.562565  0.124173  0.251420  1
  Al  Al23  1  0.441889  0.881273  0.749668  1
  Al  Al24  1  0.875637  0.437459  0.251378  1
  Al  Al25  1  0.118737  0.558128  0.749612  1
  Al  Al26  1  0.562513  0.437520  0.251503  1
  Al  Al27  1  0.439626  0.560294  0.749409  1
  Al  Al28  1  0.000497  0.999842  0.250723  1
  Al  Al29  1  0.998925  0.001053  0.750424  1
  Os  Os30  1  0.500467  0.998679  0.998921  1
  Os  Os31  1  0.001188  0.499438  0.998850  1
  Os  Os32  1  0.502329  0.000886  0.504088  1
  Os  Os33  1  0.498304  0.501722  0.000873  1
  Os  Os34  1  0.999130  0.497648  0.504042  1
  Os  Os35  1  0.499188  0.500797  0.501853  1
  Os  Os36  1  0.999739  0.000275  0.001251  1
  Os  Os37  1  0.999888  0.000057  0.499960  1
