# generated using pymatgen
data_BaMgMn5O12
_symmetry_space_group_name_H-M   'P 1'
_cell_length_a   8.25241346
_cell_length_b   8.24282229
_cell_length_c   9.84841504
_cell_angle_alpha   54.56948606
_cell_angle_beta   54.52604776
_cell_angle_gamma   64.78566202
_symmetry_Int_Tables_number   1
_chemical_formula_structural   BaMgMn5O12
_chemical_formula_sum   'Ba2 Mg2 Mn10 O24'
_cell_volume   440.47134593
_cell_formula_units_Z   2
loop_
 _symmetry_equiv_pos_site_id
 _symmetry_equiv_pos_as_xyz
  1  'x, y, z'
loop_
 _atom_site_type_symbol
 _atom_site_label
 _atom_site_symmetry_multiplicity
 _atom_site_fract_x
 _atom_site_fract_y
 _atom_site_fract_z
 _atom_site_occupancy
  Ba  Ba0  1  0.724529  0.288317  0.999002  1
  Ba  Ba1  1  0.281038  0.718823  0.994358  1
  Mg  Mg2  1  0.336882  0.341218  0.812749  1
  Mg  Mg3  1  0.008165  0.671913  0.812047  1
  Mn  Mn4  1  0.670350  0.002598  0.818806  1
  Mn  Mn5  1  0.999486  0.330663  0.175881  1
  Mn  Mn6  1  0.665039  0.662584  0.180212  1
  Mn  Mn7  1  0.329551  0.000502  0.180354  1
  Mn  Mn8  1  0.143605  0.147629  0.519813  1
  Mn  Mn9  1  0.478595  0.810481  0.523331  1
  Mn  Mn10  1  0.813917  0.477496  0.519863  1
  Mn  Mn11  1  0.854348  0.849746  0.477824  1
  Mn  Mn12  1  0.187291  0.519798  0.474692  1
  Mn  Mn13  1  0.515529  0.188159  0.478391  1
  O  O14  1  0.346267  0.350377  0.599417  1
  O  O15  1  0.010834  0.672414  0.606176  1
  O  O16  1  0.671235  0.006991  0.617891  1
  O  O17  1  0.989673  0.324685  0.386152  1
  O  O18  1  0.649654  0.649290  0.393256  1
  O  O19  1  0.323771  0.987690  0.387671  1
  O  O20  1  0.346254  0.342103  0.347634  1
  O  O21  1  0.006612  0.677726  0.351889  1
  O  O22  1  0.677435  0.010122  0.355736  1
  O  O23  1  0.996277  0.328477  0.636580  1
  O  O24  1  0.661821  0.657722  0.642962  1
  O  O25  1  0.325296  0.997576  0.638809  1
  O  O26  1  0.639398  0.286546  0.722046  1
  O  O27  1  0.302274  0.638002  0.723236  1
  O  O28  1  0.954368  0.971354  0.713807  1
  O  O29  1  0.706271  0.375044  0.276011  1
  O  O30  1  0.373732  0.710074  0.278042  1
  O  O31  1  0.043953  0.038769  0.283673  1
  O  O32  1  0.951242  0.620615  0.073172  1
  O  O33  1  0.628497  0.959466  0.057846  1
  O  O34  1  0.290104  0.289531  0.072496  1
  O  O35  1  0.379182  0.027345  0.952325  1
  O  O36  1  0.029039  0.360262  0.962044  1
  O  O37  1  0.688484  0.707893  0.953803  1
