# generated using pymatgen
data_Na12Ga8Pt3Au
_symmetry_space_group_name_H-M   'P 1'
_cell_length_a   9.03457745
_cell_length_b   9.03457717
_cell_length_c   9.11924863
_cell_angle_alpha   60.30666546
_cell_angle_beta   60.30666831
_cell_angle_gamma   60.00000885
_symmetry_Int_Tables_number   1
_chemical_formula_structural   Na12Ga8Pt3Au
_chemical_formula_sum   'Na12 Ga8 Pt3 Au1'
_cell_volume   528.75849848
_cell_formula_units_Z   1
loop_
 _symmetry_equiv_pos_site_id
 _symmetry_equiv_pos_as_xyz
  1  'x, y, z'
loop_
 _atom_site_type_symbol
 _atom_site_label
 _atom_site_symmetry_multiplicity
 _atom_site_fract_x
 _atom_site_fract_y
 _atom_site_fract_z
 _atom_site_occupancy
  Na  Na0  1  0.452185  0.049134  0.046496  1
  Na  Na1  1  0.796998  0.202631  0.797740  1
  Na  Na2  1  0.452185  0.452185  0.046496  1
  Na  Na3  1  0.797815  0.797815  0.203504  1
  Na  Na4  1  0.202631  0.796998  0.797740  1
  Na  Na5  1  0.047369  0.453002  0.452260  1
  Na  Na6  1  0.047369  0.047369  0.452260  1
  Na  Na7  1  0.202631  0.202631  0.797740  1
  Na  Na8  1  0.453002  0.047369  0.452260  1
  Na  Na9  1  0.797815  0.200866  0.203504  1
  Na  Na10  1  0.049134  0.452185  0.046496  1
  Na  Na11  1  0.200866  0.797815  0.203504  1
  Ga  Ga12  1  0.417960  0.417960  0.430725  1
  Ga  Ga13  1  0.733355  0.417960  0.430725  1
  Ga  Ga14  1  0.832040  0.832040  0.819275  1
  Ga  Ga15  1  0.423058  0.423058  0.730827  1
  Ga  Ga16  1  0.826942  0.826942  0.519173  1
  Ga  Ga17  1  0.417960  0.733355  0.430725  1
  Ga  Ga18  1  0.832040  0.516645  0.819275  1
  Ga  Ga19  1  0.516645  0.832040  0.819275  1
  Pt  Pt20  1  0.625000  0.125000  0.625000  1
  Pt  Pt21  1  0.125000  0.625000  0.625000  1
  Pt  Pt22  1  0.625000  0.625000  0.625000  1
  Au  Au23  1  0.625000  0.625000  0.125000  1
