# generated using pymatgen
data_La8Pr9Tm3Sn16
_symmetry_space_group_name_H-M   'P 1'
_cell_length_a   8.26823600
_cell_length_b   8.41996374
_cell_length_c   15.97680400
_cell_angle_alpha   90.00000000
_cell_angle_beta   90.00000000
_cell_angle_gamma   90.05397531
_symmetry_Int_Tables_number   1
_chemical_formula_structural   La8Pr9Tm3Sn16
_chemical_formula_sum   'La8 Pr9 Tm3 Sn16'
_cell_volume   1112.27659810
_cell_formula_units_Z   1
loop_
 _symmetry_equiv_pos_site_id
 _symmetry_equiv_pos_as_xyz
  1  'x, y, z'
loop_
 _atom_site_type_symbol
 _atom_site_label
 _atom_site_symmetry_multiplicity
 _atom_site_fract_x
 _atom_site_fract_y
 _atom_site_fract_z
 _atom_site_occupancy
  La  La0  1  0.517433  0.318395  0.902037  1
  La  La1  1  0.017274  0.181762  0.598714  1
  La  La2  1  0.482764  0.681031  0.402699  1
  La  La3  1  0.982610  0.817715  0.097155  1
  La  La4  1  0.482764  0.681031  0.097301  1
  La  La5  1  0.982610  0.817715  0.402845  1
  La  La6  1  0.517433  0.318395  0.597963  1
  La  La7  1  0.017274  0.181762  0.901286  1
  Pr  Pr8  1  0.365627  0.838175  0.877836  1
  Pr  Pr9  1  0.866094  0.661312  0.620432  1
  Pr  Pr10  1  0.634893  0.162443  0.379793  1
  Pr  Pr11  1  0.133194  0.338161  0.119605  1
  Pr  Pr12  1  0.634893  0.162443  0.120207  1
  Pr  Pr13  1  0.133194  0.338161  0.380395  1
  Pr  Pr14  1  0.365627  0.838175  0.622164  1
  Pr  Pr15  1  0.866094  0.661312  0.879568  1
  Pr  Pr16  1  0.303624  0.001545  0.250000  1
  Tm  Tm17  1  0.199194  0.501628  0.750000  1
  Tm  Tm18  1  0.698502  0.997734  0.750000  1
  Tm  Tm19  1  0.801706  0.497210  0.250000  1
  Sn  Sn20  1  0.294178  0.037183  0.041339  1
  Sn  Sn21  1  0.793618  0.465440  0.454881  1
  Sn  Sn22  1  0.705759  0.965244  0.545458  1
  Sn  Sn23  1  0.206670  0.535225  0.954422  1
  Sn  Sn24  1  0.705759  0.965244  0.954542  1
  Sn  Sn25  1  0.206670  0.535225  0.545578  1
  Sn  Sn26  1  0.294178  0.037183  0.458661  1
  Sn  Sn27  1  0.793618  0.465440  0.045119  1
  Sn  Sn28  1  0.562990  0.617048  0.750000  1
  Sn  Sn29  1  0.061361  0.882577  0.750000  1
  Sn  Sn30  1  0.438993  0.386430  0.250000  1
  Sn  Sn31  1  0.932748  0.118028  0.250000  1
  Sn  Sn32  1  0.322787  0.146707  0.750000  1
  Sn  Sn33  1  0.821776  0.354699  0.750000  1
  Sn  Sn34  1  0.680537  0.852575  0.250000  1
  Sn  Sn35  1  0.175550  0.639646  0.250000  1
