# generated using pymatgen
data_TmTh3(NiB4)4
_symmetry_space_group_name_H-M   'P 1'
_cell_length_a   6.91812221
_cell_length_b   6.91812154
_cell_length_c   6.91812265
_cell_angle_alpha   112.81768378
_cell_angle_beta   112.81768011
_cell_angle_gamma   102.96758747
_symmetry_Int_Tables_number   1
_chemical_formula_structural   TmTh3(NiB4)4
_chemical_formula_sum   'Tm1 Th3 Ni4 B16'
_cell_volume   252.45960931
_cell_formula_units_Z   1
loop_
 _symmetry_equiv_pos_site_id
 _symmetry_equiv_pos_as_xyz
  1  'x, y, z'
loop_
 _atom_site_type_symbol
 _atom_site_label
 _atom_site_symmetry_multiplicity
 _atom_site_fract_x
 _atom_site_fract_y
 _atom_site_fract_z
 _atom_site_occupancy
  Tm  Tm0  1  0.250000  0.750000  0.500000  1
  Th  Th1  1  0.203626  0.203626  0.000000  1
  Th  Th2  1  0.796374  0.796374  0.000000  1
  Th  Th3  1  0.750000  0.250000  0.500000  1
  Ni  Ni4  1  0.497792  0.268137  0.770345  1
  Ni  Ni5  1  0.497792  0.727448  0.229655  1
  Ni  Ni6  1  0.731863  0.502208  0.229655  1
  Ni  Ni7  1  0.272552  0.502208  0.770345  1
  B  B8  1  0.110629  0.273275  0.385429  1
  B  B9  1  0.887845  0.725199  0.614571  1
  B  B10  1  0.887845  0.273275  0.162647  1
  B  B11  1  0.110629  0.725199  0.837353  1
  B  B12  1  0.726725  0.889371  0.614571  1
  B  B13  1  0.274801  0.112155  0.385429  1
  B  B14  1  0.726725  0.112155  0.837353  1
  B  B15  1  0.274801  0.889371  0.162647  1
  B  B16  1  0.417028  0.420652  0.532075  1
  B  B17  1  0.888578  0.884953  0.467925  1
  B  B18  1  0.579348  0.111422  0.996375  1
  B  B19  1  0.115047  0.582972  0.003625  1
  B  B20  1  0.579348  0.582972  0.467925  1
  B  B21  1  0.115047  0.111422  0.532075  1
  B  B22  1  0.888578  0.420652  0.003625  1
  B  B23  1  0.417028  0.884953  0.996375  1
