# generated using pymatgen
data_Hf18Re8IrSe
_symmetry_space_group_name_H-M   'P 1'
_cell_length_a   8.63430100
_cell_length_b   8.63430124
_cell_length_c   8.61597400
_cell_angle_alpha   90.00000000
_cell_angle_beta   90.00000000
_cell_angle_gamma   120.00000291
_symmetry_Int_Tables_number   1
_chemical_formula_structural   Hf18Re8IrSe
_chemical_formula_sum   'Hf18 Re8 Ir1 Se1'
_cell_volume   556.27479182
_cell_formula_units_Z   1
loop_
 _symmetry_equiv_pos_site_id
 _symmetry_equiv_pos_as_xyz
  1  'x, y, z'
loop_
 _atom_site_type_symbol
 _atom_site_label
 _atom_site_symmetry_multiplicity
 _atom_site_fract_x
 _atom_site_fract_y
 _atom_site_fract_z
 _atom_site_occupancy
  Hf  Hf0  1  0.195137  0.804863  0.445473  1
  Hf  Hf1  1  0.195137  0.390275  0.445473  1
  Hf  Hf2  1  0.609725  0.804863  0.445473  1
  Hf  Hf3  1  0.807987  0.192013  0.548295  1
  Hf  Hf4  1  0.807987  0.615975  0.548295  1
  Hf  Hf5  1  0.384025  0.192013  0.548295  1
  Hf  Hf6  1  0.807987  0.192013  0.951705  1
  Hf  Hf7  1  0.807987  0.615975  0.951705  1
  Hf  Hf8  1  0.384025  0.192013  0.951705  1
  Hf  Hf9  1  0.195137  0.804863  0.054527  1
  Hf  Hf10  1  0.195137  0.390275  0.054527  1
  Hf  Hf11  1  0.609725  0.804863  0.054527  1
  Hf  Hf12  1  0.541636  0.458364  0.250000  1
  Hf  Hf13  1  0.541636  0.083271  0.250000  1
  Hf  Hf14  1  0.916729  0.458364  0.250000  1
  Hf  Hf15  1  0.455148  0.544852  0.750000  1
  Hf  Hf16  1  0.455148  0.910296  0.750000  1
  Hf  Hf17  1  0.089704  0.544852  0.750000  1
  Re  Re18  1  0.889545  0.110455  0.250000  1
  Re  Re19  1  0.889545  0.779088  0.250000  1
  Re  Re20  1  0.220912  0.110455  0.250000  1
  Re  Re21  1  0.110220  0.889780  0.750000  1
  Re  Re22  1  0.110220  0.220439  0.750000  1
  Re  Re23  1  0.779561  0.889780  0.750000  1
  Re  Re24  1  0.000000  0.000000  0.499421  1
  Re  Re25  1  0.000000  0.000000  0.000579  1
  Ir  Ir26  1  0.333333  0.666667  0.250000  1
  Se  Se27  1  0.666667  0.333333  0.750000  1
