# generated using pymatgen
data_YbAgRh2O7
_symmetry_space_group_name_H-M   'P 1'
_cell_length_a   7.17264646
_cell_length_b   7.05455573
_cell_length_c   7.17264653
_cell_angle_alpha   60.54313951
_cell_angle_beta   61.27781423
_cell_angle_gamma   60.54315286
_symmetry_Int_Tables_number   1
_chemical_formula_structural   YbAgRh2O7
_chemical_formula_sum   'Yb2 Ag2 Rh4 O14'
_cell_volume   261.16734848
_cell_formula_units_Z   2
loop_
 _symmetry_equiv_pos_site_id
 _symmetry_equiv_pos_as_xyz
  1  'x, y, z'
loop_
 _atom_site_type_symbol
 _atom_site_label
 _atom_site_symmetry_multiplicity
 _atom_site_fract_x
 _atom_site_fract_y
 _atom_site_fract_z
 _atom_site_occupancy
  Yb  Yb0  1  0.625000  0.125000  0.125000  1
  Yb  Yb1  1  0.125000  0.125000  0.625000  1
  Ag  Ag2  1  0.125000  0.125000  0.125000  1
  Ag  Ag3  1  0.125000  0.625000  0.125000  1
  Rh  Rh4  1  0.625000  0.625000  0.625000  1
  Rh  Rh5  1  0.625000  0.625000  0.125000  1
  Rh  Rh6  1  0.125000  0.625000  0.625000  1
  Rh  Rh7  1  0.625000  0.125000  0.625000  1
  O  O8  1  0.232294  0.267706  0.232294  1
  O  O9  1  0.303167  0.696833  0.303167  1
  O  O10  1  0.951820  0.954315  0.546903  1
  O  O11  1  0.539253  0.960747  0.539253  1
  O  O12  1  0.703097  0.703038  0.298180  1
  O  O13  1  0.951820  0.546962  0.546903  1
  O  O14  1  0.710747  0.289253  0.710747  1
  O  O15  1  0.298180  0.295685  0.703097  1
  O  O16  1  0.703097  0.295685  0.298180  1
  O  O17  1  0.298180  0.703038  0.703097  1
  O  O18  1  0.946833  0.553167  0.946833  1
  O  O19  1  0.546903  0.546962  0.951820  1
  O  O20  1  0.017706  0.982294  0.017706  1
  O  O21  1  0.546903  0.954315  0.951820  1
