# generated using pymatgen
data_Lu10AlSnSb4
_symmetry_space_group_name_H-M   'P 1'
_cell_length_a   8.72118900
_cell_length_b   8.71356632
_cell_length_c   6.27645800
_cell_angle_alpha   90.00000000
_cell_angle_beta   90.00000000
_cell_angle_gamma   119.97110518
_symmetry_Int_Tables_number   1
_chemical_formula_structural   Lu10AlSnSb4
_chemical_formula_sum   'Lu10 Al1 Sn1 Sb4'
_cell_volume   413.18379016
_cell_formula_units_Z   1
loop_
 _symmetry_equiv_pos_site_id
 _symmetry_equiv_pos_as_xyz
  1  'x, y, z'
loop_
 _atom_site_type_symbol
 _atom_site_label
 _atom_site_symmetry_multiplicity
 _atom_site_fract_x
 _atom_site_fract_y
 _atom_site_fract_z
 _atom_site_occupancy
  Lu  Lu0  1  0.675122  0.335181  0.002359  1
  Lu  Lu1  1  0.324878  0.660060  0.002359  1
  Lu  Lu2  1  0.324878  0.660060  0.497641  1
  Lu  Lu3  1  0.675122  0.335181  0.497641  1
  Lu  Lu4  1  0.761495  0.758732  0.750000  1
  Lu  Lu5  1  0.238505  0.997238  0.750000  1
  Lu  Lu6  1  0.000000  0.238721  0.750000  1
  Lu  Lu7  1  0.232356  0.244334  0.250000  1
  Lu  Lu8  1  0.767644  0.011979  0.250000  1
  Lu  Lu9  1  0.000000  0.755784  0.250000  1
  Al  Al10  1  0.000000  0.398363  0.250000  1
  Sn  Sn11  1  0.000000  0.603591  0.750000  1
  Sb  Sb12  1  0.395672  0.391539  0.750000  1
  Sb  Sb13  1  0.604328  0.995865  0.750000  1
  Sb  Sb14  1  0.608019  0.610695  0.250000  1
  Sb  Sb15  1  0.391981  0.002677  0.250000  1
