# generated using pymatgen
data_Tb3Nd3CoBr10
_symmetry_space_group_name_H-M   'P 1'
_cell_length_a   7.47765121
_cell_length_b   9.34774852
_cell_length_c   9.46730062
_cell_angle_alpha   107.97512961
_cell_angle_beta   95.93009001
_cell_angle_gamma   104.18759315
_symmetry_Int_Tables_number   1
_chemical_formula_structural   Tb3Nd3CoBr10
_chemical_formula_sum   'Tb3 Nd3 Co1 Br10'
_cell_volume   598.65681389
_cell_formula_units_Z   1
loop_
 _symmetry_equiv_pos_site_id
 _symmetry_equiv_pos_as_xyz
  1  'x, y, z'
loop_
 _atom_site_type_symbol
 _atom_site_label
 _atom_site_symmetry_multiplicity
 _atom_site_fract_x
 _atom_site_fract_y
 _atom_site_fract_z
 _atom_site_occupancy
  Tb  Tb0  1  0.128614  0.049687  0.260225  1
  Tb  Tb1  1  0.348271  0.124880  0.673113  1
  Tb  Tb2  1  0.651377  0.876010  0.328285  1
  Nd  Nd3  1  0.036735  0.715562  0.406820  1
  Nd  Nd4  1  0.962916  0.283857  0.588147  1
  Nd  Nd5  1  0.869274  0.948843  0.746746  1
  Co  Co6  1  0.999700  0.999320  0.499991  1
  Br  Br7  1  0.452337  0.822004  0.581343  1
  Br  Br8  1  0.540885  0.176334  0.416571  1
  Br  Br9  1  0.913284  0.627745  0.668199  1
  Br  Br10  1  0.090732  0.363754  0.324483  1
  Br  Br11  1  0.246189  0.080954  0.951246  1
  Br  Br12  1  0.763937  0.922047  0.058128  1
  Br  Br13  1  0.345855  0.437968  0.765412  1
  Br  Br14  1  0.651467  0.562493  0.233452  1
  Br  Br15  1  0.759402  0.246394  0.840740  1
  Br  Br16  1  0.239024  0.762148  0.157100  1
