# generated using pymatgen
data_Tb9Ce(Sn3Ge)2
_symmetry_space_group_name_H-M   'P 1'
_cell_length_a   6.52417400
_cell_length_b   9.28941413
_cell_length_c   9.26449004
_cell_angle_alpha   119.90961686
_cell_angle_beta   89.99919301
_cell_angle_gamma   90.00105660
_symmetry_Int_Tables_number   1
_chemical_formula_structural   Tb9Ce(Sn3Ge)2
_chemical_formula_sum   'Tb9 Ce1 Sn6 Ge2'
_cell_volume   486.69941987
_cell_formula_units_Z   1
loop_
 _symmetry_equiv_pos_site_id
 _symmetry_equiv_pos_as_xyz
  1  'x, y, z'
loop_
 _atom_site_type_symbol
 _atom_site_label
 _atom_site_symmetry_multiplicity
 _atom_site_fract_x
 _atom_site_fract_y
 _atom_site_fract_z
 _atom_site_occupancy
  Tb  Tb0  1  0.749991  0.257014  0.001527  1
  Tb  Tb1  1  0.750002  0.742983  0.744518  1
  Tb  Tb2  1  0.749999  0.000000  0.256640  1
  Tb  Tb3  1  0.249995  0.744569  0.999161  1
  Tb  Tb4  1  0.249997  0.255439  0.254587  1
  Tb  Tb5  1  0.500458  0.333658  0.666723  1
  Tb  Tb6  1  0.500455  0.666347  0.333066  1
  Tb  Tb7  1  0.999552  0.666341  0.333073  1
  Tb  Tb8  1  0.999552  0.333660  0.666715  1
  Ce  Ce9  1  0.250009  0.000012  0.745413  1
  Sn  Sn10  1  0.749957  0.608360  0.000836  1
  Sn  Sn11  1  0.750015  0.391632  0.392473  1
  Sn  Sn12  1  0.750067  0.999957  0.610039  1
  Sn  Sn13  1  0.249941  0.394555  0.000814  1
  Sn  Sn14  1  0.250011  0.605454  0.606284  1
  Sn  Sn15  1  0.250005  0.000019  0.389163  1
  Ge  Ge16  1  0.502484  0.999999  0.999486  1
  Ge  Ge17  1  0.997512  0.000001  0.999482  1
