# generated using pymatgen
data_Tb3Y(Si2Tc)2
_symmetry_space_group_name_H-M   'P 1'
_cell_length_a   5.83934121
_cell_length_b   5.83934239
_cell_length_c   10.14937894
_cell_angle_alpha   63.38015895
_cell_angle_beta   63.38015310
_cell_angle_gamma   42.09086582
_symmetry_Int_Tables_number   1
_chemical_formula_structural   Tb3Y(Si2Tc)2
_chemical_formula_sum   'Tb3 Y1 Si4 Tc2'
_cell_volume   203.49289104
_cell_formula_units_Z   1
loop_
 _symmetry_equiv_pos_site_id
 _symmetry_equiv_pos_as_xyz
  1  'x, y, z'
loop_
 _atom_site_type_symbol
 _atom_site_label
 _atom_site_symmetry_multiplicity
 _atom_site_fract_x
 _atom_site_fract_y
 _atom_site_fract_z
 _atom_site_occupancy
  Tb  Tb0  1  0.005552  0.005552  0.322647  1
  Tb  Tb1  1  0.187547  0.187547  0.890720  1
  Tb  Tb2  1  0.994325  0.994325  0.677414  1
  Y  Y3  1  0.812830  0.812830  0.109332  1
  Si  Si4  1  0.356030  0.356030  0.560625  1
  Si  Si5  1  0.498939  0.498939  0.878038  1
  Si  Si6  1  0.644117  0.644117  0.439144  1
  Si  Si7  1  0.500847  0.500847  0.122063  1
  Tc  Tc8  1  0.726780  0.726780  0.629139  1
  Tc  Tc9  1  0.273034  0.273034  0.370877  1
