# generated using pymatgen
data_Nb2Ni3Te5
_symmetry_space_group_name_H-M   'P 1'
_cell_length_a   3.70410100
_cell_length_b   14.51371400
_cell_length_c   17.93173100
_cell_angle_alpha   90.00000000
_cell_angle_beta   90.00000000
_cell_angle_gamma   90.00000000
_symmetry_Int_Tables_number   1
_chemical_formula_structural   Nb2Ni3Te5
_chemical_formula_sum   'Nb8 Ni12 Te20'
_cell_volume   964.01456638
_cell_formula_units_Z   4
loop_
 _symmetry_equiv_pos_site_id
 _symmetry_equiv_pos_as_xyz
  1  'x, y, z'
loop_
 _atom_site_type_symbol
 _atom_site_label
 _atom_site_symmetry_multiplicity
 _atom_site_fract_x
 _atom_site_fract_y
 _atom_site_fract_z
 _atom_site_occupancy
  Nb  Nb0  1  0.250000  0.741855  0.910694  1
  Nb  Nb1  1  0.750000  0.258145  0.089306  1
  Nb  Nb2  1  0.750000  0.758145  0.410694  1
  Nb  Nb3  1  0.250000  0.241855  0.589306  1
  Nb  Nb4  1  0.250000  0.741575  0.167059  1
  Nb  Nb5  1  0.750000  0.258425  0.832941  1
  Nb  Nb6  1  0.750000  0.758425  0.667059  1
  Nb  Nb7  1  0.250000  0.241575  0.332941  1
  Ni  Ni8  1  0.250000  0.700035  0.767387  1
  Ni  Ni9  1  0.750000  0.299965  0.232613  1
  Ni  Ni10  1  0.750000  0.799965  0.267387  1
  Ni  Ni11  1  0.250000  0.200035  0.732613  1
  Ni  Ni12  1  0.250000  0.744014  0.538472  1
  Ni  Ni13  1  0.750000  0.255986  0.461528  1
  Ni  Ni14  1  0.750000  0.755986  0.038472  1
  Ni  Ni15  1  0.250000  0.244014  0.961528  1
  Ni  Ni16  1  0.250000  0.697134  0.310421  1
  Ni  Ni17  1  0.750000  0.302866  0.689579  1
  Ni  Ni18  1  0.750000  0.802866  0.810421  1
  Ni  Ni19  1  0.250000  0.197134  0.189579  1
  Te  Te20  1  0.250000  0.117593  0.059933  1
  Te  Te21  1  0.750000  0.882407  0.940067  1
  Te  Te22  1  0.750000  0.382407  0.559933  1
  Te  Te23  1  0.250000  0.617593  0.440067  1
  Te  Te24  1  0.250000  0.634297  0.038652  1
  Te  Te25  1  0.750000  0.365703  0.961348  1
  Te  Te26  1  0.750000  0.865703  0.538652  1
  Te  Te27  1  0.250000  0.134297  0.461348  1
  Te  Te28  1  0.250000  0.884427  0.338537  1
  Te  Te29  1  0.750000  0.115573  0.661463  1
  Te  Te30  1  0.750000  0.615573  0.838537  1
  Te  Te31  1  0.250000  0.384427  0.161463  1
  Te  Te32  1  0.250000  0.885837  0.738727  1
  Te  Te33  1  0.750000  0.114163  0.261273  1
  Te  Te34  1  0.750000  0.614163  0.238727  1
  Te  Te35  1  0.250000  0.385837  0.761273  1
  Te  Te36  1  0.250000  0.618520  0.637670  1
  Te  Te37  1  0.750000  0.381480  0.362330  1
  Te  Te38  1  0.750000  0.881480  0.137670  1
  Te  Te39  1  0.250000  0.118520  0.862330  1
