# generated using pymatgen
data_TbHoLu8(In2Pt)4
_symmetry_space_group_name_H-M   'P 1'
_cell_length_a   3.57561200
_cell_length_b   8.06172006
_cell_length_c   18.05186114
_cell_angle_alpha   89.98567632
_cell_angle_beta   90.00000000
_cell_angle_gamma   90.00000000
_symmetry_Int_Tables_number   1
_chemical_formula_structural   TbHoLu8(In2Pt)4
_chemical_formula_sum   'Tb1 Ho1 Lu8 In8 Pt4'
_cell_volume   520.35540533
_cell_formula_units_Z   1
loop_
 _symmetry_equiv_pos_site_id
 _symmetry_equiv_pos_as_xyz
  1  'x, y, z'
loop_
 _atom_site_type_symbol
 _atom_site_label
 _atom_site_symmetry_multiplicity
 _atom_site_fract_x
 _atom_site_fract_y
 _atom_site_fract_z
 _atom_site_occupancy
  Tb  Tb0  1  0.000000  0.000000  0.000000  1
  Ho  Ho1  1  0.000000  0.500000  0.500000  1
  Lu  Lu2  1  0.000000  0.116526  0.414109  1
  Lu  Lu3  1  0.000000  0.883474  0.585891  1
  Lu  Lu4  1  0.000000  0.383468  0.914075  1
  Lu  Lu5  1  0.000000  0.616532  0.085925  1
  Lu  Lu6  1  0.000000  0.244307  0.221184  1
  Lu  Lu7  1  0.000000  0.755693  0.778816  1
  Lu  Lu8  1  0.000000  0.255660  0.721188  1
  Lu  Lu9  1  0.000000  0.744340  0.278812  1
  In  In10  1  0.500000  0.423677  0.351627  1
  In  In11  1  0.500000  0.576323  0.648373  1
  In  In12  1  0.500000  0.076465  0.851397  1
  In  In13  1  0.500000  0.923535  0.148603  1
  In  In14  1  0.500000  0.294249  0.066405  1
  In  In15  1  0.500000  0.705751  0.933595  1
  In  In16  1  0.500000  0.206300  0.566259  1
  In  In17  1  0.500000  0.793700  0.433741  1
  Pt  Pt18  1  0.500000  0.025858  0.303760  1
  Pt  Pt19  1  0.500000  0.974142  0.696240  1
  Pt  Pt20  1  0.500000  0.474194  0.803709  1
  Pt  Pt21  1  0.500000  0.525806  0.196291  1
