# generated using pymatgen
data_Tb3Ho2Th3(MgRu)2
_symmetry_space_group_name_H-M   'P 1'
_cell_length_a   9.74173440
_cell_length_b   9.82842195
_cell_length_c   9.82842086
_cell_angle_alpha   59.41732242
_cell_angle_beta   60.29132083
_cell_angle_gamma   60.29132972
_symmetry_Int_Tables_number   1
_chemical_formula_structural   Tb3Ho2Th3(MgRu)2
_chemical_formula_sum   'Tb6 Ho4 Th6 Mg4 Ru4'
_cell_volume   665.30647755
_cell_formula_units_Z   2
loop_
 _symmetry_equiv_pos_site_id
 _symmetry_equiv_pos_as_xyz
  1  'x, y, z'
loop_
 _atom_site_type_symbol
 _atom_site_label
 _atom_site_symmetry_multiplicity
 _atom_site_fract_x
 _atom_site_fract_y
 _atom_site_fract_z
 _atom_site_occupancy
  Tb  Tb0  1  0.184320  0.815680  0.815680  1
  Tb  Tb1  1  0.815680  0.184320  0.184320  1
  Tb  Tb2  1  0.812943  0.187057  0.812943  1
  Tb  Tb3  1  0.187057  0.812943  0.187057  1
  Tb  Tb4  1  0.812943  0.812943  0.187057  1
  Tb  Tb5  1  0.187057  0.187057  0.812943  1
  Ho  Ho6  1  0.439142  0.060858  0.439142  1
  Ho  Ho7  1  0.060858  0.439142  0.060858  1
  Ho  Ho8  1  0.439142  0.439142  0.060858  1
  Ho  Ho9  1  0.060858  0.060858  0.439142  1
  Th  Th10  1  0.592136  0.598695  0.598695  1
  Th  Th11  1  0.598695  0.592136  0.210475  1
  Th  Th12  1  0.598695  0.210475  0.592136  1
  Th  Th13  1  0.210475  0.598695  0.598695  1
  Th  Th14  1  0.066309  0.433691  0.433691  1
  Th  Th15  1  0.433691  0.066309  0.066309  1
  Mg  Mg16  1  0.831804  0.829070  0.829070  1
  Mg  Mg17  1  0.829070  0.831804  0.510057  1
  Mg  Mg18  1  0.829070  0.510057  0.831804  1
  Mg  Mg19  1  0.510057  0.829070  0.829070  1
  Ru  Ru20  1  0.378494  0.398648  0.398648  1
  Ru  Ru21  1  0.398648  0.378494  0.824211  1
  Ru  Ru22  1  0.398648  0.824211  0.378494  1
  Ru  Ru23  1  0.824211  0.398648  0.398648  1
