# generated using pymatgen
data_Sm6CoRe(P3Rh4)4
_symmetry_space_group_name_H-M   'P 1'
_cell_length_a   3.96996400
_cell_length_b   11.24660800
_cell_length_c   12.81389800
_cell_angle_alpha   90.00000000
_cell_angle_beta   90.00000000
_cell_angle_gamma   90.00000000
_symmetry_Int_Tables_number   1
_chemical_formula_structural   Sm6CoRe(P3Rh4)4
_chemical_formula_sum   'Sm6 Co1 Re1 P12 Rh16'
_cell_volume   572.12297634
_cell_formula_units_Z   1
loop_
 _symmetry_equiv_pos_site_id
 _symmetry_equiv_pos_as_xyz
  1  'x, y, z'
loop_
 _atom_site_type_symbol
 _atom_site_label
 _atom_site_symmetry_multiplicity
 _atom_site_fract_x
 _atom_site_fract_y
 _atom_site_fract_z
 _atom_site_occupancy
  Sm  Sm0  1  0.000000  0.500000  0.518977  1
  Sm  Sm1  1  0.500000  0.000000  0.479735  1
  Sm  Sm2  1  0.500000  0.819731  0.203846  1
  Sm  Sm3  1  0.500000  0.180269  0.203846  1
  Sm  Sm4  1  0.000000  0.683786  0.798357  1
  Sm  Sm5  1  0.000000  0.316214  0.798357  1
  Co  Co6  1  0.500000  0.000000  0.020845  1
  Re  Re7  1  0.000000  0.500000  0.992926  1
  P  P8  1  0.500000  0.500000  0.883696  1
  P  P9  1  0.000000  0.000000  0.118775  1
  P  P10  1  0.500000  0.500000  0.345125  1
  P  P11  1  0.000000  0.000000  0.648614  1
  P  P12  1  0.500000  0.313493  0.619238  1
  P  P13  1  0.500000  0.686507  0.619238  1
  P  P14  1  0.000000  0.187374  0.382054  1
  P  P15  1  0.000000  0.812626  0.382054  1
  P  P16  1  0.500000  0.857227  0.896215  1
  P  P17  1  0.500000  0.142773  0.896215  1
  P  P18  1  0.000000  0.660156  0.104603  1
  P  P19  1  0.000000  0.339844  0.104603  1
  Rh  Rh20  1  0.500000  0.500000  0.160969  1
  Rh  Rh21  1  0.000000  0.000000  0.828448  1
  Rh  Rh22  1  0.500000  0.500000  0.701293  1
  Rh  Rh23  1  0.000000  0.000000  0.298849  1
  Rh  Rh24  1  0.500000  0.327211  0.993891  1
  Rh  Rh25  1  0.500000  0.672789  0.993891  1
  Rh  Rh26  1  0.000000  0.157813  0.004111  1
  Rh  Rh27  1  0.000000  0.842187  0.004111  1
  Rh  Rh28  1  0.500000  0.294273  0.429660  1
  Rh  Rh29  1  0.500000  0.705727  0.429660  1
  Rh  Rh30  1  0.000000  0.206996  0.569730  1
  Rh  Rh31  1  0.000000  0.793004  0.569730  1
  Rh  Rh32  1  0.500000  0.874019  0.711839  1
  Rh  Rh33  1  0.500000  0.125981  0.711839  1
  Rh  Rh34  1  0.000000  0.626322  0.287329  1
  Rh  Rh35  1  0.000000  0.373678  0.287329  1
