# generated using pymatgen
data_Ba3Cu17P6Au
_symmetry_space_group_name_H-M   'P 1'
_cell_length_a   9.27034296
_cell_length_b   9.27034277
_cell_length_c   10.49602542
_cell_angle_alpha   58.16280664
_cell_angle_beta   58.16280573
_cell_angle_gamma   36.65894676
_symmetry_Int_Tables_number   1
_chemical_formula_structural   Ba3Cu17P6Au
_chemical_formula_sum   'Ba3 Cu17 P6 Au1'
_cell_volume   447.74225062
_cell_formula_units_Z   1
loop_
 _symmetry_equiv_pos_site_id
 _symmetry_equiv_pos_as_xyz
  1  'x, y, z'
loop_
 _atom_site_type_symbol
 _atom_site_label
 _atom_site_symmetry_multiplicity
 _atom_site_fract_x
 _atom_site_fract_y
 _atom_site_fract_z
 _atom_site_occupancy
  Ba  Ba0  1  0.500000  0.500000  0.000000  1
  Ba  Ba1  1  0.836486  0.836486  0.992306  1
  Ba  Ba2  1  0.163514  0.163514  0.007694  1
  Cu  Cu3  1  0.441691  0.942357  0.674410  1
  Cu  Cu4  1  0.764255  0.295551  0.676762  1
  Cu  Cu5  1  0.117498  0.585506  0.677711  1
  Cu  Cu6  1  0.942357  0.441691  0.674410  1
  Cu  Cu7  1  0.295551  0.764255  0.676762  1
  Cu  Cu8  1  0.585506  0.117498  0.677711  1
  Cu  Cu9  1  0.558309  0.057643  0.325590  1
  Cu  Cu10  1  0.882502  0.414494  0.322289  1
  Cu  Cu11  1  0.235745  0.704449  0.323238  1
  Cu  Cu12  1  0.057643  0.558309  0.325590  1
  Cu  Cu13  1  0.414494  0.882502  0.322289  1
  Cu  Cu14  1  0.704449  0.235745  0.323238  1
  Cu  Cu15  1  0.167259  0.167259  0.500048  1
  Cu  Cu16  1  0.500000  0.500000  0.500000  1
  Cu  Cu17  1  0.832741  0.832741  0.499952  1
  Cu  Cu18  1  0.670779  0.670779  0.500296  1
  Cu  Cu19  1  0.329221  0.329221  0.499704  1
  P  P20  1  0.069450  0.069450  0.792572  1
  P  P21  1  0.402520  0.402520  0.792346  1
  P  P22  1  0.735105  0.735105  0.793382  1
  P  P23  1  0.264895  0.264895  0.206618  1
  P  P24  1  0.597480  0.597480  0.207654  1
  P  P25  1  0.930550  0.930550  0.207428  1
  Au  Au26  1  0.000000  0.000000  0.500000  1
