# generated using pymatgen
data_NdCr4(AuO4)3
_symmetry_space_group_name_H-M   'P 1'
_cell_length_a   6.62960624
_cell_length_b   6.62958308
_cell_length_c   6.62959001
_cell_angle_alpha   70.52832847
_cell_angle_beta   70.52893422
_cell_angle_gamma   109.47139971
_symmetry_Int_Tables_number   1
_chemical_formula_structural   NdCr4(AuO4)3
_chemical_formula_sum   'Nd1 Cr4 Au3 O12'
_cell_volume   224.30356989
_cell_formula_units_Z   1
loop_
 _symmetry_equiv_pos_site_id
 _symmetry_equiv_pos_as_xyz
  1  'x, y, z'
loop_
 _atom_site_type_symbol
 _atom_site_label
 _atom_site_symmetry_multiplicity
 _atom_site_fract_x
 _atom_site_fract_y
 _atom_site_fract_z
 _atom_site_occupancy
  Nd  Nd0  1  0.000070  0.000255  0.999840  1
  Cr  Cr1  1  0.999997  0.499983  0.999990  1
  Cr  Cr2  1  0.499980  0.499954  0.500018  1
  Cr  Cr3  1  0.500016  0.999987  0.000011  1
  Cr  Cr4  1  0.000049  0.000026  0.500012  1
  Au  Au5  1  0.500001  0.999992  0.500045  1
  Au  Au6  1  0.500020  0.499979  0.000021  1
  Au  Au7  1  0.999951  0.499964  0.500000  1
  O  O8  1  0.877008  0.704320  0.827360  1
  O  O9  1  0.468341  0.295634  0.827268  1
  O  O10  1  0.531665  0.704348  0.172659  1
  O  O11  1  0.122906  0.295604  0.172736  1
  O  O12  1  0.827244  0.122830  0.704489  1
  O  O13  1  0.827434  0.531782  0.295570  1
  O  O14  1  0.172732  0.468293  0.704370  1
  O  O15  1  0.172541  0.876932  0.295686  1
  O  O16  1  0.295695  0.172732  0.531606  1
  O  O17  1  0.704324  0.172728  0.122957  1
  O  O18  1  0.295667  0.827322  0.877017  1
  O  O19  1  0.704360  0.827335  0.468341  1
