# generated using pymatgen
data_LaPrBi2(TeO4)4
_symmetry_space_group_name_H-M   'P 1'
_cell_length_a   7.15595219
_cell_length_b   7.15595145
_cell_length_c   10.35966437
_cell_angle_alpha   66.78741317
_cell_angle_beta   66.78741330
_cell_angle_gamma   47.75121116
_symmetry_Int_Tables_number   1
_chemical_formula_structural   LaPrBi2(TeO4)4
_chemical_formula_sum   'La1 Pr1 Bi2 Te4 O16'
_cell_volume   354.33818491
_cell_formula_units_Z   1
loop_
 _symmetry_equiv_pos_site_id
 _symmetry_equiv_pos_as_xyz
  1  'x, y, z'
loop_
 _atom_site_type_symbol
 _atom_site_label
 _atom_site_symmetry_multiplicity
 _atom_site_fract_x
 _atom_site_fract_y
 _atom_site_fract_z
 _atom_site_occupancy
  La  La0  1  0.057473  0.942527  0.500000  1
  Pr  Pr1  1  0.946646  0.053354  0.000000  1
  Bi  Bi2  1  0.665325  0.778742  0.902828  1
  Bi  Bi3  1  0.221258  0.334675  0.097172  1
  Te  Te4  1  0.506994  0.499211  0.749425  1
  Te  Te5  1  0.500789  0.493006  0.250575  1
  Te  Te6  1  0.367737  0.190022  0.624865  1
  Te  Te7  1  0.809978  0.632263  0.375135  1
  O  O8  1  0.790304  0.357564  0.591263  1
  O  O9  1  0.642436  0.209696  0.408737  1
  O  O10  1  0.200766  0.647748  0.901761  1
  O  O11  1  0.352252  0.799234  0.098239  1
  O  O12  1  0.712971  0.486422  0.837069  1
  O  O13  1  0.513578  0.287029  0.162931  1
  O  O14  1  0.302029  0.486219  0.662353  1
  O  O15  1  0.513781  0.697971  0.337647  1
  O  O16  1  0.910104  0.717803  0.162377  1
  O  O17  1  0.282197  0.089896  0.837623  1
  O  O18  1  0.077890  0.286056  0.345753  1
  O  O19  1  0.713944  0.922110  0.654247  1
  O  O20  1  0.159667  0.644441  0.367430  1
  O  O21  1  0.355559  0.840333  0.632570  1
  O  O22  1  0.839667  0.363548  0.126088  1
  O  O23  1  0.636452  0.160333  0.873912  1
