# generated using pymatgen
data_Hf2AlGaPdPt
_symmetry_space_group_name_H-M   'P 1'
_cell_length_a   7.16100700
_cell_length_b   7.16100540
_cell_length_c   7.11533500
_cell_angle_alpha   90.00000000
_cell_angle_beta   90.00000000
_cell_angle_gamma   119.99999352
_symmetry_Int_Tables_number   1
_chemical_formula_structural   Hf2AlGaPdPt
_chemical_formula_sum   'Hf6 Al3 Ga3 Pd3 Pt3'
_cell_volume   315.99056233
_cell_formula_units_Z   3
loop_
 _symmetry_equiv_pos_site_id
 _symmetry_equiv_pos_as_xyz
  1  'x, y, z'
loop_
 _atom_site_type_symbol
 _atom_site_label
 _atom_site_symmetry_multiplicity
 _atom_site_fract_x
 _atom_site_fract_y
 _atom_site_fract_z
 _atom_site_occupancy
  Hf  Hf0  1  0.607658  0.582725  0.249892  1
  Hf  Hf1  1  0.027411  0.418978  0.750411  1
  Hf  Hf2  1  0.417275  0.024934  0.249892  1
  Hf  Hf3  1  0.975066  0.392342  0.249892  1
  Hf  Hf4  1  0.391568  0.972589  0.750411  1
  Hf  Hf5  1  0.581022  0.608432  0.750411  1
  Al  Al6  1  0.254039  0.253061  0.500621  1
  Al  Al7  1  0.746939  0.000978  0.500621  1
  Al  Al8  1  0.999022  0.745961  0.500621  1
  Ga  Ga9  1  0.732337  0.003586  0.001047  1
  Ga  Ga10  1  0.271247  0.267663  0.001047  1
  Ga  Ga11  1  0.996414  0.728753  0.001047  1
  Pd  Pd12  1  0.000000  0.000000  0.757973  1
  Pd  Pd13  1  0.000000  0.000000  0.243759  1
  Pd  Pd14  1  0.666667  0.333333  0.959360  1
  Pt  Pt15  1  0.333333  0.666667  0.466833  1
  Pt  Pt16  1  0.333333  0.666667  0.035764  1
  Pt  Pt17  1  0.666667  0.333333  0.530399  1
