# generated using pymatgen
data_Sr8TbHo11Sn16
_symmetry_space_group_name_H-M   'P 1'
_cell_length_a   8.25947158
_cell_length_b   8.42828783
_cell_length_c   15.99187800
_cell_angle_alpha   89.99738276
_cell_angle_beta   90.05331763
_cell_angle_gamma   89.88553713
_symmetry_Int_Tables_number   1
_chemical_formula_structural   Sr8TbHo11Sn16
_chemical_formula_sum   'Sr8 Tb1 Ho11 Sn16'
_cell_volume   1113.24315685
_cell_formula_units_Z   1
loop_
 _symmetry_equiv_pos_site_id
 _symmetry_equiv_pos_as_xyz
  1  'x, y, z'
loop_
 _atom_site_type_symbol
 _atom_site_label
 _atom_site_symmetry_multiplicity
 _atom_site_fract_x
 _atom_site_fract_y
 _atom_site_fract_z
 _atom_site_occupancy
  Sr  Sr0  1  0.500026  0.325501  0.906802  1
  Sr  Sr1  1  0.999891  0.174769  0.593069  1
  Sr  Sr2  1  0.499936  0.674480  0.406388  1
  Sr  Sr3  1  0.999849  0.825405  0.093856  1
  Sr  Sr4  1  0.500153  0.674759  0.094016  1
  Sr  Sr5  1  0.000108  0.825124  0.406380  1
  Sr  Sr6  1  0.499976  0.325351  0.592923  1
  Sr  Sr7  1  0.999578  0.174966  0.906508  1
  Tb  Tb8  1  0.330884  0.835654  0.875771  1
  Ho  Ho9  1  0.831353  0.663782  0.624139  1
  Ho  Ho10  1  0.668924  0.163610  0.375246  1
  Ho  Ho11  1  0.168709  0.336218  0.125125  1
  Ho  Ho12  1  0.668884  0.163824  0.125010  1
  Ho  Ho13  1  0.168906  0.336298  0.375275  1
  Ho  Ho14  1  0.331582  0.836048  0.624397  1
  Ho  Ho15  1  0.831483  0.664219  0.875425  1
  Ho  Ho16  1  0.166775  0.495218  0.749692  1
  Ho  Ho17  1  0.666948  0.004723  0.749788  1
  Ho  Ho18  1  0.833032  0.504174  0.249995  1
  Ho  Ho19  1  0.333212  0.995692  0.250177  1
  Sn  Sn20  1  0.337544  0.041871  0.044056  1
  Sn  Sn21  1  0.837600  0.458491  0.456394  1
  Sn  Sn22  1  0.662338  0.958669  0.543109  1
  Sn  Sn23  1  0.161569  0.540857  0.957226  1
  Sn  Sn24  1  0.663193  0.959065  0.957051  1
  Sn  Sn25  1  0.162648  0.541453  0.543128  1
  Sn  Sn26  1  0.337662  0.041076  0.456561  1
  Sn  Sn27  1  0.837368  0.458451  0.043451  1
  Sn  Sn28  1  0.530215  0.629006  0.749655  1
  Sn  Sn29  1  0.029156  0.870340  0.749392  1
  Sn  Sn30  1  0.470661  0.370553  0.250200  1
  Sn  Sn31  1  0.970725  0.129536  0.250192  1
  Sn  Sn32  1  0.299389  0.132609  0.749560  1
  Sn  Sn33  1  0.799372  0.368201  0.749636  1
  Sn  Sn34  1  0.700350  0.867527  0.250187  1
  Sn  Sn35  1  0.199998  0.632476  0.250218  1
