# generated using pymatgen
data_Li2Pr3Y3(Co4P3)4
_symmetry_space_group_name_H-M   'P 1'
_cell_length_a   3.75648400
_cell_length_b   10.68103081
_cell_length_c   12.33761736
_cell_angle_alpha   90.09653377
_cell_angle_beta   90.00000000
_cell_angle_gamma   90.00000000
_symmetry_Int_Tables_number   1
_chemical_formula_structural   Li2Pr3Y3(Co4P3)4
_chemical_formula_sum   'Li2 Pr3 Y3 Co16 P12'
_cell_volume   495.02301558
_cell_formula_units_Z   1
loop_
 _symmetry_equiv_pos_site_id
 _symmetry_equiv_pos_as_xyz
  1  'x, y, z'
loop_
 _atom_site_type_symbol
 _atom_site_label
 _atom_site_symmetry_multiplicity
 _atom_site_fract_x
 _atom_site_fract_y
 _atom_site_fract_z
 _atom_site_occupancy
  Li  Li0  1  0.500000  0.499472  0.149945  1
  Li  Li1  1  0.000000  0.000295  0.849715  1
  Pr  Pr2  1  0.000000  0.499624  0.523771  1
  Pr  Pr3  1  0.500000  0.000406  0.477308  1
  Pr  Pr4  1  0.500000  0.819889  0.206244  1
  Y  Y5  1  0.500000  0.182323  0.204657  1
  Y  Y6  1  0.000000  0.679988  0.795490  1
  Y  Y7  1  0.000000  0.319003  0.794089  1
  Co  Co8  1  0.500000  0.499243  0.708082  1
  Co  Co9  1  0.000000  0.004449  0.291877  1
  Co  Co10  1  0.000000  0.498390  0.986031  1
  Co  Co11  1  0.500000  0.001680  0.010161  1
  Co  Co12  1  0.500000  0.332981  0.996428  1
  Co  Co13  1  0.500000  0.665854  0.994795  1
  Co  Co14  1  0.000000  0.168830  0.001658  1
  Co  Co15  1  0.000000  0.833060  0.001106  1
  Co  Co16  1  0.500000  0.296411  0.429903  1
  Co  Co17  1  0.500000  0.702394  0.433043  1
  Co  Co18  1  0.000000  0.204214  0.570458  1
  Co  Co19  1  0.000000  0.796132  0.573065  1
  Co  Co20  1  0.500000  0.879052  0.710241  1
  Co  Co21  1  0.500000  0.120847  0.709316  1
  Co  Co22  1  0.000000  0.618399  0.292936  1
  Co  Co23  1  0.000000  0.378650  0.290218  1
  P  P24  1  0.500000  0.498773  0.885493  1
  P  P25  1  0.000000  0.003346  0.111027  1
  P  P26  1  0.500000  0.499570  0.341629  1
  P  P27  1  0.000000  0.000041  0.659180  1
  P  P28  1  0.500000  0.305508  0.617207  1
  P  P29  1  0.500000  0.693400  0.619044  1
  P  P30  1  0.000000  0.194926  0.382968  1
  P  P31  1  0.000000  0.803624  0.388123  1
  P  P32  1  0.500000  0.842969  0.894544  1
  P  P33  1  0.500000  0.158036  0.893711  1
  P  P34  1  0.000000  0.654691  0.101778  1
  P  P35  1  0.000000  0.343531  0.104762  1
