# generated using pymatgen
data_Ho16Al4PdRu3
_symmetry_space_group_name_H-M   'P 1'
_cell_length_a   9.47946869
_cell_length_b   9.48843214
_cell_length_c   9.48843300
_cell_angle_alpha   59.99999352
_cell_angle_beta   59.96870954
_cell_angle_gamma   59.96871653
_symmetry_Int_Tables_number   1
_chemical_formula_structural   Ho16Al4PdRu3
_chemical_formula_sum   'Ho16 Al4 Pd1 Ru3'
_cell_volume   603.18757595
_cell_formula_units_Z   1
loop_
 _symmetry_equiv_pos_site_id
 _symmetry_equiv_pos_as_xyz
  1  'x, y, z'
loop_
 _atom_site_type_symbol
 _atom_site_label
 _atom_site_symmetry_multiplicity
 _atom_site_fract_x
 _atom_site_fract_y
 _atom_site_fract_z
 _atom_site_occupancy
  Ho  Ho0  1  0.440510  0.433927  0.062782  1
  Ho  Ho1  1  0.650130  0.644671  0.060531  1
  Ho  Ho2  1  0.185757  0.807826  0.198591  1
  Ho  Ho3  1  0.062937  0.437818  0.061428  1
  Ho  Ho4  1  0.185757  0.807826  0.807826  1
  Ho  Ho5  1  0.062937  0.437818  0.437818  1
  Ho  Ho6  1  0.808872  0.191976  0.191976  1
  Ho  Ho7  1  0.650130  0.644671  0.644671  1
  Ho  Ho8  1  0.808872  0.191976  0.807178  1
  Ho  Ho9  1  0.185757  0.198591  0.807826  1
  Ho  Ho10  1  0.056930  0.647690  0.647690  1
  Ho  Ho11  1  0.440510  0.062782  0.062782  1
  Ho  Ho12  1  0.062937  0.061428  0.437818  1
  Ho  Ho13  1  0.650130  0.060531  0.644671  1
  Ho  Ho14  1  0.808872  0.807178  0.191976  1
  Ho  Ho15  1  0.440510  0.062782  0.433927  1
  Al  Al16  1  0.421697  0.423239  0.423239  1
  Al  Al17  1  0.421697  0.423239  0.731825  1
  Al  Al18  1  0.421697  0.731825  0.423239  1
  Al  Al19  1  0.734724  0.421759  0.421759  1
  Pd  Pd20  1  0.429443  0.856852  0.856852  1
  Ru  Ru21  1  0.856399  0.857719  0.857719  1
  Ru  Ru22  1  0.856399  0.428161  0.857719  1
  Ru  Ru23  1  0.856399  0.857719  0.428161  1
