# generated using pymatgen
data_Sr2TbLu(Si4N7)2
_symmetry_space_group_name_H-M   'P 1'
_cell_length_a   6.04029600
_cell_length_b   6.04029482
_cell_length_c   9.85289500
_cell_angle_alpha   90.00000000
_cell_angle_beta   90.00000000
_cell_angle_gamma   119.99999550
_symmetry_Int_Tables_number   1
_chemical_formula_structural   Sr2TbLu(Si4N7)2
_chemical_formula_sum   'Sr2 Tb1 Lu1 Si8 N14'
_cell_volume   311.32275441
_cell_formula_units_Z   1
loop_
 _symmetry_equiv_pos_site_id
 _symmetry_equiv_pos_as_xyz
  1  'x, y, z'
loop_
 _atom_site_type_symbol
 _atom_site_label
 _atom_site_symmetry_multiplicity
 _atom_site_fract_x
 _atom_site_fract_y
 _atom_site_fract_z
 _atom_site_occupancy
  Sr  Sr0  1  0.333333  0.666667  0.368890  1
  Sr  Sr1  1  0.666667  0.333333  0.865092  1
  Tb  Tb2  1  0.666667  0.333333  0.236338  1
  Lu  Lu3  1  0.333333  0.666667  0.736920  1
  Si  Si4  1  0.826274  0.652547  0.548464  1
  Si  Si5  1  0.174169  0.825831  0.044026  1
  Si  Si6  1  0.651661  0.825831  0.044026  1
  Si  Si7  1  0.347453  0.173726  0.548464  1
  Si  Si8  1  0.826274  0.173726  0.548464  1
  Si  Si9  1  0.174169  0.348339  0.044026  1
  Si  Si10  1  0.000000  0.000000  0.812358  1
  Si  Si11  1  0.000000  0.000000  0.314475  1
  N  N12  1  0.000000  0.000000  0.623251  1
  N  N13  1  0.000000  0.000000  0.121471  1
  N  N14  1  0.154398  0.308796  0.870351  1
  N  N15  1  0.846910  0.153090  0.375195  1
  N  N16  1  0.306179  0.153090  0.375195  1
  N  N17  1  0.691204  0.845602  0.870351  1
  N  N18  1  0.154398  0.845602  0.870351  1
  N  N19  1  0.846910  0.693821  0.375195  1
  N  N20  1  0.979500  0.489751  0.601608  1
  N  N21  1  0.488404  0.976806  0.096689  1
  N  N22  1  0.488404  0.511596  0.096689  1
  N  N23  1  0.510249  0.489751  0.601608  1
  N  N24  1  0.023194  0.511596  0.096689  1
  N  N25  1  0.510249  0.020500  0.601608  1
