# generated using pymatgen
data_Nd2Cu2Br
_symmetry_space_group_name_H-M   'P 1'
_cell_length_a   4.17796600
_cell_length_b   4.17796540
_cell_length_c   8.22383300
_cell_angle_alpha   90.00000000
_cell_angle_beta   90.00000000
_cell_angle_gamma   120.00000475
_symmetry_Int_Tables_number   1
_chemical_formula_structural   Nd2Cu2Br
_chemical_formula_sum   'Nd2 Cu2 Br1'
_cell_volume   124.31817729
_cell_formula_units_Z   1
loop_
 _symmetry_equiv_pos_site_id
 _symmetry_equiv_pos_as_xyz
  1  'x, y, z'
loop_
 _atom_site_type_symbol
 _atom_site_label
 _atom_site_symmetry_multiplicity
 _atom_site_fract_x
 _atom_site_fract_y
 _atom_site_fract_z
 _atom_site_occupancy
  Nd  Nd0  1  0.333333  0.666667  0.221432  1
  Nd  Nd1  1  0.333333  0.666667  0.778568  1
  Cu  Cu2  1  0.666667  0.333333  0.000000  1
  Cu  Cu3  1  0.000000  0.000000  0.000000  1
  Br  Br4  1  0.000000  0.000000  0.500000  1
