# generated using pymatgen
data_Sr4Al18(IrPt)3
_symmetry_space_group_name_H-M   'P 1'
_cell_length_a   7.66260175
_cell_length_b   7.66260165
_cell_length_c   9.80476800
_cell_angle_alpha   89.97872756
_cell_angle_beta   89.97873287
_cell_angle_gamma   119.21716805
_symmetry_Int_Tables_number   1
_chemical_formula_structural   Sr4Al18(IrPt)3
_chemical_formula_sum   'Sr4 Al18 Ir3 Pt3'
_cell_volume   502.44951611
_cell_formula_units_Z   1
loop_
 _symmetry_equiv_pos_site_id
 _symmetry_equiv_pos_as_xyz
  1  'x, y, z'
loop_
 _atom_site_type_symbol
 _atom_site_label
 _atom_site_symmetry_multiplicity
 _atom_site_fract_x
 _atom_site_fract_y
 _atom_site_fract_z
 _atom_site_occupancy
  Sr  Sr0  1  0.994820  0.672100  0.250051  1
  Sr  Sr1  1  0.003998  0.326836  0.750402  1
  Sr  Sr2  1  0.673164  0.996002  0.249598  1
  Sr  Sr3  1  0.327900  0.005180  0.749949  1
  Al  Al4  1  0.138693  0.138091  0.249907  1
  Al  Al5  1  0.861909  0.861307  0.750093  1
  Al  Al6  1  0.008364  0.339738  0.071309  1
  Al  Al7  1  0.999287  0.664596  0.928862  1
  Al  Al8  1  0.997477  0.660628  0.569606  1
  Al  Al9  1  0.339372  0.002523  0.430394  1
  Al  Al10  1  0.003590  0.339294  0.430089  1
  Al  Al11  1  0.660706  0.996410  0.569911  1
  Al  Al12  1  0.660262  0.991636  0.928691  1
  Al  Al13  1  0.335404  0.000713  0.071138  1
  Al  Al14  1  0.337382  0.337486  0.543330  1
  Al  Al15  1  0.662514  0.662618  0.456670  1
  Al  Al16  1  0.661345  0.664141  0.047324  1
  Al  Al17  1  0.335859  0.338655  0.952676  1
  Al  Al18  1  0.337868  0.545558  0.250063  1
  Al  Al19  1  0.662446  0.457432  0.747059  1
  Al  Al20  1  0.542568  0.337554  0.252941  1
  Al  Al21  1  0.454442  0.662132  0.749937  1
  Ir  Ir22  1  0.329773  0.670227  0.000000  1
  Ir  Ir23  1  0.330269  0.669731  0.500000  1
  Ir  Ir24  1  0.670041  0.329959  0.500000  1
  Pt  Pt25  1  0.670627  0.329373  0.000000  1
  Pt  Pt26  1  0.999788  0.000212  0.000000  1
  Pt  Pt27  1  0.000134  0.999866  0.500000  1
