# generated using pymatgen
data_Ho15Tm(LuIr3)4
_symmetry_space_group_name_H-M   'P 1'
_cell_length_a   10.81612101
_cell_length_b   10.81432901
_cell_length_c   6.32547601
_cell_angle_alpha   90.00476110
_cell_angle_beta   89.99494604
_cell_angle_gamma   89.99994713
_symmetry_Int_Tables_number   1
_chemical_formula_structural   Ho15Tm(LuIr3)4
_chemical_formula_sum   'Ho15 Tm1 Lu4 Ir12'
_cell_volume   739.88517513
_cell_formula_units_Z   1
loop_
 _symmetry_equiv_pos_site_id
 _symmetry_equiv_pos_as_xyz
  1  'x, y, z'
loop_
 _atom_site_type_symbol
 _atom_site_label
 _atom_site_symmetry_multiplicity
 _atom_site_fract_x
 _atom_site_fract_y
 _atom_site_fract_z
 _atom_site_occupancy
  Ho  Ho0  1  0.290489  0.087688  0.377076  1
  Ho  Ho1  1  0.290625  0.912511  0.877220  1
  Ho  Ho2  1  0.709394  0.087531  0.877294  1
  Ho  Ho3  1  0.709354  0.912498  0.377278  1
  Ho  Ho4  1  0.587507  0.790640  0.877234  1
  Ho  Ho5  1  0.587502  0.209377  0.377260  1
  Ho  Ho6  1  0.412480  0.790628  0.377265  1
  Ho  Ho7  1  0.412433  0.209378  0.877328  1
  Ho  Ho8  1  0.209285  0.412351  0.622707  1
  Ho  Ho9  1  0.209303  0.587255  0.122706  1
  Ho  Ho10  1  0.790816  0.412415  0.122731  1
  Ho  Ho11  1  0.790674  0.587472  0.622717  1
  Ho  Ho12  1  0.912520  0.709338  0.122784  1
  Ho  Ho13  1  0.912643  0.290582  0.622702  1
  Ho  Ho14  1  0.087467  0.709378  0.622736  1
  Tm  Tm15  1  0.087372  0.291059  0.122330  1
  Lu  Lu16  1  0.000027  0.000041  0.500010  1
  Lu  Lu17  1  0.000111  0.000256  0.000154  1
  Lu  Lu18  1  0.499989  0.499952  0.000074  1
  Lu  Lu19  1  0.499986  0.499988  0.499998  1
  Ir  Ir20  1  0.848184  0.152266  0.249797  1
  Ir  Ir21  1  0.847887  0.847882  0.749979  1
  Ir  Ir22  1  0.151981  0.152359  0.750743  1
  Ir  Ir23  1  0.152115  0.847877  0.250002  1
  Ir  Ir24  1  0.652121  0.347873  0.749978  1
  Ir  Ir25  1  0.652118  0.652147  0.249983  1
  Ir  Ir26  1  0.347468  0.347780  0.249800  1
  Ir  Ir27  1  0.347866  0.652125  0.749992  1
  Ir  Ir28  1  0.499973  0.000020  0.122432  1
  Ir  Ir29  1  0.500002  0.000024  0.622415  1
  Ir  Ir30  1  0.000140  0.499639  0.877995  1
  Ir  Ir31  1  0.000170  0.499668  0.377280  1
