# generated using pymatgen
data_PrNd(BiAu2)2
_symmetry_space_group_name_H-M   'P 1'
_cell_length_a   4.93299200
_cell_length_b   4.93299166
_cell_length_c   9.68502300
_cell_angle_alpha   90.00000000
_cell_angle_beta   90.00000000
_cell_angle_gamma   120.00000226
_symmetry_Int_Tables_number   1
_chemical_formula_structural   PrNd(BiAu2)2
_chemical_formula_sum   'Pr1 Nd1 Bi2 Au4'
_cell_volume   204.10426077
_cell_formula_units_Z   1
loop_
 _symmetry_equiv_pos_site_id
 _symmetry_equiv_pos_as_xyz
  1  'x, y, z'
loop_
 _atom_site_type_symbol
 _atom_site_label
 _atom_site_symmetry_multiplicity
 _atom_site_fract_x
 _atom_site_fract_y
 _atom_site_fract_z
 _atom_site_occupancy
  Pr  Pr0  1  0.666668  0.333334  0.750001  1
  Nd  Nd1  1  0.333334  0.666668  0.250001  1
  Bi  Bi2  1  0.000000  0.000000  0.002044  1
  Bi  Bi3  1  0.000000  0.000000  0.497956  1
  Au  Au4  1  0.666668  0.333334  0.104938  1
  Au  Au5  1  0.666668  0.333334  0.395062  1
  Au  Au6  1  0.333334  0.666668  0.603331  1
  Au  Au7  1  0.333334  0.666668  0.896669  1
