# generated using pymatgen
data_Nd2Al2(Tc5C)3
_symmetry_space_group_name_H-M   'P 1'
_cell_length_a   6.99625524
_cell_length_b   6.97292640
_cell_length_c   6.99625530
_cell_angle_alpha   82.27232123
_cell_angle_beta   82.76803269
_cell_angle_gamma   82.27232878
_symmetry_Int_Tables_number   1
_chemical_formula_structural   Nd2Al2(Tc5C)3
_chemical_formula_sum   'Nd2 Al2 Tc15 C3'
_cell_volume   333.11080242
_cell_formula_units_Z   1
loop_
 _symmetry_equiv_pos_site_id
 _symmetry_equiv_pos_as_xyz
  1  'x, y, z'
loop_
 _atom_site_type_symbol
 _atom_site_label
 _atom_site_symmetry_multiplicity
 _atom_site_fract_x
 _atom_site_fract_y
 _atom_site_fract_z
 _atom_site_occupancy
  Nd  Nd0  1  0.656810  0.654812  0.656810  1
  Nd  Nd1  1  0.343190  0.345188  0.343190  1
  Al  Al2  1  0.000000  0.000000  0.500000  1
  Al  Al3  1  0.500000  0.000000  0.000000  1
  Tc  Tc4  1  0.000000  0.500000  0.000000  1
  Tc  Tc5  1  0.275001  0.724365  0.996584  1
  Tc  Tc6  1  0.723042  0.000000  0.276958  1
  Tc  Tc7  1  0.003416  0.275635  0.724999  1
  Tc  Tc8  1  0.276958  0.000000  0.723042  1
  Tc  Tc9  1  0.996584  0.724365  0.275001  1
  Tc  Tc10  1  0.724999  0.275635  0.003416  1
  Tc  Tc11  1  0.354326  0.352454  0.853138  1
  Tc  Tc12  1  0.347375  0.855592  0.347375  1
  Tc  Tc13  1  0.853138  0.352454  0.354326  1
  Tc  Tc14  1  0.645674  0.647546  0.146862  1
  Tc  Tc15  1  0.652625  0.144408  0.652625  1
  Tc  Tc16  1  0.146862  0.647546  0.645674  1
  Tc  Tc17  1  0.904194  0.900442  0.904194  1
  Tc  Tc18  1  0.095806  0.099558  0.095806  1
  C  C19  1  0.500000  0.500000  0.000000  1
  C  C20  1  0.500000  0.000000  0.500000  1
  C  C21  1  0.000000  0.500000  0.500000  1
