# generated using pymatgen
data_Pr16SmHo3Pb16
_symmetry_space_group_name_H-M   'P 1'
_cell_length_a   8.43121205
_cell_length_b   16.29697000
_cell_length_c   8.55604300
_cell_angle_alpha   90.00000000
_cell_angle_beta   89.99313527
_cell_angle_gamma   90.00000000
_symmetry_Int_Tables_number   1
_chemical_formula_structural   Pr16SmHo3Pb16
_chemical_formula_sum   'Pr16 Sm1 Ho3 Pb16'
_cell_volume   1175.62776296
_cell_formula_units_Z   1
loop_
 _symmetry_equiv_pos_site_id
 _symmetry_equiv_pos_as_xyz
  1  'x, y, z'
loop_
 _atom_site_type_symbol
 _atom_site_label
 _atom_site_symmetry_multiplicity
 _atom_site_fract_x
 _atom_site_fract_y
 _atom_site_fract_z
 _atom_site_occupancy
  Pr  Pr0  1  0.622286  0.618307  0.158066  1
  Pr  Pr1  1  0.123743  0.881577  0.341752  1
  Pr  Pr2  1  0.376514  0.119186  0.841948  1
  Pr  Pr3  1  0.876796  0.380072  0.658079  1
  Pr  Pr4  1  0.376514  0.380814  0.841948  1
  Pr  Pr5  1  0.876796  0.119928  0.658079  1
  Pr  Pr6  1  0.622286  0.881693  0.158066  1
  Pr  Pr7  1  0.123743  0.618423  0.341752  1
  Pr  Pr8  1  0.467889  0.600137  0.679230  1
  Pr  Pr9  1  0.967600  0.899448  0.822738  1
  Pr  Pr10  1  0.533026  0.101502  0.321729  1
  Pr  Pr11  1  0.032645  0.399351  0.178089  1
  Pr  Pr12  1  0.533026  0.398498  0.321729  1
  Pr  Pr13  1  0.032645  0.100649  0.178089  1
  Pr  Pr14  1  0.467889  0.899863  0.679230  1
  Pr  Pr15  1  0.967600  0.600552  0.822738  1
  Sm  Sm16  1  0.791888  0.750000  0.497689  1
  Ho  Ho17  1  0.291185  0.750000  0.004260  1
  Ho  Ho18  1  0.209020  0.250000  0.502995  1
  Ho  Ho19  1  0.708735  0.250000  0.996335  1
  Pb  Pb20  1  0.718674  0.453478  0.968791  1
  Pb  Pb21  1  0.218761  0.046567  0.530531  1
  Pb  Pb22  1  0.280532  0.954090  0.030372  1
  Pb  Pb23  1  0.781442  0.544061  0.467867  1
  Pb  Pb24  1  0.280532  0.545910  0.030372  1
  Pb  Pb25  1  0.781442  0.955939  0.467867  1
  Pb  Pb26  1  0.718674  0.046522  0.968791  1
  Pb  Pb27  1  0.218761  0.453433  0.530531  1
  Pb  Pb28  1  0.425741  0.750000  0.372208  1
  Pb  Pb29  1  0.929130  0.750000  0.123421  1
  Pb  Pb30  1  0.570645  0.250000  0.625552  1
  Pb  Pb31  1  0.071394  0.250000  0.874792  1
  Pb  Pb32  1  0.656800  0.750000  0.851689  1
  Pb  Pb33  1  0.160600  0.750000  0.653814  1
  Pb  Pb34  1  0.342321  0.250000  0.152464  1
  Pb  Pb35  1  0.842730  0.250000  0.346396  1
