# generated using pymatgen
data_La9YbSi6
_symmetry_space_group_name_H-M   'P 1'
_cell_length_a   9.00014770
_cell_length_b   9.00014690
_cell_length_c   9.00014671
_cell_angle_alpha   127.61666239
_cell_angle_beta   127.61665505
_cell_angle_gamma   77.24685295
_symmetry_Int_Tables_number   1
_chemical_formula_structural   La9YbSi6
_chemical_formula_sum   'La9 Yb1 Si6'
_cell_volume   443.83712839
_cell_formula_units_Z   1
loop_
 _symmetry_equiv_pos_site_id
 _symmetry_equiv_pos_as_xyz
  1  'x, y, z'
loop_
 _atom_site_type_symbol
 _atom_site_label
 _atom_site_symmetry_multiplicity
 _atom_site_fract_x
 _atom_site_fract_y
 _atom_site_fract_z
 _atom_site_occupancy
  La  La0  1  0.032833  0.173416  0.500325  1
  La  La1  1  0.532509  0.032833  0.859417  1
  La  La2  1  0.173416  0.673091  0.140583  1
  La  La3  1  0.467491  0.967167  0.140583  1
  La  La4  1  0.673091  0.532509  0.499675  1
  La  La5  1  0.967167  0.826584  0.499675  1
  La  La6  1  0.326909  0.467491  0.500325  1
  La  La7  1  0.826584  0.326909  0.859417  1
  La  La8  1  0.000000  0.000000  0.000000  1
  Yb  Yb9  1  0.500000  0.500000  0.000000  1
  Si  Si10  1  0.110905  0.613297  0.724201  1
  Si  Si11  1  0.613297  0.889095  0.502392  1
  Si  Si12  1  0.386703  0.110905  0.497608  1
  Si  Si13  1  0.889095  0.386703  0.275799  1
  Si  Si14  1  0.751310  0.751310  0.000000  1
  Si  Si15  1  0.248690  0.248690  0.000000  1
