# generated using pymatgen
data_NaSc3As6Rh7
_symmetry_space_group_name_H-M   'P 1'
_cell_length_a   7.11829341
_cell_length_b   7.11067579
_cell_length_c   7.11829451
_cell_angle_alpha   109.44955420
_cell_angle_beta   109.49288588
_cell_angle_gamma   109.44954521
_symmetry_Int_Tables_number   1
_chemical_formula_structural   NaSc3As6Rh7
_chemical_formula_sum   'Na1 Sc3 As6 Rh7'
_cell_volume   277.43221513
_cell_formula_units_Z   1
loop_
 _symmetry_equiv_pos_site_id
 _symmetry_equiv_pos_as_xyz
  1  'x, y, z'
loop_
 _atom_site_type_symbol
 _atom_site_label
 _atom_site_symmetry_multiplicity
 _atom_site_fract_x
 _atom_site_fract_y
 _atom_site_fract_z
 _atom_site_occupancy
  Na  Na0  1  0.000000  0.500000  0.000000  1
  Sc  Sc1  1  0.000000  0.000000  0.500000  1
  Sc  Sc2  1  0.500000  0.000000  0.000000  1
  Sc  Sc3  1  0.500000  0.500000  0.500000  1
  As  As4  1  0.685868  0.682784  0.000000  1
  As  As5  1  0.314132  0.317216  0.000000  1
  As  As6  1  0.000000  0.682784  0.685868  1
  As  As7  1  0.000000  0.317216  0.314132  1
  As  As8  1  0.685868  0.003084  0.685868  1
  As  As9  1  0.314132  0.996916  0.314132  1
  Rh  Rh10  1  0.000000  0.000000  0.000000  1
  Rh  Rh11  1  0.254217  0.500000  0.745783  1
  Rh  Rh12  1  0.745783  0.245783  0.491566  1
  Rh  Rh13  1  0.491566  0.245783  0.745783  1
  Rh  Rh14  1  0.508434  0.754217  0.254217  1
  Rh  Rh15  1  0.745783  0.500000  0.254217  1
  Rh  Rh16  1  0.254217  0.754217  0.508434  1
