# generated using pymatgen
data_LiDy5P12(Ir5Rh)3
_symmetry_space_group_name_H-M   'P 1'
_cell_length_a   12.70723096
_cell_length_b   12.76358442
_cell_length_c   3.95747000
_cell_angle_alpha   90.00000000
_cell_angle_beta   90.00000000
_cell_angle_gamma   120.10107401
_symmetry_Int_Tables_number   1
_chemical_formula_structural   LiDy5P12(Ir5Rh)3
_chemical_formula_sum   'Li1 Dy5 P12 Ir15 Rh3'
_cell_volume   555.30120535
_cell_formula_units_Z   1
loop_
 _symmetry_equiv_pos_site_id
 _symmetry_equiv_pos_as_xyz
  1  'x, y, z'
loop_
 _atom_site_type_symbol
 _atom_site_label
 _atom_site_symmetry_multiplicity
 _atom_site_fract_x
 _atom_site_fract_y
 _atom_site_fract_z
 _atom_site_occupancy
  Li  Li0  1  0.999761  0.443717  0.500000  1
  Dy  Dy1  1  0.330540  0.665115  0.500000  1
  Dy  Dy2  1  0.669482  0.334469  0.500000  1
  Dy  Dy3  1  0.000165  0.809139  0.000000  1
  Dy  Dy4  1  0.188303  0.186691  0.000000  1
  Dy  Dy5  1  0.810621  0.998663  0.000000  1
  P  P6  1  0.999877  0.632895  0.500000  1
  P  P7  1  0.361221  0.360097  0.500000  1
  P  P8  1  0.637451  0.997932  0.500000  1
  P  P9  1  0.515472  0.687901  0.000000  1
  P  P10  1  0.310037  0.828757  0.000000  1
  P  P11  1  0.168736  0.484803  0.000000  1
  P  P12  1  0.485367  0.171971  0.000000  1
  P  P13  1  0.689905  0.519371  0.000000  1
  P  P14  1  0.831710  0.315908  0.000000  1
  P  P15  1  0.999777  0.179691  0.500000  1
  P  P16  1  0.821472  0.822416  0.500000  1
  P  P17  1  0.178282  0.999946  0.500000  1
  Ir  Ir18  1  0.130121  0.641516  0.000000  1
  Ir  Ir19  1  0.358969  0.492461  0.000000  1
  Ir  Ir20  1  0.493817  0.361392  0.000000  1
  Ir  Ir21  1  0.868662  0.510496  0.000000  1
  Ir  Ir22  1  0.642396  0.134445  0.000000  1
  Ir  Ir23  1  0.000349  0.281038  0.000000  1
  Ir  Ir24  1  0.718142  0.720501  0.000000  1
  Ir  Ir25  1  0.283947  0.003019  0.000000  1
  Ir  Ir26  1  0.621560  0.802813  0.500000  1
  Ir  Ir27  1  0.196635  0.823715  0.500000  1
  Ir  Ir28  1  0.181772  0.373686  0.500000  1
  Ir  Ir29  1  0.377791  0.181845  0.500000  1
  Ir  Ir30  1  0.803288  0.627308  0.500000  1
  Ir  Ir31  1  0.818462  0.191711  0.500000  1
  Ir  Ir32  1  0.000194  0.002100  0.500000  1
  Rh  Rh33  1  0.506283  0.867785  0.000000  1
  Rh  Rh34  1  0.539208  0.540666  0.500000  1
  Rh  Rh35  1  0.460225  0.004020  0.500000  1
