# generated using pymatgen
data_Dy20IrPt10Rh
_symmetry_space_group_name_H-M   'P 1'
_cell_length_a   11.03190600
_cell_length_b   11.03190600
_cell_length_c   6.41917700
_cell_angle_alpha   90.00000000
_cell_angle_beta   90.00000000
_cell_angle_gamma   90.00000000
_symmetry_Int_Tables_number   1
_chemical_formula_structural   Dy20IrPt10Rh
_chemical_formula_sum   'Dy20 Ir1 Pt10 Rh1'
_cell_volume   781.23277743
_cell_formula_units_Z   1
loop_
 _symmetry_equiv_pos_site_id
 _symmetry_equiv_pos_as_xyz
  1  'x, y, z'
loop_
 _atom_site_type_symbol
 _atom_site_label
 _atom_site_symmetry_multiplicity
 _atom_site_fract_x
 _atom_site_fract_y
 _atom_site_fract_z
 _atom_site_occupancy
  Dy  Dy0  1  0.292557  0.088733  0.377125  1
  Dy  Dy1  1  0.292626  0.911165  0.877118  1
  Dy  Dy2  1  0.707374  0.088835  0.877118  1
  Dy  Dy3  1  0.707443  0.911267  0.377125  1
  Dy  Dy4  1  0.588835  0.792626  0.877118  1
  Dy  Dy5  1  0.588733  0.207443  0.377125  1
  Dy  Dy6  1  0.411267  0.792557  0.377125  1
  Dy  Dy7  1  0.411165  0.207374  0.877118  1
  Dy  Dy8  1  0.205366  0.411781  0.621965  1
  Dy  Dy9  1  0.205448  0.588366  0.124681  1
  Dy  Dy10  1  0.794552  0.411634  0.124681  1
  Dy  Dy11  1  0.794634  0.588219  0.621965  1
  Dy  Dy12  1  0.911634  0.705448  0.124681  1
  Dy  Dy13  1  0.911781  0.294634  0.621965  1
  Dy  Dy14  1  0.088219  0.705366  0.621965  1
  Dy  Dy15  1  0.088366  0.294552  0.124681  1
  Dy  Dy16  1  0.000000  0.000000  0.500730  1
  Dy  Dy17  1  0.000000  0.000000  0.000633  1
  Dy  Dy18  1  0.500000  0.500000  0.000633  1
  Dy  Dy19  1  0.500000  0.500000  0.500730  1
  Ir  Ir20  1  0.000000  0.500000  0.378101  1
  Pt  Pt21  1  0.845916  0.153177  0.250080  1
  Pt  Pt22  1  0.846084  0.846595  0.750141  1
  Pt  Pt23  1  0.153916  0.153405  0.750141  1
  Pt  Pt24  1  0.154084  0.846823  0.250080  1
  Pt  Pt25  1  0.653405  0.346084  0.750141  1
  Pt  Pt26  1  0.653177  0.654084  0.250080  1
  Pt  Pt27  1  0.346823  0.345916  0.250080  1
  Pt  Pt28  1  0.346595  0.653916  0.750141  1
  Pt  Pt29  1  0.500000  0.000000  0.118362  1
  Pt  Pt30  1  0.500000  0.000000  0.618185  1
  Rh  Rh31  1  0.000000  0.500000  0.878183  1
