# generated using pymatgen
data_Nd2Dy2Zn9GaSn2
_symmetry_space_group_name_H-M   'P 1'
_cell_length_a   8.45502246
_cell_length_b   8.45502301
_cell_length_c   9.07381728
_cell_angle_alpha   90.30737026
_cell_angle_beta   89.69262950
_cell_angle_gamma   149.77133258
_symmetry_Int_Tables_number   1
_chemical_formula_structural   Nd2Dy2Zn9GaSn2
_chemical_formula_sum   'Nd2 Dy2 Zn9 Ga1 Sn2'
_cell_volume   326.56619519
_cell_formula_units_Z   1
loop_
 _symmetry_equiv_pos_site_id
 _symmetry_equiv_pos_as_xyz
  1  'x, y, z'
loop_
 _atom_site_type_symbol
 _atom_site_label
 _atom_site_symmetry_multiplicity
 _atom_site_fract_x
 _atom_site_fract_y
 _atom_site_fract_z
 _atom_site_occupancy
  Nd  Nd0  1  0.000185  0.999815  0.500563  1
  Nd  Nd1  1  0.000935  0.999065  0.998144  1
  Dy  Dy2  1  0.203615  0.796385  0.249515  1
  Dy  Dy3  1  0.796205  0.203795  0.750943  1
  Zn  Zn4  1  0.186574  0.813427  0.611156  1
  Zn  Zn5  1  0.812595  0.187405  0.106616  1
  Zn  Zn6  1  0.187218  0.812782  0.891146  1
  Zn  Zn7  1  0.656929  0.343071  0.482237  1
  Zn  Zn8  1  0.342267  0.657733  0.520140  1
  Zn  Zn9  1  0.658036  0.341965  0.017278  1
  Zn  Zn10  1  0.341912  0.658089  0.982408  1
  Zn  Zn11  1  0.394219  0.605781  0.247875  1
  Zn  Zn12  1  0.607083  0.392917  0.750387  1
  Ga  Ga13  1  0.811747  0.188253  0.391071  1
  Sn  Sn14  1  0.556115  0.443886  0.249924  1
  Sn  Sn15  1  0.444369  0.555632  0.750597  1
