# generated using pymatgen
data_TbY4Tc5(P6Ir7)2
_symmetry_space_group_name_H-M   'P 1'
_cell_length_a   12.63425907
_cell_length_b   12.73089745
_cell_length_c   3.98637100
_cell_angle_alpha   90.00000000
_cell_angle_beta   90.00000000
_cell_angle_gamma   120.14202835
_symmetry_Int_Tables_number   1
_chemical_formula_structural   TbY4Tc5(P6Ir7)2
_chemical_formula_sum   'Tb1 Y4 Tc5 P12 Ir14'
_cell_volume   554.49012166
_cell_formula_units_Z   1
loop_
 _symmetry_equiv_pos_site_id
 _symmetry_equiv_pos_as_xyz
  1  'x, y, z'
loop_
 _atom_site_type_symbol
 _atom_site_label
 _atom_site_symmetry_multiplicity
 _atom_site_fract_x
 _atom_site_fract_y
 _atom_site_fract_z
 _atom_site_occupancy
  Tb  Tb0  1  0.999512  0.811066  0.000000  1
  Y  Y1  1  0.334128  0.667940  0.500000  1
  Y  Y2  1  0.666644  0.333510  0.500000  1
  Y  Y3  1  0.186483  0.185168  0.000000  1
  Y  Y4  1  0.810723  0.998399  0.000000  1
  Tc  Tc5  1  0.996588  0.450084  0.500000  1
  Tc  Tc6  1  0.548443  0.544754  0.500000  1
  Tc  Tc7  1  0.457022  0.009354  0.500000  1
  Tc  Tc8  1  0.620479  0.799161  0.500000  1
  Tc  Tc9  1  0.201379  0.822008  0.500000  1
  P  P10  1  0.006497  0.639583  0.500000  1
  P  P11  1  0.363732  0.365032  0.500000  1
  P  P12  1  0.632977  0.993581  0.500000  1
  P  P13  1  0.520279  0.693928  0.000000  1
  P  P14  1  0.308222  0.830056  0.000000  1
  P  P15  1  0.169830  0.483093  0.000000  1
  P  P16  1  0.483271  0.169482  0.000000  1
  P  P17  1  0.685978  0.516628  0.000000  1
  P  P18  1  0.832492  0.314803  0.000000  1
  P  P19  1  0.999055  0.176521  0.500000  1
  P  P20  1  0.817183  0.820234  0.500000  1
  P  P21  1  0.177342  0.993955  0.500000  1
  Ir  Ir22  1  0.508023  0.874919  0.000000  1
  Ir  Ir23  1  0.127687  0.635836  0.000000  1
  Ir  Ir24  1  0.361926  0.493894  0.000000  1
  Ir  Ir25  1  0.490881  0.359131  0.000000  1
  Ir  Ir26  1  0.866010  0.506344  0.000000  1
  Ir  Ir27  1  0.643274  0.136532  0.000000  1
  Ir  Ir28  1  0.000276  0.285565  0.000000  1
  Ir  Ir29  1  0.715980  0.710821  0.000000  1
  Ir  Ir30  1  0.287517  0.005209  0.000000  1
  Ir  Ir31  1  0.180010  0.375308  0.500000  1
  Ir  Ir32  1  0.374168  0.183681  0.500000  1
  Ir  Ir33  1  0.807136  0.622446  0.500000  1
  Ir  Ir34  1  0.819287  0.192672  0.500000  1
  Ir  Ir35  1  0.999563  0.999297  0.500000  1
