# generated using pymatgen
data_Er8GaPd11Pt13
_symmetry_space_group_name_H-M   'P 1'
_cell_length_a   8.32846000
_cell_length_b   8.32846000
_cell_length_c   8.31539400
_cell_angle_alpha   90.00000000
_cell_angle_beta   90.00000000
_cell_angle_gamma   90.00000000
_symmetry_Int_Tables_number   1
_chemical_formula_structural   Er8GaPd11Pt13
_chemical_formula_sum   'Er8 Ga1 Pd11 Pt13'
_cell_volume   576.78271937
_cell_formula_units_Z   1
loop_
 _symmetry_equiv_pos_site_id
 _symmetry_equiv_pos_as_xyz
  1  'x, y, z'
loop_
 _atom_site_type_symbol
 _atom_site_label
 _atom_site_symmetry_multiplicity
 _atom_site_fract_x
 _atom_site_fract_y
 _atom_site_fract_z
 _atom_site_occupancy
  Er  Er0  1  0.252231  0.252231  0.747794  1
  Er  Er1  1  0.251917  0.748083  0.251976  1
  Er  Er2  1  0.748083  0.251917  0.251976  1
  Er  Er3  1  0.747769  0.747769  0.747794  1
  Er  Er4  1  0.748083  0.748083  0.251976  1
  Er  Er5  1  0.747769  0.252231  0.747794  1
  Er  Er6  1  0.252231  0.747769  0.747794  1
  Er  Er7  1  0.251917  0.251917  0.251976  1
  Ga  Ga8  1  0.000000  0.000000  0.999937  1
  Pd  Pd9  1  0.500000  0.252946  0.500154  1
  Pd  Pd10  1  0.252946  0.500000  0.500154  1
  Pd  Pd11  1  0.500000  0.500000  0.252573  1
  Pd  Pd12  1  0.500000  0.747054  0.500154  1
  Pd  Pd13  1  0.747054  0.500000  0.500154  1
  Pd  Pd14  1  0.000000  0.000000  0.708095  1
  Pd  Pd15  1  0.000000  0.291283  0.999965  1
  Pd  Pd16  1  0.291283  0.000000  0.999965  1
  Pd  Pd17  1  0.000000  0.000000  0.291953  1
  Pd  Pd18  1  0.000000  0.708717  0.999965  1
  Pd  Pd19  1  0.708717  0.000000  0.999965  1
  Pt  Pt20  1  0.500000  0.500000  0.747514  1
  Pt  Pt21  1  0.000000  0.500000  0.739958  1
  Pt  Pt22  1  0.500000  0.259419  0.000118  1
  Pt  Pt23  1  0.260168  0.000000  0.499973  1
  Pt  Pt24  1  0.000000  0.260168  0.499973  1
  Pt  Pt25  1  0.500000  0.000000  0.739958  1
  Pt  Pt26  1  0.259419  0.500000  0.000118  1
  Pt  Pt27  1  0.000000  0.500000  0.260045  1
  Pt  Pt28  1  0.500000  0.740581  0.000118  1
  Pt  Pt29  1  0.000000  0.739832  0.499973  1
  Pt  Pt30  1  0.500000  0.000000  0.260045  1
  Pt  Pt31  1  0.739832  0.000000  0.499973  1
  Pt  Pt32  1  0.740581  0.500000  0.000118  1
