# generated using pymatgen
data_TbTh3(Tc3Ge4)2
_symmetry_space_group_name_H-M   'P 1'
_cell_length_a   8.39372442
_cell_length_b   5.82881946
_cell_length_c   7.06161824
_cell_angle_alpha   76.29997491
_cell_angle_beta   90.10495009
_cell_angle_gamma   90.09888124
_symmetry_Int_Tables_number   1
_chemical_formula_structural   TbTh3(Tc3Ge4)2
_chemical_formula_sum   'Tb1 Th3 Tc6 Ge8'
_cell_volume   335.66275098
_cell_formula_units_Z   1
loop_
 _symmetry_equiv_pos_site_id
 _symmetry_equiv_pos_as_xyz
  1  'x, y, z'
loop_
 _atom_site_type_symbol
 _atom_site_label
 _atom_site_symmetry_multiplicity
 _atom_site_fract_x
 _atom_site_fract_y
 _atom_site_fract_z
 _atom_site_occupancy
  Tb  Tb0  1  0.940072  0.574190  0.246274  1
  Th  Th1  1  0.556109  0.075954  0.248840  1
  Th  Th2  1  0.056349  0.423821  0.753728  1
  Th  Th3  1  0.441376  0.923724  0.750711  1
  Tc  Tc4  1  0.209863  0.115997  0.112318  1
  Tc  Tc5  1  0.709191  0.383099  0.891305  1
  Tc  Tc6  1  0.791874  0.890043  0.885924  1
  Tc  Tc7  1  0.297263  0.616220  0.107471  1
  Tc  Tc8  1  0.000869  0.998796  0.500356  1
  Tc  Tc9  1  0.499514  0.501509  0.500134  1
  Ge  Ge10  1  0.906050  0.114329  0.131090  1
  Ge  Ge11  1  0.406075  0.382322  0.872836  1
  Ge  Ge12  1  0.092390  0.876900  0.881947  1
  Ge  Ge13  1  0.599954  0.619259  0.125519  1
  Ge  Ge14  1  0.749684  0.225219  0.582711  1
  Ge  Ge15  1  0.244527  0.284748  0.411995  1
  Ge  Ge16  1  0.246196  0.772473  0.412446  1
  Ge  Ge17  1  0.752643  0.721396  0.584396  1
