# generated using pymatgen
data_Tb15Ce(CoAg)4
_symmetry_space_group_name_H-M   'P 1'
_cell_length_a   9.19584219
_cell_length_b   9.49952387
_cell_length_c   9.49952444
_cell_angle_alpha   59.95697389
_cell_angle_beta   61.05198035
_cell_angle_gamma   61.05197762
_symmetry_Int_Tables_number   1
_chemical_formula_structural   Tb15Ce(CoAg)4
_chemical_formula_sum   'Tb15 Ce1 Co4 Ag4'
_cell_volume   595.74454886
_cell_formula_units_Z   1
loop_
 _symmetry_equiv_pos_site_id
 _symmetry_equiv_pos_as_xyz
  1  'x, y, z'
loop_
 _atom_site_type_symbol
 _atom_site_label
 _atom_site_symmetry_multiplicity
 _atom_site_fract_x
 _atom_site_fract_y
 _atom_site_fract_z
 _atom_site_occupancy
  Tb  Tb0  1  0.185624  0.814376  0.814376  1
  Tb  Tb1  1  0.193484  0.805962  0.187339  1
  Tb  Tb2  1  0.813216  0.187339  0.805962  1
  Tb  Tb3  1  0.193484  0.187339  0.805962  1
  Tb  Tb4  1  0.813216  0.805962  0.187339  1
  Tb  Tb5  1  0.934703  0.565296  0.565297  1
  Tb  Tb6  1  0.569147  0.930852  0.930853  1
  Tb  Tb7  1  0.563265  0.936770  0.560895  1
  Tb  Tb8  1  0.939070  0.560894  0.936771  1
  Tb  Tb9  1  0.563265  0.560894  0.936771  1
  Tb  Tb10  1  0.939070  0.936770  0.560895  1
  Tb  Tb11  1  0.350459  0.352033  0.352033  1
  Tb  Tb12  1  0.348153  0.345632  0.958062  1
  Tb  Tb13  1  0.348153  0.958062  0.345632  1
  Tb  Tb14  1  0.945474  0.352033  0.352033  1
  Ce  Ce15  1  0.821895  0.178105  0.178105  1
  Co  Co16  1  0.101620  0.151782  0.151782  1
  Co  Co17  1  0.144215  0.140253  0.571319  1
  Co  Co18  1  0.144215  0.571319  0.140253  1
  Co  Co19  1  0.594817  0.151782  0.151782  1
  Ag  Ag20  1  0.579111  0.582771  0.582771  1
  Ag  Ag21  1  0.579500  0.586895  0.254104  1
  Ag  Ag22  1  0.579500  0.254104  0.586895  1
  Ag  Ag23  1  0.255346  0.582771  0.582771  1
