# generated using pymatgen
data_Sr3Yb3(DyGe2)4
_symmetry_space_group_name_H-M   'P 1'
_cell_length_a   7.54211800
_cell_length_b   7.99077352
_cell_length_c   15.39517500
_cell_angle_alpha   90.26507762
_cell_angle_beta   90.00000000
_cell_angle_gamma   90.00000000
_symmetry_Int_Tables_number   1
_chemical_formula_structural   Sr3Yb3(DyGe2)4
_chemical_formula_sum   'Sr6 Yb6 Dy8 Ge16'
_cell_volume   927.81657479
_cell_formula_units_Z   2
loop_
 _symmetry_equiv_pos_site_id
 _symmetry_equiv_pos_as_xyz
  1  'x, y, z'
loop_
 _atom_site_type_symbol
 _atom_site_label
 _atom_site_symmetry_multiplicity
 _atom_site_fract_x
 _atom_site_fract_y
 _atom_site_fract_z
 _atom_site_occupancy
  Sr  Sr0  1  0.983985  0.819539  0.403747  1
  Sr  Sr1  1  0.483985  0.680461  0.096253  1
  Sr  Sr2  1  0.515908  0.320689  0.593180  1
  Sr  Sr3  1  0.015908  0.179311  0.906820  1
  Sr  Sr4  1  0.017501  0.178613  0.594554  1
  Sr  Sr5  1  0.517501  0.321387  0.905446  1
  Yb  Yb6  1  0.480906  0.685824  0.402042  1
  Yb  Yb7  1  0.980906  0.814176  0.097958  1
  Yb  Yb8  1  0.344408  0.015371  0.750014  1
  Yb  Yb9  1  0.844408  0.484629  0.749986  1
  Yb  Yb10  1  0.155741  0.517714  0.250408  1
  Yb  Yb11  1  0.655741  0.982286  0.249592  1
  Dy  Dy12  1  0.318730  0.172544  0.121541  1
  Dy  Dy13  1  0.818730  0.327456  0.378459  1
  Dy  Dy14  1  0.178555  0.675785  0.879664  1
  Dy  Dy15  1  0.678555  0.824215  0.620336  1
  Dy  Dy16  1  0.320124  0.172363  0.376515  1
  Dy  Dy17  1  0.820124  0.327637  0.123485  1
  Dy  Dy18  1  0.181279  0.673229  0.621000  1
  Dy  Dy19  1  0.681279  0.826771  0.879000  1
  Ge  Ge20  1  0.852061  0.538598  0.538197  1
  Ge  Ge21  1  0.352061  0.961402  0.961803  1
  Ge  Ge22  1  0.647907  0.033093  0.457505  1
  Ge  Ge23  1  0.147907  0.466907  0.042495  1
  Ge  Ge24  1  0.156299  0.463662  0.458365  1
  Ge  Ge25  1  0.656299  0.036338  0.041635  1
  Ge  Ge26  1  0.351015  0.954600  0.535936  1
  Ge  Ge27  1  0.851015  0.545400  0.964064  1
  Ge  Ge28  1  0.973524  0.871112  0.749708  1
  Ge  Ge29  1  0.473524  0.628888  0.750292  1
  Ge  Ge30  1  0.524658  0.374563  0.251118  1
  Ge  Ge31  1  0.024658  0.125437  0.248882  1
  Ge  Ge32  1  0.232633  0.395904  0.750352  1
  Ge  Ge33  1  0.732633  0.104096  0.749648  1
  Ge  Ge34  1  0.264764  0.891883  0.247746  1
  Ge  Ge35  1  0.764764  0.608117  0.252254  1
