# generated using pymatgen
data_Tb10In3BiSb2
_symmetry_space_group_name_H-M   'P 1'
_cell_length_a   9.06733900
_cell_length_b   9.03326139
_cell_length_c   6.61352900
_cell_angle_alpha   90.00000000
_cell_angle_beta   90.00000000
_cell_angle_gamma   120.12486695
_symmetry_Int_Tables_number   1
_chemical_formula_structural   Tb10In3BiSb2
_chemical_formula_sum   'Tb10 In3 Bi1 Sb2'
_cell_volume   468.53334031
_cell_formula_units_Z   1
loop_
 _symmetry_equiv_pos_site_id
 _symmetry_equiv_pos_as_xyz
  1  'x, y, z'
loop_
 _atom_site_type_symbol
 _atom_site_label
 _atom_site_symmetry_multiplicity
 _atom_site_fract_x
 _atom_site_fract_y
 _atom_site_fract_z
 _atom_site_occupancy
  Tb  Tb0  1  0.002299  0.762420  0.750000  1
  Tb  Tb1  1  0.006832  0.242816  0.250000  1
  Tb  Tb2  1  0.764016  0.757184  0.250000  1
  Tb  Tb3  1  0.761757  0.000000  0.750000  1
  Tb  Tb4  1  0.239879  0.237580  0.750000  1
  Tb  Tb5  1  0.235672  0.000000  0.250000  1
  Tb  Tb6  1  0.328550  0.663175  0.501516  1
  Tb  Tb7  1  0.665376  0.336825  0.998484  1
  Tb  Tb8  1  0.665376  0.336825  0.501516  1
  Tb  Tb9  1  0.328550  0.663175  0.998484  1
  In  In10  1  0.397117  0.000000  0.750000  1
  In  In11  1  0.395739  0.397162  0.250000  1
  In  In12  1  0.998576  0.602838  0.250000  1
  Bi  Bi13  1  0.607026  0.000000  0.250000  1
  Sb  Sb14  1  0.997788  0.392340  0.750000  1
  Sb  Sb15  1  0.605448  0.607660  0.750000  1
