# generated using pymatgen
data_DyLu7Sc11Si16W
_symmetry_space_group_name_H-M   'P 1'
_cell_length_a   7.01634485
_cell_length_b   7.26963748
_cell_length_c   13.80336179
_cell_angle_alpha   90.18381259
_cell_angle_beta   89.50811024
_cell_angle_gamma   89.62444390
_symmetry_Int_Tables_number   1
_chemical_formula_structural   DyLu7Sc11Si16W
_chemical_formula_sum   'Dy1 Lu7 Sc11 Si16 W1'
_cell_volume   704.01336329
_cell_formula_units_Z   1
loop_
 _symmetry_equiv_pos_site_id
 _symmetry_equiv_pos_as_xyz
  1  'x, y, z'
loop_
 _atom_site_type_symbol
 _atom_site_label
 _atom_site_symmetry_multiplicity
 _atom_site_fract_x
 _atom_site_fract_y
 _atom_site_fract_z
 _atom_site_occupancy
  Dy  Dy0  1  0.487545  0.676232  0.594926  1
  Lu  Lu1  1  0.011726  0.175957  0.096808  1
  Lu  Lu2  1  0.989802  0.825095  0.899604  1
  Lu  Lu3  1  0.488016  0.680332  0.899303  1
  Lu  Lu4  1  0.993933  0.829396  0.595516  1
  Lu  Lu5  1  0.513082  0.322209  0.095946  1
  Lu  Lu6  1  0.007049  0.175345  0.403666  1
  Lu  Lu7  1  0.506353  0.321433  0.410184  1
  Sc  Sc8  1  0.163723  0.497432  0.745919  1
  Sc  Sc9  1  0.837910  0.496867  0.251780  1
  Sc  Sc10  1  0.335868  0.004109  0.252939  1
  Sc  Sc11  1  0.659950  0.001021  0.747079  1
  Sc  Sc12  1  0.664970  0.825902  0.378739  1
  Sc  Sc13  1  0.166923  0.678947  0.378107  1
  Sc  Sc14  1  0.668245  0.824072  0.124436  1
  Sc  Sc15  1  0.833826  0.321839  0.623852  1
  Sc  Sc16  1  0.333618  0.176385  0.875123  1
  Sc  Sc17  1  0.830488  0.323447  0.872689  1
  Sc  Sc18  1  0.170130  0.676818  0.125993  1
  Si  Si19  1  0.042419  0.118543  0.745655  1
  Si  Si20  1  0.962862  0.888604  0.250904  1
  Si  Si21  1  0.467172  0.612962  0.250991  1
  Si  Si22  1  0.531492  0.377050  0.746359  1
  Si  Si23  1  0.286852  0.877148  0.746303  1
  Si  Si24  1  0.710372  0.129967  0.250422  1
  Si  Si25  1  0.215674  0.370103  0.250558  1
  Si  Si26  1  0.785916  0.627561  0.747244  1
  Si  Si27  1  0.175680  0.449839  0.539526  1
  Si  Si28  1  0.840637  0.530846  0.460726  1
  Si  Si29  1  0.328738  0.971853  0.470777  1
  Si  Si30  1  0.844824  0.534019  0.039416  1
  Si  Si31  1  0.650378  0.036101  0.543891  1
  Si  Si32  1  0.157714  0.467645  0.959326  1
  Si  Si33  1  0.663485  0.034661  0.959054  1
  Si  Si34  1  0.338714  0.963525  0.038039  1
  W  W35  1  0.333917  0.176735  0.628199  1
