# generated using pymatgen
data_Dy7Lu(OsI4)2
_symmetry_space_group_name_H-M   'P 1'
_cell_length_a   11.64748469
_cell_length_b   11.64403586
_cell_length_c   6.16859646
_cell_angle_alpha   90.06394590
_cell_angle_beta   89.96071333
_cell_angle_gamma   90.01434931
_symmetry_Int_Tables_number   1
_chemical_formula_structural   Dy7Lu(OsI4)2
_chemical_formula_sum   'Dy7 Lu1 Os2 I8'
_cell_volume   836.60731334
_cell_formula_units_Z   1
loop_
 _symmetry_equiv_pos_site_id
 _symmetry_equiv_pos_as_xyz
  1  'x, y, z'
loop_
 _atom_site_type_symbol
 _atom_site_label
 _atom_site_symmetry_multiplicity
 _atom_site_fract_x
 _atom_site_fract_y
 _atom_site_fract_z
 _atom_site_occupancy
  Dy  Dy0  1  0.078771  0.807692  0.500799  1
  Dy  Dy1  1  0.078936  0.192439  0.001024  1
  Dy  Dy2  1  0.191936  0.079594  0.500788  1
  Dy  Dy3  1  0.920611  0.807788  0.999258  1
  Dy  Dy4  1  0.919625  0.192393  0.499536  1
  Dy  Dy5  1  0.192084  0.920774  0.998864  1
  Dy  Dy6  1  0.806908  0.921494  0.499515  1
  Lu  Lu7  1  0.814660  0.076502  0.001855  1
  Os  Os8  1  0.000517  0.999616  0.250568  1
  Os  Os9  1  0.999658  0.000202  0.749828  1
  I  I10  1  0.653628  0.143911  0.488148  1
  I  I11  1  0.855017  0.654711  0.506082  1
  I  I12  1  0.344976  0.144567  0.993932  1
  I  I13  1  0.144060  0.345660  0.493912  1
  I  I14  1  0.655191  0.858946  0.006113  1
  I  I15  1  0.345686  0.856360  0.509859  1
  I  I16  1  0.143540  0.653983  0.989957  1
  I  I17  1  0.854197  0.343367  0.009963  1
