# generated using pymatgen
data_Li4CaY3Pt4
_symmetry_space_group_name_H-M   'P 1'
_cell_length_a   4.05920500
_cell_length_b   7.11993936
_cell_length_c   8.41913400
_cell_angle_alpha   89.27096580
_cell_angle_beta   90.00000000
_cell_angle_gamma   90.00000000
_symmetry_Int_Tables_number   1
_chemical_formula_structural   Li4CaY3Pt4
_chemical_formula_sum   'Li4 Ca1 Y3 Pt4'
_cell_volume   243.30416523
_cell_formula_units_Z   1
loop_
 _symmetry_equiv_pos_site_id
 _symmetry_equiv_pos_as_xyz
  1  'x, y, z'
loop_
 _atom_site_type_symbol
 _atom_site_label
 _atom_site_symmetry_multiplicity
 _atom_site_fract_x
 _atom_site_fract_y
 _atom_site_fract_z
 _atom_site_occupancy
  Li  Li0  1  0.250000  0.133492  0.059388  1
  Li  Li1  1  0.250000  0.621166  0.443117  1
  Li  Li2  1  0.750000  0.876609  0.942629  1
  Li  Li3  1  0.750000  0.364840  0.555799  1
  Ca  Ca4  1  0.250000  0.039933  0.682479  1
  Y  Y5  1  0.250000  0.544637  0.820788  1
  Y  Y6  1  0.750000  0.955680  0.320565  1
  Y  Y7  1  0.750000  0.462308  0.180630  1
  Pt  Pt8  1  0.250000  0.249199  0.365311  1
  Pt  Pt9  1  0.250000  0.754924  0.123999  1
  Pt  Pt10  1  0.750000  0.735017  0.619992  1
  Pt  Pt11  1  0.750000  0.262197  0.885303  1
