# generated using pymatgen
data_Er3LuCo3Os5
_symmetry_space_group_name_H-M   'P 1'
_cell_length_a   5.15331806
_cell_length_b   5.17834323
_cell_length_c   8.72683500
_cell_angle_alpha   90.00000000
_cell_angle_beta   90.00900577
_cell_angle_gamma   120.16076991
_symmetry_Int_Tables_number   1
_chemical_formula_structural   Er3LuCo3Os5
_chemical_formula_sum   'Er3 Lu1 Co3 Os5'
_cell_volume   201.35356373
_cell_formula_units_Z   1
loop_
 _symmetry_equiv_pos_site_id
 _symmetry_equiv_pos_as_xyz
  1  'x, y, z'
loop_
 _atom_site_type_symbol
 _atom_site_label
 _atom_site_symmetry_multiplicity
 _atom_site_fract_x
 _atom_site_fract_y
 _atom_site_fract_z
 _atom_site_occupancy
  Er  Er0  1  0.327671  0.663836  0.437238  1
  Er  Er1  1  0.660539  0.330270  0.567217  1
  Er  Er2  1  0.660845  0.330422  0.933107  1
  Lu  Lu3  1  0.328086  0.664043  0.062611  1
  Co  Co4  1  0.182909  0.347843  0.750882  1
  Co  Co5  1  0.182909  0.835067  0.750882  1
  Co  Co6  1  0.346759  0.173379  0.248886  1
  Os  Os7  1  0.834130  0.661197  0.249102  1
  Os  Os8  1  0.668905  0.834453  0.750630  1
  Os  Os9  1  0.986978  0.993490  0.994985  1
  Os  Os10  1  0.834130  0.172933  0.249102  1
  Os  Os11  1  0.986134  0.993067  0.505360  1
