# generated using pymatgen
data_Rb8AlGeAu16
_symmetry_space_group_name_H-M   'P 1'
_cell_length_a   11.03075515
_cell_length_b   11.03075537
_cell_length_c   10.52775474
_cell_angle_alpha   77.28672910
_cell_angle_beta   77.28672970
_cell_angle_gamma   35.99600993
_symmetry_Int_Tables_number   1
_chemical_formula_structural   Rb8AlGeAu16
_chemical_formula_sum   'Rb8 Al1 Ge1 Au16'
_cell_volume   732.44263159
_cell_formula_units_Z   1
loop_
 _symmetry_equiv_pos_site_id
 _symmetry_equiv_pos_as_xyz
  1  'x, y, z'
loop_
 _atom_site_type_symbol
 _atom_site_label
 _atom_site_symmetry_multiplicity
 _atom_site_fract_x
 _atom_site_fract_y
 _atom_site_fract_z
 _atom_site_occupancy
  Rb  Rb0  1  0.481497  0.481497  0.843564  1
  Rb  Rb1  1  0.518104  0.518104  0.157794  1
  Rb  Rb2  1  0.283973  0.283973  0.915286  1
  Rb  Rb3  1  0.716957  0.716957  0.085390  1
  Rb  Rb4  1  0.223789  0.223789  0.603010  1
  Rb  Rb5  1  0.776680  0.776680  0.396804  1
  Rb  Rb6  1  0.044676  0.044676  0.647504  1
  Rb  Rb7  1  0.954532  0.954532  0.350692  1
  Al  Al8  1  0.332132  0.332132  0.230857  1
  Ge  Ge9  1  0.667034  0.667034  0.771196  1
  Au  Au10  1  0.789135  0.789135  0.729497  1
  Au  Au11  1  0.210592  0.210592  0.274353  1
  Au  Au12  1  0.620532  0.620532  0.573781  1
  Au  Au13  1  0.379452  0.379452  0.425939  1
  Au  Au14  1  0.499820  0.499820  0.501945  1
  Au  Au15  1  0.999904  0.999904  0.994445  1
  Au  Au16  1  0.107148  0.107148  0.144473  1
  Au  Au17  1  0.893419  0.893419  0.854582  1
  Au  Au18  1  0.840788  0.369447  0.359044  1
  Au  Au19  1  0.630215  0.158694  0.641561  1
  Au  Au20  1  0.158694  0.630215  0.641561  1
  Au  Au21  1  0.369447  0.840788  0.359044  1
  Au  Au22  1  0.091430  0.666518  0.091672  1
  Au  Au23  1  0.329945  0.913587  0.907168  1
  Au  Au24  1  0.913587  0.329945  0.907168  1
  Au  Au25  1  0.666518  0.091430  0.091672  1
