# generated using pymatgen
data_Ce2ErIn3NiRh2
_symmetry_space_group_name_H-M   'P 1'
_cell_length_a   7.57048913
_cell_length_b   7.41449026
_cell_length_c   3.92045300
_cell_angle_alpha   90.00000000
_cell_angle_beta   90.00000000
_cell_angle_gamma   119.32065932
_symmetry_Int_Tables_number   1
_chemical_formula_structural   Ce2ErIn3NiRh2
_chemical_formula_sum   'Ce2 Er1 In3 Ni1 Rh2'
_cell_volume   191.86888922
_cell_formula_units_Z   1
loop_
 _symmetry_equiv_pos_site_id
 _symmetry_equiv_pos_as_xyz
  1  'x, y, z'
loop_
 _atom_site_type_symbol
 _atom_site_label
 _atom_site_symmetry_multiplicity
 _atom_site_fract_x
 _atom_site_fract_y
 _atom_site_fract_z
 _atom_site_occupancy
  Ce  Ce0  1  0.413584  0.415040  0.000000  1
  Ce  Ce1  1  0.586416  0.001456  0.000000  1
  Er  Er2  1  0.000000  0.590713  0.000000  1
  In  In3  1  0.763180  0.753459  0.500000  1
  In  In4  1  0.000000  0.255605  0.500000  1
  In  In5  1  0.236820  0.990279  0.500000  1
  Ni  Ni6  1  0.000000  0.005818  0.000000  1
  Rh  Rh7  1  0.351105  0.669368  0.500000  1
  Rh  Rh8  1  0.648895  0.318262  0.500000  1
