# generated using pymatgen
data_Dy9YCo12
_symmetry_space_group_name_H-M   'P 1'
_cell_length_a   5.49833760
_cell_length_b   5.49833785
_cell_length_c   20.26310400
_cell_angle_alpha   90.00000000
_cell_angle_beta   90.00000000
_cell_angle_gamma   137.40018554
_symmetry_Int_Tables_number   1
_chemical_formula_structural   Dy9YCo12
_chemical_formula_sum   'Dy9 Y1 Co12'
_cell_volume   414.64493434
_cell_formula_units_Z   1
loop_
 _symmetry_equiv_pos_site_id
 _symmetry_equiv_pos_as_xyz
  1  'x, y, z'
loop_
 _atom_site_type_symbol
 _atom_site_label
 _atom_site_symmetry_multiplicity
 _atom_site_fract_x
 _atom_site_fract_y
 _atom_site_fract_z
 _atom_site_occupancy
  Dy  Dy0  1  0.277590  0.722410  0.250000  1
  Dy  Dy1  1  0.280953  0.719047  0.065220  1
  Dy  Dy2  1  0.007637  0.992363  0.846101  1
  Dy  Dy3  1  0.718898  0.281102  0.565065  1
  Dy  Dy4  1  0.992018  0.007982  0.345861  1
  Dy  Dy5  1  0.007637  0.992363  0.653899  1
  Dy  Dy6  1  0.718898  0.281102  0.934935  1
  Dy  Dy7  1  0.992018  0.007982  0.154139  1
  Dy  Dy8  1  0.280953  0.719047  0.434780  1
  Y  Y9  1  0.721336  0.278664  0.750000  1
  Co  Co10  1  0.000064  0.999936  0.499860  1
  Co  Co11  1  0.000064  0.999936  0.000140  1
  Co  Co12  1  0.311357  0.688643  0.651548  1
  Co  Co13  1  0.569099  0.430901  0.446160  1
  Co  Co14  1  0.420928  0.579072  0.750000  1
  Co  Co15  1  0.431056  0.568944  0.946436  1
  Co  Co16  1  0.579010  0.420990  0.250000  1
  Co  Co17  1  0.431056  0.568944  0.553564  1
  Co  Co18  1  0.689485  0.310515  0.348050  1
  Co  Co19  1  0.689485  0.310515  0.151950  1
  Co  Co20  1  0.569099  0.430901  0.053840  1
  Co  Co21  1  0.311357  0.688643  0.848452  1
