# generated using pymatgen
data_La3Ce(BeAs)12
_symmetry_space_group_name_H-M   'P 1'
_cell_length_a   3.86289600
_cell_length_b   10.94450327
_cell_length_c   11.86264142
_cell_angle_alpha   89.82141796
_cell_angle_beta   90.00000000
_cell_angle_gamma   90.00000000
_symmetry_Int_Tables_number   1
_chemical_formula_structural   La3Ce(BeAs)12
_chemical_formula_sum   'La3 Ce1 Be12 As12'
_cell_volume   501.52012475
_cell_formula_units_Z   1
loop_
 _symmetry_equiv_pos_site_id
 _symmetry_equiv_pos_as_xyz
  1  'x, y, z'
loop_
 _atom_site_type_symbol
 _atom_site_label
 _atom_site_symmetry_multiplicity
 _atom_site_fract_x
 _atom_site_fract_y
 _atom_site_fract_z
 _atom_site_occupancy
  La  La0  1  0.250000  0.443492  0.163602  1
  La  La1  1  0.750000  0.556373  0.836434  1
  La  La2  1  0.250000  0.056107  0.662884  1
  Ce  Ce3  1  0.750000  0.943157  0.336753  1
  Be  Be4  1  0.750000  0.241251  0.454032  1
  Be  Be5  1  0.250000  0.742913  0.045130  1
  Be  Be6  1  0.750000  0.257062  0.954593  1
  Be  Be7  1  0.250000  0.757946  0.544822  1
  Be  Be8  1  0.750000  0.646369  0.287567  1
  Be  Be9  1  0.250000  0.143509  0.212669  1
  Be  Be10  1  0.750000  0.855636  0.786686  1
  Be  Be11  1  0.250000  0.354852  0.712333  1
  Be  Be12  1  0.750000  0.036382  0.064641  1
  Be  Be13  1  0.250000  0.537849  0.436056  1
  Be  Be14  1  0.750000  0.463704  0.563347  1
  Be  Be15  1  0.250000  0.963087  0.938259  1
  As  As16  1  0.750000  0.439459  0.371565  1
  As  As17  1  0.250000  0.937965  0.131239  1
  As  As18  1  0.750000  0.060645  0.872298  1
  As  As19  1  0.250000  0.561582  0.628277  1
  As  As20  1  0.750000  0.225624  0.145744  1
  As  As21  1  0.250000  0.728780  0.354116  1
  As  As22  1  0.750000  0.273896  0.644841  1
  As  As23  1  0.250000  0.774576  0.854270  1
  As  As24  1  0.750000  0.642867  0.092671  1
  As  As25  1  0.250000  0.139027  0.407176  1
  As  As26  1  0.750000  0.858406  0.590785  1
  As  As27  1  0.250000  0.357482  0.907211  1
