# generated using pymatgen
data_Ta3FeB2(OsRu)2
_symmetry_space_group_name_H-M   'P 1'
_cell_length_a   9.30360900
_cell_length_b   9.36343200
_cell_length_c   3.02984500
_cell_angle_alpha   90.00000000
_cell_angle_beta   90.00000000
_cell_angle_gamma   90.00000000
_symmetry_Int_Tables_number   1
_chemical_formula_structural   Ta3FeB2(OsRu)2
_chemical_formula_sum   'Ta6 Fe2 B4 Os4 Ru4'
_cell_volume   263.94103936
_cell_formula_units_Z   2
loop_
 _symmetry_equiv_pos_site_id
 _symmetry_equiv_pos_as_xyz
  1  'x, y, z'
loop_
 _atom_site_type_symbol
 _atom_site_label
 _atom_site_symmetry_multiplicity
 _atom_site_fract_x
 _atom_site_fract_y
 _atom_site_fract_z
 _atom_site_occupancy
  Ta  Ta0  1  0.827571  0.672786  0.000000  1
  Ta  Ta1  1  0.172429  0.327214  0.000000  1
  Ta  Ta2  1  0.327571  0.827214  0.000000  1
  Ta  Ta3  1  0.672429  0.172786  0.000000  1
  Ta  Ta4  1  0.500000  0.500000  0.000000  1
  Ta  Ta5  1  0.000000  0.000000  0.000000  1
  Fe  Fe6  1  0.500000  0.000000  0.500000  1
  Fe  Fe7  1  0.000000  0.500000  0.500000  1
  B  B8  1  0.610752  0.889863  0.000000  1
  B  B9  1  0.389248  0.110137  0.000000  1
  B  B10  1  0.110752  0.610137  0.000000  1
  B  B11  1  0.889248  0.389863  0.000000  1
  Os  Os12  1  0.568839  0.724455  0.500000  1
  Os  Os13  1  0.431161  0.275545  0.500000  1
  Os  Os14  1  0.068839  0.775545  0.500000  1
  Os  Os15  1  0.931161  0.224455  0.500000  1
  Ru  Ru16  1  0.277528  0.566694  0.500000  1
  Ru  Ru17  1  0.722472  0.433306  0.500000  1
  Ru  Ru18  1  0.222472  0.066694  0.500000  1
  Ru  Ru19  1  0.777528  0.933306  0.500000  1
