# generated using pymatgen
data_Ho10Co4PdRu
_symmetry_space_group_name_H-M   'P 1'
_cell_length_a   7.15902248
_cell_length_b   7.15902214
_cell_length_c   8.64351509
_cell_angle_alpha   114.46434326
_cell_angle_beta   114.46433851
_cell_angle_gamma   89.99999036
_symmetry_Int_Tables_number   1
_chemical_formula_structural   Ho10Co4PdRu
_chemical_formula_sum   'Ho10 Co4 Pd1 Ru1'
_cell_volume   359.07060034
_cell_formula_units_Z   1
loop_
 _symmetry_equiv_pos_site_id
 _symmetry_equiv_pos_as_xyz
  1  'x, y, z'
loop_
 _atom_site_type_symbol
 _atom_site_label
 _atom_site_symmetry_multiplicity
 _atom_site_fract_x
 _atom_site_fract_y
 _atom_site_fract_z
 _atom_site_occupancy
  Ho  Ho0  1  0.992501  0.992501  0.985002  1
  Ho  Ho1  1  0.507499  0.507499  0.014998  1
  Ho  Ho2  1  0.455982  0.307497  0.280265  1
  Ho  Ho3  1  0.972769  0.455982  0.280265  1
  Ho  Ho4  1  0.307497  0.824282  0.280265  1
  Ho  Ho5  1  0.824282  0.972769  0.280265  1
  Ho  Ho6  1  0.192503  0.044018  0.719734  1
  Ho  Ho7  1  0.675716  0.192503  0.719734  1
  Ho  Ho8  1  0.044018  0.527231  0.719734  1
  Ho  Ho9  1  0.527231  0.675716  0.719734  1
  Co  Co10  1  0.613051  0.113051  0.000000  1
  Co  Co11  1  0.113051  0.386950  0.000000  1
  Co  Co12  1  0.886949  0.613051  0.000000  1
  Co  Co13  1  0.386950  0.886949  0.000000  1
  Pd  Pd14  1  0.750000  0.750000  0.500000  1
  Ru  Ru15  1  0.250000  0.250000  0.500000  1
