# generated using pymatgen
data_CeDy(MnSi2)2
_symmetry_space_group_name_H-M   'P 1'
_cell_length_a   8.84246922
_cell_length_b   8.84247003
_cell_length_c   3.97427700
_cell_angle_alpha   90.00000000
_cell_angle_beta   90.00000000
_cell_angle_gamma   153.72770372
_symmetry_Int_Tables_number   1
_chemical_formula_structural   CeDy(MnSi2)2
_chemical_formula_sum   'Ce1 Dy1 Mn2 Si4'
_cell_volume   137.54780256
_cell_formula_units_Z   1
loop_
 _symmetry_equiv_pos_site_id
 _symmetry_equiv_pos_as_xyz
  1  'x, y, z'
loop_
 _atom_site_type_symbol
 _atom_site_label
 _atom_site_symmetry_multiplicity
 _atom_site_fract_x
 _atom_site_fract_y
 _atom_site_fract_z
 _atom_site_occupancy
  Ce  Ce0  1  0.897752  0.102248  0.750000  1
  Dy  Dy1  1  0.101663  0.898337  0.250000  1
  Mn  Mn2  1  0.249902  0.750098  0.750000  1
  Mn  Mn3  1  0.750661  0.249339  0.250000  1
  Si  Si4  1  0.323886  0.676114  0.250000  1
  Si  Si5  1  0.675571  0.324429  0.750000  1
  Si  Si6  1  0.535830  0.464170  0.750000  1
  Si  Si7  1  0.464736  0.535264  0.250000  1
