# generated using pymatgen
data_Eu4Ga18Ir2Pd3Pt
_symmetry_space_group_name_H-M   'P 1'
_cell_length_a   7.71263351
_cell_length_b   7.71263279
_cell_length_c   9.69878040
_cell_angle_alpha   89.99236549
_cell_angle_beta   89.99236543
_cell_angle_gamma   119.69506416
_symmetry_Int_Tables_number   1
_chemical_formula_structural   Eu4Ga18Ir2Pd3Pt
_chemical_formula_sum   'Eu4 Ga18 Ir2 Pd3 Pt1'
_cell_volume   501.16343776
_cell_formula_units_Z   1
loop_
 _symmetry_equiv_pos_site_id
 _symmetry_equiv_pos_as_xyz
  1  'x, y, z'
loop_
 _atom_site_type_symbol
 _atom_site_label
 _atom_site_symmetry_multiplicity
 _atom_site_fract_x
 _atom_site_fract_y
 _atom_site_fract_z
 _atom_site_occupancy
  Eu  Eu0  1  0.001839  0.330328  0.749867  1
  Eu  Eu1  1  0.997839  0.669555  0.249551  1
  Eu  Eu2  1  0.330445  0.002161  0.750449  1
  Eu  Eu3  1  0.669672  0.998161  0.250133  1
  Ga  Ga4  1  0.664122  0.666364  0.436788  1
  Ga  Ga5  1  0.335375  0.332828  0.937738  1
  Ga  Ga6  1  0.667172  0.664625  0.062262  1
  Ga  Ga7  1  0.333636  0.335878  0.563212  1
  Ga  Ga8  1  0.004099  0.337456  0.421563  1
  Ga  Ga9  1  0.995945  0.662333  0.922000  1
  Ga  Ga10  1  0.337667  0.004055  0.078000  1
  Ga  Ga11  1  0.662544  0.995901  0.578437  1
  Ga  Ga12  1  0.002511  0.665598  0.578168  1
  Ga  Ga13  1  0.996686  0.334279  0.078317  1
  Ga  Ga14  1  0.665721  0.003314  0.921683  1
  Ga  Ga15  1  0.334402  0.997489  0.421832  1
  Ga  Ga16  1  0.130515  0.130095  0.249910  1
  Ga  Ga17  1  0.869905  0.869485  0.750090  1
  Ga  Ga18  1  0.661050  0.455113  0.751714  1
  Ga  Ga19  1  0.338921  0.544594  0.251923  1
  Ga  Ga20  1  0.455406  0.661079  0.748077  1
  Ga  Ga21  1  0.544887  0.338950  0.248286  1
  Ir  Ir22  1  0.330703  0.669297  0.500000  1
  Ir  Ir23  1  0.669223  0.330777  0.000000  1
  Pd  Pd24  1  0.000538  0.999462  0.500000  1
  Pd  Pd25  1  0.999455  0.000545  0.000000  1
  Pd  Pd26  1  0.670009  0.329991  0.500000  1
  Pt  Pt27  1  0.329711  0.670289  0.000000  1
