# generated using pymatgen
data_Ba2AgSbF14
_symmetry_space_group_name_H-M   'P 1'
_cell_length_a   4.93129241
_cell_length_b   7.72613976
_cell_length_c   8.02977500
_cell_angle_alpha   106.11877423
_cell_angle_beta   101.15058488
_cell_angle_gamma   90.79803969
_symmetry_Int_Tables_number   1
_chemical_formula_structural   Ba2AgSbF14
_chemical_formula_sum   'Ba2 Ag1 Sb1 F14'
_cell_volume   287.61522307
_cell_formula_units_Z   1
loop_
 _symmetry_equiv_pos_site_id
 _symmetry_equiv_pos_as_xyz
  1  'x, y, z'
loop_
 _atom_site_type_symbol
 _atom_site_label
 _atom_site_symmetry_multiplicity
 _atom_site_fract_x
 _atom_site_fract_y
 _atom_site_fract_z
 _atom_site_occupancy
  Ba  Ba0  1  0.195234  0.334802  0.780398  1
  Ba  Ba1  1  0.850456  0.652444  0.209194  1
  Ag  Ag2  1  0.342041  0.188055  0.292743  1
  Sb  Sb3  1  0.647524  0.813485  0.710174  1
  F  F4  1  0.106699  0.193174  0.068862  1
  F  F5  1  0.427662  0.798141  0.480023  1
  F  F6  1  0.566973  0.203443  0.527354  1
  F  F7  1  0.494633  0.033538  0.815031  1
  F  F8  1  0.457609  0.949658  0.183950  1
  F  F9  1  0.360671  0.675000  0.756272  1
  F  F10  1  0.868796  0.814757  0.934312  1
  F  F11  1  0.308750  0.583417  0.090667  1
  F  F12  1  0.050461  0.065218  0.360721  1
  F  F13  1  0.206415  0.419690  0.408729  1
  F  F14  1  0.739386  0.414070  0.896444  1
  F  F15  1  0.807161  0.598416  0.594624  1
  F  F16  1  0.638506  0.309712  0.230912  1
  F  F17  1  0.931023  0.952981  0.659586  1
