# generated using pymatgen
data_Ho5Hf2Zr(Co4P3)4
_symmetry_space_group_name_H-M   'P 1'
_cell_length_a   12.25660400
_cell_length_b   12.27576855
_cell_length_c   3.70119400
_cell_angle_alpha   90.00000000
_cell_angle_beta   90.00000000
_cell_angle_gamma   120.05174334
_symmetry_Int_Tables_number   1
_chemical_formula_structural   Ho5Hf2Zr(Co4P3)4
_chemical_formula_sum   'Ho5 Hf2 Zr1 Co16 P12'
_cell_volume   482.01954668
_cell_formula_units_Z   1
loop_
 _symmetry_equiv_pos_site_id
 _symmetry_equiv_pos_as_xyz
  1  'x, y, z'
loop_
 _atom_site_type_symbol
 _atom_site_label
 _atom_site_symmetry_multiplicity
 _atom_site_fract_x
 _atom_site_fract_y
 _atom_site_fract_z
 _atom_site_occupancy
  Ho  Ho0  1  0.666868  0.333399  0.000000  1
  Ho  Ho1  1  0.333132  0.666532  0.000000  1
  Ho  Ho2  1  0.817339  0.817559  0.500000  1
  Ho  Ho3  1  0.182661  0.000219  0.500000  1
  Ho  Ho4  1  0.000000  0.181796  0.500000  1
  Hf  Hf5  1  0.441191  0.441078  0.000000  1
  Hf  Hf6  1  0.558809  0.999887  0.000000  1
  Zr  Zr7  1  0.000000  0.558175  0.000000  1
  Co  Co8  1  0.875007  0.354098  0.500000  1
  Co  Co9  1  0.643584  0.519547  0.500000  1
  Co  Co10  1  0.480535  0.124678  0.500000  1
  Co  Co11  1  0.356416  0.875963  0.500000  1
  Co  Co12  1  0.519465  0.644142  0.500000  1
  Co  Co13  1  0.124993  0.479091  0.500000  1
  Co  Co14  1  0.804240  0.177424  0.000000  1
  Co  Co15  1  0.821170  0.627120  0.000000  1
  Co  Co16  1  0.373834  0.195686  0.000000  1
  Co  Co17  1  0.178830  0.805951  0.000000  1
  Co  Co18  1  0.626166  0.821853  0.000000  1
  Co  Co19  1  0.195760  0.373185  0.000000  1
  Co  Co20  1  0.278695  0.278513  0.500000  1
  Co  Co21  1  0.721305  0.999818  0.500000  1
  Co  Co22  1  0.000000  0.722931  0.500000  1
  Co  Co23  1  0.000000  0.000082  0.000000  1
  P  P24  1  0.692090  0.171224  0.500000  1
  P  P25  1  0.827537  0.521536  0.500000  1
  P  P26  1  0.479283  0.307729  0.500000  1
  P  P27  1  0.172463  0.693998  0.500000  1
  P  P28  1  0.520717  0.828445  0.500000  1
  P  P29  1  0.307910  0.479133  0.500000  1
  P  P30  1  0.178194  0.177814  0.000000  1
  P  P31  1  0.821806  0.999620  0.000000  1
  P  P32  1  0.000000  0.822287  0.000000  1
  P  P33  1  0.648094  0.648689  0.000000  1
  P  P34  1  0.351906  0.000594  0.000000  1
  P  P35  1  0.000000  0.350203  0.000000  1
