# generated using pymatgen
data_YbPr5(TiBi5)2
_symmetry_space_group_name_H-M   'P 1'
_cell_length_a   9.70308900
_cell_length_b   9.70851701
_cell_length_c   6.51355700
_cell_angle_alpha   90.00000000
_cell_angle_beta   90.00000000
_cell_angle_gamma   119.98150351
_symmetry_Int_Tables_number   1
_chemical_formula_structural   YbPr5(TiBi5)2
_chemical_formula_sum   'Yb1 Pr5 Ti2 Bi10'
_cell_volume   531.48703557
_cell_formula_units_Z   1
loop_
 _symmetry_equiv_pos_site_id
 _symmetry_equiv_pos_as_xyz
  1  'x, y, z'
loop_
 _atom_site_type_symbol
 _atom_site_label
 _atom_site_symmetry_multiplicity
 _atom_site_fract_x
 _atom_site_fract_y
 _atom_site_fract_z
 _atom_site_occupancy
  Yb  Yb0  1  0.618195  0.000000  0.250000  1
  Pr  Pr1  1  0.384265  0.000000  0.750000  1
  Pr  Pr2  1  0.000241  0.618014  0.250000  1
  Pr  Pr3  1  0.999359  0.380771  0.750000  1
  Pr  Pr4  1  0.382227  0.381986  0.250000  1
  Pr  Pr5  1  0.618588  0.619229  0.750000  1
  Ti  Ti6  1  0.999312  0.000000  0.001876  1
  Ti  Ti7  1  0.999312  0.000000  0.498124  1
  Bi  Bi8  1  0.253775  0.000000  0.250000  1
  Bi  Bi9  1  0.747810  0.000000  0.750000  1
  Bi  Bi10  1  0.998180  0.252417  0.250000  1
  Bi  Bi11  1  0.999619  0.745998  0.750000  1
  Bi  Bi12  1  0.745763  0.747583  0.250000  1
  Bi  Bi13  1  0.253622  0.254002  0.750000  1
  Bi  Bi14  1  0.333572  0.667280  0.000117  1
  Bi  Bi15  1  0.666293  0.332720  0.000117  1
  Bi  Bi16  1  0.666293  0.332720  0.499883  1
  Bi  Bi17  1  0.333572  0.667280  0.499883  1
