# generated using pymatgen
data_Zr15Co4HgIr4
_symmetry_space_group_name_H-M   'P 1'
_cell_length_a   8.67304003
_cell_length_b   8.66712941
_cell_length_c   8.66712900
_cell_angle_alpha   59.61712183
_cell_angle_beta   59.97744103
_cell_angle_gamma   59.97744154
_symmetry_Int_Tables_number   1
_chemical_formula_structural   Zr15Co4HgIr4
_chemical_formula_sum   'Zr15 Co4 Hg1 Ir4'
_cell_volume   459.18440207
_cell_formula_units_Z   1
loop_
 _symmetry_equiv_pos_site_id
 _symmetry_equiv_pos_as_xyz
  1  'x, y, z'
loop_
 _atom_site_type_symbol
 _atom_site_label
 _atom_site_symmetry_multiplicity
 _atom_site_fract_x
 _atom_site_fract_y
 _atom_site_fract_z
 _atom_site_occupancy
  Zr  Zr0  1  0.060399  0.646561  0.646561  1
  Zr  Zr1  1  0.643971  0.063502  0.648556  1
  Zr  Zr2  1  0.643971  0.648556  0.063502  1
  Zr  Zr3  1  0.646479  0.646561  0.646561  1
  Zr  Zr4  1  0.798128  0.805908  0.196424  1
  Zr  Zr5  1  0.199539  0.196424  0.805908  1
  Zr  Zr6  1  0.798128  0.196424  0.805908  1
  Zr  Zr7  1  0.199539  0.805908  0.196424  1
  Zr  Zr8  1  0.195766  0.804234  0.804234  1
  Zr  Zr9  1  0.800288  0.199712  0.199712  1
  Zr  Zr10  1  0.435236  0.432273  0.065030  1
  Zr  Zr11  1  0.067460  0.065030  0.432273  1
  Zr  Zr12  1  0.435236  0.065030  0.432273  1
  Zr  Zr13  1  0.067460  0.432273  0.065030  1
  Zr  Zr14  1  0.060793  0.439207  0.439207  1
  Co  Co15  1  0.425037  0.853946  0.853946  1
  Co  Co16  1  0.860548  0.423146  0.855757  1
  Co  Co17  1  0.860548  0.855757  0.423146  1
  Co  Co18  1  0.867069  0.853946  0.853946  1
  Hg  Hg19  1  0.437131  0.062869  0.062869  1
  Ir  Ir20  1  0.750922  0.416614  0.416614  1
  Ir  Ir21  1  0.415250  0.743092  0.426406  1
  Ir  Ir22  1  0.415250  0.426406  0.743092  1
  Ir  Ir23  1  0.415849  0.416614  0.416614  1
