# generated using pymatgen
data_Ho5(TlBi)2
_symmetry_space_group_name_H-M   'P 1'
_cell_length_a   8.88075750
_cell_length_b   8.88075726
_cell_length_c   8.20090100
_cell_angle_alpha   90.00000000
_cell_angle_beta   90.00000000
_cell_angle_gamma   125.03887035
_symmetry_Int_Tables_number   1
_chemical_formula_structural   Ho5(TlBi)2
_chemical_formula_sum   'Ho10 Tl4 Bi4'
_cell_volume   529.56545454
_cell_formula_units_Z   2
loop_
 _symmetry_equiv_pos_site_id
 _symmetry_equiv_pos_as_xyz
  1  'x, y, z'
loop_
 _atom_site_type_symbol
 _atom_site_label
 _atom_site_symmetry_multiplicity
 _atom_site_fract_x
 _atom_site_fract_y
 _atom_site_fract_z
 _atom_site_occupancy
  Ho  Ho0  1  0.033762  0.299888  0.334653  1
  Ho  Ho1  1  0.966238  0.700112  0.665347  1
  Ho  Ho2  1  0.466238  0.200112  0.834653  1
  Ho  Ho3  1  0.799888  0.533762  0.165347  1
  Ho  Ho4  1  0.533762  0.799888  0.165347  1
  Ho  Ho5  1  0.200112  0.466238  0.834653  1
  Ho  Ho6  1  0.700112  0.966238  0.665347  1
  Ho  Ho7  1  0.299888  0.033762  0.334653  1
  Ho  Ho8  1  0.000000  0.000000  0.000000  1
  Ho  Ho9  1  0.500000  0.500000  0.500000  1
  Tl  Tl10  1  0.365196  0.365196  0.134359  1
  Tl  Tl11  1  0.634804  0.634804  0.865641  1
  Tl  Tl12  1  0.134804  0.134804  0.634359  1
  Tl  Tl13  1  0.865196  0.865196  0.365641  1
  Bi  Bi14  1  0.794392  0.205608  0.000000  1
  Bi  Bi15  1  0.205608  0.794392  0.000000  1
  Bi  Bi16  1  0.705608  0.294392  0.500000  1
  Bi  Bi17  1  0.294392  0.705608  0.500000  1
