# generated using pymatgen
data_Ho6Sc4TlIn8Rh3
_symmetry_space_group_name_H-M   'P 1'
_cell_length_a   3.57488800
_cell_length_b   8.00350798
_cell_length_c   18.02350668
_cell_angle_alpha   89.94034469
_cell_angle_beta   90.00000000
_cell_angle_gamma   90.00000000
_symmetry_Int_Tables_number   1
_chemical_formula_structural   Ho6Sc4TlIn8Rh3
_chemical_formula_sum   'Ho6 Sc4 Tl1 In8 Rh3'
_cell_volume   515.68188895
_cell_formula_units_Z   1
loop_
 _symmetry_equiv_pos_site_id
 _symmetry_equiv_pos_as_xyz
  1  'x, y, z'
loop_
 _atom_site_type_symbol
 _atom_site_label
 _atom_site_symmetry_multiplicity
 _atom_site_fract_x
 _atom_site_fract_y
 _atom_site_fract_z
 _atom_site_occupancy
  Ho  Ho0  1  0.000000  0.996844  0.001552  1
  Ho  Ho1  1  0.000000  0.500193  0.497813  1
  Ho  Ho2  1  0.000000  0.731441  0.794863  1
  Ho  Ho3  1  0.000000  0.250406  0.217636  1
  Ho  Ho4  1  0.000000  0.286560  0.721309  1
  Ho  Ho5  1  0.000000  0.750258  0.280088  1
  Sc  Sc6  1  0.000000  0.867387  0.570557  1
  Sc  Sc7  1  0.000000  0.116823  0.406752  1
  Sc  Sc8  1  0.000000  0.378121  0.915749  1
  Sc  Sc9  1  0.000000  0.619347  0.092638  1
  Tl  Tl10  1  0.500000  0.963981  0.693867  1
  In  In11  1  0.500000  0.804336  0.431905  1
  In  In12  1  0.500000  0.192031  0.554953  1
  In  In13  1  0.500000  0.309739  0.062576  1
  In  In14  1  0.500000  0.684237  0.945014  1
  In  In15  1  0.500000  0.922425  0.150027  1
  In  In16  1  0.500000  0.091592  0.855300  1
  In  In17  1  0.500000  0.422141  0.349784  1
  In  In18  1  0.500000  0.580126  0.647758  1
  Rh  Rh19  1  0.500000  0.034102  0.306101  1
  Rh  Rh20  1  0.500000  0.465356  0.810658  1
  Rh  Rh21  1  0.500000  0.532554  0.193099  1
