# generated using pymatgen
data_Cs12Mn3CdBr20
_symmetry_space_group_name_H-M   'P 1'
_cell_length_a   9.69349713
_cell_length_b   11.21917300
_cell_length_c   14.37167067
_cell_angle_alpha   90.00000000
_cell_angle_beta   90.11272559
_cell_angle_gamma   90.00000000
_symmetry_Int_Tables_number   1
_chemical_formula_structural   Cs12Mn3CdBr20
_chemical_formula_sum   'Cs12 Mn3 Cd1 Br20'
_cell_volume   1562.95958126
_cell_formula_units_Z   1
loop_
 _symmetry_equiv_pos_site_id
 _symmetry_equiv_pos_as_xyz
  1  'x, y, z'
loop_
 _atom_site_type_symbol
 _atom_site_label
 _atom_site_symmetry_multiplicity
 _atom_site_fract_x
 _atom_site_fract_y
 _atom_site_fract_z
 _atom_site_occupancy
  Cs  Cs0  1  0.910746  0.020669  0.671928  1
  Cs  Cs1  1  0.589323  0.977907  0.170625  1
  Cs  Cs2  1  0.589323  0.522093  0.170625  1
  Cs  Cs3  1  0.091191  0.522500  0.328941  1
  Cs  Cs4  1  0.091191  0.977500  0.328941  1
  Cs  Cs5  1  0.410079  0.021282  0.828852  1
  Cs  Cs6  1  0.586187  0.750000  0.456398  1
  Cs  Cs7  1  0.911487  0.250000  0.954181  1
  Cs  Cs8  1  0.088508  0.750000  0.043993  1
  Cs  Cs9  1  0.412261  0.250000  0.545084  1
  Cs  Cs10  1  0.410079  0.478718  0.828852  1
  Cs  Cs11  1  0.910746  0.479331  0.671928  1
  Mn  Mn12  1  0.688488  0.750000  0.892429  1
  Mn  Mn13  1  0.311191  0.250000  0.107384  1
  Mn  Mn14  1  0.189307  0.750000  0.607204  1
  Cd  Cd15  1  0.808392  0.250000  0.390730  1
  Br  Br16  1  0.659372  0.250000  0.736083  1
  Br  Br17  1  0.309957  0.561349  0.565994  1
  Br  Br18  1  0.867040  0.250000  0.213699  1
  Br  Br19  1  0.841314  0.750000  0.236334  1
  Br  Br20  1  0.636758  0.750000  0.722795  1
  Br  Br21  1  0.683825  0.447147  0.437278  1
  Br  Br22  1  0.809886  0.561558  0.933936  1
  Br  Br23  1  0.531343  0.250000  0.015803  1
  Br  Br24  1  0.968750  0.750000  0.515815  1
  Br  Br25  1  0.159949  0.250000  0.764281  1
  Br  Br26  1  0.809886  0.938442  0.933936  1
  Br  Br27  1  0.309957  0.938651  0.565994  1
  Br  Br28  1  0.339968  0.750000  0.263758  1
  Br  Br29  1  0.190509  0.061183  0.065992  1
  Br  Br30  1  0.683825  0.052853  0.437278  1
  Br  Br31  1  0.136984  0.750000  0.776910  1
  Br  Br32  1  0.363591  0.250000  0.277175  1
  Br  Br33  1  0.039523  0.250000  0.488530  1
  Br  Br34  1  0.190509  0.438817  0.065992  1
  Br  Br35  1  0.468551  0.750000  0.984327  1
