# generated using pymatgen
data_Hf18TiCu2Mo7
_symmetry_space_group_name_H-M   'P 1'
_cell_length_a   8.47023900
_cell_length_b   8.72177289
_cell_length_c   8.72177503
_cell_angle_alpha   119.99917036
_cell_angle_beta   89.99977979
_cell_angle_gamma   90.00014365
_symmetry_Int_Tables_number   1
_chemical_formula_structural   Hf18TiCu2Mo7
_chemical_formula_sum   'Hf18 Ti1 Cu2 Mo7'
_cell_volume   558.00691565
_cell_formula_units_Z   1
loop_
 _symmetry_equiv_pos_site_id
 _symmetry_equiv_pos_as_xyz
  1  'x, y, z'
loop_
 _atom_site_type_symbol
 _atom_site_label
 _atom_site_symmetry_multiplicity
 _atom_site_fract_x
 _atom_site_fract_y
 _atom_site_fract_z
 _atom_site_occupancy
  Hf  Hf0  1  0.553171  0.801901  0.603800  1
  Hf  Hf1  1  0.553191  0.801894  0.198105  1
  Hf  Hf2  1  0.553171  0.396200  0.198099  1
  Hf  Hf3  1  0.446829  0.198099  0.396200  1
  Hf  Hf4  1  0.446809  0.198106  0.801895  1
  Hf  Hf5  1  0.446829  0.603800  0.801901  1
  Hf  Hf6  1  0.054539  0.198378  0.396757  1
  Hf  Hf7  1  0.054555  0.198386  0.801614  1
  Hf  Hf8  1  0.054538  0.603245  0.801622  1
  Hf  Hf9  1  0.945461  0.801622  0.603243  1
  Hf  Hf10  1  0.945445  0.801614  0.198386  1
  Hf  Hf11  1  0.945462  0.396755  0.198378  1
  Hf  Hf12  1  0.750731  0.457606  0.915235  1
  Hf  Hf13  1  0.750729  0.457614  0.542387  1
  Hf  Hf14  1  0.750730  0.084765  0.542394  1
  Hf  Hf15  1  0.249269  0.542394  0.084765  1
  Hf  Hf16  1  0.249271  0.542386  0.457613  1
  Hf  Hf17  1  0.249270  0.915235  0.457606  1
  Ti  Ti18  1  0.500000  0.000000  0.000000  1
  Cu  Cu19  1  0.749989  0.666649  0.333350  1
  Cu  Cu20  1  0.250011  0.333351  0.666650  1
  Mo  Mo21  1  0.750072  0.112682  0.225382  1
  Mo  Mo22  1  0.750074  0.112686  0.887314  1
  Mo  Mo23  1  0.750072  0.774618  0.887318  1
  Mo  Mo24  1  0.249928  0.887318  0.774618  1
  Mo  Mo25  1  0.249926  0.887314  0.112686  1
  Mo  Mo26  1  0.249928  0.225382  0.112682  1
  Mo  Mo27  1  0.000000  0.000000  0.000000  1
