# generated using pymatgen
data_YCd2Ga2Ni
_symmetry_space_group_name_H-M   'P 1'
_cell_length_a   8.51310639
_cell_length_b   8.51310661
_cell_length_c   6.71327400
_cell_angle_alpha   90.00000000
_cell_angle_beta   90.00000000
_cell_angle_gamma   151.98764111
_symmetry_Int_Tables_number   1
_chemical_formula_structural   YCd2Ga2Ni
_chemical_formula_sum   'Y2 Cd4 Ga4 Ni2'
_cell_volume   228.50511999
_cell_formula_units_Z   2
loop_
 _symmetry_equiv_pos_site_id
 _symmetry_equiv_pos_as_xyz
  1  'x, y, z'
loop_
 _atom_site_type_symbol
 _atom_site_label
 _atom_site_symmetry_multiplicity
 _atom_site_fract_x
 _atom_site_fract_y
 _atom_site_fract_z
 _atom_site_occupancy
  Y  Y0  1  0.368863  0.631137  0.750000  1
  Y  Y1  1  0.631137  0.368863  0.250000  1
  Cd  Cd2  1  0.000000  0.000000  0.000000  1
  Cd  Cd3  1  0.000000  0.000000  0.500000  1
  Cd  Cd4  1  0.573601  0.426399  0.750000  1
  Cd  Cd5  1  0.426399  0.573601  0.250000  1
  Ga  Ga6  1  0.189845  0.810155  0.945869  1
  Ga  Ga7  1  0.810155  0.189845  0.054131  1
  Ga  Ga8  1  0.189845  0.810155  0.554131  1
  Ga  Ga9  1  0.810155  0.189845  0.445869  1
  Ni  Ni10  1  0.732066  0.267934  0.750000  1
  Ni  Ni11  1  0.267934  0.732066  0.250000  1
