# generated using pymatgen
data_Zr4TaNb3GeP3
_symmetry_space_group_name_H-M   'P 1'
_cell_length_a   3.58779700
_cell_length_b   6.97978852
_cell_length_c   8.44220617
_cell_angle_alpha   89.65711589
_cell_angle_beta   90.00000000
_cell_angle_gamma   90.00000000
_symmetry_Int_Tables_number   1
_chemical_formula_structural   Zr4TaNb3GeP3
_chemical_formula_sum   'Zr4 Ta1 Nb3 Ge1 P3'
_cell_volume   211.40648427
_cell_formula_units_Z   1
loop_
 _symmetry_equiv_pos_site_id
 _symmetry_equiv_pos_as_xyz
  1  'x, y, z'
loop_
 _atom_site_type_symbol
 _atom_site_label
 _atom_site_symmetry_multiplicity
 _atom_site_fract_x
 _atom_site_fract_y
 _atom_site_fract_z
 _atom_site_occupancy
  Zr  Zr0  1  0.250000  0.531107  0.837189  1
  Zr  Zr1  1  0.750000  0.964400  0.329698  1
  Zr  Zr2  1  0.250000  0.044315  0.669337  1
  Zr  Zr3  1  0.750000  0.465615  0.169693  1
  Ta  Ta4  1  0.750000  0.865049  0.944709  1
  Nb  Nb5  1  0.250000  0.139889  0.060828  1
  Nb  Nb6  1  0.250000  0.631432  0.433244  1
  Nb  Nb7  1  0.750000  0.358856  0.558103  1
  Ge  Ge8  1  0.750000  0.741704  0.641245  1
  P  P9  1  0.250000  0.761994  0.140931  1
  P  P10  1  0.750000  0.237880  0.857569  1
  P  P11  1  0.250000  0.257757  0.357452  1
