# generated using pymatgen
data_TmSn6Ru3Rh
_symmetry_space_group_name_H-M   'P 1'
_cell_length_a   6.95899653
_cell_length_b   6.96183461
_cell_length_c   6.94789225
_cell_angle_alpha   120.47251819
_cell_angle_beta   120.45910728
_cell_angle_gamma   89.29960184
_symmetry_Int_Tables_number   1
_chemical_formula_structural   TmSn6Ru3Rh
_chemical_formula_sum   'Tm1 Sn6 Ru3 Rh1'
_cell_volume   236.10265055
_cell_formula_units_Z   1
loop_
 _symmetry_equiv_pos_site_id
 _symmetry_equiv_pos_as_xyz
  1  'x, y, z'
loop_
 _atom_site_type_symbol
 _atom_site_label
 _atom_site_symmetry_multiplicity
 _atom_site_fract_x
 _atom_site_fract_y
 _atom_site_fract_z
 _atom_site_occupancy
  Tm  Tm0  1  0.002456  0.997616  0.000000  1
  Sn  Sn1  1  0.879898  0.537701  0.000000  1
  Sn  Sn2  1  0.535039  0.877905  0.000000  1
  Sn  Sn3  1  0.464174  0.467919  0.347101  1
  Sn  Sn4  1  0.499831  0.001338  0.497706  1
  Sn  Sn5  1  0.002125  0.503632  0.502294  1
  Sn  Sn6  1  0.117075  0.120819  0.652900  1
  Ru  Ru7  1  0.247465  0.599016  0.000000  1
  Ru  Ru8  1  0.751206  0.750268  0.350747  1
  Ru  Ru9  1  0.400459  0.399521  0.649253  1
  Rh  Rh10  1  0.600271  0.244265  0.000000  1
