# generated using pymatgen
data_ZrMn(SO4)3
_symmetry_space_group_name_H-M   'P 1'
_cell_length_a   8.84568521
_cell_length_b   8.84568642
_cell_length_c   9.36398100
_cell_angle_alpha   118.18532466
_cell_angle_beta   61.81467117
_cell_angle_gamma   119.99999759
_symmetry_Int_Tables_number   1
_chemical_formula_structural   ZrMn(SO4)3
_chemical_formula_sum   'Zr2 Mn2 S6 O24'
_cell_volume   531.85271355
_cell_formula_units_Z   2
loop_
 _symmetry_equiv_pos_site_id
 _symmetry_equiv_pos_as_xyz
  1  'x, y, z'
loop_
 _atom_site_type_symbol
 _atom_site_label
 _atom_site_symmetry_multiplicity
 _atom_site_fract_x
 _atom_site_fract_y
 _atom_site_fract_z
 _atom_site_occupancy
  Zr  Zr0  1  0.645039  0.354960  0.064882  1
  Zr  Zr1  1  0.851764  0.148235  0.444704  1
  Mn  Mn2  1  0.146684  0.853307  0.559931  1
  Mn  Mn3  1  0.356052  0.643949  0.931850  1
  S  S4  1  0.253392  0.467402  0.250250  1
  S  S5  1  0.532595  0.036235  0.250247  1
  S  S6  1  0.963763  0.746609  0.250246  1
  S  S7  1  0.038683  0.248851  0.748733  1
  S  S8  1  0.461435  0.961318  0.748734  1
  S  S9  1  0.751150  0.538566  0.748734  1
  O  O10  1  0.114620  0.727073  0.092205  1
  O  O11  1  0.272926  0.479752  0.092208  1
  O  O12  1  0.520248  0.885382  0.092205  1
  O  O13  1  0.395883  0.398419  0.218415  1
  O  O14  1  0.601579  0.215876  0.218412  1
  O  O15  1  0.784124  0.604118  0.218410  1
  O  O16  1  0.069753  0.320472  0.301387  1
  O  O17  1  0.679528  0.050666  0.301385  1
  O  O18  1  0.949337  0.930248  0.301384  1
  O  O19  1  0.270051  0.639004  0.390534  1
  O  O20  1  0.360995  0.021577  0.390529  1
  O  O21  1  0.978421  0.729948  0.390528  1
  O  O22  1  0.010295  0.258497  0.606204  1
  O  O23  1  0.641997  0.989706  0.606204  1
  O  O24  1  0.741506  0.358003  0.606202  1
  O  O25  1  0.019317  0.061962  0.714195  1
  O  O26  1  0.328450  0.980682  0.714197  1
  O  O27  1  0.938037  0.671550  0.714196  1
  O  O28  1  0.215033  0.386407  0.769197  1
  O  O29  1  0.402178  0.784970  0.769198  1
  O  O30  1  0.613593  0.597824  0.769198  1
  O  O31  1  0.501134  0.114153  0.908435  1
  O  O32  1  0.704586  0.498865  0.908434  1
  O  O33  1  0.885847  0.295415  0.908434  1
