# generated using pymatgen
data_SmTh11(GePd)12
_symmetry_space_group_name_H-M   'P 1'
_cell_length_a   4.43030800
_cell_length_b   7.66488480
_cell_length_c   23.19046001
_cell_angle_alpha   89.94466605
_cell_angle_beta   90.00000000
_cell_angle_gamma   90.00000000
_symmetry_Int_Tables_number   1
_chemical_formula_structural   SmTh11(GePd)12
_chemical_formula_sum   'Sm1 Th11 Ge12 Pd12'
_cell_volume   787.49664584
_cell_formula_units_Z   1
loop_
 _symmetry_equiv_pos_site_id
 _symmetry_equiv_pos_as_xyz
  1  'x, y, z'
loop_
 _atom_site_type_symbol
 _atom_site_label
 _atom_site_symmetry_multiplicity
 _atom_site_fract_x
 _atom_site_fract_y
 _atom_site_fract_z
 _atom_site_occupancy
  Sm  Sm0  1  0.250000  0.749279  0.500113  1
  Th  Th1  1  0.250000  0.750388  0.335358  1
  Th  Th2  1  0.750000  0.248617  0.665020  1
  Th  Th3  1  0.750000  0.251325  0.166974  1
  Th  Th4  1  0.250000  0.748727  0.832859  1
  Th  Th5  1  0.250000  0.751095  0.166914  1
  Th  Th6  1  0.750000  0.250092  0.832757  1
  Th  Th7  1  0.750000  0.250694  0.334766  1
  Th  Th8  1  0.250000  0.749308  0.664688  1
  Th  Th9  1  0.250000  0.751097  0.999841  1
  Th  Th10  1  0.750000  0.250046  0.999848  1
  Th  Th11  1  0.750000  0.249272  0.499984  1
  Ge  Ge12  1  0.250000  0.084454  0.079533  1
  Ge  Ge13  1  0.750000  0.916784  0.920885  1
  Ge  Ge14  1  0.750000  0.585438  0.417573  1
  Ge  Ge15  1  0.250000  0.417415  0.583078  1
  Ge  Ge16  1  0.250000  0.084435  0.248759  1
  Ge  Ge17  1  0.750000  0.915554  0.753227  1
  Ge  Ge18  1  0.750000  0.584670  0.247885  1
  Ge  Ge19  1  0.250000  0.415484  0.751867  1
  Ge  Ge20  1  0.250000  0.081541  0.418373  1
  Ge  Ge21  1  0.750000  0.913556  0.583941  1
  Ge  Ge22  1  0.750000  0.584256  0.079160  1
  Ge  Ge23  1  0.250000  0.416494  0.921010  1
  Pd  Pd24  1  0.250000  0.417707  0.253084  1
  Pd  Pd25  1  0.750000  0.582565  0.746681  1
  Pd  Pd26  1  0.750000  0.917581  0.252435  1
  Pd  Pd27  1  0.250000  0.082246  0.746668  1
  Pd  Pd28  1  0.250000  0.415623  0.418351  1
  Pd  Pd29  1  0.750000  0.580847  0.581660  1
  Pd  Pd30  1  0.750000  0.917509  0.086656  1
  Pd  Pd31  1  0.250000  0.083156  0.912698  1
  Pd  Pd32  1  0.250000  0.417906  0.086595  1
  Pd  Pd33  1  0.750000  0.583380  0.913553  1
  Pd  Pd34  1  0.750000  0.917947  0.417046  1
  Pd  Pd35  1  0.250000  0.083514  0.580158  1
