# generated using pymatgen
data_Al4(Fe4C)3
_symmetry_space_group_name_H-M   'P 1'
_cell_length_a   3.76241500
_cell_length_b   3.76241500
_cell_length_c   14.56312200
_cell_angle_alpha   90.00000000
_cell_angle_beta   90.00000000
_cell_angle_gamma   90.00000000
_symmetry_Int_Tables_number   1
_chemical_formula_structural   Al4(Fe4C)3
_chemical_formula_sum   'Al4 Fe12 C3'
_cell_volume   206.15215647
_cell_formula_units_Z   1
loop_
 _symmetry_equiv_pos_site_id
 _symmetry_equiv_pos_as_xyz
  1  'x, y, z'
loop_
 _atom_site_type_symbol
 _atom_site_label
 _atom_site_symmetry_multiplicity
 _atom_site_fract_x
 _atom_site_fract_y
 _atom_site_fract_z
 _atom_site_occupancy
  Al  Al0  1  0.000000  0.000000  0.876876  1
  Al  Al1  1  0.000000  0.000000  0.123124  1
  Al  Al2  1  0.000000  0.000000  0.373135  1
  Al  Al3  1  0.000000  0.000000  0.626865  1
  Fe  Fe4  1  0.500000  0.500000  0.890281  1
  Fe  Fe5  1  0.500000  0.500000  0.109719  1
  Fe  Fe6  1  0.500000  0.500000  0.371183  1
  Fe  Fe7  1  0.500000  0.500000  0.628817  1
  Fe  Fe8  1  0.500000  0.000000  0.000000  1
  Fe  Fe9  1  0.500000  0.000000  0.247133  1
  Fe  Fe10  1  0.500000  0.000000  0.500000  1
  Fe  Fe11  1  0.500000  0.000000  0.752867  1
  Fe  Fe12  1  0.000000  0.500000  0.000000  1
  Fe  Fe13  1  0.000000  0.500000  0.247133  1
  Fe  Fe14  1  0.000000  0.500000  0.500000  1
  Fe  Fe15  1  0.000000  0.500000  0.752867  1
  C  C16  1  0.500000  0.500000  0.240601  1
  C  C17  1  0.500000  0.500000  0.500000  1
  C  C18  1  0.500000  0.500000  0.759399  1
