# generated using pymatgen
data_Tm4Pa4Re3B24W
_symmetry_space_group_name_H-M   'P 1'
_cell_length_a   3.71054000
_cell_length_b   9.13049555
_cell_length_c   11.49748969
_cell_angle_alpha   89.96019771
_cell_angle_beta   90.00000000
_cell_angle_gamma   90.00000000
_symmetry_Int_Tables_number   1
_chemical_formula_structural   Tm4Pa4Re3B24W
_chemical_formula_sum   'Tm4 Pa4 Re3 B24 W1'
_cell_volume   389.52415222
_cell_formula_units_Z   1
loop_
 _symmetry_equiv_pos_site_id
 _symmetry_equiv_pos_as_xyz
  1  'x, y, z'
loop_
 _atom_site_type_symbol
 _atom_site_label
 _atom_site_symmetry_multiplicity
 _atom_site_fract_x
 _atom_site_fract_y
 _atom_site_fract_z
 _atom_site_occupancy
  Tm  Tm0  1  0.000000  0.945616  0.374229  1
  Tm  Tm1  1  0.000000  0.055021  0.625953  1
  Tm  Tm2  1  0.000000  0.445237  0.125356  1
  Tm  Tm3  1  0.000000  0.555130  0.873940  1
  Pa  Pa4  1  0.000000  0.322243  0.412939  1
  Pa  Pa5  1  0.000000  0.678549  0.585695  1
  Pa  Pa6  1  0.000000  0.820768  0.087623  1
  Pa  Pa7  1  0.000000  0.177890  0.913971  1
  Re  Re8  1  0.000000  0.360828  0.679229  1
  Re  Re9  1  0.000000  0.139153  0.178485  1
  Re  Re10  1  0.000000  0.861571  0.821137  1
  B  B11  1  0.500000  0.552818  0.433763  1
  B  B12  1  0.500000  0.446296  0.567438  1
  B  B13  1  0.500000  0.053339  0.066785  1
  B  B14  1  0.500000  0.946628  0.933266  1
  B  B15  1  0.500000  0.749291  0.420776  1
  B  B16  1  0.500000  0.250983  0.580169  1
  B  B17  1  0.500000  0.249498  0.080006  1
  B  B18  1  0.500000  0.750536  0.919709  1
  B  B19  1  0.500000  0.794326  0.264766  1
  B  B20  1  0.500000  0.206590  0.734538  1
  B  B21  1  0.500000  0.292778  0.234398  1
  B  B22  1  0.500000  0.706941  0.765488  1
  B  B23  1  0.500000  0.632656  0.183957  1
  B  B24  1  0.500000  0.367618  0.815449  1
  B  B25  1  0.500000  0.132021  0.315017  1
  B  B26  1  0.500000  0.867945  0.684709  1
  B  B27  1  0.500000  0.982685  0.213568  1
  B  B28  1  0.500000  0.017391  0.786338  1
  B  B29  1  0.500000  0.481202  0.286260  1
  B  B30  1  0.500000  0.517241  0.713719  1
  B  B31  1  0.500000  0.608157  0.029168  1
  B  B32  1  0.500000  0.391795  0.969994  1
  B  B33  1  0.500000  0.108152  0.470151  1
  B  B34  1  0.500000  0.892412  0.530700  1
  W  W35  1  0.000000  0.638693  0.321312  1
