# generated using pymatgen
data_DyLu(ThH5)6
_symmetry_space_group_name_H-M   'P 1'
_cell_length_a   7.81588939
_cell_length_b   7.81184916
_cell_length_c   7.77882854
_cell_angle_alpha   109.47823796
_cell_angle_beta   109.51656655
_cell_angle_gamma   109.69579756
_symmetry_Int_Tables_number   1
_chemical_formula_structural   DyLu(ThH5)6
_chemical_formula_sum   'Dy1 Lu1 Th6 H30'
_cell_volume   364.35938454
_cell_formula_units_Z   1
loop_
 _symmetry_equiv_pos_site_id
 _symmetry_equiv_pos_as_xyz
  1  'x, y, z'
loop_
 _atom_site_type_symbol
 _atom_site_label
 _atom_site_symmetry_multiplicity
 _atom_site_fract_x
 _atom_site_fract_y
 _atom_site_fract_z
 _atom_site_occupancy
  Dy  Dy0  1  0.498280  0.999400  0.084014  1
  Lu  Lu1  1  0.912880  0.913727  0.914234  1
  Th  Th2  1  0.994333  0.079235  0.494985  1
  Th  Th3  1  0.084418  0.504540  0.001005  1
  Th  Th4  1  0.998680  0.584778  0.506055  1
  Th  Th5  1  0.584370  0.504885  0.998534  1
  Th  Th6  1  0.505408  0.998332  0.587909  1
  Th  Th7  1  0.415981  0.410569  0.411868  1
  H  H8  1  0.650683  0.963745  0.369558  1
  H  H9  1  0.218127  0.316727  0.846596  1
  H  H10  1  0.186746  0.403685  0.534814  1
  H  H11  1  0.093907  0.276053  0.122558  1
  H  H12  1  0.277600  0.120419  0.091379  1
  H  H13  1  0.121568  0.091209  0.272346  1
  H  H14  1  0.470559  0.154736  0.874324  1
  H  H15  1  0.718787  0.350749  0.813097  1
  H  H16  1  0.627051  0.380239  0.250916  1
  H  H17  1  0.250204  0.623939  0.376326  1
  H  H18  1  0.751121  0.873468  0.125861  1
  H  H19  1  0.122206  0.746507  0.873939  1
  H  H20  1  0.374122  0.247819  0.623335  1
  H  H21  1  0.877127  0.128229  0.749475  1
  H  H22  1  0.782042  0.597225  0.633029  1
  H  H23  1  0.317595  0.849119  0.221526  1
  H  H24  1  0.372823  0.657717  0.966686  1
  H  H25  1  0.963602  0.368293  0.650872  1
  H  H26  1  0.537216  0.186082  0.406247  1
  H  H27  1  0.405597  0.537423  0.186671  1
  H  H28  1  0.841621  0.217563  0.312710  1
  H  H29  1  0.906804  0.694626  0.030911  1
  H  H30  1  0.812841  0.717673  0.349270  1
  H  H31  1  0.152405  0.868834  0.465600  1
  H  H32  1  0.693032  0.027981  0.907144  1
  H  H33  1  0.348454  0.816426  0.723303  1
  H  H34  1  0.871373  0.470352  0.153872  1
  H  H35  1  0.634069  0.781254  0.597091  1
  H  H36  1  0.599501  0.630915  0.780138  1
  H  H37  1  0.026866  0.905522  0.691805  1
