# generated using pymatgen
data_Tb3Nd3Er2(CdPt)2
_symmetry_space_group_name_H-M   'P 1'
_cell_length_a   9.80450577
_cell_length_b   9.79906427
_cell_length_c   9.79906351
_cell_angle_alpha   60.03674491
_cell_angle_beta   59.98162529
_cell_angle_gamma   59.98162552
_symmetry_Int_Tables_number   1
_chemical_formula_structural   Tb3Nd3Er2(CdPt)2
_chemical_formula_sum   'Tb6 Nd6 Er4 Cd4 Pt4'
_cell_volume   665.70160660
_cell_formula_units_Z   2
loop_
 _symmetry_equiv_pos_site_id
 _symmetry_equiv_pos_as_xyz
  1  'x, y, z'
loop_
 _atom_site_type_symbol
 _atom_site_label
 _atom_site_symmetry_multiplicity
 _atom_site_fract_x
 _atom_site_fract_y
 _atom_site_fract_z
 _atom_site_occupancy
  Tb  Tb0  1  0.349852  0.350631  0.350631  1
  Tb  Tb1  1  0.350631  0.349852  0.948886  1
  Tb  Tb2  1  0.350631  0.948886  0.349852  1
  Tb  Tb3  1  0.948886  0.350631  0.350631  1
  Tb  Tb4  1  0.812660  0.187340  0.187340  1
  Tb  Tb5  1  0.187340  0.812660  0.812660  1
  Nd  Nd6  1  0.937648  0.562352  0.562352  1
  Nd  Nd7  1  0.562352  0.937648  0.937648  1
  Nd  Nd8  1  0.562451  0.937549  0.562451  1
  Nd  Nd9  1  0.937549  0.562451  0.937549  1
  Nd  Nd10  1  0.562451  0.562451  0.937549  1
  Nd  Nd11  1  0.937549  0.937549  0.562451  1
  Er  Er12  1  0.187747  0.812253  0.187747  1
  Er  Er13  1  0.812253  0.187747  0.812253  1
  Er  Er14  1  0.187747  0.187747  0.812253  1
  Er  Er15  1  0.812253  0.812253  0.187747  1
  Cd  Cd16  1  0.580038  0.579701  0.579701  1
  Cd  Cd17  1  0.579701  0.580038  0.260560  1
  Cd  Cd18  1  0.579701  0.260560  0.580038  1
  Cd  Cd19  1  0.260560  0.579701  0.579701  1
  Pt  Pt20  1  0.143076  0.141614  0.141614  1
  Pt  Pt21  1  0.141614  0.143076  0.573696  1
  Pt  Pt22  1  0.141614  0.573696  0.143076  1
  Pt  Pt23  1  0.573696  0.141614  0.141614  1
