# generated using pymatgen
data_LiDy3In3AgAu
_symmetry_space_group_name_H-M   'P 1'
_cell_length_a   7.91699000
_cell_length_b   7.91699047
_cell_length_c   3.81788300
_cell_angle_alpha   90.00000000
_cell_angle_beta   90.00000000
_cell_angle_gamma   119.99999805
_symmetry_Int_Tables_number   1
_chemical_formula_structural   LiDy3In3AgAu
_chemical_formula_sum   'Li1 Dy3 In3 Ag1 Au1'
_cell_volume   207.23994758
_cell_formula_units_Z   1
loop_
 _symmetry_equiv_pos_site_id
 _symmetry_equiv_pos_as_xyz
  1  'x, y, z'
loop_
 _atom_site_type_symbol
 _atom_site_label
 _atom_site_symmetry_multiplicity
 _atom_site_fract_x
 _atom_site_fract_y
 _atom_site_fract_z
 _atom_site_occupancy
  Li  Li0  1  0.000000  0.000000  0.000000  1
  Dy  Dy1  1  0.591353  0.599615  0.000000  1
  Dy  Dy2  1  0.400385  0.991738  0.000000  1
  Dy  Dy3  1  0.008262  0.408647  0.000000  1
  In  In4  1  0.993207  0.742478  0.500000  1
  In  In5  1  0.257522  0.250730  0.500000  1
  In  In6  1  0.749270  0.006793  0.500000  1
  Ag  Ag7  1  0.666667  0.333333  0.500000  1
  Au  Au8  1  0.333333  0.666667  0.500000  1
