# generated using pymatgen
data_Gd3(CrN3)2
_symmetry_space_group_name_H-M   'P 1'
_cell_length_a   3.77017027
_cell_length_b   3.77017087
_cell_length_c   9.89064720
_cell_angle_alpha   100.97775493
_cell_angle_beta   100.97775243
_cell_angle_gamma   89.98003194
_symmetry_Int_Tables_number   1
_chemical_formula_structural   Gd3(CrN3)2
_chemical_formula_sum   'Gd3 Cr2 N6'
_cell_volume   135.39529762
_cell_formula_units_Z   1
loop_
 _symmetry_equiv_pos_site_id
 _symmetry_equiv_pos_as_xyz
  1  'x, y, z'
loop_
 _atom_site_type_symbol
 _atom_site_label
 _atom_site_symmetry_multiplicity
 _atom_site_fract_x
 _atom_site_fract_y
 _atom_site_fract_z
 _atom_site_occupancy
  Gd  Gd0  1  0.000047  0.000047  0.000043  1
  Gd  Gd1  1  0.180634  0.180634  0.357435  1
  Gd  Gd2  1  0.819350  0.819350  0.642524  1
  Cr  Cr3  1  0.603481  0.603481  0.205249  1
  Cr  Cr4  1  0.396468  0.396468  0.794680  1
  N  N5  1  0.584734  0.084518  0.169748  1
  N  N6  1  0.084518  0.584734  0.169748  1
  N  N7  1  0.695261  0.695261  0.395199  1
  N  N8  1  0.304730  0.304730  0.604776  1
  N  N9  1  0.915508  0.415271  0.830301  1
  N  N10  1  0.415271  0.915508  0.830301  1
