# generated using pymatgen
data_Ho4HgC2Br
_symmetry_space_group_name_H-M   'P 1'
_cell_length_a   3.61198200
_cell_length_b   3.61198185
_cell_length_c   14.62754900
_cell_angle_alpha   90.00000000
_cell_angle_beta   90.00000000
_cell_angle_gamma   120.00000135
_symmetry_Int_Tables_number   1
_chemical_formula_structural   Ho4HgC2Br
_chemical_formula_sum   'Ho4 Hg1 C2 Br1'
_cell_volume   165.26973261
_cell_formula_units_Z   1
loop_
 _symmetry_equiv_pos_site_id
 _symmetry_equiv_pos_as_xyz
  1  'x, y, z'
loop_
 _atom_site_type_symbol
 _atom_site_label
 _atom_site_symmetry_multiplicity
 _atom_site_fract_x
 _atom_site_fract_y
 _atom_site_fract_z
 _atom_site_occupancy
  Ho  Ho0  1  0.666668  0.333334  0.095281  1
  Ho  Ho1  1  0.666668  0.333334  0.404719  1
  Ho  Ho2  1  0.333334  0.666668  0.584603  1
  Ho  Ho3  1  0.333334  0.666668  0.915397  1
  Hg  Hg4  1  0.666668  0.333334  0.750000  1
  C  C5  1  0.000000  0.000000  0.015349  1
  C  C6  1  0.000000  0.000000  0.484651  1
  Br  Br7  1  0.333334  0.666668  0.250000  1
