# generated using pymatgen
data_LaTm3(OsO4)4
_symmetry_space_group_name_H-M   'P 1'
_cell_length_a   5.37188138
_cell_length_b   7.44471478
_cell_length_c   7.68925529
_cell_angle_alpha   79.69878350
_cell_angle_beta   86.26985659
_cell_angle_gamma   89.03328024
_symmetry_Int_Tables_number   1
_chemical_formula_structural   LaTm3(OsO4)4
_chemical_formula_sum   'La1 Tm3 Os4 O16'
_cell_volume   301.90773682
_cell_formula_units_Z   1
loop_
 _symmetry_equiv_pos_site_id
 _symmetry_equiv_pos_as_xyz
  1  'x, y, z'
loop_
 _atom_site_type_symbol
 _atom_site_label
 _atom_site_symmetry_multiplicity
 _atom_site_fract_x
 _atom_site_fract_y
 _atom_site_fract_z
 _atom_site_occupancy
  La  La0  1  0.256652  0.393686  0.369897  1
  Tm  Tm1  1  0.187599  0.895659  0.335343  1
  Tm  Tm2  1  0.803084  0.104912  0.674378  1
  Tm  Tm3  1  0.737361  0.616833  0.620199  1
  Os  Os4  1  0.757028  0.202563  0.161471  1
  Os  Os5  1  0.714014  0.705480  0.164973  1
  Os  Os6  1  0.286593  0.300489  0.834405  1
  Os  Os7  1  0.245000  0.795138  0.837116  1
  O  O8  1  0.063991  0.286695  0.037050  1
  O  O9  1  0.395839  0.793920  0.065738  1
  O  O10  1  0.642952  0.449372  0.170194  1
  O  O11  1  0.852378  0.946617  0.165590  1
  O  O12  1  0.451427  0.118460  0.289105  1
  O  O13  1  0.938018  0.160631  0.391665  1
  O  O14  1  0.965075  0.632743  0.346808  1
  O  O15  1  0.493702  0.689882  0.393493  1
  O  O16  1  0.512521  0.321565  0.610627  1
  O  O17  1  0.011976  0.382653  0.671996  1
  O  O18  1  0.052029  0.823220  0.614126  1
  O  O19  1  0.556137  0.871263  0.705602  1
  O  O20  1  0.152999  0.054366  0.820295  1
  O  O21  1  0.384496  0.552743  0.821847  1
  O  O22  1  0.598107  0.198640  0.935737  1
  O  O23  1  0.941021  0.702471  0.962345  1
