# generated using pymatgen
data_HfZrMn3Cr
_symmetry_space_group_name_H-M   'P 1'
_cell_length_a   4.89853836
_cell_length_b   4.89853900
_cell_length_c   4.89853904
_cell_angle_alpha   62.58896238
_cell_angle_beta   62.58895849
_cell_angle_gamma   62.58896337
_symmetry_Int_Tables_number   1
_chemical_formula_structural   HfZrMn3Cr
_chemical_formula_sum   'Hf1 Zr1 Mn3 Cr1'
_cell_volume   87.90823439
_cell_formula_units_Z   1
loop_
 _symmetry_equiv_pos_site_id
 _symmetry_equiv_pos_as_xyz
  1  'x, y, z'
loop_
 _atom_site_type_symbol
 _atom_site_label
 _atom_site_symmetry_multiplicity
 _atom_site_fract_x
 _atom_site_fract_y
 _atom_site_fract_z
 _atom_site_occupancy
  Hf  Hf0  1  0.626382  0.626382  0.626382  1
  Zr  Zr1  1  0.373922  0.373922  0.373922  1
  Mn  Mn2  1  0.999590  0.500552  0.999590  1
  Mn  Mn3  1  0.500552  0.999590  0.999590  1
  Mn  Mn4  1  0.999590  0.999590  0.500552  1
  Cr  Cr5  1  0.999963  0.999963  0.999963  1
