# generated using pymatgen
data_Tb3Y5(P3Rh4)4
_symmetry_space_group_name_H-M   'P 1'
_cell_length_a   13.09454100
_cell_length_b   13.09454061
_cell_length_c   3.94437800
_cell_angle_alpha   90.00000000
_cell_angle_beta   90.00000000
_cell_angle_gamma   119.99999845
_symmetry_Int_Tables_number   1
_chemical_formula_structural   Tb3Y5(P3Rh4)4
_chemical_formula_sum   'Tb3 Y5 P12 Rh16'
_cell_volume   585.71954067
_cell_formula_units_Z   1
loop_
 _symmetry_equiv_pos_site_id
 _symmetry_equiv_pos_as_xyz
  1  'x, y, z'
loop_
 _atom_site_type_symbol
 _atom_site_label
 _atom_site_symmetry_multiplicity
 _atom_site_fract_x
 _atom_site_fract_y
 _atom_site_fract_z
 _atom_site_occupancy
  Tb  Tb0  1  0.556386  0.556386  0.000000  1
  Tb  Tb1  1  0.443614  0.000000  0.000000  1
  Tb  Tb2  1  0.000000  0.443614  0.000000  1
  Y  Y3  1  0.186172  0.186172  0.500000  1
  Y  Y4  1  0.813828  0.000000  0.500000  1
  Y  Y5  1  0.000000  0.813828  0.500000  1
  Y  Y6  1  0.333333  0.666667  0.000000  1
  Y  Y7  1  0.666667  0.333333  0.000000  1
  P  P8  1  0.824130  0.824130  0.000000  1
  P  P9  1  0.175870  0.000000  0.000000  1
  P  P10  1  0.000000  0.175870  0.000000  1
  P  P11  1  0.174377  0.482285  0.500000  1
  P  P12  1  0.517715  0.692092  0.500000  1
  P  P13  1  0.307908  0.825623  0.500000  1
  P  P14  1  0.692092  0.517715  0.500000  1
  P  P15  1  0.825623  0.307908  0.500000  1
  P  P16  1  0.482285  0.174377  0.500000  1
  P  P17  1  0.348118  0.348118  0.000000  1
  P  P18  1  0.651882  0.000000  0.000000  1
  P  P19  1  0.000000  0.651882  0.000000  1
  Rh  Rh20  1  0.727048  0.727048  0.500000  1
  Rh  Rh21  1  0.272952  0.000000  0.500000  1
  Rh  Rh22  1  0.000000  0.272952  0.500000  1
  Rh  Rh23  1  0.178779  0.370715  0.000000  1
  Rh  Rh24  1  0.629285  0.808064  0.000000  1
  Rh  Rh25  1  0.191936  0.821221  0.000000  1
  Rh  Rh26  1  0.808064  0.629285  0.000000  1
  Rh  Rh27  1  0.821221  0.191936  0.000000  1
  Rh  Rh28  1  0.370715  0.178779  0.000000  1
  Rh  Rh29  1  0.355872  0.486085  0.500000  1
  Rh  Rh30  1  0.513915  0.869789  0.500000  1
  Rh  Rh31  1  0.130211  0.644128  0.500000  1
  Rh  Rh32  1  0.869789  0.513915  0.500000  1
  Rh  Rh33  1  0.644128  0.130211  0.500000  1
  Rh  Rh34  1  0.486085  0.355872  0.500000  1
  Rh  Rh35  1  0.000000  0.000000  0.000000  1
