# generated using pymatgen
data_PmCrPt4
_symmetry_space_group_name_H-M   'P 1'
_cell_length_a   5.51645243
_cell_length_b   5.26353476
_cell_length_c   4.43700500
_cell_angle_alpha   90.00000000
_cell_angle_beta   90.00000000
_cell_angle_gamma   58.43942502
_symmetry_Int_Tables_number   1
_chemical_formula_structural   PmCrPt4
_chemical_formula_sum   'Pm1 Cr1 Pt4'
_cell_volume   109.77700458
_cell_formula_units_Z   1
loop_
 _symmetry_equiv_pos_site_id
 _symmetry_equiv_pos_as_xyz
  1  'x, y, z'
loop_
 _atom_site_type_symbol
 _atom_site_label
 _atom_site_symmetry_multiplicity
 _atom_site_fract_x
 _atom_site_fract_y
 _atom_site_fract_z
 _atom_site_occupancy
  Pm  Pm0  1  0.000081  0.000015  0.000000  1
  Cr  Cr1  1  0.500149  0.999984  0.499999  1
  Pt  Pt2  1  0.339264  0.322136  0.000000  1
  Pt  Pt3  1  0.660821  0.677881  0.000000  1
  Pt  Pt4  1  0.999997  0.499685  0.499999  1
  Pt  Pt5  1  0.499683  0.500303  0.499999  1
