# generated using pymatgen
data_Pr5GdTaNbO14
_symmetry_space_group_name_H-M   'P 1'
_cell_length_a   6.72720253
_cell_length_b   6.71542169
_cell_length_c   7.75326268
_cell_angle_alpha   90.00702337
_cell_angle_beta   90.12090945
_cell_angle_gamma   108.90420965
_symmetry_Int_Tables_number   1
_chemical_formula_structural   Pr5GdTaNbO14
_chemical_formula_sum   'Pr5 Gd1 Ta1 Nb1 O14'
_cell_volume   331.36799560
_cell_formula_units_Z   1
loop_
 _symmetry_equiv_pos_site_id
 _symmetry_equiv_pos_as_xyz
  1  'x, y, z'
loop_
 _atom_site_type_symbol
 _atom_site_label
 _atom_site_symmetry_multiplicity
 _atom_site_fract_x
 _atom_site_fract_y
 _atom_site_fract_z
 _atom_site_occupancy
  Pr  Pr0  1  0.465149  0.000025  0.256559  1
  Pr  Pr1  1  0.997032  0.536962  0.241926  1
  Pr  Pr2  1  0.461878  0.467111  0.999659  1
  Pr  Pr3  1  0.531373  0.528064  0.501861  1
  Pr  Pr4  1  0.537926  0.998228  0.757640  1
  Gd  Gd5  1  0.999957  0.469270  0.743200  1
  Ta  Ta6  1  0.998658  0.997793  0.998758  1
  Nb  Nb7  1  0.003599  0.004812  0.501996  1
  O  O8  1  0.940907  0.058421  0.751705  1
  O  O9  1  0.646681  0.365577  0.752895  1
  O  O10  1  0.305971  0.061248  0.536272  1
  O  O11  1  0.963846  0.702903  0.955360  1
  O  O12  1  0.629094  0.370187  0.249107  1
  O  O13  1  0.927377  0.680534  0.528467  1
  O  O14  1  0.320481  0.081088  0.977096  1
  O  O15  1  0.073689  0.319306  0.019111  1
  O  O16  1  0.678185  0.917188  0.477717  1
  O  O17  1  0.360416  0.623979  0.747280  1
  O  O18  1  0.697307  0.940238  0.036736  1
  O  O19  1  0.043025  0.302606  0.466751  1
  O  O20  1  0.361305  0.632636  0.251352  1
  O  O21  1  0.056145  0.941825  0.248551  1
