# generated using pymatgen
data_Hf20AlZn3Bi8
_symmetry_space_group_name_H-M   'P 1'
_cell_length_a   5.67006000
_cell_length_b   8.44575234
_cell_length_c   15.89968600
_cell_angle_alpha   90.00000000
_cell_angle_beta   90.00000000
_cell_angle_gamma   109.61360456
_symmetry_Int_Tables_number   1
_chemical_formula_structural   Hf20AlZn3Bi8
_chemical_formula_sum   'Hf20 Al1 Zn3 Bi8'
_cell_volume   717.22463919
_cell_formula_units_Z   1
loop_
 _symmetry_equiv_pos_site_id
 _symmetry_equiv_pos_as_xyz
  1  'x, y, z'
loop_
 _atom_site_type_symbol
 _atom_site_label
 _atom_site_symmetry_multiplicity
 _atom_site_fract_x
 _atom_site_fract_y
 _atom_site_fract_z
 _atom_site_occupancy
  Hf  Hf0  1  0.430992  0.860562  0.358330  1
  Hf  Hf1  1  0.930634  0.861631  0.857513  1
  Hf  Hf2  1  0.069003  0.138369  0.142487  1
  Hf  Hf3  1  0.570431  0.139438  0.641670  1
  Hf  Hf4  1  0.641459  0.285561  0.069805  1
  Hf  Hf5  1  0.142527  0.284117  0.568879  1
  Hf  Hf6  1  0.858411  0.715883  0.431121  1
  Hf  Hf7  1  0.355898  0.714439  0.930195  1
  Hf  Hf8  1  0.858541  0.714439  0.069805  1
  Hf  Hf9  1  0.357473  0.715883  0.568879  1
  Hf  Hf10  1  0.641589  0.284117  0.431121  1
  Hf  Hf11  1  0.144102  0.285561  0.930195  1
  Hf  Hf12  1  0.069008  0.139438  0.358330  1
  Hf  Hf13  1  0.569366  0.138369  0.857513  1
  Hf  Hf14  1  0.430997  0.861631  0.142487  1
  Hf  Hf15  1  0.929569  0.860562  0.641670  1
  Hf  Hf16  1  0.500289  0.500310  0.250127  1
  Hf  Hf17  1  0.999980  0.499690  0.749873  1
  Hf  Hf18  1  0.999711  0.499690  0.250127  1
  Hf  Hf19  1  0.500020  0.500310  0.749873  1
  Al  Al20  1  0.250000  0.000000  0.000000  1
  Zn  Zn21  1  0.750000  0.000000  0.500000  1
  Zn  Zn22  1  0.750000  0.000000  0.000000  1
  Zn  Zn23  1  0.250000  0.000000  0.500000  1
  Bi  Bi24  1  0.916996  0.831989  0.250841  1
  Bi  Bi25  1  0.414992  0.831989  0.749159  1
  Bi  Bi26  1  0.583004  0.168011  0.250841  1
  Bi  Bi27  1  0.085008  0.168011  0.749159  1
  Bi  Bi28  1  0.250000  0.500000  0.084206  1
  Bi  Bi29  1  0.750000  0.500000  0.584111  1
  Bi  Bi30  1  0.250000  0.500000  0.415889  1
  Bi  Bi31  1  0.750000  0.500000  0.915794  1
