# generated using pymatgen
data_Pr10IrRuRh4
_symmetry_space_group_name_H-M   'P 1'
_cell_length_a   11.31842115
_cell_length_b   11.32385400
_cell_length_c   6.66022427
_cell_angle_alpha   90.00000000
_cell_angle_beta   90.07067274
_cell_angle_gamma   90.00000000
_symmetry_Int_Tables_number   1
_chemical_formula_structural   Pr10IrRuRh4
_chemical_formula_sum   'Pr20 Ir2 Ru2 Rh8'
_cell_volume   853.62796442
_cell_formula_units_Z   2
loop_
 _symmetry_equiv_pos_site_id
 _symmetry_equiv_pos_as_xyz
  1  'x, y, z'
loop_
 _atom_site_type_symbol
 _atom_site_label
 _atom_site_symmetry_multiplicity
 _atom_site_fract_x
 _atom_site_fract_y
 _atom_site_fract_z
 _atom_site_occupancy
  Pr  Pr0  1  0.295137  0.089308  0.385702  1
  Pr  Pr1  1  0.295137  0.910692  0.885702  1
  Pr  Pr2  1  0.704923  0.087378  0.885960  1
  Pr  Pr3  1  0.704923  0.912622  0.385960  1
  Pr  Pr4  1  0.586126  0.793818  0.885605  1
  Pr  Pr5  1  0.586126  0.206182  0.385605  1
  Pr  Pr6  1  0.411436  0.794087  0.387402  1
  Pr  Pr7  1  0.411436  0.205913  0.887402  1
  Pr  Pr8  1  0.210038  0.410273  0.616717  1
  Pr  Pr9  1  0.210038  0.589727  0.116717  1
  Pr  Pr10  1  0.791696  0.408769  0.116824  1
  Pr  Pr11  1  0.791696  0.591231  0.616824  1
  Pr  Pr12  1  0.909052  0.708724  0.117690  1
  Pr  Pr13  1  0.909052  0.291276  0.617690  1
  Pr  Pr14  1  0.092800  0.708525  0.617717  1
  Pr  Pr15  1  0.092800  0.291475  0.117717  1
  Pr  Pr16  1  0.000128  0.000006  0.493467  1
  Pr  Pr17  1  0.000128  0.999994  0.993467  1
  Pr  Pr18  1  0.499525  0.499782  0.993808  1
  Pr  Pr19  1  0.499525  0.500218  0.493808  1
  Ir  Ir20  1  0.344451  0.347979  0.248633  1
  Ir  Ir21  1  0.344451  0.652021  0.748633  1
  Ru  Ru22  1  0.501061  0.999823  0.123568  1
  Ru  Ru23  1  0.501061  0.000177  0.623568  1
  Rh  Rh24  1  0.848758  0.155351  0.249018  1
  Rh  Rh25  1  0.848758  0.844649  0.749018  1
  Rh  Rh26  1  0.150762  0.154372  0.748943  1
  Rh  Rh27  1  0.150762  0.845628  0.248943  1
  Rh  Rh28  1  0.655652  0.348823  0.748996  1
  Rh  Rh29  1  0.655652  0.651177  0.248996  1
  Rh  Rh30  1  0.998456  0.500042  0.879956  1
  Rh  Rh31  1  0.998456  0.499958  0.379956  1
