# generated using pymatgen
data_Lu4Re6MoW
_symmetry_space_group_name_H-M   'P 1'
_cell_length_a   5.41627104
_cell_length_b   5.41627144
_cell_length_c   8.78028701
_cell_angle_alpha   90.00391322
_cell_angle_beta   89.99608521
_cell_angle_gamma   119.99185476
_symmetry_Int_Tables_number   1
_chemical_formula_structural   Lu4Re6MoW
_chemical_formula_sum   'Lu4 Re6 Mo1 W1'
_cell_volume   223.08778560
_cell_formula_units_Z   1
loop_
 _symmetry_equiv_pos_site_id
 _symmetry_equiv_pos_as_xyz
  1  'x, y, z'
loop_
 _atom_site_type_symbol
 _atom_site_label
 _atom_site_symmetry_multiplicity
 _atom_site_fract_x
 _atom_site_fract_y
 _atom_site_fract_z
 _atom_site_occupancy
  Lu  Lu0  1  0.666664  0.333336  0.562878  1
  Lu  Lu1  1  0.333336  0.666664  0.437122  1
  Lu  Lu2  1  0.333350  0.666650  0.062773  1
  Lu  Lu3  1  0.666650  0.333350  0.937227  1
  Re  Re4  1  0.171420  0.342764  0.749805  1
  Re  Re5  1  0.171512  0.828488  0.749797  1
  Re  Re6  1  0.657236  0.828580  0.749805  1
  Re  Re7  1  0.828580  0.657236  0.250195  1
  Re  Re8  1  0.828488  0.171512  0.250203  1
  Re  Re9  1  0.342764  0.171420  0.250195  1
  Mo  Mo10  1  0.000000  0.000000  0.000000  1
  W  W11  1  0.000000  0.000000  0.500000  1
