# generated using pymatgen
data_Er2Al2IrPd
_symmetry_space_group_name_H-M   'P 1'
_cell_length_a   4.33141100
_cell_length_b   6.82083000
_cell_length_c   7.85205500
_cell_angle_alpha   90.00000000
_cell_angle_beta   90.00000000
_cell_angle_gamma   90.00000000
_symmetry_Int_Tables_number   1
_chemical_formula_structural   Er2Al2IrPd
_chemical_formula_sum   'Er4 Al4 Ir2 Pd2'
_cell_volume   231.97968456
_cell_formula_units_Z   2
loop_
 _symmetry_equiv_pos_site_id
 _symmetry_equiv_pos_as_xyz
  1  'x, y, z'
loop_
 _atom_site_type_symbol
 _atom_site_label
 _atom_site_symmetry_multiplicity
 _atom_site_fract_x
 _atom_site_fract_y
 _atom_site_fract_z
 _atom_site_occupancy
  Er  Er0  1  0.250000  0.034405  0.323195  1
  Er  Er1  1  0.250000  0.534405  0.176805  1
  Er  Er2  1  0.750000  0.972949  0.681346  1
  Er  Er3  1  0.750000  0.472949  0.818654  1
  Al  Al4  1  0.250000  0.139704  0.935343  1
  Al  Al5  1  0.250000  0.639704  0.564657  1
  Al  Al6  1  0.750000  0.856042  0.057571  1
  Al  Al7  1  0.750000  0.356042  0.442429  1
  Ir  Ir8  1  0.250000  0.267339  0.619826  1
  Ir  Ir9  1  0.250000  0.767339  0.880174  1
  Pd  Pd10  1  0.750000  0.729561  0.377266  1
  Pd  Pd11  1  0.750000  0.229561  0.122734  1
