# generated using pymatgen
data_Er2Lu5Pa(ReB6)4
_symmetry_space_group_name_H-M   'P 1'
_cell_length_a   3.64710800
_cell_length_b   9.08416398
_cell_length_c   11.44620005
_cell_angle_alpha   90.12360208
_cell_angle_beta   90.00000000
_cell_angle_gamma   90.00000000
_symmetry_Int_Tables_number   1
_chemical_formula_structural   Er2Lu5Pa(ReB6)4
_chemical_formula_sum   'Er2 Lu5 Pa1 Re4 B24'
_cell_volume   379.22233745
_cell_formula_units_Z   1
loop_
 _symmetry_equiv_pos_site_id
 _symmetry_equiv_pos_as_xyz
  1  'x, y, z'
loop_
 _atom_site_type_symbol
 _atom_site_label
 _atom_site_symmetry_multiplicity
 _atom_site_fract_x
 _atom_site_fract_y
 _atom_site_fract_z
 _atom_site_occupancy
  Er  Er0  1  0.000000  0.680069  0.587021  1
  Er  Er1  1  0.000000  0.822816  0.085302  1
  Lu  Lu2  1  0.000000  0.176010  0.913432  1
  Lu  Lu3  1  0.000000  0.942837  0.371623  1
  Lu  Lu4  1  0.000000  0.055167  0.629473  1
  Lu  Lu5  1  0.000000  0.443548  0.127141  1
  Lu  Lu6  1  0.000000  0.557005  0.870679  1
  Pa  Pa7  1  0.000000  0.322802  0.414084  1
  Re  Re8  1  0.000000  0.636541  0.321152  1
  Re  Re9  1  0.000000  0.361387  0.677748  1
  Re  Re10  1  0.000000  0.141286  0.181375  1
  Re  Re11  1  0.000000  0.861400  0.820957  1
  B  B12  1  0.500000  0.553258  0.432190  1
  B  B13  1  0.500000  0.445913  0.567393  1
  B  B14  1  0.500000  0.053904  0.066604  1
  B  B15  1  0.500000  0.947240  0.933848  1
  B  B16  1  0.500000  0.750379  0.418714  1
  B  B17  1  0.500000  0.249229  0.581666  1
  B  B18  1  0.500000  0.249939  0.079442  1
  B  B19  1  0.500000  0.749785  0.919253  1
  B  B20  1  0.500000  0.792730  0.265436  1
  B  B21  1  0.500000  0.206972  0.735791  1
  B  B22  1  0.500000  0.292332  0.233969  1
  B  B23  1  0.500000  0.707395  0.765687  1
  B  B24  1  0.500000  0.630899  0.183844  1
  B  B25  1  0.500000  0.369790  0.815422  1
  B  B26  1  0.500000  0.130929  0.315077  1
  B  B27  1  0.500000  0.869403  0.685451  1
  B  B28  1  0.500000  0.981777  0.212254  1
  B  B29  1  0.500000  0.018867  0.788234  1
  B  B30  1  0.500000  0.482466  0.286588  1
  B  B31  1  0.500000  0.518567  0.713536  1
  B  B32  1  0.500000  0.600310  0.027260  1
  B  B33  1  0.500000  0.399245  0.971267  1
  B  B34  1  0.500000  0.101316  0.472154  1
  B  B35  1  0.500000  0.896486  0.528931  1
