# generated using pymatgen
data_Tc4B2MoW
_symmetry_space_group_name_H-M   'P 1'
_cell_length_a   4.85381173
_cell_length_b   4.85381204
_cell_length_c   7.26165100
_cell_angle_alpha   90.00000000
_cell_angle_beta   90.00000000
_cell_angle_gamma   143.78069416
_symmetry_Int_Tables_number   1
_chemical_formula_structural   Tc4B2MoW
_chemical_formula_sum   'Tc4 B2 Mo1 W1'
_cell_volume   101.08779786
_cell_formula_units_Z   1
loop_
 _symmetry_equiv_pos_site_id
 _symmetry_equiv_pos_as_xyz
  1  'x, y, z'
loop_
 _atom_site_type_symbol
 _atom_site_label
 _atom_site_symmetry_multiplicity
 _atom_site_fract_x
 _atom_site_fract_y
 _atom_site_fract_z
 _atom_site_occupancy
  Tc  Tc0  1  0.861460  0.138540  0.445165  1
  Tc  Tc1  1  0.139175  0.860825  0.553864  1
  Tc  Tc2  1  0.861460  0.138540  0.054835  1
  Tc  Tc3  1  0.139175  0.860825  0.946136  1
  B  B4  1  0.265516  0.734484  0.250000  1
  B  B5  1  0.733529  0.266471  0.750000  1
  Mo  Mo6  1  0.429401  0.570599  0.750000  1
  W  W7  1  0.570283  0.429717  0.250000  1
