# generated using pymatgen
data_La10TeAs9
_symmetry_space_group_name_H-M   'P 1'
_cell_length_a   7.61618333
_cell_length_b   8.82228778
_cell_length_c   9.83570653
_cell_angle_alpha   102.95363266
_cell_angle_beta   97.39226974
_cell_angle_gamma   106.85603053
_symmetry_Int_Tables_number   1
_chemical_formula_structural   La10TeAs9
_chemical_formula_sum   'La10 Te1 As9'
_cell_volume   602.95873821
_cell_formula_units_Z   1
loop_
 _symmetry_equiv_pos_site_id
 _symmetry_equiv_pos_as_xyz
  1  'x, y, z'
loop_
 _atom_site_type_symbol
 _atom_site_label
 _atom_site_symmetry_multiplicity
 _atom_site_fract_x
 _atom_site_fract_y
 _atom_site_fract_z
 _atom_site_occupancy
  La  La0  1  0.901764  0.549173  0.799971  1
  La  La1  1  0.688530  0.154963  0.397053  1
  La  La2  1  0.500844  0.749644  0.001725  1
  La  La3  1  0.690236  0.637644  0.395215  1
  La  La4  1  0.309764  0.362356  0.604785  1
  La  La5  1  0.102490  0.946116  0.188427  1
  La  La6  1  0.499156  0.250356  0.998275  1
  La  La7  1  0.311470  0.845037  0.602947  1
  La  La8  1  0.098236  0.450827  0.200029  1
  La  La9  1  0.897510  0.053884  0.811573  1
  Te  Te10  1  0.000000  0.000000  0.500000  1
  As  As11  1  0.799805  0.600714  0.100837  1
  As  As12  1  0.599584  0.199480  0.699775  1
  As  As13  1  0.400416  0.800520  0.300225  1
  As  As14  1  0.799858  0.100117  0.103009  1
  As  As15  1  0.200195  0.399286  0.899163  1
  As  As16  1  0.605124  0.701884  0.701025  1
  As  As17  1  0.394876  0.298116  0.298975  1
  As  As18  1  0.200142  0.899883  0.896991  1
  As  As19  1  0.000000  0.500000  0.500000  1
