# generated using pymatgen
data_DySc7Ta12Si15Ge
_symmetry_space_group_name_H-M   'P 1'
_cell_length_a   6.93647834
_cell_length_b   6.92531781
_cell_length_c   12.74278214
_cell_angle_alpha   90.06815432
_cell_angle_beta   89.85767081
_cell_angle_gamma   90.01431072
_symmetry_Int_Tables_number   1
_chemical_formula_structural   DySc7Ta12Si15Ge
_chemical_formula_sum   'Dy1 Sc7 Ta12 Si15 Ge1'
_cell_volume   612.12672506
_cell_formula_units_Z   1
loop_
 _symmetry_equiv_pos_site_id
 _symmetry_equiv_pos_as_xyz
  1  'x, y, z'
loop_
 _atom_site_type_symbol
 _atom_site_label
 _atom_site_symmetry_multiplicity
 _atom_site_fract_x
 _atom_site_fract_y
 _atom_site_fract_z
 _atom_site_occupancy
  Dy  Dy0  1  0.340907  0.005770  0.468844  1
  Sc  Sc1  1  0.999035  0.657640  0.030800  1
  Sc  Sc2  1  0.999751  0.342068  0.533350  1
  Sc  Sc3  1  0.657289  0.998992  0.968762  1
  Sc  Sc4  1  0.157206  0.501283  0.782148  1
  Sc  Sc5  1  0.839008  0.497468  0.277738  1
  Sc  Sc6  1  0.500425  0.157005  0.217362  1
  Sc  Sc7  1  0.500400  0.842375  0.719946  1
  Ta  Ta8  1  0.353133  0.504010  0.375069  1
  Ta  Ta9  1  0.847176  0.997117  0.371744  1
  Ta  Ta10  1  0.005214  0.149763  0.124727  1
  Ta  Ta11  1  0.996023  0.848992  0.629999  1
  Ta  Ta12  1  0.509167  0.349692  0.625937  1
  Ta  Ta13  1  0.149486  0.005913  0.874508  1
  Ta  Ta14  1  0.669621  0.671273  0.500947  1
  Ta  Ta15  1  0.828634  0.171918  0.751419  1
  Ta  Ta16  1  0.171685  0.828610  0.247198  1
  Ta  Ta17  1  0.327758  0.327814  0.999704  1
  Ta  Ta18  1  0.493822  0.649660  0.122594  1
  Ta  Ta19  1  0.649669  0.493951  0.876902  1
  Si  Si20  1  0.954510  0.301457  0.935961  1
  Si  Si21  1  0.706306  0.045368  0.565514  1
  Si  Si22  1  0.198487  0.455882  0.184825  1
  Si  Si23  1  0.801121  0.545875  0.686971  1
  Si  Si24  1  0.454920  0.198667  0.814945  1
  Si  Si25  1  0.547304  0.798000  0.311879  1
  Si  Si26  1  0.301164  0.954866  0.063459  1
  Si  Si27  1  0.795215  0.860129  0.177015  1
  Si  Si28  1  0.297421  0.635168  0.574930  1
  Si  Si29  1  0.704344  0.359733  0.071380  1
  Si  Si30  1  0.643961  0.299122  0.429344  1
  Si  Si31  1  0.360081  0.704745  0.927880  1
  Si  Si32  1  0.135191  0.208730  0.318071  1
  Si  Si33  1  0.204399  0.141028  0.680985  1
  Si  Si34  1  0.859904  0.794926  0.822955  1
  Ge  Ge35  1  0.040262  0.694988  0.434186  1
