# generated using pymatgen
data_NdCrFe(Sb6Os)2
_symmetry_space_group_name_H-M   'P 1'
_cell_length_a   8.13394993
_cell_length_b   8.17964699
_cell_length_c   8.11332750
_cell_angle_alpha   109.47305833
_cell_angle_beta   109.30606336
_cell_angle_gamma   109.70366529
_symmetry_Int_Tables_number   1
_chemical_formula_structural   NdCrFe(Sb6Os)2
_chemical_formula_sum   'Nd1 Cr1 Fe1 Sb12 Os2'
_cell_volume   415.18166734
_cell_formula_units_Z   1
loop_
 _symmetry_equiv_pos_site_id
 _symmetry_equiv_pos_as_xyz
  1  'x, y, z'
loop_
 _atom_site_type_symbol
 _atom_site_label
 _atom_site_symmetry_multiplicity
 _atom_site_fract_x
 _atom_site_fract_y
 _atom_site_fract_z
 _atom_site_occupancy
  Nd  Nd0  1  0.000000  0.000000  0.000000  1
  Cr  Cr1  1  0.000000  0.000000  0.500000  1
  Fe  Fe2  1  0.000000  0.500000  0.000000  1
  Sb  Sb3  1  0.156762  0.814466  0.660321  1
  Sb  Sb4  1  0.843238  0.185534  0.339679  1
  Sb  Sb5  1  0.845786  0.505306  0.670805  1
  Sb  Sb6  1  0.154214  0.494694  0.329195  1
  Sb  Sb7  1  0.822590  0.654929  0.150400  1
  Sb  Sb8  1  0.177410  0.345071  0.849600  1
  Sb  Sb9  1  0.504148  0.660958  0.843969  1
  Sb  Sb10  1  0.495852  0.339042  0.156031  1
  Sb  Sb11  1  0.671220  0.165327  0.825090  1
  Sb  Sb12  1  0.328780  0.834673  0.174910  1
  Sb  Sb13  1  0.657454  0.842503  0.503695  1
  Sb  Sb14  1  0.342546  0.157497  0.496305  1
  Os  Os15  1  0.500000  0.000000  0.000000  1
  Os  Os16  1  0.500000  0.500000  0.500000  1
