# generated using pymatgen
data_Y8Be3Si12Ni
_symmetry_space_group_name_H-M   'P 1'
_cell_length_a   7.87100000
_cell_length_b   7.87100141
_cell_length_c   8.10960300
_cell_angle_alpha   90.00000000
_cell_angle_beta   90.00000000
_cell_angle_gamma   120.00000249
_symmetry_Int_Tables_number   1
_chemical_formula_structural   Y8Be3Si12Ni
_chemical_formula_sum   'Y8 Be3 Si12 Ni1'
_cell_volume   435.10103596
_cell_formula_units_Z   1
loop_
 _symmetry_equiv_pos_site_id
 _symmetry_equiv_pos_as_xyz
  1  'x, y, z'
loop_
 _atom_site_type_symbol
 _atom_site_label
 _atom_site_symmetry_multiplicity
 _atom_site_fract_x
 _atom_site_fract_y
 _atom_site_fract_z
 _atom_site_occupancy
  Y  Y0  1  0.000000  0.000000  0.249844  1
  Y  Y1  1  0.000000  0.000000  0.750069  1
  Y  Y2  1  0.000478  0.500238  0.249253  1
  Y  Y3  1  0.499762  0.500238  0.249253  1
  Y  Y4  1  0.500178  0.000357  0.750705  1
  Y  Y5  1  0.499762  0.999522  0.249253  1
  Y  Y6  1  0.500178  0.499822  0.750705  1
  Y  Y7  1  0.999643  0.499822  0.750705  1
  Be  Be8  1  0.333333  0.666667  0.998965  1
  Be  Be9  1  0.333333  0.666667  0.500370  1
  Be  Be10  1  0.666667  0.333333  0.001846  1
  Si  Si11  1  0.173292  0.346583  0.999835  1
  Si  Si12  1  0.653417  0.826708  0.999835  1
  Si  Si13  1  0.170790  0.341580  0.500381  1
  Si  Si14  1  0.344485  0.172243  0.000008  1
  Si  Si15  1  0.173292  0.826708  0.999835  1
  Si  Si16  1  0.658420  0.829210  0.500381  1
  Si  Si17  1  0.827757  0.655515  0.000008  1
  Si  Si18  1  0.345367  0.172683  0.499574  1
  Si  Si19  1  0.170790  0.829210  0.500381  1
  Si  Si20  1  0.827317  0.654633  0.499574  1
  Si  Si21  1  0.827757  0.172243  0.000008  1
  Si  Si22  1  0.827317  0.172683  0.499574  1
  Ni  Ni23  1  0.666667  0.333333  0.499635  1
