# generated using pymatgen
data_Nd4Al17Ga(PdRh)3
_symmetry_space_group_name_H-M   'P 1'
_cell_length_a   7.65607959
_cell_length_b   7.65640966
_cell_length_c   9.60421000
_cell_angle_alpha   90.00157533
_cell_angle_beta   90.00063463
_cell_angle_gamma   119.42947647
_symmetry_Int_Tables_number   1
_chemical_formula_structural   Nd4Al17Ga(PdRh)3
_chemical_formula_sum   'Nd4 Al17 Ga1 Pd3 Rh3'
_cell_volume   490.33402492
_cell_formula_units_Z   1
loop_
 _symmetry_equiv_pos_site_id
 _symmetry_equiv_pos_as_xyz
  1  'x, y, z'
loop_
 _atom_site_type_symbol
 _atom_site_label
 _atom_site_symmetry_multiplicity
 _atom_site_fract_x
 _atom_site_fract_y
 _atom_site_fract_z
 _atom_site_occupancy
  Nd  Nd0  1  0.994007  0.672835  0.749933  1
  Nd  Nd1  1  0.003627  0.327786  0.250218  1
  Nd  Nd2  1  0.674646  0.996339  0.749785  1
  Nd  Nd3  1  0.329337  0.006047  0.250075  1
  Al  Al4  1  0.866302  0.865228  0.249285  1
  Al  Al5  1  0.007634  0.339699  0.575298  1
  Al  Al6  1  0.001088  0.664993  0.425019  1
  Al  Al7  1  0.998661  0.660923  0.072955  1
  Al  Al8  1  0.339553  0.001553  0.927215  1
  Al  Al9  1  0.002321  0.339670  0.926745  1
  Al  Al10  1  0.660794  0.997813  0.073401  1
  Al  Al11  1  0.660537  0.992547  0.424674  1
  Al  Al12  1  0.335450  0.999169  0.574818  1
  Al  Al13  1  0.337227  0.337488  0.050405  1
  Al  Al14  1  0.661960  0.662222  0.950985  1
  Al  Al15  1  0.660719  0.663990  0.552733  1
  Al  Al16  1  0.335430  0.338685  0.445885  1
  Al  Al17  1  0.338792  0.549474  0.750719  1
  Al  Al18  1  0.661234  0.454332  0.246117  1
  Al  Al19  1  0.545711  0.337637  0.753848  1
  Al  Al20  1  0.450841  0.660295  0.249327  1
  Ga  Ga21  1  0.137058  0.135889  0.750662  1
  Pd  Pd22  1  0.671036  0.328131  0.500182  1
  Pd  Pd23  1  0.998906  0.999176  0.497595  1
  Pd  Pd24  1  0.999096  0.998999  0.002340  1
  Rh  Rh25  1  0.328752  0.670281  0.500272  1
  Rh  Rh26  1  0.328757  0.670282  0.999729  1
  Rh  Rh27  1  0.670526  0.328514  0.999781  1
