# generated using pymatgen
data_Er4As6Ir5Rh2
_symmetry_space_group_name_H-M   'P 1'
_cell_length_a   7.27624850
_cell_length_b   7.27624870
_cell_length_c   7.27624806
_cell_angle_alpha   109.56843709
_cell_angle_beta   109.27694908
_cell_angle_gamma   109.56844509
_symmetry_Int_Tables_number   1
_chemical_formula_structural   Er4As6Ir5Rh2
_chemical_formula_sum   'Er4 As6 Ir5 Rh2'
_cell_volume   296.54933018
_cell_formula_units_Z   1
loop_
 _symmetry_equiv_pos_site_id
 _symmetry_equiv_pos_as_xyz
  1  'x, y, z'
loop_
 _atom_site_type_symbol
 _atom_site_label
 _atom_site_symmetry_multiplicity
 _atom_site_fract_x
 _atom_site_fract_y
 _atom_site_fract_z
 _atom_site_occupancy
  Er  Er0  1  0.500278  0.500000  0.499722  1
  Er  Er1  1  0.999722  0.500000  0.000278  1
  Er  Er2  1  0.500278  0.000556  0.000278  1
  Er  Er3  1  0.999722  0.999444  0.499722  1
  As  As4  1  0.681748  0.000000  0.681748  1
  As  As5  1  0.682009  0.681811  0.000199  1
  As  As6  1  0.318388  0.318189  0.000199  1
  As  As7  1  0.999801  0.681811  0.681612  1
  As  As8  1  0.999801  0.318189  0.317991  1
  As  As9  1  0.318252  0.000000  0.318252  1
  Ir  Ir10  1  0.499112  0.749438  0.248550  1
  Ir  Ir11  1  0.751450  0.250562  0.500888  1
  Ir  Ir12  1  0.250327  0.749438  0.500888  1
  Ir  Ir13  1  0.250000  0.500000  0.750000  1
  Ir  Ir14  1  0.499112  0.250562  0.749673  1
  Rh  Rh15  1  0.000000  0.000000  0.000000  1
  Rh  Rh16  1  0.750000  0.500000  0.250000  1
