# generated using pymatgen
data_Ba4Sr2ReSbO12
_symmetry_space_group_name_H-M   'P 1'
_cell_length_a   6.13823282
_cell_length_b   6.13253311
_cell_length_c   10.71230360
_cell_angle_alpha   90.45398665
_cell_angle_beta   106.33912853
_cell_angle_gamma   119.18010870
_symmetry_Int_Tables_number   1
_chemical_formula_structural   Ba4Sr2ReSbO12
_chemical_formula_sum   'Ba4 Sr2 Re1 Sb1 O12'
_cell_volume   332.74460090
_cell_formula_units_Z   1
loop_
 _symmetry_equiv_pos_site_id
 _symmetry_equiv_pos_as_xyz
  1  'x, y, z'
loop_
 _atom_site_type_symbol
 _atom_site_label
 _atom_site_symmetry_multiplicity
 _atom_site_fract_x
 _atom_site_fract_y
 _atom_site_fract_z
 _atom_site_occupancy
  Ba  Ba0  1  0.259028  0.134166  0.892630  1
  Ba  Ba1  1  0.235073  0.621471  0.358286  1
  Ba  Ba2  1  0.764927  0.378529  0.641714  1
  Ba  Ba3  1  0.740972  0.865834  0.107370  1
  Sr  Sr4  1  0.502192  0.751267  0.748179  1
  Sr  Sr5  1  0.497808  0.248733  0.251821  1
  Re  Re6  1  0.000000  0.000000  0.500000  1
  Sb  Sb7  1  0.000000  0.500000  0.000000  1
  O  O8  1  0.860444  0.932905  0.642203  1
  O  O9  1  0.815591  0.399327  0.138511  1
  O  O10  1  0.184409  0.600673  0.861489  1
  O  O11  1  0.139556  0.067095  0.357797  1
  O  O12  1  0.786794  0.137602  0.904183  1
  O  O13  1  0.785270  0.645920  0.425754  1
  O  O14  1  0.214730  0.354080  0.574246  1
  O  O15  1  0.213206  0.862398  0.095817  1
  O  O16  1  0.277404  0.945655  0.595872  1
  O  O17  1  0.283800  0.439937  0.114134  1
  O  O18  1  0.716200  0.560063  0.885866  1
  O  O19  1  0.722596  0.054345  0.404128  1
