# generated using pymatgen
data_Er5TiRhO12
_symmetry_space_group_name_H-M   'P 1'
_cell_length_a   6.76024061
_cell_length_b   6.76024041
_cell_length_c   7.29771324
_cell_angle_alpha   74.22533963
_cell_angle_beta   74.22534909
_cell_angle_gamma   50.78583899
_symmetry_Int_Tables_number   1
_chemical_formula_structural   Er5TiRhO12
_chemical_formula_sum   'Er5 Ti1 Rh1 O12'
_cell_volume   246.42328344
_cell_formula_units_Z   1
loop_
 _symmetry_equiv_pos_site_id
 _symmetry_equiv_pos_as_xyz
  1  'x, y, z'
loop_
 _atom_site_type_symbol
 _atom_site_label
 _atom_site_symmetry_multiplicity
 _atom_site_fract_x
 _atom_site_fract_y
 _atom_site_fract_z
 _atom_site_occupancy
  Er  Er0  1  0.301001  0.305916  0.359991  1
  Er  Er1  1  0.694084  0.698999  0.640009  1
  Er  Er2  1  0.316776  0.305715  0.826633  1
  Er  Er3  1  0.694285  0.683224  0.173367  1
  Er  Er4  1  0.998803  0.001197  0.500000  1
  Ti  Ti5  1  0.224622  0.775378  0.000000  1
  Rh  Rh6  1  0.752316  0.247684  0.000000  1
  O  O7  1  0.906431  0.423428  0.915014  1
  O  O8  1  0.430705  0.900305  0.916633  1
  O  O9  1  0.099695  0.569295  0.083367  1
  O  O10  1  0.576572  0.093569  0.084986  1
  O  O11  1  0.099280  0.592631  0.576165  1
  O  O12  1  0.598978  0.095245  0.572008  1
  O  O13  1  0.904755  0.401022  0.427992  1
  O  O14  1  0.407369  0.900720  0.423835  1
  O  O15  1  0.000077  0.998322  0.807897  1
  O  O16  1  0.001678  0.999923  0.192103  1
  O  O17  1  0.496462  0.503888  0.811753  1
  O  O18  1  0.496112  0.503538  0.188247  1
