# generated using pymatgen
data_Nb12Zn3Ga8ReN4
_symmetry_space_group_name_H-M   'P 1'
_cell_length_a   8.35027402
_cell_length_b   8.35027377
_cell_length_c   8.35027528
_cell_angle_alpha   59.46508343
_cell_angle_beta   59.46508487
_cell_angle_gamma   59.46508754
_symmetry_Int_Tables_number   1
_chemical_formula_structural   Nb12Zn3Ga8ReN4
_chemical_formula_sum   'Nb12 Zn3 Ga8 Re1 N4'
_cell_volume   406.69641258
_cell_formula_units_Z   1
loop_
 _symmetry_equiv_pos_site_id
 _symmetry_equiv_pos_as_xyz
  1  'x, y, z'
loop_
 _atom_site_type_symbol
 _atom_site_label
 _atom_site_symmetry_multiplicity
 _atom_site_fract_x
 _atom_site_fract_y
 _atom_site_fract_z
 _atom_site_occupancy
  Nb  Nb0  1  0.440293  0.440293  0.060075  1
  Nb  Nb1  1  0.057017  0.442709  0.057017  1
  Nb  Nb2  1  0.442709  0.057017  0.057017  1
  Nb  Nb3  1  0.057017  0.057017  0.442709  1
  Nb  Nb4  1  0.440293  0.060075  0.440293  1
  Nb  Nb5  1  0.060075  0.440293  0.440293  1
  Nb  Nb6  1  0.809707  0.809707  0.189925  1
  Nb  Nb7  1  0.192983  0.807291  0.192983  1
  Nb  Nb8  1  0.807291  0.192983  0.192983  1
  Nb  Nb9  1  0.192983  0.192983  0.807291  1
  Nb  Nb10  1  0.809707  0.189925  0.809707  1
  Nb  Nb11  1  0.189925  0.809707  0.809707  1
  Zn  Zn12  1  0.625000  0.625000  0.125000  1
  Zn  Zn13  1  0.625000  0.125000  0.625000  1
  Zn  Zn14  1  0.125000  0.625000  0.625000  1
  Ga  Ga15  1  0.838379  0.838379  0.485321  1
  Ga  Ga16  1  0.838379  0.485321  0.838379  1
  Ga  Ga17  1  0.485321  0.838379  0.838379  1
  Ga  Ga18  1  0.838294  0.838294  0.838294  1
  Ga  Ga19  1  0.411621  0.411621  0.764679  1
  Ga  Ga20  1  0.411621  0.764679  0.411621  1
  Ga  Ga21  1  0.764679  0.411621  0.411621  1
  Ga  Ga22  1  0.411706  0.411706  0.411706  1
  Re  Re23  1  0.625000  0.625000  0.625000  1
  N  N24  1  0.125000  0.125000  0.625000  1
  N  N25  1  0.125000  0.625000  0.125000  1
  N  N26  1  0.625000  0.125000  0.125000  1
  N  N27  1  0.125000  0.125000  0.125000  1
