# generated using pymatgen
data_MnSi2Pb2O7
_symmetry_space_group_name_H-M   'P 1'
_cell_length_a   5.36102900
_cell_length_b   8.29930300
_cell_length_c   8.29930300
_cell_angle_alpha   90.00000000
_cell_angle_beta   90.00000000
_cell_angle_gamma   90.00000000
_symmetry_Int_Tables_number   1
_chemical_formula_structural   MnSi2Pb2O7
_chemical_formula_sum   'Mn2 Si4 Pb4 O14'
_cell_volume   369.25926224
_cell_formula_units_Z   2
loop_
 _symmetry_equiv_pos_site_id
 _symmetry_equiv_pos_as_xyz
  1  'x, y, z'
loop_
 _atom_site_type_symbol
 _atom_site_label
 _atom_site_symmetry_multiplicity
 _atom_site_fract_x
 _atom_site_fract_y
 _atom_site_fract_z
 _atom_site_occupancy
  Mn  Mn0  1  0.000000  0.500000  0.500000  1
  Mn  Mn1  1  0.000000  0.000000  0.000000  1
  Si  Si2  1  0.941872  0.138696  0.361304  1
  Si  Si3  1  0.058128  0.361304  0.861304  1
  Si  Si4  1  0.941872  0.861304  0.638696  1
  Si  Si5  1  0.058128  0.638696  0.138696  1
  Pb  Pb6  1  0.496322  0.318190  0.181810  1
  Pb  Pb7  1  0.503678  0.181810  0.681810  1
  Pb  Pb8  1  0.496322  0.681810  0.818190  1
  Pb  Pb9  1  0.503678  0.818190  0.318190  1
  O  O10  1  0.119488  0.500000  0.000000  1
  O  O11  1  0.880512  0.000000  0.500000  1
  O  O12  1  0.241295  0.158923  0.341077  1
  O  O13  1  0.758705  0.341077  0.841077  1
  O  O14  1  0.241295  0.841077  0.658923  1
  O  O15  1  0.758705  0.658923  0.158923  1
  O  O16  1  0.793304  0.303223  0.421188  1
  O  O17  1  0.206696  0.196777  0.921188  1
  O  O18  1  0.793304  0.696777  0.578812  1
  O  O19  1  0.206696  0.803223  0.078812  1
  O  O20  1  0.206696  0.578812  0.303223  1
  O  O21  1  0.793304  0.921188  0.803223  1
  O  O22  1  0.206696  0.421188  0.696777  1
  O  O23  1  0.793304  0.078812  0.196777  1
