# generated using pymatgen
data_Y3Sc(CdHg3)2
_symmetry_space_group_name_H-M   'P 1'
_cell_length_a   5.11540700
_cell_length_b   7.23844300
_cell_length_c   15.44804600
_cell_angle_alpha   90.00001904
_cell_angle_beta   89.99789380
_cell_angle_gamma   90.00009230
_symmetry_Int_Tables_number   1
_chemical_formula_structural   Y3Sc(CdHg3)2
_chemical_formula_sum   'Y6 Sc2 Cd4 Hg12'
_cell_volume   572.00378968
_cell_formula_units_Z   2
loop_
 _symmetry_equiv_pos_site_id
 _symmetry_equiv_pos_as_xyz
  1  'x, y, z'
loop_
 _atom_site_type_symbol
 _atom_site_label
 _atom_site_symmetry_multiplicity
 _atom_site_fract_x
 _atom_site_fract_y
 _atom_site_fract_z
 _atom_site_occupancy
  Y  Y0  1  0.999996  0.999999  0.991740  1
  Y  Y1  1  0.499950  0.499999  0.174895  1
  Y  Y2  1  0.999944  0.000001  0.339920  1
  Y  Y3  1  0.500000  0.499999  0.499314  1
  Y  Y4  1  0.000046  0.000000  0.667386  1
  Y  Y5  1  0.500073  0.500000  0.826753  1
  Sc  Sc6  1  0.999992  0.499998  0.003192  1
  Sc  Sc7  1  0.499947  0.999998  0.163427  1
  Cd  Cd8  1  0.999913  0.500002  0.336508  1
  Cd  Cd9  1  0.499993  0.000001  0.499764  1
  Cd  Cd10  1  0.000048  0.500000  0.666887  1
  Cd  Cd11  1  0.500083  0.000001  0.830177  1
  Hg  Hg12  1  0.499999  0.258929  0.004292  1
  Hg  Hg13  1  0.499996  0.741070  0.004293  1
  Hg  Hg14  1  0.999937  0.241043  0.162419  1
  Hg  Hg15  1  0.999936  0.758957  0.162421  1
  Hg  Hg16  1  0.499943  0.241284  0.329114  1
  Hg  Hg17  1  0.499942  0.758717  0.329114  1
  Hg  Hg18  1  0.000009  0.252505  0.501881  1
  Hg  Hg19  1  0.000001  0.747497  0.501882  1
  Hg  Hg20  1  0.500055  0.247538  0.664768  1
  Hg  Hg21  1  0.500051  0.752463  0.664767  1
  Hg  Hg22  1  0.000075  0.258673  0.837543  1
  Hg  Hg23  1  0.000069  0.741330  0.837542  1
