# generated using pymatgen
data_AcLa(Si4Ni9)2
_symmetry_space_group_name_H-M   'P 1'
_cell_length_a   8.00611128
_cell_length_b   8.00611035
_cell_length_c   8.00611181
_cell_angle_alpha   121.10052138
_cell_angle_beta   121.10051553
_cell_angle_gamma   88.10418480
_symmetry_Int_Tables_number   1
_chemical_formula_structural   AcLa(Si4Ni9)2
_chemical_formula_sum   'Ac1 La1 Si8 Ni18'
_cell_volume   356.62095447
_cell_formula_units_Z   1
loop_
 _symmetry_equiv_pos_site_id
 _symmetry_equiv_pos_as_xyz
  1  'x, y, z'
loop_
 _atom_site_type_symbol
 _atom_site_label
 _atom_site_symmetry_multiplicity
 _atom_site_fract_x
 _atom_site_fract_y
 _atom_site_fract_z
 _atom_site_occupancy
  Ac  Ac0  1  0.750000  0.750000  0.000000  1
  La  La1  1  0.250000  0.250000  0.000000  1
  Si  Si2  1  0.444018  0.948148  0.159434  1
  Si  Si3  1  0.215415  0.711285  0.159434  1
  Si  Si4  1  0.711285  0.551852  0.495870  1
  Si  Si5  1  0.948148  0.788715  0.504130  1
  Si  Si6  1  0.284585  0.444018  0.495870  1
  Si  Si7  1  0.788715  0.284585  0.840566  1
  Si  Si8  1  0.551852  0.055982  0.840566  1
  Si  Si9  1  0.055982  0.215415  0.504130  1
  Ni  Ni10  1  0.568238  0.704372  0.273283  1
  Ni  Ni11  1  0.795628  0.931762  0.726717  1
  Ni  Ni12  1  0.315041  0.816664  0.761610  1
  Ni  Ni13  1  0.816664  0.055054  0.501624  1
  Ni  Ni14  1  0.431088  0.294955  0.726717  1
  Ni  Ni15  1  0.184959  0.946569  0.501624  1
  Ni  Ni16  1  0.444946  0.683336  0.498376  1
  Ni  Ni17  1  0.946569  0.444946  0.761610  1
  Ni  Ni18  1  0.683336  0.184959  0.238390  1
  Ni  Ni19  1  0.055054  0.553431  0.238390  1
  Ni  Ni20  1  0.500000  0.000000  0.500000  1
  Ni  Ni21  1  0.000000  0.500000  0.500000  1
  Ni  Ni22  1  0.294955  0.568238  0.863867  1
  Ni  Ni23  1  0.931762  0.205045  0.136133  1
  Ni  Ni24  1  0.068912  0.795628  0.863867  1
  Ni  Ni25  1  0.205045  0.068912  0.273283  1
  Ni  Ni26  1  0.553431  0.315041  0.498376  1
  Ni  Ni27  1  0.704372  0.431088  0.136133  1
