# generated using pymatgen
data_Sc6Zn19Ni4Se
_symmetry_space_group_name_H-M   'P 1'
_cell_length_a   8.67077555
_cell_length_b   8.66221695
_cell_length_c   8.64423200
_cell_angle_alpha   60.23609517
_cell_angle_beta   59.89977880
_cell_angle_gamma   59.96680323
_symmetry_Int_Tables_number   1
_chemical_formula_structural   Sc6Zn19Ni4Se
_chemical_formula_sum   'Sc6 Zn19 Ni4 Se1'
_cell_volume   459.43791162
_cell_formula_units_Z   1
loop_
 _symmetry_equiv_pos_site_id
 _symmetry_equiv_pos_as_xyz
  1  'x, y, z'
loop_
 _atom_site_type_symbol
 _atom_site_label
 _atom_site_symmetry_multiplicity
 _atom_site_fract_x
 _atom_site_fract_y
 _atom_site_fract_z
 _atom_site_occupancy
  Sc  Sc0  1  0.718769  0.278220  0.284241  1
  Sc  Sc1  1  0.281253  0.721770  0.715735  1
  Sc  Sc2  1  0.281740  0.718322  0.285808  1
  Sc  Sc3  1  0.718289  0.281670  0.714167  1
  Sc  Sc4  1  0.285905  0.281634  0.714130  1
  Sc  Sc5  1  0.714106  0.718353  0.285844  1
  Zn  Zn6  1  0.128291  0.115712  0.128410  1
  Zn  Zn7  1  0.871695  0.884283  0.871600  1
  Zn  Zn8  1  0.124189  0.124317  0.627237  1
  Zn  Zn9  1  0.118810  0.628071  0.134346  1
  Zn  Zn10  1  0.875823  0.875656  0.372767  1
  Zn  Zn11  1  0.881213  0.371907  0.865650  1
  Zn  Zn12  1  0.627585  0.115728  0.128372  1
  Zn  Zn13  1  0.372437  0.884266  0.871608  1
  Zn  Zn14  1  0.000005  0.499998  0.999994  1
  Zn  Zn15  1  0.500013  0.500001  0.999987  1
  Zn  Zn16  1  0.332106  0.330114  0.340671  1
  Zn  Zn17  1  0.667940  0.669901  0.659269  1
  Zn  Zn18  1  0.338594  0.327800  0.994997  1
  Zn  Zn19  1  0.332868  0.998948  0.335267  1
  Zn  Zn20  1  0.661402  0.672256  0.004968  1
  Zn  Zn21  1  0.667118  0.001040  0.664737  1
  Zn  Zn22  1  0.997082  0.330069  0.340722  1
  Zn  Zn23  1  0.002939  0.669885  0.659261  1
  Zn  Zn24  1  0.000006  0.999987  0.000004  1
  Ni  Ni25  1  0.499859  0.000135  0.000008  1
  Ni  Ni26  1  0.000015  0.499882  0.500082  1
  Ni  Ni27  1  0.499919  0.000137  0.500020  1
  Ni  Ni28  1  0.000021  0.999945  0.500103  1
  Se  Se29  1  0.500008  0.499991  0.499993  1
