# generated using pymatgen
data_Y3TmCo8(PRu)12
_symmetry_space_group_name_H-M   'P 1'
_cell_length_a   3.79367700
_cell_length_b   10.63878080
_cell_length_c   12.12487719
_cell_angle_alpha   90.08314783
_cell_angle_beta   90.00000000
_cell_angle_gamma   90.00000000
_symmetry_Int_Tables_number   1
_chemical_formula_structural   Y3TmCo8(PRu)12
_chemical_formula_sum   'Y3 Tm1 Co8 P12 Ru12'
_cell_volume   489.36071679
_cell_formula_units_Z   1
loop_
 _symmetry_equiv_pos_site_id
 _symmetry_equiv_pos_as_xyz
  1  'x, y, z'
loop_
 _atom_site_type_symbol
 _atom_site_label
 _atom_site_symmetry_multiplicity
 _atom_site_fract_x
 _atom_site_fract_y
 _atom_site_fract_z
 _atom_site_occupancy
  Y  Y0  1  0.750000  0.084378  0.793538  1
  Y  Y1  1  0.750000  0.415814  0.293154  1
  Y  Y2  1  0.250000  0.584232  0.706838  1
  Tm  Tm3  1  0.250000  0.915326  0.206416  1
  Co  Co4  1  0.250000  0.612811  0.195684  1
  Co  Co5  1  0.750000  0.387746  0.804687  1
  Co  Co6  1  0.750000  0.111361  0.303612  1
  Co  Co7  1  0.250000  0.887580  0.695250  1
  Co  Co8  1  0.250000  0.036791  0.434228  1
  Co  Co9  1  0.750000  0.962859  0.564013  1
  Co  Co10  1  0.750000  0.537660  0.065073  1
  Co  Co11  1  0.250000  0.462804  0.935256  1
  P  P12  1  0.250000  0.074130  0.612076  1
  P  P13  1  0.750000  0.926023  0.386082  1
  P  P14  1  0.750000  0.574393  0.887741  1
  P  P15  1  0.250000  0.425852  0.112539  1
  P  P16  1  0.250000  0.228099  0.371755  1
  P  P17  1  0.750000  0.772022  0.628274  1
  P  P18  1  0.750000  0.729000  0.128831  1
  P  P19  1  0.250000  0.271831  0.872033  1
  P  P20  1  0.250000  0.898316  0.887111  1
  P  P21  1  0.750000  0.100542  0.113709  1
  P  P22  1  0.750000  0.398451  0.612870  1
  P  P23  1  0.250000  0.601596  0.386994  1
  Ru  Ru24  1  0.250000  0.793980  0.485917  1
  Ru  Ru25  1  0.750000  0.205820  0.513539  1
  Ru  Ru26  1  0.750000  0.293492  0.014095  1
  Ru  Ru27  1  0.250000  0.706352  0.986492  1
  Ru  Ru28  1  0.250000  0.094126  0.986633  1
  Ru  Ru29  1  0.750000  0.905384  0.015580  1
  Ru  Ru30  1  0.750000  0.594814  0.513587  1
  Ru  Ru31  1  0.250000  0.405346  0.486176  1
  Ru  Ru32  1  0.250000  0.275961  0.680761  1
  Ru  Ru33  1  0.750000  0.724985  0.318953  1
  Ru  Ru34  1  0.750000  0.776537  0.819681  1
  Ru  Ru35  1  0.250000  0.223585  0.180822  1
