# generated using pymatgen
data_NdY2Cd3Ga2Hg
_symmetry_space_group_name_H-M   'P 1'
_cell_length_a   7.43023754
_cell_length_b   7.40147219
_cell_length_c   4.48986400
_cell_angle_alpha   90.00000000
_cell_angle_beta   90.00000000
_cell_angle_gamma   119.87201684
_symmetry_Int_Tables_number   1
_chemical_formula_structural   NdY2Cd3Ga2Hg
_chemical_formula_sum   'Nd1 Y2 Cd3 Ga2 Hg1'
_cell_volume   214.11311469
_cell_formula_units_Z   1
loop_
 _symmetry_equiv_pos_site_id
 _symmetry_equiv_pos_as_xyz
  1  'x, y, z'
loop_
 _atom_site_type_symbol
 _atom_site_label
 _atom_site_symmetry_multiplicity
 _atom_site_fract_x
 _atom_site_fract_y
 _atom_site_fract_z
 _atom_site_occupancy
  Nd  Nd0  1  0.000000  0.576229  0.500000  1
  Y  Y1  1  0.423679  0.423132  0.500000  1
  Y  Y2  1  0.576321  0.999453  0.500000  1
  Cd  Cd3  1  0.743287  0.744638  0.000000  1
  Cd  Cd4  1  0.256713  0.001351  0.000000  1
  Cd  Cd5  1  0.000000  0.254145  0.000000  1
  Ga  Ga6  1  0.663506  0.330931  0.000000  1
  Ga  Ga7  1  0.336494  0.667426  0.000000  1
  Hg  Hg8  1  0.000000  0.002695  0.500000  1
