# generated using pymatgen
data_Ba9Sr7Li4(W2N7)4
_symmetry_space_group_name_H-M   'P 1'
_cell_length_a   15.36811388
_cell_length_b   6.45279495
_cell_length_c   10.30210343
_cell_angle_alpha   89.88966465
_cell_angle_beta   98.50619352
_cell_angle_gamma   90.12639280
_symmetry_Int_Tables_number   1
_chemical_formula_structural   Ba9Sr7Li4(W2N7)4
_chemical_formula_sum   'Ba9 Sr7 Li4 W8 N28'
_cell_volume   1010.38980360
_cell_formula_units_Z   1
loop_
 _symmetry_equiv_pos_site_id
 _symmetry_equiv_pos_as_xyz
  1  'x, y, z'
loop_
 _atom_site_type_symbol
 _atom_site_label
 _atom_site_symmetry_multiplicity
 _atom_site_fract_x
 _atom_site_fract_y
 _atom_site_fract_z
 _atom_site_occupancy
  Ba  Ba0  1  0.250930  0.312459  0.249522  1
  Ba  Ba1  1  0.126350  0.854960  0.425248  1
  Ba  Ba2  1  0.885206  0.147620  0.570615  1
  Ba  Ba3  1  0.418107  0.230760  0.574992  1
  Ba  Ba4  1  0.487338  0.718824  0.748105  1
  Ba  Ba5  1  0.748718  0.680473  0.750765  1
  Ba  Ba6  1  0.009712  0.722241  0.752975  1
  Ba  Ba7  1  0.083684  0.234619  0.924928  1
  Ba  Ba8  1  0.613320  0.144260  0.928235  1
  Sr  Sr9  1  0.377251  0.865480  0.078911  1
  Sr  Sr10  1  0.933877  0.772852  0.081657  1
  Sr  Sr11  1  0.973162  0.274507  0.226019  1
  Sr  Sr12  1  0.749324  0.951284  0.249264  1
  Sr  Sr13  1  0.528378  0.275697  0.274976  1
  Sr  Sr14  1  0.570026  0.773133  0.420407  1
  Sr  Sr15  1  0.251143  0.990247  0.750754  1
  Li  Li16  1  0.756401  0.451736  0.125043  1
  Li  Li17  1  0.741707  0.453687  0.375032  1
  Li  Li18  1  0.265073  0.539600  0.622221  1
  Li  Li19  1  0.235749  0.543246  0.875196  1
  W  W20  1  0.585304  0.671493  0.089816  1
  W  W21  1  0.154034  0.780672  0.108414  1
  W  W22  1  0.351823  0.778428  0.389375  1
  W  W23  1  0.910224  0.667849  0.408732  1
  W  W24  1  0.108962  0.336217  0.576037  1
  W  W25  1  0.656901  0.215686  0.598998  1
  W  W26  1  0.843363  0.216594  0.902042  1
  W  W27  1  0.388615  0.329681  0.926417  1
  N  N28  1  0.482099  0.497068  0.032501  1
  N  N29  1  0.289774  0.287147  0.005602  1
  N  N30  1  0.799012  0.158149  0.059635  1
  N  N31  1  0.083526  0.545502  0.115404  1
  N  N32  1  0.086377  0.005145  0.149679  1
  N  N33  1  0.560700  0.938301  0.145673  1
  N  N34  1  0.650890  0.546830  0.235542  1
  N  N35  1  0.254118  0.756807  0.246940  1
  N  N36  1  0.848921  0.544370  0.260039  1
  N  N37  1  0.935768  0.936828  0.354595  1
  N  N38  1  0.418822  0.003429  0.347461  1
  N  N39  1  0.421171  0.542350  0.385869  1
  N  N40  1  0.698945  0.157605  0.439436  1
  N  N41  1  0.205810  0.291746  0.492182  1
  N  N42  1  0.011231  0.488668  0.469547  1
  N  N43  1  0.839837  0.693807  0.539412  1
  N  N44  1  0.313372  0.823397  0.552028  1
  N  N45  1  0.599591  0.469877  0.593274  1
  N  N46  1  0.577419  0.010286  0.630280  1
  N  N47  1  0.076375  0.081391  0.644189  1
  N  N48  1  0.149894  0.502008  0.716885  1
  N  N49  1  0.750686  0.224673  0.749805  1
  N  N50  1  0.349912  0.481033  0.777962  1
  N  N51  1  0.422365  0.068553  0.868170  1
  N  N52  1  0.923478  0.012108  0.873263  1
  N  N53  1  0.900676  0.471942  0.909215  1
  N  N54  1  0.193356  0.823243  0.946878  1
  N  N55  1  0.651199  0.703414  0.953841  1
