# generated using pymatgen
data_CaPrCdSi6Pd19Pt
_symmetry_space_group_name_H-M   'P 1'
_cell_length_a   8.72166659
_cell_length_b   8.72166640
_cell_length_c   8.72166700
_cell_angle_alpha   60.00000153
_cell_angle_beta   60.00000224
_cell_angle_gamma   60.00000297
_symmetry_Int_Tables_number   1
_chemical_formula_structural   CaPrCdSi6Pd19Pt
_chemical_formula_sum   'Ca1 Pr1 Cd1 Si6 Pd19 Pt1'
_cell_volume   469.11949052
_cell_formula_units_Z   1
loop_
 _symmetry_equiv_pos_site_id
 _symmetry_equiv_pos_as_xyz
  1  'x, y, z'
loop_
 _atom_site_type_symbol
 _atom_site_label
 _atom_site_symmetry_multiplicity
 _atom_site_fract_x
 _atom_site_fract_y
 _atom_site_fract_z
 _atom_site_occupancy
  Ca  Ca0  1  0.249887  0.249887  0.249887  1
  Pr  Pr1  1  0.749957  0.749957  0.749957  1
  Cd  Cd2  1  0.999986  0.999986  0.999986  1
  Si  Si3  1  0.731261  0.268142  0.268142  1
  Si  Si4  1  0.267745  0.732437  0.732437  1
  Si  Si5  1  0.268142  0.731261  0.268142  1
  Si  Si6  1  0.732437  0.267745  0.732437  1
  Si  Si7  1  0.268142  0.268142  0.731261  1
  Si  Si8  1  0.732437  0.732437  0.267745  1
  Pd  Pd9  1  0.614441  0.614441  0.614441  1
  Pd  Pd10  1  0.384608  0.384608  0.845998  1
  Pd  Pd11  1  0.384608  0.845998  0.384608  1
  Pd  Pd12  1  0.615243  0.615243  0.156075  1
  Pd  Pd13  1  0.615243  0.156075  0.615243  1
  Pd  Pd14  1  0.845998  0.384608  0.384608  1
  Pd  Pd15  1  0.156075  0.615243  0.615243  1
  Pd  Pd16  1  0.343922  0.999674  0.999674  1
  Pd  Pd17  1  0.656851  0.999329  0.999329  1
  Pd  Pd18  1  0.999377  0.343968  0.656650  1
  Pd  Pd19  1  0.999377  0.656650  0.343968  1
  Pd  Pd20  1  0.999674  0.343922  0.999674  1
  Pd  Pd21  1  0.656650  0.999377  0.343968  1
  Pd  Pd22  1  0.999329  0.656851  0.999329  1
  Pd  Pd23  1  0.343968  0.999377  0.656650  1
  Pd  Pd24  1  0.999674  0.999674  0.343922  1
  Pd  Pd25  1  0.999329  0.999329  0.656851  1
  Pd  Pd26  1  0.656650  0.343968  0.999377  1
  Pd  Pd27  1  0.343968  0.656650  0.999377  1
  Pt  Pt28  1  0.385021  0.385021  0.385021  1
