# generated using pymatgen
data_La2Mn17Si8Tc
_symmetry_space_group_name_H-M   'P 1'
_cell_length_a   8.15332316
_cell_length_b   8.21326995
_cell_length_c   8.14010933
_cell_angle_alpha   121.82127642
_cell_angle_beta   121.58457036
_cell_angle_gamma   87.39322366
_symmetry_Int_Tables_number   1
_chemical_formula_structural   La2Mn17Si8Tc
_chemical_formula_sum   'La2 Mn17 Si8 Tc1'
_cell_volume   373.99033229
_cell_formula_units_Z   1
loop_
 _symmetry_equiv_pos_site_id
 _symmetry_equiv_pos_as_xyz
  1  'x, y, z'
loop_
 _atom_site_type_symbol
 _atom_site_label
 _atom_site_symmetry_multiplicity
 _atom_site_fract_x
 _atom_site_fract_y
 _atom_site_fract_z
 _atom_site_occupancy
  La  La0  1  0.750381  0.751086  0.001027  1
  La  La1  1  0.249353  0.250059  0.998973  1
  Mn  Mn2  1  0.442327  0.943824  0.739568  1
  Mn  Mn3  1  0.202760  0.704257  0.260432  1
  Mn  Mn4  1  0.555575  0.052878  0.260137  1
  Mn  Mn5  1  0.944901  0.202943  0.500000  1
  Mn  Mn6  1  0.196695  0.936821  0.134845  1
  Mn  Mn7  1  0.804179  0.063131  0.865867  1
  Mn  Mn8  1  0.438311  0.697264  0.134133  1
  Mn  Mn9  1  0.561851  0.301977  0.865155  1
  Mn  Mn10  1  0.689201  0.557939  0.242634  1
  Mn  Mn11  1  0.308716  0.442602  0.752575  1
  Mn  Mn12  1  0.946567  0.815305  0.757366  1
  Mn  Mn13  1  0.299642  0.558139  0.500000  1
  Mn  Mn14  1  0.795438  0.292742  0.739863  1
  Mn  Mn15  1  0.004943  0.500519  0.500000  1
  Mn  Mn16  1  0.499421  0.000336  0.500000  1
  Mn  Mn17  1  0.056140  0.190027  0.247425  1
  Mn  Mn18  1  0.057621  0.792819  0.500000  1
  Si  Si19  1  0.298193  0.796146  0.849090  1
  Si  Si20  1  0.053771  0.551639  0.849882  1
  Si  Si21  1  0.550960  0.710917  0.500000  1
  Si  Si22  1  0.796957  0.947821  0.500000  1
  Si  Si23  1  0.441107  0.291921  0.500000  1
  Si  Si24  1  0.949103  0.447057  0.150910  1
  Si  Si25  1  0.703889  0.201757  0.150118  1
  Si  Si26  1  0.203566  0.051394  0.500000  1
  Tc  Tc27  1  0.698431  0.446684  0.500000  1
