# generated using pymatgen
data_Sm3Er(Sc4Bi3)4
_symmetry_space_group_name_H-M   'P 1'
_cell_length_a   7.92079811
_cell_length_b   9.08015800
_cell_length_c   11.61919316
_cell_angle_alpha   90.00000000
_cell_angle_beta   89.98113480
_cell_angle_gamma   90.00000000
_symmetry_Int_Tables_number   1
_chemical_formula_structural   Sm3Er(Sc4Bi3)4
_chemical_formula_sum   'Sm3 Er1 Sc16 Bi12'
_cell_volume   835.67670715
_cell_formula_units_Z   1
loop_
 _symmetry_equiv_pos_site_id
 _symmetry_equiv_pos_as_xyz
  1  'x, y, z'
loop_
 _atom_site_type_symbol
 _atom_site_label
 _atom_site_symmetry_multiplicity
 _atom_site_fract_x
 _atom_site_fract_y
 _atom_site_fract_z
 _atom_site_occupancy
  Sm  Sm0  1  0.317135  0.250000  0.218973  1
  Sm  Sm1  1  0.816935  0.250000  0.281075  1
  Sm  Sm2  1  0.683096  0.750000  0.781077  1
  Er  Er3  1  0.183989  0.750000  0.717600  1
  Sc  Sc4  1  0.347360  0.750000  0.220936  1
  Sc  Sc5  1  0.847787  0.750000  0.279419  1
  Sc  Sc6  1  0.651775  0.250000  0.778155  1
  Sc  Sc7  1  0.152558  0.250000  0.721283  1
  Sc  Sc8  1  0.691360  0.567824  0.062696  1
  Sc  Sc9  1  0.192042  0.932532  0.437759  1
  Sc  Sc10  1  0.308492  0.067526  0.936882  1
  Sc  Sc11  1  0.807595  0.432507  0.562840  1
  Sc  Sc12  1  0.308492  0.432474  0.936882  1
  Sc  Sc13  1  0.807595  0.067493  0.562840  1
  Sc  Sc14  1  0.691360  0.932176  0.062696  1
  Sc  Sc15  1  0.192042  0.567468  0.437759  1
  Sc  Sc16  1  0.482500  0.250000  0.489758  1
  Sc  Sc17  1  0.983477  0.250000  0.010524  1
  Sc  Sc18  1  0.516803  0.750000  0.511670  1
  Sc  Sc19  1  0.017389  0.750000  0.988598  1
  Bi  Bi20  1  0.399119  0.750000  0.968147  1
  Bi  Bi21  1  0.902726  0.750000  0.532594  1
  Bi  Bi22  1  0.599927  0.250000  0.030291  1
  Bi  Bi23  1  0.099217  0.250000  0.469528  1
  Bi  Bi24  1  0.563323  0.987474  0.329836  1
  Bi  Bi25  1  0.063126  0.512354  0.170538  1
  Bi  Bi26  1  0.433912  0.489646  0.671135  1
  Bi  Bi27  1  0.939254  0.010496  0.828500  1
  Bi  Bi28  1  0.433912  0.010354  0.671135  1
  Bi  Bi29  1  0.939254  0.489504  0.828500  1
  Bi  Bi30  1  0.563323  0.512526  0.329836  1
  Bi  Bi31  1  0.063126  0.987646  0.170538  1
