# generated using pymatgen
data_HgBiRuPtO7
_symmetry_space_group_name_H-M   'P 1'
_cell_length_a   7.44131731
_cell_length_b   7.36689550
_cell_length_c   7.36689513
_cell_angle_alpha   58.74061017
_cell_angle_beta   59.66525864
_cell_angle_gamma   59.66526224
_symmetry_Int_Tables_number   1
_chemical_formula_structural   HgBiRuPtO7
_chemical_formula_sum   'Hg2 Bi2 Ru2 Pt2 O14'
_cell_volume   281.33544875
_cell_formula_units_Z   2
loop_
 _symmetry_equiv_pos_site_id
 _symmetry_equiv_pos_as_xyz
  1  'x, y, z'
loop_
 _atom_site_type_symbol
 _atom_site_label
 _atom_site_symmetry_multiplicity
 _atom_site_fract_x
 _atom_site_fract_y
 _atom_site_fract_z
 _atom_site_occupancy
  Hg  Hg0  1  0.125000  0.125000  0.625000  1
  Hg  Hg1  1  0.125000  0.625000  0.125000  1
  Bi  Bi2  1  0.625000  0.125000  0.125000  1
  Bi  Bi3  1  0.125000  0.125000  0.125000  1
  Ru  Ru4  1  0.125000  0.625000  0.625000  1
  Ru  Ru5  1  0.625000  0.625000  0.625000  1
  Pt  Pt6  1  0.625000  0.625000  0.125000  1
  Pt  Pt7  1  0.625000  0.125000  0.625000  1
  O  O8  1  0.242580  0.257420  0.257420  1
  O  O9  1  0.007420  0.992580  0.992580  1
  O  O10  1  0.543600  0.956518  0.542369  1
  O  O11  1  0.292486  0.707631  0.293482  1
  O  O12  1  0.543600  0.542369  0.956518  1
  O  O13  1  0.914645  0.585355  0.585355  1
  O  O14  1  0.538798  0.961202  0.961202  1
  O  O15  1  0.957514  0.956518  0.542369  1
  O  O16  1  0.957514  0.542369  0.956518  1
  O  O17  1  0.711202  0.288798  0.288798  1
  O  O18  1  0.335355  0.664645  0.664645  1
  O  O19  1  0.706400  0.293482  0.707631  1
  O  O20  1  0.292486  0.293482  0.707631  1
  O  O21  1  0.706400  0.707631  0.293482  1
