# generated using pymatgen
data_LiHo8Sc10Si16Os
_symmetry_space_group_name_H-M   'P 1'
_cell_length_a   6.95624476
_cell_length_b   7.33361009
_cell_length_c   13.88434300
_cell_angle_alpha   90.00000000
_cell_angle_beta   90.00000000
_cell_angle_gamma   90.00941912
_symmetry_Int_Tables_number   1
_chemical_formula_structural   LiHo8Sc10Si16Os
_chemical_formula_sum   'Li1 Ho8 Sc10 Si16 Os1'
_cell_volume   708.30123431
_cell_formula_units_Z   1
loop_
 _symmetry_equiv_pos_site_id
 _symmetry_equiv_pos_as_xyz
  1  'x, y, z'
loop_
 _atom_site_type_symbol
 _atom_site_label
 _atom_site_symmetry_multiplicity
 _atom_site_fract_x
 _atom_site_fract_y
 _atom_site_fract_z
 _atom_site_occupancy
  Li  Li0  1  0.842494  0.494508  0.250000  1
  Ho  Ho1  1  0.010773  0.184793  0.094713  1
  Ho  Ho2  1  0.993188  0.819382  0.901281  1
  Ho  Ho3  1  0.490041  0.672913  0.903121  1
  Ho  Ho4  1  0.993188  0.819382  0.598719  1
  Ho  Ho5  1  0.515670  0.325581  0.095675  1
  Ho  Ho6  1  0.010773  0.184793  0.405287  1
  Ho  Ho7  1  0.515670  0.325581  0.404325  1
  Ho  Ho8  1  0.490041  0.672913  0.596879  1
  Sc  Sc9  1  0.344331  0.002680  0.250000  1
  Sc  Sc10  1  0.656978  0.995895  0.750000  1
  Sc  Sc11  1  0.325613  0.176335  0.627019  1
  Sc  Sc12  1  0.675253  0.819974  0.373984  1
  Sc  Sc13  1  0.168208  0.670508  0.376096  1
  Sc  Sc14  1  0.675253  0.819974  0.126016  1
  Sc  Sc15  1  0.823093  0.330557  0.628458  1
  Sc  Sc16  1  0.325613  0.176335  0.872981  1
  Sc  Sc17  1  0.823093  0.330557  0.871542  1
  Sc  Sc18  1  0.168208  0.670508  0.123904  1
  Si  Si19  1  0.027926  0.119049  0.750000  1
  Si  Si20  1  0.973918  0.895429  0.250000  1
  Si  Si21  1  0.467704  0.612983  0.250000  1
  Si  Si22  1  0.513486  0.395324  0.750000  1
  Si  Si23  1  0.285702  0.859085  0.750000  1
  Si  Si24  1  0.716737  0.122179  0.250000  1
  Si  Si25  1  0.220377  0.372447  0.250000  1
  Si  Si26  1  0.795932  0.630320  0.750000  1
  Si  Si27  1  0.155319  0.465345  0.549059  1
  Si  Si28  1  0.841884  0.538911  0.467844  1
  Si  Si29  1  0.343977  0.965372  0.462385  1
  Si  Si30  1  0.841884  0.538911  0.032156  1
  Si  Si31  1  0.658681  0.033656  0.539000  1
  Si  Si32  1  0.155319  0.465345  0.950941  1
  Si  Si33  1  0.658681  0.033656  0.961000  1
  Si  Si34  1  0.343977  0.965372  0.037615  1
  Os  Os35  1  0.151010  0.493446  0.750000  1
