# generated using pymatgen
data_LuSc(Zn4Ru)2
_symmetry_space_group_name_H-M   'P 1'
_cell_length_a   5.07943700
_cell_length_b   5.07943634
_cell_length_c   8.16165700
_cell_angle_alpha   90.00000000
_cell_angle_beta   90.00000000
_cell_angle_gamma   119.99999782
_symmetry_Int_Tables_number   1
_chemical_formula_structural   LuSc(Zn4Ru)2
_chemical_formula_sum   'Lu1 Sc1 Zn8 Ru2'
_cell_volume   182.36440751
_cell_formula_units_Z   1
loop_
 _symmetry_equiv_pos_site_id
 _symmetry_equiv_pos_as_xyz
  1  'x, y, z'
loop_
 _atom_site_type_symbol
 _atom_site_label
 _atom_site_symmetry_multiplicity
 _atom_site_fract_x
 _atom_site_fract_y
 _atom_site_fract_z
 _atom_site_occupancy
  Lu  Lu0  1  0.666667  0.333333  0.432813  1
  Sc  Sc1  1  0.333333  0.666667  0.931950  1
  Zn  Zn2  1  0.000000  0.000000  0.002698  1
  Zn  Zn3  1  0.000000  0.000000  0.503044  1
  Zn  Zn4  1  0.171894  0.343786  0.247417  1
  Zn  Zn5  1  0.828474  0.171526  0.752419  1
  Zn  Zn6  1  0.343051  0.171526  0.752419  1
  Zn  Zn7  1  0.656214  0.828106  0.247417  1
  Zn  Zn8  1  0.171894  0.828106  0.247417  1
  Zn  Zn9  1  0.828474  0.656949  0.752419  1
  Ru  Ru10  1  0.333333  0.666667  0.566661  1
  Ru  Ru11  1  0.666667  0.333333  0.063326  1
