# generated using pymatgen
data_Ho6Th2AlPd24
_symmetry_space_group_name_H-M   'P 1'
_cell_length_a   8.37665907
_cell_length_b   8.37665907
_cell_length_c   8.37665907
_cell_angle_alpha   89.98937025
_cell_angle_beta   89.98937025
_cell_angle_gamma   89.98937025
_symmetry_Int_Tables_number   1
_chemical_formula_structural   Ho6Th2AlPd24
_chemical_formula_sum   'Ho6 Th2 Al1 Pd24'
_cell_volume   587.77687825
_cell_formula_units_Z   1
loop_
 _symmetry_equiv_pos_site_id
 _symmetry_equiv_pos_as_xyz
  1  'x, y, z'
loop_
 _atom_site_type_symbol
 _atom_site_label
 _atom_site_symmetry_multiplicity
 _atom_site_fract_x
 _atom_site_fract_y
 _atom_site_fract_z
 _atom_site_occupancy
  Ho  Ho0  1  0.747690  0.747690  0.252099  1
  Ho  Ho1  1  0.747690  0.252099  0.747690  1
  Ho  Ho2  1  0.252310  0.252310  0.747901  1
  Ho  Ho3  1  0.252310  0.747901  0.252310  1
  Ho  Ho4  1  0.252099  0.747690  0.747690  1
  Ho  Ho5  1  0.747901  0.252310  0.252310  1
  Th  Th6  1  0.253377  0.253377  0.253377  1
  Th  Th7  1  0.746623  0.746623  0.746623  1
  Al  Al8  1  0.000000  0.000000  0.000000  1
  Pd  Pd9  1  0.259397  0.500361  0.999507  1
  Pd  Pd10  1  0.740603  0.499639  0.000493  1
  Pd  Pd11  1  0.999507  0.259397  0.500361  1
  Pd  Pd12  1  0.500361  0.259397  0.999507  1
  Pd  Pd13  1  0.000493  0.740603  0.499639  1
  Pd  Pd14  1  0.499639  0.740603  0.000493  1
  Pd  Pd15  1  0.500361  0.999507  0.259397  1
  Pd  Pd16  1  0.259397  0.999507  0.500361  1
  Pd  Pd17  1  0.499639  0.000493  0.740603  1
  Pd  Pd18  1  0.740603  0.000493  0.499639  1
  Pd  Pd19  1  0.999507  0.500361  0.259397  1
  Pd  Pd20  1  0.000493  0.499639  0.740603  1
  Pd  Pd21  1  0.252951  0.500628  0.500628  1
  Pd  Pd22  1  0.747049  0.499372  0.499372  1
  Pd  Pd23  1  0.500628  0.252951  0.500628  1
  Pd  Pd24  1  0.499372  0.747049  0.499372  1
  Pd  Pd25  1  0.500628  0.500628  0.252951  1
  Pd  Pd26  1  0.499372  0.499372  0.747049  1
  Pd  Pd27  1  0.288387  0.999026  0.999026  1
  Pd  Pd28  1  0.711613  0.000974  0.000974  1
  Pd  Pd29  1  0.999026  0.288387  0.999026  1
  Pd  Pd30  1  0.000974  0.711613  0.000974  1
  Pd  Pd31  1  0.999026  0.999026  0.288387  1
  Pd  Pd32  1  0.000974  0.000974  0.711613  1
