# generated using pymatgen
data_Li4Ni9As5P2W
_symmetry_space_group_name_H-M   'P 1'
_cell_length_a   9.36087745
_cell_length_b   9.38822002
_cell_length_c   3.69007500
_cell_angle_alpha   90.00000000
_cell_angle_beta   90.00000000
_cell_angle_gamma   120.55285185
_symmetry_Int_Tables_number   1
_chemical_formula_structural   Li4Ni9As5P2W
_chemical_formula_sum   'Li4 Ni9 As5 P2 W1'
_cell_volume   279.26671337
_cell_formula_units_Z   1
loop_
 _symmetry_equiv_pos_site_id
 _symmetry_equiv_pos_as_xyz
  1  'x, y, z'
loop_
 _atom_site_type_symbol
 _atom_site_label
 _atom_site_symmetry_multiplicity
 _atom_site_fract_x
 _atom_site_fract_y
 _atom_site_fract_z
 _atom_site_occupancy
  Li  Li0  1  0.439019  0.210094  0.500000  1
  Li  Li1  1  0.790320  0.233076  0.500000  1
  Li  Li2  1  0.353367  0.666219  0.000000  1
  Li  Li3  1  0.992579  0.984039  0.500000  1
  Ni  Ni4  1  0.289103  0.390712  0.500000  1
  Ni  Ni5  1  0.618035  0.887077  0.500000  1
  Ni  Ni6  1  0.090098  0.725960  0.500000  1
  Ni  Ni7  1  0.502300  0.460403  0.000000  1
  Ni  Ni8  1  0.544339  0.043150  0.000000  1
  Ni  Ni9  1  0.955723  0.507744  0.000000  1
  Ni  Ni10  1  0.726055  0.760606  0.000000  1
  Ni  Ni11  1  0.224259  0.951891  0.000000  1
  Ni  Ni12  1  0.044946  0.288543  0.000000  1
  As  As13  1  0.238524  0.207928  0.000000  1
  As  As14  1  0.794096  0.035970  0.000000  1
  As  As15  1  0.666405  0.332458  0.000000  1
  As  As16  1  0.371978  0.907857  0.500000  1
  As  As17  1  0.093702  0.473182  0.500000  1
  P  P18  1  0.959841  0.752505  0.000000  1
  P  P19  1  0.544321  0.623111  0.500000  1
  W  W20  1  0.760994  0.557473  0.500000  1
