# generated using pymatgen
data_Tb4Lu8Tl2FeTc2
_symmetry_space_group_name_H-M   'P 1'
_cell_length_a   8.32453369
_cell_length_b   8.32477329
_cell_length_c   8.32453601
_cell_angle_alpha   108.62084746
_cell_angle_beta   108.61912434
_cell_angle_gamma   111.18625143
_symmetry_Int_Tables_number   1
_chemical_formula_structural   Tb4Lu8Tl2FeTc2
_chemical_formula_sum   'Tb4 Lu8 Tl2 Fe1 Tc2'
_cell_volume   443.79636032
_cell_formula_units_Z   1
loop_
 _symmetry_equiv_pos_site_id
 _symmetry_equiv_pos_as_xyz
  1  'x, y, z'
loop_
 _atom_site_type_symbol
 _atom_site_label
 _atom_site_symmetry_multiplicity
 _atom_site_fract_x
 _atom_site_fract_y
 _atom_site_fract_z
 _atom_site_occupancy
  Tb  Tb0  1  0.302642  0.302611  0.607841  1
  Tb  Tb1  1  0.694827  0.694781  0.392107  1
  Tb  Tb2  1  0.694771  0.302611  0.999970  1
  Tb  Tb3  1  0.302673  0.694781  0.999953  1
  Lu  Lu4  1  0.188190  0.426842  0.238652  1
  Lu  Lu5  1  0.809101  0.573567  0.764466  1
  Lu  Lu6  1  0.188237  0.949490  0.761254  1
  Lu  Lu7  1  0.949411  0.188127  0.761182  1
  Lu  Lu8  1  0.809117  0.044542  0.235425  1
  Lu  Lu9  1  0.044519  0.809029  0.235395  1
  Lu  Lu10  1  0.426946  0.188127  0.238715  1
  Lu  Lu11  1  0.573635  0.809029  0.764510  1
  Tl  Tl12  1  0.998111  0.498227  0.500116  1
  Tl  Tl13  1  0.497903  0.998030  0.500127  1
  Fe  Fe14  1  0.631913  0.632400  0.000487  1
  Tc  Tc15  1  0.387047  0.386920  0.999873  1
  Tc  Tc16  1  0.000961  0.000887  0.999926  1
