# generated using pymatgen
data_Er5Al2ZnC4
_symmetry_space_group_name_H-M   'P 1'
_cell_length_a   10.78315100
_cell_length_b   10.78315100
_cell_length_c   3.46359500
_cell_angle_alpha   90.00000000
_cell_angle_beta   90.00000000
_cell_angle_gamma   90.00000000
_symmetry_Int_Tables_number   1
_chemical_formula_structural   Er5Al2ZnC4
_chemical_formula_sum   'Er10 Al4 Zn2 C8'
_cell_volume   402.73416885
_cell_formula_units_Z   2
loop_
 _symmetry_equiv_pos_site_id
 _symmetry_equiv_pos_as_xyz
  1  'x, y, z'
loop_
 _atom_site_type_symbol
 _atom_site_label
 _atom_site_symmetry_multiplicity
 _atom_site_fract_x
 _atom_site_fract_y
 _atom_site_fract_z
 _atom_site_occupancy
  Er  Er0  1  0.549260  0.729507  0.500000  1
  Er  Er1  1  0.450740  0.270493  0.500000  1
  Er  Er2  1  0.049260  0.770493  0.500000  1
  Er  Er3  1  0.950740  0.229507  0.500000  1
  Er  Er4  1  0.270493  0.549260  0.500000  1
  Er  Er5  1  0.729507  0.450740  0.500000  1
  Er  Er6  1  0.229507  0.049260  0.500000  1
  Er  Er7  1  0.770493  0.950740  0.500000  1
  Er  Er8  1  0.500000  0.000000  0.000000  1
  Er  Er9  1  0.000000  0.500000  0.000000  1
  Al  Al10  1  0.703566  0.203566  0.000000  1
  Al  Al11  1  0.296434  0.796434  0.000000  1
  Al  Al12  1  0.203566  0.296434  0.000000  1
  Al  Al13  1  0.796434  0.703566  0.000000  1
  Zn  Zn14  1  0.500000  0.500000  0.000000  1
  Zn  Zn15  1  0.000000  0.000000  0.000000  1
  C  C16  1  0.630396  0.130396  0.500000  1
  C  C17  1  0.369604  0.869604  0.500000  1
  C  C18  1  0.130396  0.369604  0.500000  1
  C  C19  1  0.869604  0.630396  0.500000  1
  C  C20  1  0.161445  0.661445  0.000000  1
  C  C21  1  0.838555  0.338555  0.000000  1
  C  C22  1  0.661445  0.838555  0.000000  1
  C  C23  1  0.338555  0.161445  0.000000  1
