# generated using pymatgen
data_Rb2I11
_symmetry_space_group_name_H-M   'P 1'
_cell_length_a   14.30383881
_cell_length_b   14.30383983
_cell_length_c   9.11365919
_cell_angle_alpha   89.94698260
_cell_angle_beta   89.94698744
_cell_angle_gamma   154.71590155
_symmetry_Int_Tables_number   1
_chemical_formula_structural   Rb2I11
_chemical_formula_sum   'Rb2 I11'
_cell_volume   796.39911587
_cell_formula_units_Z   1
loop_
 _symmetry_equiv_pos_site_id
 _symmetry_equiv_pos_as_xyz
  1  'x, y, z'
loop_
 _atom_site_type_symbol
 _atom_site_label
 _atom_site_symmetry_multiplicity
 _atom_site_fract_x
 _atom_site_fract_y
 _atom_site_fract_z
 _atom_site_occupancy
  Rb  Rb0  1  0.615711  0.850354  0.551018  1
  Rb  Rb1  1  0.850354  0.615711  0.551018  1
  I  I2  1  0.843679  0.843679  0.019840  1
  I  I3  1  0.071399  0.404848  0.803883  1
  I  I4  1  0.404848  0.071399  0.803883  1
  I  I5  1  0.801863  0.801863  0.341216  1
  I  I6  1  0.898777  0.898777  0.694945  1
  I  I7  1  0.575429  0.902282  0.139952  1
  I  I8  1  0.902282  0.575429  0.139952  1
  I  I9  1  0.060081  0.411656  0.474601  1
  I  I10  1  0.411656  0.060081  0.474601  1
  I  I11  1  0.403085  0.075222  0.134720  1
  I  I12  1  0.075222  0.403085  0.134720  1
