# generated using pymatgen
data_HoEr7(InCo)2
_symmetry_space_group_name_H-M   'P 1'
_cell_length_a   9.47287524
_cell_length_b   9.47287454
_cell_length_c   9.47378000
_cell_angle_alpha   59.99683803
_cell_angle_beta   59.99684050
_cell_angle_gamma   60.02749582
_symmetry_Int_Tables_number   1
_chemical_formula_structural   HoEr7(InCo)2
_chemical_formula_sum   'Ho2 Er14 In4 Co4'
_cell_volume   601.23091972
_cell_formula_units_Z   2
loop_
 _symmetry_equiv_pos_site_id
 _symmetry_equiv_pos_as_xyz
  1  'x, y, z'
loop_
 _atom_site_type_symbol
 _atom_site_label
 _atom_site_symmetry_multiplicity
 _atom_site_fract_x
 _atom_site_fract_y
 _atom_site_fract_z
 _atom_site_occupancy
  Ho  Ho0  1  0.596950  0.596950  0.594490  1
  Ho  Ho1  1  0.596950  0.596950  0.211610  1
  Er  Er2  1  0.598942  0.208179  0.596439  1
  Er  Er3  1  0.208179  0.598942  0.596439  1
  Er  Er4  1  0.060603  0.438129  0.439181  1
  Er  Er5  1  0.438129  0.060603  0.062087  1
  Er  Er6  1  0.438129  0.060603  0.439181  1
  Er  Er7  1  0.060603  0.438129  0.062087  1
  Er  Er8  1  0.438152  0.438152  0.061848  1
  Er  Er9  1  0.060742  0.060742  0.439258  1
  Er  Er10  1  0.189684  0.811226  0.810297  1
  Er  Er11  1  0.811226  0.189684  0.188793  1
  Er  Er12  1  0.811226  0.189684  0.810297  1
  Er  Er13  1  0.189684  0.811226  0.188793  1
  Er  Er14  1  0.812086  0.812086  0.187914  1
  Er  Er15  1  0.190471  0.190471  0.809529  1
  In  In16  1  0.832664  0.832664  0.833305  1
  In  In17  1  0.832664  0.832664  0.501365  1
  In  In18  1  0.832334  0.502592  0.832536  1
  In  In19  1  0.502592  0.832334  0.832536  1
  Co  Co20  1  0.390034  0.390034  0.391755  1
  Co  Co21  1  0.390034  0.390034  0.828178  1
  Co  Co22  1  0.389350  0.828569  0.391040  1
  Co  Co23  1  0.828569  0.389350  0.391040  1
