# generated using pymatgen
data_Er6Al24FeRuRh6
_symmetry_space_group_name_H-M   'P 1'
_cell_length_a   8.79686200
_cell_length_b   8.79686066
_cell_length_c   9.41723000
_cell_angle_alpha   90.00000000
_cell_angle_beta   90.00000000
_cell_angle_gamma   119.99999750
_symmetry_Int_Tables_number   1
_chemical_formula_structural   Er6Al24FeRuRh6
_chemical_formula_sum   'Er6 Al24 Fe1 Ru1 Rh6'
_cell_volume   631.11617691
_cell_formula_units_Z   1
loop_
 _symmetry_equiv_pos_site_id
 _symmetry_equiv_pos_as_xyz
  1  'x, y, z'
loop_
 _atom_site_type_symbol
 _atom_site_label
 _atom_site_symmetry_multiplicity
 _atom_site_fract_x
 _atom_site_fract_y
 _atom_site_fract_z
 _atom_site_occupancy
  Er  Er0  1  0.192745  0.385490  0.250265  1
  Er  Er1  1  0.807255  0.614510  0.749735  1
  Er  Er2  1  0.614510  0.807255  0.250265  1
  Er  Er3  1  0.385490  0.192745  0.749735  1
  Er  Er4  1  0.192745  0.807255  0.250265  1
  Er  Er5  1  0.807255  0.192745  0.749735  1
  Al  Al6  1  0.333333  0.666667  0.028173  1
  Al  Al7  1  0.666667  0.333333  0.971827  1
  Al  Al8  1  0.666667  0.333333  0.529663  1
  Al  Al9  1  0.333333  0.666667  0.470337  1
  Al  Al10  1  0.162355  0.324712  0.576031  1
  Al  Al11  1  0.837645  0.675288  0.423969  1
  Al  Al12  1  0.675288  0.837645  0.576031  1
  Al  Al13  1  0.840096  0.680190  0.075191  1
  Al  Al14  1  0.324712  0.162355  0.423969  1
  Al  Al15  1  0.159904  0.319810  0.924809  1
  Al  Al16  1  0.162355  0.837645  0.576031  1
  Al  Al17  1  0.319810  0.159904  0.075191  1
  Al  Al18  1  0.837645  0.162355  0.423969  1
  Al  Al19  1  0.680190  0.840096  0.924809  1
  Al  Al20  1  0.840096  0.159904  0.075191  1
  Al  Al21  1  0.159904  0.840096  0.924809  1
  Al  Al22  1  0.561883  0.123767  0.249920  1
  Al  Al23  1  0.438117  0.876233  0.750080  1
  Al  Al24  1  0.876233  0.438117  0.249920  1
  Al  Al25  1  0.123767  0.561883  0.750080  1
  Al  Al26  1  0.561883  0.438117  0.249920  1
  Al  Al27  1  0.438117  0.561883  0.750080  1
  Al  Al28  1  0.000000  0.000000  0.244644  1
  Al  Al29  1  0.000000  0.000000  0.755356  1
  Fe  Fe30  1  0.000000  0.000000  0.000000  1
  Ru  Ru31  1  0.000000  0.000000  0.500000  1
  Rh  Rh32  1  0.500000  0.000000  0.000000  1
  Rh  Rh33  1  0.000000  0.500000  0.000000  1
  Rh  Rh34  1  0.500000  0.000000  0.500000  1
  Rh  Rh35  1  0.500000  0.500000  0.000000  1
  Rh  Rh36  1  0.000000  0.500000  0.500000  1
  Rh  Rh37  1  0.500000  0.500000  0.500000  1
