# generated using pymatgen
data_Hf18TiFeRe6WSe
_symmetry_space_group_name_H-M   'P 1'
_cell_length_a   8.64578000
_cell_length_b   8.64577990
_cell_length_c   8.51061000
_cell_angle_alpha   90.00000000
_cell_angle_beta   90.00000000
_cell_angle_gamma   120.00000038
_symmetry_Int_Tables_number   1
_chemical_formula_structural   Hf18TiFeRe6WSe
_chemical_formula_sum   'Hf18 Ti1 Fe1 Re6 W1 Se1'
_cell_volume   550.93412684
_cell_formula_units_Z   1
loop_
 _symmetry_equiv_pos_site_id
 _symmetry_equiv_pos_as_xyz
  1  'x, y, z'
loop_
 _atom_site_type_symbol
 _atom_site_label
 _atom_site_symmetry_multiplicity
 _atom_site_fract_x
 _atom_site_fract_y
 _atom_site_fract_z
 _atom_site_occupancy
  Hf  Hf0  1  0.202112  0.797888  0.440555  1
  Hf  Hf1  1  0.202112  0.404224  0.440555  1
  Hf  Hf2  1  0.595776  0.797888  0.440555  1
  Hf  Hf3  1  0.807499  0.192501  0.546238  1
  Hf  Hf4  1  0.807499  0.614997  0.546238  1
  Hf  Hf5  1  0.385003  0.192501  0.546238  1
  Hf  Hf6  1  0.807358  0.192642  0.952711  1
  Hf  Hf7  1  0.807358  0.614715  0.952711  1
  Hf  Hf8  1  0.385285  0.192642  0.952711  1
  Hf  Hf9  1  0.200336  0.799664  0.057406  1
  Hf  Hf10  1  0.200336  0.400672  0.057406  1
  Hf  Hf11  1  0.599328  0.799664  0.057406  1
  Hf  Hf12  1  0.540283  0.459717  0.249270  1
  Hf  Hf13  1  0.540283  0.080566  0.249270  1
  Hf  Hf14  1  0.919434  0.459717  0.249270  1
  Hf  Hf15  1  0.454496  0.545504  0.750079  1
  Hf  Hf16  1  0.454496  0.908990  0.750079  1
  Hf  Hf17  1  0.091010  0.545504  0.750079  1
  Ti  Ti18  1  0.000000  0.000000  0.003878  1
  Fe  Fe19  1  0.333333  0.666667  0.249223  1
  Re  Re20  1  0.888306  0.111694  0.250345  1
  Re  Re21  1  0.888306  0.776614  0.250345  1
  Re  Re22  1  0.223386  0.111694  0.250345  1
  Re  Re23  1  0.111612  0.888388  0.752083  1
  Re  Re24  1  0.111612  0.223222  0.752083  1
  Re  Re25  1  0.776778  0.888388  0.752083  1
  W  W26  1  0.000000  0.000000  0.501398  1
  Se  Se27  1  0.666667  0.333333  0.749442  1
