# generated using pymatgen
data_Ca4TmSn3H
_symmetry_space_group_name_H-M   'P 1'
_cell_length_a   9.41690269
_cell_length_b   9.40002889
_cell_length_c   9.41161098
_cell_angle_alpha   129.26957509
_cell_angle_beta   129.22016182
_cell_angle_gamma   74.55928260
_symmetry_Int_Tables_number   1
_chemical_formula_structural   Ca4TmSn3H
_chemical_formula_sum   'Ca8 Tm2 Sn6 H2'
_cell_volume   487.04644623
_cell_formula_units_Z   2
loop_
 _symmetry_equiv_pos_site_id
 _symmetry_equiv_pos_as_xyz
  1  'x, y, z'
loop_
 _atom_site_type_symbol
 _atom_site_label
 _atom_site_symmetry_multiplicity
 _atom_site_fract_x
 _atom_site_fract_y
 _atom_site_fract_z
 _atom_site_occupancy
  Ca  Ca0  1  0.000921  0.998450  0.000865  1
  Ca  Ca1  1  0.185750  0.685294  0.173706  1
  Ca  Ca2  1  0.008134  0.185613  0.498692  1
  Ca  Ca3  1  0.686189  0.508675  0.499245  1
  Ca  Ca4  1  0.490191  0.989367  0.177092  1
  Ca  Ca5  1  0.812158  0.312971  0.821966  1
  Ca  Ca6  1  0.988156  0.812431  0.499152  1
  Ca  Ca7  1  0.313702  0.489187  0.501053  1
  Tm  Tm8  1  0.497595  0.500901  0.000454  1
  Tm  Tm9  1  0.511481  0.014529  0.822779  1
  Sn  Sn10  1  0.260899  0.246726  0.994685  1
  Sn  Sn11  1  0.740194  0.752457  0.995116  1
  Sn  Sn12  1  0.860471  0.370257  0.232481  1
  Sn  Sn13  1  0.132448  0.621664  0.755805  1
  Sn  Sn14  1  0.374005  0.133380  0.513820  1
  Sn  Sn15  1  0.623897  0.864425  0.495375  1
  H  H16  1  0.263702  0.763715  0.515775  1
  H  H17  1  0.750105  0.249957  0.501941  1
