# generated using pymatgen
data_Y4Ho2MgCo17P12
_symmetry_space_group_name_H-M   'P 1'
_cell_length_a   3.71041400
_cell_length_b   10.56018400
_cell_length_c   12.22110000
_cell_angle_alpha   90.00000000
_cell_angle_beta   90.00000000
_cell_angle_gamma   90.00000000
_symmetry_Int_Tables_number   1
_chemical_formula_structural   Y4Ho2MgCo17P12
_chemical_formula_sum   'Y4 Ho2 Mg1 Co17 P12'
_cell_volume   478.85513960
_cell_formula_units_Z   1
loop_
 _symmetry_equiv_pos_site_id
 _symmetry_equiv_pos_as_xyz
  1  'x, y, z'
loop_
 _atom_site_type_symbol
 _atom_site_label
 _atom_site_symmetry_multiplicity
 _atom_site_fract_x
 _atom_site_fract_y
 _atom_site_fract_z
 _atom_site_occupancy
  Y  Y0  1  0.000000  0.500000  0.525394  1
  Y  Y1  1  0.500000  0.000000  0.478445  1
  Y  Y2  1  0.500000  0.821381  0.207060  1
  Y  Y3  1  0.500000  0.178619  0.207060  1
  Ho  Ho4  1  0.000000  0.682305  0.794695  1
  Ho  Ho5  1  0.000000  0.317695  0.794695  1
  Mg  Mg6  1  0.500000  0.500000  0.153445  1
  Co  Co7  1  0.000000  0.000000  0.838738  1
  Co  Co8  1  0.500000  0.500000  0.705048  1
  Co  Co9  1  0.000000  0.000000  0.295893  1
  Co  Co10  1  0.000000  0.500000  0.985697  1
  Co  Co11  1  0.500000  0.000000  0.011295  1
  Co  Co12  1  0.500000  0.329325  0.992550  1
  Co  Co13  1  0.500000  0.670675  0.992550  1
  Co  Co14  1  0.000000  0.163540  0.001180  1
  Co  Co15  1  0.000000  0.836460  0.001180  1
  Co  Co16  1  0.500000  0.295842  0.433394  1
  Co  Co17  1  0.500000  0.704158  0.433394  1
  Co  Co18  1  0.000000  0.202416  0.571030  1
  Co  Co19  1  0.000000  0.797584  0.571030  1
  Co  Co20  1  0.500000  0.879818  0.708930  1
  Co  Co21  1  0.500000  0.120182  0.708930  1
  Co  Co22  1  0.000000  0.622600  0.293420  1
  Co  Co23  1  0.000000  0.377400  0.293420  1
  P  P24  1  0.500000  0.500000  0.883185  1
  P  P25  1  0.000000  0.000000  0.115616  1
  P  P26  1  0.500000  0.500000  0.353597  1
  P  P27  1  0.000000  0.000000  0.655612  1
  P  P28  1  0.500000  0.309594  0.617961  1
  P  P29  1  0.500000  0.690406  0.617961  1
  P  P30  1  0.000000  0.189501  0.386079  1
  P  P31  1  0.000000  0.810499  0.386079  1
  P  P32  1  0.500000  0.849115  0.889797  1
  P  P33  1  0.500000  0.150885  0.889797  1
  P  P34  1  0.000000  0.662645  0.102922  1
  P  P35  1  0.000000  0.337355  0.102922  1
