# generated using pymatgen
data_Lu4Be7BRu10
_symmetry_space_group_name_H-M   'P 1'
_cell_length_a   3.19309400
_cell_length_b   8.87901447
_cell_length_c   10.23863447
_cell_angle_alpha   90.15984092
_cell_angle_beta   90.00000000
_cell_angle_gamma   90.00000000
_symmetry_Int_Tables_number   1
_chemical_formula_structural   Lu4Be7BRu10
_chemical_formula_sum   'Lu4 Be7 B1 Ru10'
_cell_volume   290.27980051
_cell_formula_units_Z   1
loop_
 _symmetry_equiv_pos_site_id
 _symmetry_equiv_pos_as_xyz
  1  'x, y, z'
loop_
 _atom_site_type_symbol
 _atom_site_label
 _atom_site_symmetry_multiplicity
 _atom_site_fract_x
 _atom_site_fract_y
 _atom_site_fract_z
 _atom_site_occupancy
  Lu  Lu0  1  0.500000  0.830310  0.182405  1
  Lu  Lu1  1  0.500000  0.162692  0.816979  1
  Lu  Lu2  1  0.500000  0.667360  0.684925  1
  Lu  Lu3  1  0.500000  0.338132  0.317619  1
  Be  Be4  1  0.500000  0.962320  0.592606  1
  Be  Be5  1  0.500000  0.032746  0.405738  1
  Be  Be6  1  0.500000  0.846678  0.905585  1
  Be  Be7  1  0.500000  0.165637  0.093888  1
  Be  Be8  1  0.500000  0.654394  0.404363  1
  Be  Be9  1  0.500000  0.334709  0.592199  1
  Be  Be10  1  0.500000  0.468812  0.908367  1
  B  B11  1  0.500000  0.535052  0.091581  1
  Ru  Ru12  1  0.000000  0.657039  0.961893  1
  Ru  Ru13  1  0.000000  0.352201  0.047817  1
  Ru  Ru14  1  0.000000  0.839602  0.451792  1
  Ru  Ru15  1  0.000000  0.153374  0.545477  1
  Ru  Ru16  1  0.000000  0.003695  0.005316  1
  Ru  Ru17  1  0.000000  0.410782  0.752096  1
  Ru  Ru18  1  0.000000  0.584814  0.236499  1
  Ru  Ru19  1  0.000000  0.500761  0.504048  1
  Ru  Ru20  1  0.000000  0.910204  0.745953  1
  Ru  Ru21  1  0.000000  0.088685  0.252854  1
