# generated using pymatgen
data_Ce3Zr4NpO16
_symmetry_space_group_name_H-M   'P 1'
_cell_length_a   7.53918303
_cell_length_b   7.53120481
_cell_length_c   5.38038400
_cell_angle_alpha   90.00000000
_cell_angle_beta   90.00000000
_cell_angle_gamma   90.12649274
_symmetry_Int_Tables_number   1
_chemical_formula_structural   Ce3Zr4NpO16
_chemical_formula_sum   'Ce3 Zr4 Np1 O16'
_cell_volume   305.49278613
_cell_formula_units_Z   1
loop_
 _symmetry_equiv_pos_site_id
 _symmetry_equiv_pos_as_xyz
  1  'x, y, z'
loop_
 _atom_site_type_symbol
 _atom_site_label
 _atom_site_symmetry_multiplicity
 _atom_site_fract_x
 _atom_site_fract_y
 _atom_site_fract_z
 _atom_site_occupancy
  Ce  Ce0  1  0.251331  0.738073  0.999772  1
  Ce  Ce1  1  0.000000  0.000000  0.505334  1
  Ce  Ce2  1  0.748669  0.261927  0.999772  1
  Zr  Zr3  1  0.248722  0.243541  0.001416  1
  Zr  Zr4  1  0.500000  0.500000  0.490376  1
  Zr  Zr5  1  0.751278  0.756459  0.001416  1
  Zr  Zr6  1  0.000000  0.500000  0.501153  1
  Np  Np7  1  0.500000  0.000000  0.507938  1
  O  O8  1  0.479933  0.747228  0.291875  1
  O  O9  1  0.252405  0.021112  0.235695  1
  O  O10  1  0.253121  0.986661  0.741152  1
  O  O11  1  0.524345  0.741580  0.777252  1
  O  O12  1  0.520067  0.252772  0.291875  1
  O  O13  1  0.265418  0.475097  0.203852  1
  O  O14  1  0.248773  0.523579  0.682443  1
  O  O15  1  0.475655  0.258420  0.777252  1
  O  O16  1  0.014252  0.733938  0.282817  1
  O  O17  1  0.747595  0.978888  0.235695  1
  O  O18  1  0.746879  0.013339  0.741152  1
  O  O19  1  0.976436  0.741380  0.781326  1
  O  O20  1  0.985748  0.266062  0.282817  1
  O  O21  1  0.734582  0.524903  0.203852  1
  O  O22  1  0.751227  0.476421  0.682443  1
  O  O23  1  0.023564  0.258620  0.781326  1
