# generated using pymatgen
data_Zr6Zn21Cu2N
_symmetry_space_group_name_H-M   'P 1'
_cell_length_a   8.72808646
_cell_length_b   8.72808689
_cell_length_c   8.67015100
_cell_angle_alpha   60.21933328
_cell_angle_beta   60.21933168
_cell_angle_gamma   60.01618327
_symmetry_Int_Tables_number   1
_chemical_formula_structural   Zr6Zn21Cu2N
_chemical_formula_sum   'Zr6 Zn21 Cu2 N1'
_cell_volume   468.63535722
_cell_formula_units_Z   1
loop_
 _symmetry_equiv_pos_site_id
 _symmetry_equiv_pos_as_xyz
  1  'x, y, z'
loop_
 _atom_site_type_symbol
 _atom_site_label
 _atom_site_symmetry_multiplicity
 _atom_site_fract_x
 _atom_site_fract_y
 _atom_site_fract_z
 _atom_site_occupancy
  Zr  Zr0  1  0.687951  0.312049  0.312597  1
  Zr  Zr1  1  0.312049  0.687951  0.687403  1
  Zr  Zr2  1  0.312049  0.687951  0.312597  1
  Zr  Zr3  1  0.687951  0.312049  0.687403  1
  Zr  Zr4  1  0.311888  0.311888  0.688112  1
  Zr  Zr5  1  0.688112  0.688112  0.311888  1
  Zn  Zn6  1  0.115940  0.115940  0.124747  1
  Zn  Zn7  1  0.884060  0.884060  0.875253  1
  Zn  Zn8  1  0.115940  0.115940  0.643377  1
  Zn  Zn9  1  0.116921  0.645816  0.118631  1
  Zn  Zn10  1  0.884060  0.884060  0.356623  1
  Zn  Zn11  1  0.883079  0.354184  0.881369  1
  Zn  Zn12  1  0.645816  0.116921  0.118631  1
  Zn  Zn13  1  0.354184  0.883079  0.881369  1
  Zn  Zn14  1  0.500000  0.000000  0.000000  1
  Zn  Zn15  1  0.000000  0.500000  0.500000  1
  Zn  Zn16  1  0.000000  0.500000  0.000000  1
  Zn  Zn17  1  0.500000  0.000000  0.500000  1
  Zn  Zn18  1  0.500000  0.500000  0.000000  1
  Zn  Zn19  1  0.331028  0.331028  0.330791  1
  Zn  Zn20  1  0.668972  0.668972  0.669209  1
  Zn  Zn21  1  0.331028  0.331028  0.007156  1
  Zn  Zn22  1  0.325902  0.006965  0.333566  1
  Zn  Zn23  1  0.668972  0.668972  0.992844  1
  Zn  Zn24  1  0.674098  0.993035  0.666434  1
  Zn  Zn25  1  0.006965  0.325902  0.333566  1
  Zn  Zn26  1  0.993035  0.674098  0.666434  1
  Cu  Cu27  1  0.000000  0.000000  0.500000  1
  Cu  Cu28  1  0.000000  0.000000  0.000000  1
  N  N29  1  0.500000  0.500000  0.500000  1
