# generated using pymatgen
data_Li8Y7Er(Sn3Bi)2
_symmetry_space_group_name_H-M   'P 1'
_cell_length_a   9.44026290
_cell_length_b   9.43752191
_cell_length_c   7.28709933
_cell_angle_alpha   90.12080967
_cell_angle_beta   89.77469645
_cell_angle_gamma   120.01127445
_symmetry_Int_Tables_number   1
_chemical_formula_structural   Li8Y7Er(Sn3Bi)2
_chemical_formula_sum   'Li8 Y7 Er1 Sn6 Bi2'
_cell_volume   562.17906488
_cell_formula_units_Z   1
loop_
 _symmetry_equiv_pos_site_id
 _symmetry_equiv_pos_as_xyz
  1  'x, y, z'
loop_
 _atom_site_type_symbol
 _atom_site_label
 _atom_site_symmetry_multiplicity
 _atom_site_fract_x
 _atom_site_fract_y
 _atom_site_fract_z
 _atom_site_occupancy
  Li  Li0  1  0.164511  0.828720  0.197269  1
  Li  Li1  1  0.335783  0.171367  0.697573  1
  Li  Li2  1  0.829167  0.663417  0.693151  1
  Li  Li3  1  0.166089  0.336649  0.192896  1
  Li  Li4  1  0.665348  0.831593  0.197388  1
  Li  Li5  1  0.833630  0.168113  0.697705  1
  Li  Li6  1  0.334611  0.663902  0.813450  1
  Li  Li7  1  0.670469  0.336031  0.313324  1
  Y  Y8  1  0.022652  0.507433  0.489264  1
  Y  Y9  1  0.495676  0.975968  0.491329  1
  Y  Y10  1  0.519743  0.023960  0.991488  1
  Y  Y11  1  0.972155  0.482435  0.993051  1
  Y  Y12  1  0.489709  0.517372  0.493089  1
  Y  Y13  1  0.992764  0.000323  0.984920  1
  Y  Y14  1  0.992550  0.999704  0.484928  1
  Er  Er15  1  0.515616  0.492924  0.988909  1
  Sn  Sn16  1  0.832932  0.666798  0.253167  1
  Sn  Sn17  1  0.166903  0.333204  0.754493  1
  Sn  Sn18  1  0.666451  0.833312  0.754239  1
  Sn  Sn19  1  0.832956  0.166150  0.253907  1
  Sn  Sn20  1  0.333886  0.667409  0.224255  1
  Sn  Sn21  1  0.665708  0.332542  0.725754  1
  Bi  Bi22  1  0.167142  0.834018  0.752709  1
  Bi  Bi23  1  0.333551  0.166657  0.251744  1
