# generated using pymatgen
data_Dy3Er2GaSb2
_symmetry_space_group_name_H-M   'P 1'
_cell_length_a   8.81735428
_cell_length_b   8.79987024
_cell_length_c   6.39738000
_cell_angle_alpha   90.00000000
_cell_angle_beta   90.00000000
_cell_angle_gamma   119.93441972
_symmetry_Int_Tables_number   1
_chemical_formula_structural   Dy3Er2GaSb2
_chemical_formula_sum   'Dy6 Er4 Ga2 Sb4'
_cell_volume   430.16389436
_cell_formula_units_Z   2
loop_
 _symmetry_equiv_pos_site_id
 _symmetry_equiv_pos_as_xyz
  1  'x, y, z'
loop_
 _atom_site_type_symbol
 _atom_site_label
 _atom_site_symmetry_multiplicity
 _atom_site_fract_x
 _atom_site_fract_y
 _atom_site_fract_z
 _atom_site_occupancy
  Dy  Dy0  1  0.011311  0.766864  0.750000  1
  Dy  Dy1  1  0.011311  0.244446  0.250000  1
  Dy  Dy2  1  0.752537  0.753318  0.250000  1
  Dy  Dy3  1  0.752537  0.999220  0.750000  1
  Dy  Dy4  1  0.244519  0.233202  0.750000  1
  Dy  Dy5  1  0.244519  0.011317  0.250000  1
  Er  Er6  1  0.335939  0.667970  0.500000  1
  Er  Er7  1  0.653049  0.326525  0.000000  1
  Er  Er8  1  0.653049  0.326525  0.500000  1
  Er  Er9  1  0.335939  0.667970  0.000000  1
  Ga  Ga10  1  0.394706  0.997354  0.750000  1
  Ga  Ga11  1  0.394706  0.397352  0.250000  1
  Sb  Sb12  1  0.998922  0.607124  0.250000  1
  Sb  Sb13  1  0.998922  0.391798  0.750000  1
  Sb  Sb14  1  0.609016  0.607382  0.750000  1
  Sb  Sb15  1  0.609016  0.001634  0.250000  1
