# generated using pymatgen
data_K4TbTlF10
_symmetry_space_group_name_H-M   'P 1'
_cell_length_a   6.68719024
_cell_length_b   7.32971300
_cell_length_c   10.95542100
_cell_angle_alpha   90.00000000
_cell_angle_beta   89.44809295
_cell_angle_gamma   90.00000000
_symmetry_Int_Tables_number   1
_chemical_formula_structural   K4TbTlF10
_chemical_formula_sum   'K8 Tb2 Tl2 F20'
_cell_volume   536.95707735
_cell_formula_units_Z   2
loop_
 _symmetry_equiv_pos_site_id
 _symmetry_equiv_pos_as_xyz
  1  'x, y, z'
loop_
 _atom_site_type_symbol
 _atom_site_label
 _atom_site_symmetry_multiplicity
 _atom_site_fract_x
 _atom_site_fract_y
 _atom_site_fract_z
 _atom_site_occupancy
  K  K0  1  0.537162  0.997232  0.827332  1
  K  K1  1  0.462921  0.497336  0.172734  1
  K  K2  1  0.965497  0.997072  0.331014  1
  K  K3  1  0.034672  0.497063  0.669288  1
  K  K4  1  0.537162  0.502768  0.827332  1
  K  K5  1  0.462921  0.002664  0.172734  1
  K  K6  1  0.965497  0.502928  0.331014  1
  K  K7  1  0.034672  0.002937  0.669288  1
  Tb  Tb8  1  0.934606  0.250000  0.003698  1
  Tb  Tb9  1  0.064831  0.750000  0.996478  1
  Tl  Tl10  1  0.564213  0.250000  0.501078  1
  Tl  Tl11  1  0.436077  0.750000  0.498586  1
  F  F12  1  0.872243  0.750000  0.832112  1
  F  F13  1  0.127249  0.250000  0.167855  1
  F  F14  1  0.625226  0.750000  0.334401  1
  F  F15  1  0.376223  0.250000  0.665831  1
  F  F16  1  0.842766  0.250000  0.809202  1
  F  F17  1  0.156711  0.750000  0.190845  1
  F  F18  1  0.664335  0.250000  0.306934  1
  F  F19  1  0.336294  0.750000  0.693004  1
  F  F20  1  0.652921  0.961768  0.576585  1
  F  F21  1  0.347323  0.461750  0.422921  1
  F  F22  1  0.850374  0.964514  0.075786  1
  F  F23  1  0.148821  0.464598  0.924131  1
  F  F24  1  0.396521  0.750000  0.986508  1
  F  F25  1  0.602888  0.250000  0.013532  1
  F  F26  1  0.104573  0.750000  0.488543  1
  F  F27  1  0.895865  0.250000  0.511812  1
  F  F28  1  0.148821  0.035402  0.924131  1
  F  F29  1  0.850374  0.535486  0.075786  1
  F  F30  1  0.347323  0.038250  0.422921  1
  F  F31  1  0.652921  0.538232  0.576585  1
