# generated using pymatgen
data_Hf12Zn9Cu3C3N
_symmetry_space_group_name_H-M   'P 1'
_cell_length_a   8.52126544
_cell_length_b   8.52126443
_cell_length_c   8.49965255
_cell_angle_alpha   59.91585019
_cell_angle_beta   59.91585758
_cell_angle_gamma   60.00000036
_symmetry_Int_Tables_number   1
_chemical_formula_structural   Hf12Zn9Cu3C3N
_chemical_formula_sum   'Hf12 Zn9 Cu3 C3 N1'
_cell_volume   435.85373820
_cell_formula_units_Z   1
loop_
 _symmetry_equiv_pos_site_id
 _symmetry_equiv_pos_as_xyz
  1  'x, y, z'
loop_
 _atom_site_type_symbol
 _atom_site_label
 _atom_site_symmetry_multiplicity
 _atom_site_fract_x
 _atom_site_fract_y
 _atom_site_fract_z
 _atom_site_occupancy
  Hf  Hf0  1  0.439752  0.439752  0.058746  1
  Hf  Hf1  1  0.061751  0.439752  0.058746  1
  Hf  Hf2  1  0.439752  0.061751  0.058746  1
  Hf  Hf3  1  0.060713  0.060713  0.440189  1
  Hf  Hf4  1  0.438385  0.060713  0.440189  1
  Hf  Hf5  1  0.060713  0.438385  0.440189  1
  Hf  Hf6  1  0.810248  0.810248  0.191254  1
  Hf  Hf7  1  0.188249  0.810248  0.191254  1
  Hf  Hf8  1  0.810248  0.188249  0.191254  1
  Hf  Hf9  1  0.189287  0.189287  0.809811  1
  Hf  Hf10  1  0.811615  0.189287  0.809811  1
  Hf  Hf11  1  0.189287  0.811615  0.809811  1
  Zn  Zn12  1  0.830437  0.830437  0.508687  1
  Zn  Zn13  1  0.833022  0.507210  0.826745  1
  Zn  Zn14  1  0.507210  0.833022  0.826745  1
  Zn  Zn15  1  0.833022  0.833022  0.826745  1
  Zn  Zn16  1  0.419563  0.419563  0.741313  1
  Zn  Zn17  1  0.416978  0.742790  0.423255  1
  Zn  Zn18  1  0.742790  0.416978  0.423255  1
  Zn  Zn19  1  0.416978  0.416978  0.423255  1
  Zn  Zn20  1  0.625000  0.625000  0.125000  1
  Cu  Cu21  1  0.625000  0.125000  0.625000  1
  Cu  Cu22  1  0.125000  0.625000  0.625000  1
  Cu  Cu23  1  0.625000  0.625000  0.625000  1
  C  C24  1  0.125000  0.625000  0.125000  1
  C  C25  1  0.625000  0.125000  0.125000  1
  C  C26  1  0.125000  0.125000  0.125000  1
  N  N27  1  0.125000  0.125000  0.625000  1
