# generated using pymatgen
data_PrNd10In(Hg2Ir)4
_symmetry_space_group_name_H-M   'P 1'
_cell_length_a   13.37355053
_cell_length_b   13.37354931
_cell_length_c   3.88495300
_cell_angle_alpha   90.00000000
_cell_angle_beta   90.00000000
_cell_angle_gamma   114.38195971
_symmetry_Int_Tables_number   1
_chemical_formula_structural   PrNd10In(Hg2Ir)4
_chemical_formula_sum   'Pr1 Nd10 In1 Hg8 Ir4'
_cell_volume   632.86156858
_cell_formula_units_Z   1
loop_
 _symmetry_equiv_pos_site_id
 _symmetry_equiv_pos_as_xyz
  1  'x, y, z'
loop_
 _atom_site_type_symbol
 _atom_site_label
 _atom_site_symmetry_multiplicity
 _atom_site_fract_x
 _atom_site_fract_y
 _atom_site_fract_z
 _atom_site_occupancy
  Pr  Pr0  1  0.666777  0.333223  0.500000  1
  Nd  Nd1  1  0.499951  0.500049  0.500000  1
  Nd  Nd2  1  0.797106  0.797093  0.500000  1
  Nd  Nd3  1  0.202907  0.202894  0.500000  1
  Nd  Nd4  1  0.586895  0.918844  0.500000  1
  Nd  Nd5  1  0.413011  0.081065  0.500000  1
  Nd  Nd6  1  0.918935  0.586989  0.500000  1
  Nd  Nd7  1  0.081156  0.413105  0.500000  1
  Nd  Nd8  1  0.129626  0.870374  0.500000  1
  Nd  Nd9  1  0.870411  0.129589  0.500000  1
  Nd  Nd10  1  0.333128  0.666872  0.500000  1
  In  In11  1  0.000003  0.999997  0.000000  1
  Hg  Hg12  1  0.350038  0.867225  0.000000  1
  Hg  Hg13  1  0.649970  0.132425  0.000000  1
  Hg  Hg14  1  0.867575  0.350030  0.000000  1
  Hg  Hg15  1  0.132775  0.649962  0.000000  1
  Hg  Hg16  1  0.558500  0.711017  0.000000  1
  Hg  Hg17  1  0.441227  0.288938  0.000000  1
  Hg  Hg18  1  0.711062  0.558773  0.000000  1
  Hg  Hg19  1  0.288983  0.441500  0.000000  1
  Ir  Ir20  1  0.758839  0.949136  0.000000  1
  Ir  Ir21  1  0.241136  0.050874  0.000000  1
  Ir  Ir22  1  0.949126  0.758864  0.000000  1
  Ir  Ir23  1  0.050864  0.241161  0.000000  1
