# generated using pymatgen
data_Tm5ThRh18
_symmetry_space_group_name_H-M   'P 1'
_cell_length_a   5.25360300
_cell_length_b   5.25360168
_cell_length_c   17.55421700
_cell_angle_alpha   90.00000000
_cell_angle_beta   90.00000000
_cell_angle_gamma   119.99998943
_symmetry_Int_Tables_number   1
_chemical_formula_structural   Tm5ThRh18
_chemical_formula_sum   'Tm5 Th1 Rh18'
_cell_volume   419.59135722
_cell_formula_units_Z   1
loop_
 _symmetry_equiv_pos_site_id
 _symmetry_equiv_pos_as_xyz
  1  'x, y, z'
loop_
 _atom_site_type_symbol
 _atom_site_label
 _atom_site_symmetry_multiplicity
 _atom_site_fract_x
 _atom_site_fract_y
 _atom_site_fract_z
 _atom_site_occupancy
  Tm  Tm0  1  0.333333  0.666667  0.543103  1
  Tm  Tm1  1  0.666667  0.333333  0.038891  1
  Tm  Tm2  1  0.666667  0.333333  0.461109  1
  Tm  Tm3  1  0.333333  0.666667  0.956897  1
  Tm  Tm4  1  0.333333  0.666667  0.750000  1
  Th  Th5  1  0.666667  0.333333  0.250000  1
  Rh  Rh6  1  0.167526  0.335052  0.123560  1
  Rh  Rh7  1  0.832513  0.665027  0.625688  1
  Rh  Rh8  1  0.664948  0.832474  0.123560  1
  Rh  Rh9  1  0.167526  0.832474  0.123560  1
  Rh  Rh10  1  0.832513  0.167487  0.625688  1
  Rh  Rh11  1  0.334973  0.167487  0.625688  1
  Rh  Rh12  1  0.832513  0.665027  0.874312  1
  Rh  Rh13  1  0.832513  0.167487  0.874312  1
  Rh  Rh14  1  0.334973  0.167487  0.874312  1
  Rh  Rh15  1  0.664948  0.832474  0.376440  1
  Rh  Rh16  1  0.167526  0.832474  0.376440  1
  Rh  Rh17  1  0.167526  0.335052  0.376440  1
  Rh  Rh18  1  0.000000  0.000000  0.250000  1
  Rh  Rh19  1  0.000000  0.000000  0.750000  1
  Rh  Rh20  1  0.333333  0.666667  0.250000  1
  Rh  Rh21  1  0.666667  0.333333  0.750000  1
  Rh  Rh22  1  0.000000  0.000000  0.999313  1
  Rh  Rh23  1  0.000000  0.000000  0.500687  1
