# generated using pymatgen
data_Ta3Si16Pt12W
_symmetry_space_group_name_H-M   'P 1'
_cell_length_a   3.58900100
_cell_length_b   5.56615008
_cell_length_c   24.67081999
_cell_angle_alpha   89.93174256
_cell_angle_beta   90.00000000
_cell_angle_gamma   90.00000000
_symmetry_Int_Tables_number   1
_chemical_formula_structural   Ta3Si16Pt12W
_chemical_formula_sum   'Ta3 Si16 Pt12 W1'
_cell_volume   492.84660311
_cell_formula_units_Z   1
loop_
 _symmetry_equiv_pos_site_id
 _symmetry_equiv_pos_as_xyz
  1  'x, y, z'
loop_
 _atom_site_type_symbol
 _atom_site_label
 _atom_site_symmetry_multiplicity
 _atom_site_fract_x
 _atom_site_fract_y
 _atom_site_fract_z
 _atom_site_occupancy
  Ta  Ta0  1  0.750000  0.996682  0.210728  1
  Ta  Ta1  1  0.250000  0.002736  0.788170  1
  Ta  Ta2  1  0.750000  0.497192  0.289488  1
  Si  Si3  1  0.250000  0.178599  0.520635  1
  Si  Si4  1  0.750000  0.319197  0.020016  1
  Si  Si5  1  0.250000  0.679965  0.979270  1
  Si  Si6  1  0.750000  0.818511  0.480254  1
  Si  Si7  1  0.750000  0.317635  0.646291  1
  Si  Si8  1  0.250000  0.182587  0.144518  1
  Si  Si9  1  0.750000  0.821717  0.854946  1
  Si  Si10  1  0.250000  0.682828  0.355633  1
  Si  Si11  1  0.250000  0.659832  0.609244  1
  Si  Si12  1  0.750000  0.842863  0.108203  1
  Si  Si13  1  0.250000  0.158363  0.890967  1
  Si  Si14  1  0.750000  0.342613  0.392104  1
  Si  Si15  1  0.750000  0.827147  0.723894  1
  Si  Si16  1  0.250000  0.664241  0.224017  1
  Si  Si17  1  0.750000  0.336990  0.774388  1
  Si  Si18  1  0.250000  0.164834  0.275841  1
  Pt  Pt19  1  0.750000  0.003679  0.573926  1
  Pt  Pt20  1  0.250000  0.497798  0.072499  1
  Pt  Pt21  1  0.750000  0.502941  0.926004  1
  Pt  Pt22  1  0.250000  0.997943  0.427410  1
  Pt  Pt23  1  0.250000  0.004485  0.668450  1
  Pt  Pt24  1  0.750000  0.494702  0.167495  1
  Pt  Pt25  1  0.250000  0.504456  0.830671  1
  Pt  Pt26  1  0.750000  0.995059  0.332571  1
  Pt  Pt27  1  0.750000  0.504921  0.549629  1
  Pt  Pt28  1  0.250000  0.995793  0.047207  1
  Pt  Pt29  1  0.750000  0.004528  0.951891  1
  Pt  Pt30  1  0.250000  0.496163  0.453573  1
  W  W31  1  0.250000  0.503003  0.710060  1
