# generated using pymatgen
data_LaTh4P12Ru19
_symmetry_space_group_name_H-M   'P 1'
_cell_length_a   12.68449537
_cell_length_b   12.67918362
_cell_length_c   4.02527800
_cell_angle_alpha   90.00000000
_cell_angle_beta   90.00000000
_cell_angle_gamma   119.98614738
_symmetry_Int_Tables_number   1
_chemical_formula_structural   LaTh4P12Ru19
_chemical_formula_sum   'La1 Th4 P12 Ru19'
_cell_volume   560.72717256
_cell_formula_units_Z   1
loop_
 _symmetry_equiv_pos_site_id
 _symmetry_equiv_pos_as_xyz
  1  'x, y, z'
loop_
 _atom_site_type_symbol
 _atom_site_label
 _atom_site_symmetry_multiplicity
 _atom_site_fract_x
 _atom_site_fract_y
 _atom_site_fract_z
 _atom_site_occupancy
  La  La0  1  0.000000  0.812789  0.500000  1
  Th  Th1  1  0.186293  0.186175  0.500000  1
  Th  Th2  1  0.813707  0.999882  0.500000  1
  Th  Th3  1  0.333556  0.666745  0.000000  1
  Th  Th4  1  0.666444  0.333187  0.000000  1
  P  P5  1  0.812409  0.811949  0.000000  1
  P  P6  1  0.187591  0.999540  0.000000  1
  P  P7  1  0.000000  0.187383  0.000000  1
  P  P8  1  0.170834  0.475529  0.500000  1
  P  P9  1  0.524365  0.695369  0.500000  1
  P  P10  1  0.303715  0.828602  0.500000  1
  P  P11  1  0.696285  0.524888  0.500000  1
  P  P12  1  0.829166  0.304696  0.500000  1
  P  P13  1  0.475635  0.171006  0.500000  1
  P  P14  1  0.374871  0.374989  0.000000  1
  P  P15  1  0.625129  0.000117  0.000000  1
  P  P16  1  0.000000  0.624490  0.000000  1
  Ru  Ru17  1  0.553694  0.555168  0.000000  1
  Ru  Ru18  1  0.446306  0.001474  0.000000  1
  Ru  Ru19  1  0.000000  0.444730  0.000000  1
  Ru  Ru20  1  0.714723  0.715862  0.500000  1
  Ru  Ru21  1  0.285277  0.001139  0.500000  1
  Ru  Ru22  1  0.000000  0.284236  0.500000  1
  Ru  Ru23  1  0.183856  0.376720  0.000000  1
  Ru  Ru24  1  0.623109  0.807568  0.000000  1
  Ru  Ru25  1  0.195761  0.815886  0.000000  1
  Ru  Ru26  1  0.804239  0.620126  0.000000  1
  Ru  Ru27  1  0.816144  0.192865  0.000000  1
  Ru  Ru28  1  0.376891  0.184459  0.000000  1
  Ru  Ru29  1  0.366700  0.493144  0.500000  1
  Ru  Ru30  1  0.506396  0.874167  0.500000  1
  Ru  Ru31  1  0.125904  0.632091  0.500000  1
  Ru  Ru32  1  0.874096  0.506186  0.500000  1
  Ru  Ru33  1  0.633300  0.126443  0.500000  1
  Ru  Ru34  1  0.493604  0.367769  0.500000  1
  Ru  Ru35  1  0.000000  0.002629  0.000000  1
