# generated using pymatgen
data_Sc4C2SBr
_symmetry_space_group_name_H-M   'P 1'
_cell_length_a   3.44169500
_cell_length_b   3.44158090
_cell_length_c   12.48443400
_cell_angle_alpha   90.00000000
_cell_angle_beta   90.00000000
_cell_angle_gamma   120.00054888
_symmetry_Int_Tables_number   1
_chemical_formula_structural   Sc4C2SBr
_chemical_formula_sum   'Sc4 C2 S1 Br1'
_cell_volume   128.06411440
_cell_formula_units_Z   1
loop_
 _symmetry_equiv_pos_site_id
 _symmetry_equiv_pos_as_xyz
  1  'x, y, z'
loop_
 _atom_site_type_symbol
 _atom_site_label
 _atom_site_symmetry_multiplicity
 _atom_site_fract_x
 _atom_site_fract_y
 _atom_site_fract_z
 _atom_site_occupancy
  Sc  Sc0  1  0.333338  0.666668  0.078713  1
  Sc  Sc1  1  0.666661  0.333329  0.611085  1
  Sc  Sc2  1  0.666661  0.333329  0.888915  1
  Sc  Sc3  1  0.333338  0.666668  0.421287  1
  C  C4  1  0.999997  0.999995  0.993260  1
  C  C5  1  0.999997  0.999995  0.506740  1
  S  S6  1  0.333317  0.666647  0.750000  1
  Br  Br7  1  0.666691  0.333366  0.250000  1
