# generated using pymatgen
data_Pu3Pa(NiAs)4
_symmetry_space_group_name_H-M   'P 1'
_cell_length_a   4.11439400
_cell_length_b   4.11439337
_cell_length_c   15.43810700
_cell_angle_alpha   90.00000000
_cell_angle_beta   90.00000000
_cell_angle_gamma   120.00000505
_symmetry_Int_Tables_number   1
_chemical_formula_structural   Pu3Pa(NiAs)4
_chemical_formula_sum   'Pu3 Pa1 Ni4 As4'
_cell_volume   226.32698911
_cell_formula_units_Z   1
loop_
 _symmetry_equiv_pos_site_id
 _symmetry_equiv_pos_as_xyz
  1  'x, y, z'
loop_
 _atom_site_type_symbol
 _atom_site_label
 _atom_site_symmetry_multiplicity
 _atom_site_fract_x
 _atom_site_fract_y
 _atom_site_fract_z
 _atom_site_occupancy
  Pu  Pu0  1  0.000000  0.000000  0.750000  1
  Pu  Pu1  1  0.000000  0.000000  0.001037  1
  Pu  Pu2  1  0.000000  0.000000  0.498963  1
  Pa  Pa3  1  0.000000  0.000000  0.250000  1
  Ni  Ni4  1  0.333333  0.666667  0.158933  1
  Ni  Ni5  1  0.666667  0.333333  0.877055  1
  Ni  Ni6  1  0.666667  0.333333  0.622945  1
  Ni  Ni7  1  0.333333  0.666667  0.341067  1
  As  As8  1  0.333333  0.666667  0.622572  1
  As  As9  1  0.666667  0.333333  0.380692  1
  As  As10  1  0.666667  0.333333  0.119308  1
  As  As11  1  0.333333  0.666667  0.877428  1
