# generated using pymatgen
data_TbSm3(MgRh)4
_symmetry_space_group_name_H-M   'P 1'
_cell_length_a   4.17110800
_cell_length_b   7.20125300
_cell_length_c   8.59176805
_cell_angle_alpha   89.93970040
_cell_angle_beta   90.00000000
_cell_angle_gamma   90.00000000
_symmetry_Int_Tables_number   1
_chemical_formula_structural   TbSm3(MgRh)4
_chemical_formula_sum   'Tb1 Sm3 Mg4 Rh4'
_cell_volume   258.07254695
_cell_formula_units_Z   1
loop_
 _symmetry_equiv_pos_site_id
 _symmetry_equiv_pos_as_xyz
  1  'x, y, z'
loop_
 _atom_site_type_symbol
 _atom_site_label
 _atom_site_symmetry_multiplicity
 _atom_site_fract_x
 _atom_site_fract_y
 _atom_site_fract_z
 _atom_site_occupancy
  Tb  Tb0  1  0.750000  0.962244  0.677560  1
  Sm  Sm1  1  0.250000  0.537101  0.178291  1
  Sm  Sm2  1  0.750000  0.462852  0.820902  1
  Sm  Sm3  1  0.250000  0.036994  0.323355  1
  Mg  Mg4  1  0.250000  0.134340  0.938847  1
  Mg  Mg5  1  0.750000  0.865323  0.059234  1
  Mg  Mg6  1  0.250000  0.636122  0.560855  1
  Mg  Mg7  1  0.750000  0.364059  0.441056  1
  Rh  Rh8  1  0.750000  0.749392  0.376295  1
  Rh  Rh9  1  0.250000  0.247779  0.626102  1
  Rh  Rh10  1  0.750000  0.249403  0.125261  1
  Rh  Rh11  1  0.250000  0.754391  0.872244  1
