# generated using pymatgen
data_Lu8Nb7Si16W5
_symmetry_space_group_name_H-M   'P 1'
_cell_length_a   6.70782498
_cell_length_b   6.96109601
_cell_length_c   13.18030908
_cell_angle_alpha   89.94816082
_cell_angle_beta   90.02648945
_cell_angle_gamma   89.92185479
_symmetry_Int_Tables_number   1
_chemical_formula_structural   Lu8Nb7Si16W5
_chemical_formula_sum   'Lu8 Nb7 Si16 W5'
_cell_volume   615.43800655
_cell_formula_units_Z   1
loop_
 _symmetry_equiv_pos_site_id
 _symmetry_equiv_pos_as_xyz
  1  'x, y, z'
loop_
 _atom_site_type_symbol
 _atom_site_label
 _atom_site_symmetry_multiplicity
 _atom_site_fract_x
 _atom_site_fract_y
 _atom_site_fract_z
 _atom_site_occupancy
  Lu  Lu0  1  0.500701  0.671946  0.593450  1
  Lu  Lu1  1  0.000797  0.827683  0.905431  1
  Lu  Lu2  1  0.498971  0.327124  0.094332  1
  Lu  Lu3  1  0.999029  0.173157  0.407113  1
  Lu  Lu4  1  0.499640  0.326597  0.406088  1
  Lu  Lu5  1  0.998660  0.172767  0.094102  1
  Lu  Lu6  1  0.500763  0.672464  0.905462  1
  Lu  Lu7  1  0.000962  0.826942  0.593781  1
  Nb  Nb8  1  0.667593  0.168796  0.625002  1
  Nb  Nb9  1  0.168645  0.331850  0.873213  1
  Nb  Nb10  1  0.331528  0.831089  0.125994  1
  Nb  Nb11  1  0.832552  0.666342  0.375284  1
  Nb  Nb12  1  0.330272  0.831429  0.376042  1
  Nb  Nb13  1  0.831194  0.668085  0.125717  1
  Nb  Nb14  1  0.668747  0.169643  0.873332  1
  Si  Si15  1  0.665093  0.961555  0.457112  1
  Si  Si16  1  0.165121  0.537840  0.042377  1
  Si  Si17  1  0.335031  0.037818  0.956991  1
  Si  Si18  1  0.839316  0.461374  0.544281  1
  Si  Si19  1  0.332110  0.041729  0.543920  1
  Si  Si20  1  0.834659  0.462321  0.957360  1
  Si  Si21  1  0.665091  0.962492  0.042141  1
  Si  Si22  1  0.166486  0.537188  0.459822  1
  Si  Si23  1  0.465951  0.380695  0.748635  1
  Si  Si24  1  0.969777  0.120857  0.748060  1
  Si  Si25  1  0.532146  0.618713  0.250800  1
  Si  Si26  1  0.031695  0.881075  0.250712  1
  Si  Si27  1  0.703000  0.862636  0.749309  1
  Si  Si28  1  0.202395  0.636909  0.749405  1
  Si  Si29  1  0.296021  0.137561  0.250288  1
  Si  Si30  1  0.796729  0.361250  0.250156  1
  W  W31  1  0.169884  0.333622  0.625766  1
  W  W32  1  0.840067  0.494598  0.748934  1
  W  W33  1  0.339374  0.005088  0.748551  1
  W  W34  1  0.160225  0.504451  0.250797  1
  W  W35  1  0.659774  0.994315  0.250237  1
