# generated using pymatgen
data_Rb2PrU(AuSe3)2
_symmetry_space_group_name_H-M   'P 1'
_cell_length_a   4.24433800
_cell_length_b   8.07687393
_cell_length_c   10.90662389
_cell_angle_alpha   89.59737828
_cell_angle_beta   90.00000000
_cell_angle_gamma   74.76691761
_symmetry_Int_Tables_number   1
_chemical_formula_structural   Rb2PrU(AuSe3)2
_chemical_formula_sum   'Rb2 Pr1 U1 Au2 Se6'
_cell_volume   360.74358243
_cell_formula_units_Z   1
loop_
 _symmetry_equiv_pos_site_id
 _symmetry_equiv_pos_as_xyz
  1  'x, y, z'
loop_
 _atom_site_type_symbol
 _atom_site_label
 _atom_site_symmetry_multiplicity
 _atom_site_fract_x
 _atom_site_fract_y
 _atom_site_fract_z
 _atom_site_occupancy
  Rb  Rb0  1  0.251475  0.497049  0.241942  1
  Rb  Rb1  1  0.748525  0.502950  0.758059  1
  Pr  Pr2  1  0.000000  0.000000  0.000000  1
  U  U3  1  0.000000  0.000000  0.500000  1
  Au  Au4  1  0.543829  0.912341  0.248692  1
  Au  Au5  1  0.456171  0.087658  0.751308  1
  Se  Se6  1  0.630705  0.738589  0.051125  1
  Se  Se7  1  0.934790  0.130420  0.266225  1
  Se  Se8  1  0.618815  0.762370  0.461566  1
  Se  Se9  1  0.381185  0.237629  0.538434  1
  Se  Se10  1  0.065210  0.869581  0.733775  1
  Se  Se11  1  0.369295  0.261411  0.948875  1
