# generated using pymatgen
data_Y4Al18(OsPt)3
_symmetry_space_group_name_H-M   'P 1'
_cell_length_a   7.58547176
_cell_length_b   7.58547247
_cell_length_c   9.52931649
_cell_angle_alpha   89.95815906
_cell_angle_beta   89.95815127
_cell_angle_gamma   119.26284963
_symmetry_Int_Tables_number   1
_chemical_formula_structural   Y4Al18(OsPt)3
_chemical_formula_sum   'Y4 Al18 Os3 Pt3'
_cell_volume   478.33858881
_cell_formula_units_Z   1
loop_
 _symmetry_equiv_pos_site_id
 _symmetry_equiv_pos_as_xyz
  1  'x, y, z'
loop_
 _atom_site_type_symbol
 _atom_site_label
 _atom_site_symmetry_multiplicity
 _atom_site_fract_x
 _atom_site_fract_y
 _atom_site_fract_z
 _atom_site_occupancy
  Y  Y0  1  0.993169  0.672893  0.251520  1
  Y  Y1  1  0.006422  0.326788  0.748545  1
  Y  Y2  1  0.673212  0.993578  0.251455  1
  Y  Y3  1  0.327107  0.006831  0.748481  1
  Al  Al4  1  0.126622  0.127980  0.250092  1
  Al  Al5  1  0.872020  0.873377  0.749907  1
  Al  Al6  1  0.000589  0.331880  0.074569  1
  Al  Al7  1  0.998401  0.669545  0.924385  1
  Al  Al8  1  0.994318  0.663195  0.573185  1
  Al  Al9  1  0.336805  0.005682  0.426816  1
  Al  Al10  1  0.997236  0.330904  0.426573  1
  Al  Al11  1  0.669096  0.002764  0.573427  1
  Al  Al12  1  0.668120  0.999411  0.925431  1
  Al  Al13  1  0.330455  0.001599  0.075615  1
  Al  Al14  1  0.333743  0.327751  0.547913  1
  Al  Al15  1  0.672249  0.666258  0.452087  1
  Al  Al16  1  0.670520  0.671137  0.053304  1
  Al  Al17  1  0.328863  0.329480  0.946696  1
  Al  Al18  1  0.340087  0.545537  0.250177  1
  Al  Al19  1  0.658724  0.451356  0.746758  1
  Al  Al20  1  0.548644  0.341277  0.253242  1
  Al  Al21  1  0.454463  0.659913  0.749823  1
  Os  Os22  1  0.671972  0.328029  0.500000  1
  Os  Os23  1  0.999417  0.000583  0.000000  1
  Os  Os24  1  0.000544  0.999456  0.500000  1
  Pt  Pt25  1  0.671450  0.328550  0.000000  1
  Pt  Pt26  1  0.327458  0.672542  0.000000  1
  Pt  Pt27  1  0.328296  0.671704  0.500000  1
