# generated using pymatgen
data_Hf3U(SiRh5)2
_symmetry_space_group_name_H-M   'P 1'
_cell_length_a   4.04337000
_cell_length_b   5.62430245
_cell_length_c   10.91372277
_cell_angle_alpha   89.64780099
_cell_angle_beta   90.00000000
_cell_angle_gamma   90.00000000
_symmetry_Int_Tables_number   1
_chemical_formula_structural   Hf3U(SiRh5)2
_chemical_formula_sum   'Hf3 U1 Si2 Rh10'
_cell_volume   248.18576256
_cell_formula_units_Z   1
loop_
 _symmetry_equiv_pos_site_id
 _symmetry_equiv_pos_as_xyz
  1  'x, y, z'
loop_
 _atom_site_type_symbol
 _atom_site_label
 _atom_site_symmetry_multiplicity
 _atom_site_fract_x
 _atom_site_fract_y
 _atom_site_fract_z
 _atom_site_occupancy
  Hf  Hf0  1  0.500000  0.820981  0.352944  1
  Hf  Hf1  1  0.500000  0.676362  0.864623  1
  Hf  Hf2  1  0.500000  0.322635  0.140924  1
  U  U3  1  0.500000  0.178997  0.641140  1
  Si  Si4  1  0.000000  0.515726  0.492448  1
  Si  Si5  1  0.000000  0.000187  0.004427  1
  Rh  Rh6  1  0.500000  0.178420  0.897017  1
  Rh  Rh7  1  0.500000  0.817118  0.103557  1
  Rh  Rh8  1  0.500000  0.684235  0.602662  1
  Rh  Rh9  1  0.500000  0.310873  0.398524  1
  Rh  Rh10  1  0.000000  0.428519  0.740179  1
  Rh  Rh11  1  0.000000  0.568586  0.260730  1
  Rh  Rh12  1  0.000000  0.994264  0.499817  1
  Rh  Rh13  1  0.000000  0.500326  0.000883  1
  Rh  Rh14  1  0.000000  0.070199  0.239151  1
  Rh  Rh15  1  0.000000  0.932572  0.760975  1
