# generated using pymatgen
data_La7PaHgIr6
_symmetry_space_group_name_H-M   'P 1'
_cell_length_a   7.80684856
_cell_length_b   7.80684804
_cell_length_c   7.80684884
_cell_angle_alpha   68.67242877
_cell_angle_beta   68.67242902
_cell_angle_gamma   68.67242232
_symmetry_Int_Tables_number   1
_chemical_formula_structural   La7PaHgIr6
_chemical_formula_sum   'La7 Pa1 Hg1 Ir6'
_cell_volume   397.91088716
_cell_formula_units_Z   1
loop_
 _symmetry_equiv_pos_site_id
 _symmetry_equiv_pos_as_xyz
  1  'x, y, z'
loop_
 _atom_site_type_symbol
 _atom_site_label
 _atom_site_symmetry_multiplicity
 _atom_site_fract_x
 _atom_site_fract_y
 _atom_site_fract_z
 _atom_site_occupancy
  La  La0  1  0.186533  0.186533  0.186533  1
  La  La1  1  0.136077  0.381870  0.687865  1
  La  La2  1  0.687865  0.136077  0.381870  1
  La  La3  1  0.381870  0.687865  0.136077  1
  La  La4  1  0.862139  0.616047  0.316657  1
  La  La5  1  0.316657  0.862139  0.616047  1
  La  La6  1  0.616047  0.316657  0.862139  1
  Pa  Pa7  1  0.817370  0.817370  0.817370  1
  Hg  Hg8  1  0.999699  0.999699  0.999699  1
  Ir  Ir9  1  0.943322  0.173265  0.578553  1
  Ir  Ir10  1  0.578553  0.943322  0.173265  1
  Ir  Ir11  1  0.173265  0.578553  0.943322  1
  Ir  Ir12  1  0.032632  0.804556  0.463415  1
  Ir  Ir13  1  0.463415  0.032632  0.804556  1
  Ir  Ir14  1  0.804556  0.463415  0.032632  1
