# generated using pymatgen
data_TbY11AlCo4Sn
_symmetry_space_group_name_H-M   'P 1'
_cell_length_a   8.36495475
_cell_length_b   8.36687611
_cell_length_c   8.36495533
_cell_angle_alpha   111.89139054
_cell_angle_beta   109.36303116
_cell_angle_gamma   107.18426413
_symmetry_Int_Tables_number   1
_chemical_formula_structural   TbY11AlCo4Sn
_chemical_formula_sum   'Tb1 Y11 Al1 Co4 Sn1'
_cell_volume   449.96914466
_cell_formula_units_Z   1
loop_
 _symmetry_equiv_pos_site_id
 _symmetry_equiv_pos_as_xyz
  1  'x, y, z'
loop_
 _atom_site_type_symbol
 _atom_site_label
 _atom_site_symmetry_multiplicity
 _atom_site_fract_x
 _atom_site_fract_y
 _atom_site_fract_z
 _atom_site_occupancy
  Tb  Tb0  1  0.676400  0.989497  0.313097  1
  Y  Y1  1  0.434864  0.233321  0.201670  1
  Y  Y2  1  0.565089  0.766782  0.798365  1
  Y  Y3  1  0.031651  0.233321  0.798457  1
  Y  Y4  1  0.968417  0.766782  0.201693  1
  Y  Y5  1  0.181308  0.282258  0.463479  1
  Y  Y6  1  0.818687  0.717752  0.536487  1
  Y  Y7  1  0.181264  0.717752  0.899066  1
  Y  Y8  1  0.818780  0.282258  0.100950  1
  Y  Y9  1  0.323825  0.636413  0.312588  1
  Y  Y10  1  0.676337  0.363907  0.687570  1
  Y  Y11  1  0.323749  0.011108  0.687359  1
  Al  Al12  1  0.000029  0.999967  0.999938  1
  Co  Co13  1  0.336277  0.999894  0.336157  1
  Co  Co14  1  0.663737  0.999894  0.663617  1
  Co  Co15  1  0.112950  0.612921  0.499971  1
  Co  Co16  1  0.886756  0.386435  0.499679  1
  Sn  Sn17  1  0.499879  0.499738  0.999858  1
