# generated using pymatgen
data_Lu3Al8(SiRu)4
_symmetry_space_group_name_H-M   'P 1'
_cell_length_a   8.62515202
_cell_length_b   8.62515066
_cell_length_c   9.35489100
_cell_angle_alpha   90.00000000
_cell_angle_beta   90.00000000
_cell_angle_gamma   120.09587614
_symmetry_Int_Tables_number   1
_chemical_formula_structural   Lu3Al8(SiRu)4
_chemical_formula_sum   'Lu6 Al16 Si8 Ru8'
_cell_volume   602.11912683
_cell_formula_units_Z   2
loop_
 _symmetry_equiv_pos_site_id
 _symmetry_equiv_pos_as_xyz
  1  'x, y, z'
loop_
 _atom_site_type_symbol
 _atom_site_label
 _atom_site_symmetry_multiplicity
 _atom_site_fract_x
 _atom_site_fract_y
 _atom_site_fract_z
 _atom_site_occupancy
  Lu  Lu0  1  0.192997  0.390712  0.250000  1
  Lu  Lu1  1  0.807003  0.609288  0.750000  1
  Lu  Lu2  1  0.609288  0.807003  0.250000  1
  Lu  Lu3  1  0.390712  0.192997  0.750000  1
  Lu  Lu4  1  0.196246  0.803754  0.250000  1
  Lu  Lu5  1  0.803754  0.196246  0.750000  1
  Al  Al6  1  0.164624  0.328157  0.580333  1
  Al  Al7  1  0.835376  0.671843  0.419667  1
  Al  Al8  1  0.671843  0.835376  0.580333  1
  Al  Al9  1  0.835376  0.671843  0.080333  1
  Al  Al10  1  0.328157  0.164624  0.419667  1
  Al  Al11  1  0.164624  0.328157  0.919667  1
  Al  Al12  1  0.164245  0.835755  0.580054  1
  Al  Al13  1  0.328157  0.164624  0.080333  1
  Al  Al14  1  0.835755  0.164245  0.419946  1
  Al  Al15  1  0.671843  0.835376  0.919667  1
  Al  Al16  1  0.835755  0.164245  0.080054  1
  Al  Al17  1  0.164245  0.835755  0.919946  1
  Al  Al18  1  0.563962  0.436038  0.250000  1
  Al  Al19  1  0.436038  0.563962  0.750000  1
  Al  Al20  1  0.000306  0.999694  0.250000  1
  Al  Al21  1  0.999694  0.000306  0.750000  1
  Si  Si22  1  0.335049  0.664951  0.040250  1
  Si  Si23  1  0.664951  0.335049  0.959750  1
  Si  Si24  1  0.664951  0.335049  0.540250  1
  Si  Si25  1  0.335049  0.664951  0.459750  1
  Si  Si26  1  0.562846  0.122246  0.250000  1
  Si  Si27  1  0.437154  0.877754  0.750000  1
  Si  Si28  1  0.877754  0.437154  0.250000  1
  Si  Si29  1  0.122246  0.562846  0.750000  1
  Ru  Ru30  1  0.500000  0.000000  0.000000  1
  Ru  Ru31  1  0.000000  0.500000  0.000000  1
  Ru  Ru32  1  0.500000  0.000000  0.500000  1
  Ru  Ru33  1  0.500000  0.500000  0.000000  1
  Ru  Ru34  1  0.000000  0.500000  0.500000  1
  Ru  Ru35  1  0.500000  0.500000  0.500000  1
  Ru  Ru36  1  0.000000  0.000000  0.000000  1
  Ru  Ru37  1  0.000000  0.000000  0.500000  1
