# generated using pymatgen
data_LaCo3(Ni3B2)3
_symmetry_space_group_name_H-M   'P 1'
_cell_length_a   6.02845699
_cell_length_b   6.02845576
_cell_length_c   6.02845657
_cell_angle_alpha   104.47496077
_cell_angle_beta   104.47495842
_cell_angle_gamma   104.47495321
_symmetry_Int_Tables_number   1
_chemical_formula_structural   LaCo3(Ni3B2)3
_chemical_formula_sum   'La1 Co3 Ni9 B6'
_cell_volume   193.65820048
_cell_formula_units_Z   1
loop_
 _symmetry_equiv_pos_site_id
 _symmetry_equiv_pos_as_xyz
  1  'x, y, z'
loop_
 _atom_site_type_symbol
 _atom_site_label
 _atom_site_symmetry_multiplicity
 _atom_site_fract_x
 _atom_site_fract_y
 _atom_site_fract_z
 _atom_site_occupancy
  La  La0  1  0.000000  0.000000  0.000000  1
  Co  Co1  1  0.500000  0.865506  0.134494  1
  Co  Co2  1  0.134494  0.500000  0.865506  1
  Co  Co3  1  0.865506  0.134494  0.500000  1
  Ni  Ni4  1  0.542401  0.812574  0.544579  1
  Ni  Ni5  1  0.544579  0.542401  0.812574  1
  Ni  Ni6  1  0.812574  0.544579  0.542401  1
  Ni  Ni7  1  0.455421  0.187426  0.457599  1
  Ni  Ni8  1  0.457599  0.455421  0.187426  1
  Ni  Ni9  1  0.187426  0.457599  0.455421  1
  Ni  Ni10  1  0.132378  0.867622  0.500000  1
  Ni  Ni11  1  0.500000  0.132378  0.867622  1
  Ni  Ni12  1  0.867622  0.500000  0.132378  1
  B  B13  1  0.772688  0.336098  0.765543  1
  B  B14  1  0.765543  0.772688  0.336098  1
  B  B15  1  0.336098  0.765543  0.772688  1
  B  B16  1  0.234457  0.663902  0.227312  1
  B  B17  1  0.227312  0.234457  0.663902  1
  B  B18  1  0.663902  0.227312  0.234457  1
