# generated using pymatgen
data_Tb7BeI12
_symmetry_space_group_name_H-M   'P 1'
_cell_length_a   9.70871132
_cell_length_b   9.70871216
_cell_length_c   9.70871243
_cell_angle_alpha   107.71954143
_cell_angle_beta   107.71954326
_cell_angle_gamma   107.71954454
_symmetry_Int_Tables_number   1
_chemical_formula_structural   Tb7BeI12
_chemical_formula_sum   'Tb7 Be1 I12'
_cell_volume   746.66829741
_cell_formula_units_Z   1
loop_
 _symmetry_equiv_pos_site_id
 _symmetry_equiv_pos_as_xyz
  1  'x, y, z'
loop_
 _atom_site_type_symbol
 _atom_site_label
 _atom_site_symmetry_multiplicity
 _atom_site_fract_x
 _atom_site_fract_y
 _atom_site_fract_z
 _atom_site_occupancy
  Tb  Tb0  1  0.099505  0.030231  0.301440  1
  Tb  Tb1  1  0.301440  0.099505  0.030231  1
  Tb  Tb2  1  0.030231  0.301440  0.099505  1
  Tb  Tb3  1  0.900495  0.969769  0.698560  1
  Tb  Tb4  1  0.698560  0.900495  0.969769  1
  Tb  Tb5  1  0.969769  0.698560  0.900495  1
  Tb  Tb6  1  0.500000  0.500000  0.500000  1
  Be  Be7  1  0.000000  0.000000  0.000000  1
  I  I8  1  0.074812  0.681493  0.227905  1
  I  I9  1  0.227905  0.074812  0.681493  1
  I  I10  1  0.681493  0.227905  0.074812  1
  I  I11  1  0.925188  0.318507  0.772095  1
  I  I12  1  0.772095  0.925188  0.318507  1
  I  I13  1  0.318507  0.772095  0.925188  1
  I  I14  1  0.469745  0.155243  0.390372  1
  I  I15  1  0.390372  0.469745  0.155243  1
  I  I16  1  0.155243  0.390372  0.469745  1
  I  I17  1  0.530255  0.844757  0.609628  1
  I  I18  1  0.609628  0.530255  0.844757  1
  I  I19  1  0.844757  0.609628  0.530255  1
