# generated using pymatgen
data_Zr12Al9Ru3O4
_symmetry_space_group_name_H-M   'P 1'
_cell_length_a   8.62777695
_cell_length_b   8.62775858
_cell_length_c   8.62780700
_cell_angle_alpha   59.87119229
_cell_angle_beta   59.87132449
_cell_angle_gamma   59.87104270
_symmetry_Int_Tables_number   1
_chemical_formula_structural   Zr12Al9Ru3O4
_chemical_formula_sum   'Zr12 Al9 Ru3 O4'
_cell_volume   452.80484659
_cell_formula_units_Z   1
loop_
 _symmetry_equiv_pos_site_id
 _symmetry_equiv_pos_as_xyz
  1  'x, y, z'
loop_
 _atom_site_type_symbol
 _atom_site_label
 _atom_site_symmetry_multiplicity
 _atom_site_fract_x
 _atom_site_fract_y
 _atom_site_fract_z
 _atom_site_occupancy
  Zr  Zr0  1  0.805559  0.193992  0.193945  1
  Zr  Zr1  1  0.193967  0.805606  0.193954  1
  Zr  Zr2  1  0.807551  0.807621  0.191186  1
  Zr  Zr3  1  0.191212  0.807570  0.807540  1
  Zr  Zr4  1  0.807571  0.191198  0.807609  1
  Zr  Zr5  1  0.193938  0.193975  0.805567  1
  Zr  Zr6  1  0.444441  0.056008  0.056055  1
  Zr  Zr7  1  0.056033  0.444394  0.056046  1
  Zr  Zr8  1  0.442449  0.442379  0.058814  1
  Zr  Zr9  1  0.058788  0.442430  0.442460  1
  Zr  Zr10  1  0.442429  0.058802  0.442391  1
  Zr  Zr11  1  0.056062  0.056025  0.444433  1
  Al  Al12  1  0.413384  0.413329  0.744743  1
  Al  Al13  1  0.417896  0.417884  0.417918  1
  Al  Al14  1  0.744748  0.413329  0.413392  1
  Al  Al15  1  0.413373  0.744730  0.413376  1
  Al  Al16  1  0.836616  0.836671  0.505257  1
  Al  Al17  1  0.832104  0.832116  0.832082  1
  Al  Al18  1  0.505252  0.836671  0.836608  1
  Al  Al19  1  0.836627  0.505270  0.836624  1
  Al  Al20  1  0.625000  0.625000  0.625000  1
  Ru  Ru21  1  0.625000  0.625000  0.125000  1
  Ru  Ru22  1  0.125000  0.625000  0.625000  1
  Ru  Ru23  1  0.625000  0.125000  0.625000  1
  O  O24  1  0.125000  0.125000  0.625000  1
  O  O25  1  0.125000  0.125000  0.125000  1
  O  O26  1  0.625000  0.125000  0.125000  1
  O  O27  1  0.125000  0.625000  0.125000  1
