# generated using pymatgen
data_HoTa3Pb4O13
_symmetry_space_group_name_H-M   'P 1'
_cell_length_a   7.68770509
_cell_length_b   7.68770569
_cell_length_c   7.68770425
_cell_angle_alpha   59.57061114
_cell_angle_beta   59.57060625
_cell_angle_gamma   59.57060044
_symmetry_Int_Tables_number   1
_chemical_formula_structural   HoTa3Pb4O13
_chemical_formula_sum   'Ho1 Ta3 Pb4 O13'
_cell_volume   318.13759520
_cell_formula_units_Z   1
loop_
 _symmetry_equiv_pos_site_id
 _symmetry_equiv_pos_as_xyz
  1  'x, y, z'
loop_
 _atom_site_type_symbol
 _atom_site_label
 _atom_site_symmetry_multiplicity
 _atom_site_fract_x
 _atom_site_fract_y
 _atom_site_fract_z
 _atom_site_occupancy
  Ho  Ho0  1  0.502690  0.502690  0.502690  1
  Ta  Ta1  1  0.003692  0.501176  0.501176  1
  Ta  Ta2  1  0.501176  0.501176  0.003692  1
  Ta  Ta3  1  0.501176  0.003692  0.501176  1
  Pb  Pb4  1  0.001011  0.001011  0.001011  1
  Pb  Pb5  1  0.497898  0.010680  0.010680  1
  Pb  Pb6  1  0.010680  0.010680  0.497898  1
  Pb  Pb7  1  0.010680  0.497898  0.010680  1
  O  O8  1  0.864202  0.407562  0.407562  1
  O  O9  1  0.426198  0.802183  0.802183  1
  O  O10  1  0.407562  0.407562  0.864202  1
  O  O11  1  0.802183  0.802183  0.426198  1
  O  O12  1  0.802183  0.426198  0.802183  1
  O  O13  1  0.407562  0.864202  0.407562  1
  O  O14  1  0.153342  0.577297  0.577297  1
  O  O15  1  0.576398  0.190501  0.190501  1
  O  O16  1  0.577297  0.577297  0.153342  1
  O  O17  1  0.190501  0.190501  0.576398  1
  O  O18  1  0.190501  0.576398  0.190501  1
  O  O19  1  0.577297  0.153342  0.577297  1
  O  O20  1  0.120772  0.120772  0.120772  1
