# generated using pymatgen
data_La4Ni3Sb8Ir3
_symmetry_space_group_name_H-M   'P 1'
_cell_length_a   4.57893500
_cell_length_b   11.12844500
_cell_length_c   16.09733000
_cell_angle_alpha   90.00000000
_cell_angle_beta   90.00000000
_cell_angle_gamma   90.00000000
_symmetry_Int_Tables_number   1
_chemical_formula_structural   La4Ni3Sb8Ir3
_chemical_formula_sum   'La8 Ni6 Sb16 Ir6'
_cell_volume   820.26240987
_cell_formula_units_Z   2
loop_
 _symmetry_equiv_pos_site_id
 _symmetry_equiv_pos_as_xyz
  1  'x, y, z'
loop_
 _atom_site_type_symbol
 _atom_site_label
 _atom_site_symmetry_multiplicity
 _atom_site_fract_x
 _atom_site_fract_y
 _atom_site_fract_z
 _atom_site_occupancy
  La  La0  1  0.250000  0.745704  0.505744  1
  La  La1  1  0.250000  0.754296  0.005744  1
  La  La2  1  0.750000  0.251311  0.494351  1
  La  La3  1  0.750000  0.248689  0.994351  1
  La  La4  1  0.250000  0.588534  0.749395  1
  La  La5  1  0.250000  0.911466  0.249395  1
  La  La6  1  0.750000  0.408713  0.250495  1
  La  La7  1  0.750000  0.091287  0.750495  1
  Ni  Ni8  1  0.250000  0.465128  0.557256  1
  Ni  Ni9  1  0.250000  0.034872  0.057256  1
  Ni  Ni10  1  0.750000  0.529926  0.441774  1
  Ni  Ni11  1  0.750000  0.970074  0.941774  1
  Ni  Ni12  1  0.250000  0.056199  0.593641  1
  Ni  Ni13  1  0.250000  0.443801  0.093641  1
  Sb  Sb14  1  0.250000  0.271127  0.647019  1
  Sb  Sb15  1  0.250000  0.228873  0.147019  1
  Sb  Sb16  1  0.750000  0.720927  0.350376  1
  Sb  Sb17  1  0.750000  0.779073  0.850376  1
  Sb  Sb18  1  0.250000  0.887979  0.705971  1
  Sb  Sb19  1  0.250000  0.612021  0.205971  1
  Sb  Sb20  1  0.750000  0.110804  0.291082  1
  Sb  Sb21  1  0.750000  0.389196  0.791082  1
  Sb  Sb22  1  0.250000  0.068661  0.901117  1
  Sb  Sb23  1  0.250000  0.431339  0.401117  1
  Sb  Sb24  1  0.750000  0.936582  0.099057  1
  Sb  Sb25  1  0.750000  0.563418  0.599057  1
  Sb  Sb26  1  0.250000  0.447534  0.935241  1
  Sb  Sb27  1  0.250000  0.052466  0.435241  1
  Sb  Sb28  1  0.750000  0.543729  0.071259  1
  Sb  Sb29  1  0.750000  0.956271  0.571259  1
  Ir  Ir30  1  0.750000  0.941409  0.409085  1
  Ir  Ir31  1  0.750000  0.558591  0.909085  1
  Ir  Ir32  1  0.250000  0.278348  0.817263  1
  Ir  Ir33  1  0.250000  0.221652  0.317263  1
  Ir  Ir34  1  0.750000  0.724417  0.179879  1
  Ir  Ir35  1  0.750000  0.775583  0.679879  1
