# generated using pymatgen
data_Be8AlCrTc2
_symmetry_space_group_name_H-M   'P 1'
_cell_length_a   4.33027300
_cell_length_b   4.33027288
_cell_length_c   7.08147500
_cell_angle_alpha   90.00000000
_cell_angle_beta   90.00000000
_cell_angle_gamma   120.00000853
_symmetry_Int_Tables_number   1
_chemical_formula_structural   Be8AlCrTc2
_chemical_formula_sum   'Be8 Al1 Cr1 Tc2'
_cell_volume   114.99656373
_cell_formula_units_Z   1
loop_
 _symmetry_equiv_pos_site_id
 _symmetry_equiv_pos_as_xyz
  1  'x, y, z'
loop_
 _atom_site_type_symbol
 _atom_site_label
 _atom_site_symmetry_multiplicity
 _atom_site_fract_x
 _atom_site_fract_y
 _atom_site_fract_z
 _atom_site_occupancy
  Be  Be0  1  0.169091  0.338183  0.750901  1
  Be  Be1  1  0.169091  0.830909  0.750901  1
  Be  Be2  1  0.342187  0.171094  0.249361  1
  Be  Be3  1  0.828906  0.657813  0.249361  1
  Be  Be4  1  0.000000  0.000000  0.997415  1
  Be  Be5  1  0.661817  0.830909  0.750901  1
  Be  Be6  1  0.828906  0.171094  0.249361  1
  Be  Be7  1  0.000000  0.000000  0.490798  1
  Al  Al8  1  0.333333  0.666667  0.066300  1
  Cr  Cr9  1  0.666667  0.333333  0.563624  1
  Tc  Tc10  1  0.333333  0.666667  0.452200  1
  Tc  Tc11  1  0.666667  0.333333  0.928876  1
