# generated using pymatgen
data_U4MnCo4Si2Ru
_symmetry_space_group_name_H-M   'P 1'
_cell_length_a   5.22862419
_cell_length_b   5.22862253
_cell_length_c   7.58917600
_cell_angle_alpha   90.00000000
_cell_angle_beta   90.00000000
_cell_angle_gamma   121.74820419
_symmetry_Int_Tables_number   1
_chemical_formula_structural   U4MnCo4Si2Ru
_chemical_formula_sum   'U4 Mn1 Co4 Si2 Ru1'
_cell_volume   176.43169961
_cell_formula_units_Z   1
loop_
 _symmetry_equiv_pos_site_id
 _symmetry_equiv_pos_as_xyz
  1  'x, y, z'
loop_
 _atom_site_type_symbol
 _atom_site_label
 _atom_site_symmetry_multiplicity
 _atom_site_fract_x
 _atom_site_fract_y
 _atom_site_fract_z
 _atom_site_occupancy
  U  U0  1  0.330417  0.669583  0.433445  1
  U  U1  1  0.667837  0.332163  0.574570  1
  U  U2  1  0.667837  0.332163  0.925430  1
  U  U3  1  0.330417  0.669583  0.066555  1
  Mn  Mn4  1  0.170396  0.829604  0.750000  1
  Co  Co5  1  0.829105  0.669665  0.250000  1
  Co  Co6  1  0.330335  0.170895  0.250000  1
  Co  Co7  1  0.168854  0.333244  0.750000  1
  Co  Co8  1  0.666756  0.831146  0.750000  1
  Si  Si9  1  0.004412  0.995588  0.503684  1
  Si  Si10  1  0.004412  0.995588  0.996316  1
  Ru  Ru11  1  0.829223  0.170777  0.250000  1
