# generated using pymatgen
data_Lu4Ga4RuRh3
_symmetry_space_group_name_H-M   'P 1'
_cell_length_a   4.27709400
_cell_length_b   6.69992653
_cell_length_c   7.71110826
_cell_angle_alpha   89.81313619
_cell_angle_beta   90.00000000
_cell_angle_gamma   90.00000000
_symmetry_Int_Tables_number   1
_chemical_formula_structural   Lu4Ga4RuRh3
_chemical_formula_sum   'Lu4 Ga4 Ru1 Rh3'
_cell_volume   220.97000526
_cell_formula_units_Z   1
loop_
 _symmetry_equiv_pos_site_id
 _symmetry_equiv_pos_as_xyz
  1  'x, y, z'
loop_
 _atom_site_type_symbol
 _atom_site_label
 _atom_site_symmetry_multiplicity
 _atom_site_fract_x
 _atom_site_fract_y
 _atom_site_fract_z
 _atom_site_occupancy
  Lu  Lu0  1  0.250000  0.976322  0.310301  1
  Lu  Lu1  1  0.250000  0.476895  0.187606  1
  Lu  Lu2  1  0.750000  0.024544  0.692201  1
  Lu  Lu3  1  0.750000  0.520564  0.811102  1
  Ga  Ga4  1  0.250000  0.339747  0.571851  1
  Ga  Ga5  1  0.250000  0.839971  0.928472  1
  Ga  Ga6  1  0.750000  0.659711  0.428900  1
  Ga  Ga7  1  0.750000  0.162842  0.070285  1
  Ru  Ru8  1  0.250000  0.232233  0.892095  1
  Rh  Rh9  1  0.250000  0.730660  0.606343  1
  Rh  Rh10  1  0.750000  0.769352  0.107800  1
  Rh  Rh11  1  0.750000  0.267161  0.393043  1
