# generated using pymatgen
data_Y7Er(SiI6)2
_symmetry_space_group_name_H-M   'P 1'
_cell_length_a   4.20669300
_cell_length_b   14.01854841
_cell_length_c   14.78604148
_cell_angle_alpha   90.05133497
_cell_angle_beta   90.00000000
_cell_angle_gamma   90.00000000
_symmetry_Int_Tables_number   1
_chemical_formula_structural   Y7Er(SiI6)2
_chemical_formula_sum   'Y7 Er1 Si2 I12'
_cell_volume   871.95808807
_cell_formula_units_Z   1
loop_
 _symmetry_equiv_pos_site_id
 _symmetry_equiv_pos_as_xyz
  1  'x, y, z'
loop_
 _atom_site_type_symbol
 _atom_site_label
 _atom_site_symmetry_multiplicity
 _atom_site_fract_x
 _atom_site_fract_y
 _atom_site_fract_z
 _atom_site_occupancy
  Y  Y0  1  0.500000  0.114278  0.347722  1
  Y  Y1  1  0.500000  0.885720  0.652329  1
  Y  Y2  1  0.500000  0.613993  0.151922  1
  Y  Y3  1  0.000000  0.111281  0.574776  1
  Y  Y4  1  0.000000  0.888799  0.425314  1
  Y  Y5  1  0.000000  0.611123  0.925501  1
  Y  Y6  1  0.000000  0.388996  0.074681  1
  Er  Er7  1  0.500000  0.386177  0.848167  1
  Si  Si8  1  0.500000  0.000033  0.500048  1
  Si  Si9  1  0.500000  0.499437  0.999255  1
  I  I10  1  0.500000  0.245498  0.161585  1
  I  I11  1  0.500000  0.754383  0.838232  1
  I  I12  1  0.500000  0.745500  0.338255  1
  I  I13  1  0.500000  0.254934  0.662424  1
  I  I14  1  0.000000  0.258932  0.414501  1
  I  I15  1  0.000000  0.741043  0.585590  1
  I  I16  1  0.000000  0.758860  0.085545  1
  I  I17  1  0.000000  0.242610  0.913208  1
  I  I18  1  0.000000  0.999390  0.240187  1
  I  I19  1  0.000000  0.000636  0.759871  1
  I  I20  1  0.000000  0.499407  0.259763  1
  I  I21  1  0.000000  0.498969  0.741120  1
