# generated using pymatgen
data_Sr9NdTh2(Si7Br3)2
_symmetry_space_group_name_H-M   'P 1'
_cell_length_a   4.14955900
_cell_length_b   11.90438897
_cell_length_c   16.79759600
_cell_angle_alpha   89.80496739
_cell_angle_beta   90.00000000
_cell_angle_gamma   90.00000000
_symmetry_Int_Tables_number   1
_chemical_formula_structural   Sr9NdTh2(Si7Br3)2
_chemical_formula_sum   'Sr9 Nd1 Th2 Si14 Br6'
_cell_volume   829.76224166
_cell_formula_units_Z   1
loop_
 _symmetry_equiv_pos_site_id
 _symmetry_equiv_pos_as_xyz
  1  'x, y, z'
loop_
 _atom_site_type_symbol
 _atom_site_label
 _atom_site_symmetry_multiplicity
 _atom_site_fract_x
 _atom_site_fract_y
 _atom_site_fract_z
 _atom_site_occupancy
  Sr  Sr0  1  0.500000  0.325873  0.503333  1
  Sr  Sr1  1  0.000000  0.672397  0.998862  1
  Sr  Sr2  1  0.000000  0.651833  0.748655  1
  Sr  Sr3  1  0.500000  0.348099  0.248750  1
  Sr  Sr4  1  0.000000  0.649309  0.252301  1
  Sr  Sr5  1  0.500000  0.056083  0.874354  1
  Sr  Sr6  1  0.000000  0.946534  0.623819  1
  Sr  Sr7  1  0.500000  0.054288  0.122787  1
  Sr  Sr8  1  0.000000  0.943111  0.375288  1
  Nd  Nd9  1  0.500000  0.360545  0.756820  1
  Th  Th10  1  0.500000  0.359055  0.997401  1
  Th  Th11  1  0.000000  0.638612  0.502399  1
  Si  Si12  1  0.000000  0.164979  0.997259  1
  Si  Si13  1  0.500000  0.833884  0.501040  1
  Si  Si14  1  0.500000  0.556952  0.876535  1
  Si  Si15  1  0.000000  0.439534  0.626770  1
  Si  Si16  1  0.500000  0.556699  0.120527  1
  Si  Si17  1  0.000000  0.440453  0.380597  1
  Si  Si18  1  0.000000  0.262660  0.873742  1
  Si  Si19  1  0.500000  0.738705  0.623531  1
  Si  Si20  1  0.000000  0.259009  0.120965  1
  Si  Si21  1  0.500000  0.738788  0.378156  1
  Si  Si22  1  0.000000  0.458689  0.877633  1
  Si  Si23  1  0.500000  0.540086  0.624384  1
  Si  Si24  1  0.500000  0.541786  0.381529  1
  Si  Si25  1  0.000000  0.455765  0.119573  1
  Br  Br26  1  0.500000  0.117625  0.690718  1
  Br  Br27  1  0.000000  0.893138  0.807429  1
  Br  Br28  1  0.000000  0.135920  0.498743  1
  Br  Br29  1  0.500000  0.863070  0.998385  1
  Br  Br30  1  0.500000  0.107249  0.307401  1
  Br  Br31  1  0.000000  0.889270  0.190314  1
