# generated using pymatgen
data_Ti8Al14SiIr5Rh2
_symmetry_space_group_name_H-M   'P 1'
_cell_length_a   8.63712218
_cell_length_b   8.63712155
_cell_length_c   8.63712148
_cell_angle_alpha   120.01548929
_cell_angle_beta   119.76866552
_cell_angle_gamma   90.18716490
_symmetry_Int_Tables_number   1
_chemical_formula_structural   Ti8Al14SiIr5Rh2
_chemical_formula_sum   'Ti8 Al14 Si1 Ir5 Rh2'
_cell_volume   456.34674810
_cell_formula_units_Z   1
loop_
 _symmetry_equiv_pos_site_id
 _symmetry_equiv_pos_as_xyz
  1  'x, y, z'
loop_
 _atom_site_type_symbol
 _atom_site_label
 _atom_site_symmetry_multiplicity
 _atom_site_fract_x
 _atom_site_fract_y
 _atom_site_fract_z
 _atom_site_occupancy
  Ti  Ti0  1  0.797301  0.297236  0.087594  1
  Ti  Ti1  1  0.209642  0.297236  0.499935  1
  Ti  Ti2  1  0.202325  0.702325  0.500000  1
  Ti  Ti3  1  0.209642  0.709707  0.912406  1
  Ti  Ti4  1  0.797301  0.709707  0.500065  1
  Ti  Ti5  1  0.790893  0.290893  0.500000  1
  Ti  Ti6  1  0.379087  0.122481  0.743394  1
  Ti  Ti7  1  0.379087  0.635692  0.256606  1
  Al  Al8  1  0.155910  0.339345  0.183434  1
  Al  Al9  1  0.155910  0.972477  0.816566  1
  Al  Al10  1  0.152694  0.343822  0.808872  1
  Al  Al11  1  0.534950  0.343822  0.191128  1
  Al  Al12  1  0.843312  0.656847  0.813536  1
  Al  Al13  1  0.843312  0.029775  0.186464  1
  Al  Al14  1  0.840587  0.657586  0.183001  1
  Al  Al15  1  0.474583  0.657586  0.816999  1
  Al  Al16  1  0.380087  0.120409  0.259677  1
  Al  Al17  1  0.860733  0.120409  0.740323  1
  Al  Al18  1  0.620698  0.878835  0.258136  1
  Al  Al19  1  0.620698  0.362562  0.741864  1
  Al  Al20  1  0.620647  0.878883  0.741763  1
  Al  Al21  1  0.137119  0.878883  0.258237  1
  Si  Si22  1  0.997435  0.497435  0.500000  1
  Ir  Ir23  1  0.001744  0.000076  0.501879  1
  Ir  Ir24  1  0.498197  0.000076  0.998332  1
  Ir  Ir25  1  0.497494  0.497494  0.000000  1
  Ir  Ir26  1  0.498197  0.499865  0.498121  1
  Ir  Ir27  1  0.001744  0.499865  0.001668  1
  Rh  Rh28  1  0.999638  0.999638  0.000000  1
  Rh  Rh29  1  0.499028  0.999028  0.500000  1
