# generated using pymatgen
data_Dy3Tm(CrB4)4
_symmetry_space_group_name_H-M   'P 1'
_cell_length_a   3.43743300
_cell_length_b   5.93106034
_cell_length_c   11.45788365
_cell_angle_alpha   89.96149024
_cell_angle_beta   90.00000000
_cell_angle_gamma   90.00000000
_symmetry_Int_Tables_number   1
_chemical_formula_structural   Dy3Tm(CrB4)4
_chemical_formula_sum   'Dy3 Tm1 Cr4 B16'
_cell_volume   233.59895391
_cell_formula_units_Z   1
loop_
 _symmetry_equiv_pos_site_id
 _symmetry_equiv_pos_as_xyz
  1  'x, y, z'
loop_
 _atom_site_type_symbol
 _atom_site_label
 _atom_site_symmetry_multiplicity
 _atom_site_fract_x
 _atom_site_fract_y
 _atom_site_fract_z
 _atom_site_occupancy
  Dy  Dy0  1  0.000000  0.624833  0.349277  1
  Dy  Dy1  1  0.000000  0.375205  0.651036  1
  Dy  Dy2  1  0.000000  0.124783  0.150585  1
  Tm  Tm3  1  0.000000  0.875062  0.849386  1
  Cr  Cr4  1  0.000000  0.624482  0.080117  1
  Cr  Cr5  1  0.000000  0.375675  0.918869  1
  Cr  Cr6  1  0.000000  0.124078  0.419597  1
  Cr  Cr7  1  0.000000  0.875830  0.581242  1
  B  B8  1  0.500000  0.781147  0.183734  1
  B  B9  1  0.500000  0.217428  0.815997  1
  B  B10  1  0.500000  0.281179  0.315976  1
  B  B11  1  0.500000  0.719110  0.684839  1
  B  B12  1  0.500000  0.863127  0.031565  1
  B  B13  1  0.500000  0.136556  0.967131  1
  B  B14  1  0.500000  0.362803  0.467870  1
  B  B15  1  0.500000  0.637432  0.532703  1
  B  B16  1  0.500000  0.886622  0.453369  1
  B  B17  1  0.500000  0.113032  0.547308  1
  B  B18  1  0.500000  0.387000  0.046393  1
  B  B19  1  0.500000  0.614461  0.952461  1
  B  B20  1  0.500000  0.975464  0.308556  1
  B  B21  1  0.500000  0.023844  0.692405  1
  B  B22  1  0.500000  0.475498  0.191184  1
  B  B23  1  0.500000  0.525349  0.808401  1
