# generated using pymatgen
data_ErCo2(B2Ru)2
_symmetry_space_group_name_H-M   'P 1'
_cell_length_a   7.17008400
_cell_length_b   7.17008400
_cell_length_c   3.92405400
_cell_angle_alpha   90.00000000
_cell_angle_beta   90.00000000
_cell_angle_gamma   90.00000000
_symmetry_Int_Tables_number   1
_chemical_formula_structural   ErCo2(B2Ru)2
_chemical_formula_sum   'Er2 Co4 B8 Ru4'
_cell_volume   201.73602647
_cell_formula_units_Z   2
loop_
 _symmetry_equiv_pos_site_id
 _symmetry_equiv_pos_as_xyz
  1  'x, y, z'
loop_
 _atom_site_type_symbol
 _atom_site_label
 _atom_site_symmetry_multiplicity
 _atom_site_fract_x
 _atom_site_fract_y
 _atom_site_fract_z
 _atom_site_occupancy
  Er  Er0  1  0.000000  0.000000  0.095584  1
  Er  Er1  1  0.500000  0.500000  0.595584  1
  Co  Co2  1  0.620568  0.119649  0.374635  1
  Co  Co3  1  0.379432  0.880351  0.374635  1
  Co  Co4  1  0.619649  0.879432  0.874635  1
  Co  Co5  1  0.380351  0.120568  0.874635  1
  B  B6  1  0.342037  0.819846  0.878557  1
  B  B7  1  0.657963  0.180154  0.878557  1
  B  B8  1  0.319846  0.157963  0.378557  1
  B  B9  1  0.680154  0.842037  0.378557  1
  B  B10  1  0.174336  0.728301  0.597224  1
  B  B11  1  0.825664  0.271699  0.597224  1
  B  B12  1  0.228301  0.325664  0.097224  1
  B  B13  1  0.771699  0.674336  0.097224  1
  Ru  Ru14  1  0.840537  0.388493  0.101791  1
  Ru  Ru15  1  0.159463  0.611507  0.101791  1
  Ru  Ru16  1  0.888493  0.659463  0.601791  1
  Ru  Ru17  1  0.111507  0.340537  0.601791  1
