# generated using pymatgen
data_BaCr4(As5O11)2
_symmetry_space_group_name_H-M   'P 1'
_cell_length_a   10.07676586
_cell_length_b   10.58216815
_cell_length_c   12.17739500
_cell_angle_alpha   82.50380698
_cell_angle_beta   66.03920488
_cell_angle_gamma   80.21942980
_symmetry_Int_Tables_number   1
_chemical_formula_structural   BaCr4(As5O11)2
_chemical_formula_sum   'Ba2 Cr8 As20 O44'
_cell_volume   1166.64799551
_cell_formula_units_Z   2
loop_
 _symmetry_equiv_pos_site_id
 _symmetry_equiv_pos_as_xyz
  1  'x, y, z'
loop_
 _atom_site_type_symbol
 _atom_site_label
 _atom_site_symmetry_multiplicity
 _atom_site_fract_x
 _atom_site_fract_y
 _atom_site_fract_z
 _atom_site_occupancy
  Ba  Ba0  1  0.983796  0.244226  0.519210  1
  Ba  Ba1  1  0.016204  0.755774  0.480790  1
  Cr  Cr2  1  0.226255  0.484763  0.252741  1
  Cr  Cr3  1  0.773745  0.515237  0.747259  1
  Cr  Cr4  1  0.665687  0.250152  0.837958  1
  Cr  Cr5  1  0.334313  0.749848  0.162042  1
  Cr  Cr6  1  0.250199  0.019355  0.262372  1
  Cr  Cr7  1  0.749801  0.980645  0.737628  1
  Cr  Cr8  1  0.401089  0.251820  0.093031  1
  Cr  Cr9  1  0.598911  0.748180  0.906969  1
  As  As10  1  0.455692  0.171241  0.701325  1
  As  As11  1  0.544308  0.828759  0.298675  1
  As  As12  1  0.385234  0.239981  0.370014  1
  As  As13  1  0.614766  0.760019  0.629986  1
  As  As14  1  0.594797  0.437054  0.602277  1
  As  As15  1  0.405203  0.562946  0.397723  1
  As  As16  1  0.601417  0.491978  0.116800  1
  As  As17  1  0.398583  0.508022  0.883200  1
  As  As18  1  0.707001  0.029477  0.480965  1
  As  As19  1  0.292999  0.970523  0.519035  1
  As  As20  1  0.126576  0.463197  0.686292  1
  As  As21  1  0.873424  0.536803  0.313708  1
  As  As22  1  0.990343  0.056576  0.824287  1
  As  As23  1  0.009657  0.943424  0.175713  1
  As  As24  1  0.918216  0.332923  0.935247  1
  As  As25  1  0.081784  0.667077  0.064753  1
  As  As26  1  0.322790  0.002345  0.960478  1
  As  As27  1  0.677210  0.997655  0.039522  1
  As  As28  1  0.039365  0.266794  0.198119  1
  As  As29  1  0.960635  0.733206  0.801881  1
  O  O30  1  0.582763  0.129005  0.776337  1
  O  O31  1  0.417237  0.870995  0.223663  1
  O  O32  1  0.199365  0.350080  0.162868  1
  O  O33  1  0.800635  0.649920  0.837132  1
  O  O34  1  0.605308  0.159136  0.002518  1
  O  O35  1  0.394692  0.840864  0.997482  1
  O  O36  1  0.775235  0.371113  0.875444  1
  O  O37  1  0.224765  0.628887  0.124556  1
  O  O38  1  0.850781  0.121200  0.762659  1
  O  O39  1  0.149219  0.878800  0.237341  1
  O  O40  1  0.312542  0.090773  0.083231  1
  O  O41  1  0.687458  0.909227  0.916769  1
  O  O42  1  0.441428  0.410622  0.153151  1
  O  O43  1  0.558572  0.589378  0.846849  1
  O  O44  1  0.464302  0.345104  0.922635  1
  O  O45  1  0.535698  0.654896  0.077365  1
  O  O46  1  0.711101  0.373526  0.685457  1
  O  O47  1  0.288899  0.626474  0.314543  1
  O  O48  1  0.041071  0.208377  0.833720  1
  O  O49  1  0.958929  0.791623  0.166280  1
  O  O50  1  0.067401  0.141133  0.301956  1
  O  O51  1  0.932599  0.858867  0.698044  1
  O  O52  1  0.979417  0.446510  0.648429  1
  O  O53  1  0.020583  0.553490  0.351571  1
  O  O54  1  0.557073  0.284759  0.578537  1
  O  O55  1  0.442927  0.715241  0.421463  1
  O  O56  1  0.899759  0.359363  0.324153  1
  O  O57  1  0.100241  0.640637  0.675847  1
  O  O58  1  0.813203  0.042365  0.563673  1
  O  O59  1  0.186797  0.957635  0.436327  1
  O  O60  1  0.519354  0.041304  0.603406  1
  O  O61  1  0.480646  0.958696  0.396594  1
  O  O62  1  0.035648  0.453604  0.854482  1
  O  O63  1  0.964352  0.546396  0.145518  1
  O  O64  1  0.424841  0.482440  0.729421  1
  O  O65  1  0.575159  0.517560  0.270579  1
  O  O66  1  0.374346  0.154723  0.251930  1
  O  O67  1  0.625654  0.845277  0.748070  1
  O  O68  1  0.270159  0.147497  0.507533  1
  O  O69  1  0.729841  0.852503  0.492467  1
  O  O70  1  0.235080  0.363833  0.389380  1
  O  O71  1  0.764920  0.636167  0.610620  1
  O  O72  1  0.866437  0.029018  0.981400  1
  O  O73  1  0.133563  0.970982  0.018600  1
