# generated using pymatgen
data_Ho3In4AgRh
_symmetry_space_group_name_H-M   'P 1'
_cell_length_a   7.91950500
_cell_length_b   7.91950517
_cell_length_c   3.86681900
_cell_angle_alpha   90.00000000
_cell_angle_beta   90.00000000
_cell_angle_gamma   119.99999511
_symmetry_Int_Tables_number   1
_chemical_formula_structural   Ho3In4AgRh
_chemical_formula_sum   'Ho3 In4 Ag1 Rh1'
_cell_volume   210.02963659
_cell_formula_units_Z   1
loop_
 _symmetry_equiv_pos_site_id
 _symmetry_equiv_pos_as_xyz
  1  'x, y, z'
loop_
 _atom_site_type_symbol
 _atom_site_label
 _atom_site_symmetry_multiplicity
 _atom_site_fract_x
 _atom_site_fract_y
 _atom_site_fract_z
 _atom_site_occupancy
  Ho  Ho0  1  0.385341  0.422008  0.000000  1
  Ho  Ho1  1  0.036667  0.614658  0.000000  1
  Ho  Ho2  1  0.577992  0.963334  0.000000  1
  In  In3  1  0.001428  0.265186  0.500000  1
  In  In4  1  0.666666  0.333334  0.500000  1
  In  In5  1  0.734815  0.736242  0.500000  1
  In  In6  1  0.263758  0.998573  0.500000  1
  Ag  Ag7  1  0.000000  0.000000  0.000000  1
  Rh  Rh8  1  0.333333  0.666666  0.500000  1
