# generated using pymatgen
data_La2Nd5ThSe12
_symmetry_space_group_name_H-M   'P 1'
_cell_length_a   11.52857576
_cell_length_b   4.19030100
_cell_length_c   11.27823765
_cell_angle_alpha   90.00000000
_cell_angle_beta   89.83812617
_cell_angle_gamma   90.00000000
_symmetry_Int_Tables_number   1
_chemical_formula_structural   La2Nd5ThSe12
_chemical_formula_sum   'La2 Nd5 Th1 Se12'
_cell_volume   544.82921429
_cell_formula_units_Z   1
loop_
 _symmetry_equiv_pos_site_id
 _symmetry_equiv_pos_as_xyz
  1  'x, y, z'
loop_
 _atom_site_type_symbol
 _atom_site_label
 _atom_site_symmetry_multiplicity
 _atom_site_fract_x
 _atom_site_fract_y
 _atom_site_fract_z
 _atom_site_occupancy
  La  La0  1  0.308508  0.250000  0.508616  1
  La  La1  1  0.805044  0.250000  0.001355  1
  Nd  Nd2  1  0.486403  0.250000  0.187198  1
  Nd  Nd3  1  0.986407  0.250000  0.316742  1
  Nd  Nd4  1  0.516532  0.750000  0.810778  1
  Nd  Nd5  1  0.010155  0.750000  0.684760  1
  Nd  Nd6  1  0.692379  0.750000  0.493125  1
  Th  Th7  1  0.192878  0.750000  0.997466  1
  Se  Se8  1  0.549890  0.250000  0.626517  1
  Se  Se9  1  0.049752  0.250000  0.874415  1
  Se  Se10  1  0.452366  0.750000  0.372075  1
  Se  Se11  1  0.960166  0.750000  0.127403  1
  Se  Se12  1  0.615869  0.750000  0.054709  1
  Se  Se13  1  0.121007  0.750000  0.444557  1
  Se  Se14  1  0.378670  0.250000  0.944592  1
  Se  Se15  1  0.876492  0.250000  0.555752  1
  Se  Se16  1  0.728392  0.250000  0.296453  1
  Se  Se17  1  0.222870  0.250000  0.190987  1
  Se  Se18  1  0.270213  0.750000  0.709189  1
  Se  Se19  1  0.776008  0.750000  0.803312  1
