# generated using pymatgen
data_Ba3Fe2OsO9
_symmetry_space_group_name_H-M   'P 1'
_cell_length_a   5.83661500
_cell_length_b   5.83661537
_cell_length_c   14.31585800
_cell_angle_alpha   90.00000000
_cell_angle_beta   90.00000000
_cell_angle_gamma   120.00000357
_symmetry_Int_Tables_number   1
_chemical_formula_structural   Ba3Fe2OsO9
_chemical_formula_sum   'Ba6 Fe4 Os2 O18'
_cell_volume   422.34768628
_cell_formula_units_Z   2
loop_
 _symmetry_equiv_pos_site_id
 _symmetry_equiv_pos_as_xyz
  1  'x, y, z'
loop_
 _atom_site_type_symbol
 _atom_site_label
 _atom_site_symmetry_multiplicity
 _atom_site_fract_x
 _atom_site_fract_y
 _atom_site_fract_z
 _atom_site_occupancy
  Ba  Ba0  1  0.666667  0.333333  0.588735  1
  Ba  Ba1  1  0.333333  0.666667  0.406042  1
  Ba  Ba2  1  0.333333  0.666667  0.088735  1
  Ba  Ba3  1  0.666667  0.333333  0.906042  1
  Ba  Ba4  1  0.000000  0.000000  0.753117  1
  Ba  Ba5  1  0.000000  0.000000  0.253117  1
  Fe  Fe6  1  0.000000  0.000000  0.493246  1
  Fe  Fe7  1  0.000000  0.000000  0.993246  1
  Fe  Fe8  1  0.666667  0.333333  0.353814  1
  Fe  Fe9  1  0.333333  0.666667  0.853814  1
  Os  Os10  1  0.333333  0.666667  0.658664  1
  Os  Os11  1  0.666667  0.333333  0.158664  1
  O  O12  1  0.484756  0.969511  0.744505  1
  O  O13  1  0.484756  0.515244  0.744505  1
  O  O14  1  0.030489  0.515244  0.744505  1
  O  O15  1  0.515244  0.030489  0.244505  1
  O  O16  1  0.515244  0.484756  0.244505  1
  O  O17  1  0.969511  0.484756  0.244505  1
  O  O18  1  0.171159  0.342318  0.584522  1
  O  O19  1  0.171159  0.828841  0.584522  1
  O  O20  1  0.657682  0.828841  0.584522  1
  O  O21  1  0.835274  0.670548  0.419748  1
  O  O22  1  0.835274  0.164726  0.419748  1
  O  O23  1  0.329452  0.164726  0.419748  1
  O  O24  1  0.828841  0.657682  0.084522  1
  O  O25  1  0.828841  0.171159  0.084522  1
  O  O26  1  0.342318  0.171159  0.084522  1
  O  O27  1  0.164726  0.329452  0.919748  1
  O  O28  1  0.164726  0.835274  0.919748  1
  O  O29  1  0.670548  0.835274  0.919748  1
