# generated using pymatgen
data_Tb4Dy(Ho5Bi4)3
_symmetry_space_group_name_H-M   'P 1'
_cell_length_a   8.26279439
_cell_length_b   9.50343607
_cell_length_c   12.03709113
_cell_angle_alpha   89.99499783
_cell_angle_beta   90.02503593
_cell_angle_gamma   90.00271342
_symmetry_Int_Tables_number   1
_chemical_formula_structural   Tb4Dy(Ho5Bi4)3
_chemical_formula_sum   'Tb4 Dy1 Ho15 Bi12'
_cell_volume   945.21174268
_cell_formula_units_Z   1
loop_
 _symmetry_equiv_pos_site_id
 _symmetry_equiv_pos_as_xyz
  1  'x, y, z'
loop_
 _atom_site_type_symbol
 _atom_site_label
 _atom_site_symmetry_multiplicity
 _atom_site_fract_x
 _atom_site_fract_y
 _atom_site_fract_z
 _atom_site_occupancy
  Tb  Tb0  1  0.312626  0.250014  0.218859  1
  Tb  Tb1  1  0.812718  0.249987  0.281107  1
  Tb  Tb2  1  0.687370  0.750035  0.781211  1
  Tb  Tb3  1  0.187354  0.750141  0.718963  1
  Dy  Dy4  1  0.193137  0.563994  0.441082  1
  Ho  Ho5  1  0.353069  0.750215  0.215751  1
  Ho  Ho6  1  0.852673  0.750243  0.284034  1
  Ho  Ho7  1  0.647292  0.249988  0.784210  1
  Ho  Ho8  1  0.147234  0.250156  0.715844  1
  Ho  Ho9  1  0.693208  0.564566  0.058907  1
  Ho  Ho10  1  0.193113  0.935416  0.441021  1
  Ho  Ho11  1  0.306739  0.064583  0.941107  1
  Ho  Ho12  1  0.806991  0.435334  0.558867  1
  Ho  Ho13  1  0.306780  0.435365  0.941088  1
  Ho  Ho14  1  0.806597  0.064587  0.558988  1
  Ho  Ho15  1  0.693292  0.935453  0.058864  1
  Ho  Ho16  1  0.475104  0.250044  0.488148  1
  Ho  Ho17  1  0.974966  0.250132  0.011726  1
  Ho  Ho18  1  0.525307  0.750055  0.511897  1
  Ho  Ho19  1  0.025085  0.749961  0.988212  1
  Bi  Bi20  1  0.407375  0.749974  0.957939  1
  Bi  Bi21  1  0.907109  0.750273  0.542180  1
  Bi  Bi22  1  0.592624  0.249996  0.042038  1
  Bi  Bi23  1  0.092290  0.249061  0.458121  1
  Bi  Bi24  1  0.565210  0.994798  0.325473  1
  Bi  Bi25  1  0.065109  0.505347  0.174298  1
  Bi  Bi26  1  0.434774  0.494743  0.674619  1
  Bi  Bi27  1  0.934723  0.005411  0.825566  1
  Bi  Bi28  1  0.434797  0.005378  0.674481  1
  Bi  Bi29  1  0.934660  0.494715  0.825607  1
  Bi  Bi30  1  0.565462  0.505296  0.325402  1
  Bi  Bi31  1  0.065213  0.994739  0.174390  1
