# generated using pymatgen
data_ThScMn12P7
_symmetry_space_group_name_H-M   'P 1'
_cell_length_a   9.26717000
_cell_length_b   9.26717031
_cell_length_c   3.61211400
_cell_angle_alpha   90.00000000
_cell_angle_beta   90.00000000
_cell_angle_gamma   119.99999889
_symmetry_Int_Tables_number   1
_chemical_formula_structural   ThScMn12P7
_chemical_formula_sum   'Th1 Sc1 Mn12 P7'
_cell_volume   268.64969966
_cell_formula_units_Z   1
loop_
 _symmetry_equiv_pos_site_id
 _symmetry_equiv_pos_as_xyz
  1  'x, y, z'
loop_
 _atom_site_type_symbol
 _atom_site_label
 _atom_site_symmetry_multiplicity
 _atom_site_fract_x
 _atom_site_fract_y
 _atom_site_fract_z
 _atom_site_occupancy
  Th  Th0  1  0.000000  0.000000  0.500000  1
  Sc  Sc1  1  0.333333  0.666667  0.000000  1
  Mn  Mn2  1  0.046111  0.286960  0.000000  1
  Mn  Mn3  1  0.713040  0.759151  0.000000  1
  Mn  Mn4  1  0.240849  0.953889  0.000000  1
  Mn  Mn5  1  0.541864  0.054996  0.000000  1
  Mn  Mn6  1  0.945004  0.486868  0.000000  1
  Mn  Mn7  1  0.513132  0.458136  0.000000  1
  Mn  Mn8  1  0.616977  0.894069  0.500000  1
  Mn  Mn9  1  0.105931  0.722907  0.500000  1
  Mn  Mn10  1  0.277093  0.383023  0.500000  1
  Mn  Mn11  1  0.789738  0.231144  0.500000  1
  Mn  Mn12  1  0.768856  0.558595  0.500000  1
  Mn  Mn13  1  0.441405  0.210262  0.500000  1
  P  P14  1  0.779614  0.044440  0.000000  1
  P  P15  1  0.955560  0.735173  0.000000  1
  P  P16  1  0.264827  0.220386  0.000000  1
  P  P17  1  0.383189  0.918930  0.500000  1
  P  P18  1  0.081070  0.464259  0.500000  1
  P  P19  1  0.535741  0.616811  0.500000  1
  P  P20  1  0.666667  0.333333  0.000000  1
