# generated using pymatgen
data_LaNd2Gd(MoO4)6
_symmetry_space_group_name_H-M   'P 1'
_cell_length_a   7.64584193
_cell_length_b   7.64584145
_cell_length_c   10.95493572
_cell_angle_alpha   90.14295555
_cell_angle_beta   89.85704621
_cell_angle_gamma   90.05525608
_symmetry_Int_Tables_number   1
_chemical_formula_structural   LaNd2Gd(MoO4)6
_chemical_formula_sum   'La1 Nd2 Gd1 Mo6 O24'
_cell_volume   640.40915824
_cell_formula_units_Z   1
loop_
 _symmetry_equiv_pos_site_id
 _symmetry_equiv_pos_as_xyz
  1  'x, y, z'
loop_
 _atom_site_type_symbol
 _atom_site_label
 _atom_site_symmetry_multiplicity
 _atom_site_fract_x
 _atom_site_fract_y
 _atom_site_fract_z
 _atom_site_occupancy
  La  La0  1  0.186899  0.313101  0.739845  1
  Nd  Nd1  1  0.689318  0.188856  0.262123  1
  Nd  Nd2  1  0.311144  0.810682  0.262123  1
  Gd  Gd3  1  0.808050  0.691950  0.736070  1
  Mo  Mo4  1  0.709310  0.207328  0.644806  1
  Mo  Mo5  1  0.292672  0.790690  0.644806  1
  Mo  Mo6  1  0.208369  0.291631  0.352807  1
  Mo  Mo7  1  0.791222  0.708778  0.358799  1
  Mo  Mo8  1  0.505437  0.504308  0.999493  1
  Mo  Mo9  1  0.995692  0.994563  0.999493  1
  O  O10  1  0.697345  0.196170  0.482465  1
  O  O11  1  0.303830  0.802655  0.482465  1
  O  O12  1  0.196391  0.303609  0.514961  1
  O  O13  1  0.802266  0.697734  0.521409  1
  O  O14  1  0.122948  0.633855  0.690401  1
  O  O15  1  0.866145  0.377052  0.690401  1
  O  O16  1  0.628366  0.871634  0.312500  1
  O  O17  1  0.371878  0.128122  0.306903  1
  O  O18  1  0.273968  0.499180  0.294476  1
  O  O19  1  0.726561  0.500627  0.300471  1
  O  O20  1  0.999373  0.773439  0.300471  1
  O  O21  1  0.000820  0.226032  0.294476  1
  O  O22  1  0.500691  0.722011  0.701839  1
  O  O23  1  0.501161  0.268098  0.703905  1
  O  O24  1  0.231902  0.998839  0.703905  1
  O  O25  1  0.777989  0.999309  0.701839  1
  O  O26  1  0.315490  0.460686  0.908857  1
  O  O27  1  0.686985  0.550250  0.900447  1
  O  O28  1  0.949750  0.813015  0.900447  1
  O  O29  1  0.039314  0.184510  0.908857  1
  O  O30  1  0.463628  0.688985  0.096119  1
  O  O31  1  0.552047  0.317975  0.092952  1
  O  O32  1  0.182025  0.947953  0.092952  1
  O  O33  1  0.811015  0.036372  0.096119  1
