# generated using pymatgen
data_Zr(NbC)5
_symmetry_space_group_name_H-M   'P 1'
_cell_length_a   5.56502555
_cell_length_b   5.56502560
_cell_length_c   5.53856484
_cell_angle_alpha   80.57500976
_cell_angle_beta   80.57499557
_cell_angle_gamma   120.22291842
_symmetry_Int_Tables_number   1
_chemical_formula_structural   Zr(NbC)5
_chemical_formula_sum   'Zr1 Nb5 C5'
_cell_volume   139.98024959
_cell_formula_units_Z   1
loop_
 _symmetry_equiv_pos_site_id
 _symmetry_equiv_pos_as_xyz
  1  'x, y, z'
loop_
 _atom_site_type_symbol
 _atom_site_label
 _atom_site_symmetry_multiplicity
 _atom_site_fract_x
 _atom_site_fract_y
 _atom_site_fract_z
 _atom_site_occupancy
  Zr  Zr0  1  0.741951  0.741951  0.741091  1
  Nb  Nb1  1  0.263650  0.263650  0.264169  1
  Nb  Nb2  1  0.083964  0.440396  0.745557  1
  Nb  Nb3  1  0.559766  0.914737  0.253051  1
  Nb  Nb4  1  0.914737  0.559766  0.253051  1
  Nb  Nb5  1  0.440396  0.083964  0.745557  1
  C  C6  1  0.496887  0.496887  0.498395  1
  C  C7  1  0.663965  0.327339  0.003842  1
  C  C8  1  0.327339  0.663965  0.003842  1
  C  C9  1  0.834712  0.172633  0.495722  1
  C  C10  1  0.172633  0.834712  0.495722  1
