# generated using pymatgen
data_Tb2HfU6S17
_symmetry_space_group_name_H-M   'P 1'
_cell_length_a   7.87835642
_cell_length_b   7.87835573
_cell_length_c   10.48954692
_cell_angle_alpha   80.66657201
_cell_angle_beta   80.66657650
_cell_angle_gamma   65.38042544
_symmetry_Int_Tables_number   1
_chemical_formula_structural   Tb2HfU6S17
_chemical_formula_sum   'Tb2 Hf1 U6 S17'
_cell_volume   580.79045681
_cell_formula_units_Z   1
loop_
 _symmetry_equiv_pos_site_id
 _symmetry_equiv_pos_as_xyz
  1  'x, y, z'
loop_
 _atom_site_type_symbol
 _atom_site_label
 _atom_site_symmetry_multiplicity
 _atom_site_fract_x
 _atom_site_fract_y
 _atom_site_fract_z
 _atom_site_occupancy
  Tb  Tb0  1  0.811969  0.307307  0.299393  1
  Tb  Tb1  1  0.307307  0.811969  0.299393  1
  Hf  Hf2  1  0.000458  0.000458  0.003020  1
  U  U3  1  0.182156  0.698966  0.699249  1
  U  U4  1  0.698966  0.182156  0.699249  1
  U  U5  1  0.203861  0.203861  0.536199  1
  U  U6  1  0.792761  0.792761  0.462345  1
  U  U7  1  0.678200  0.678200  0.984220  1
  U  U8  1  0.321149  0.321149  0.016893  1
  S  S9  1  0.823640  0.429871  0.537205  1
  S  S10  1  0.429871  0.823640  0.537205  1
  S  S11  1  0.173056  0.569569  0.469546  1
  S  S12  1  0.569569  0.173056  0.469546  1
  S  S13  1  0.944404  0.330720  0.028624  1
  S  S14  1  0.330720  0.944404  0.028624  1
  S  S15  1  0.058519  0.672673  0.965065  1
  S  S16  1  0.672673  0.058519  0.965065  1
  S  S17  1  0.211640  0.211640  0.277874  1
  S  S18  1  0.787811  0.787811  0.724125  1
  S  S19  1  0.063154  0.063154  0.766411  1
  S  S20  1  0.938555  0.938555  0.236907  1
  S  S21  1  0.305600  0.305600  0.751482  1
  S  S22  1  0.698223  0.698223  0.244602  1
  S  S23  1  0.520601  0.520601  0.828479  1
  S  S24  1  0.479564  0.479564  0.159092  1
  S  S25  1  0.995573  0.995573  0.510186  1
