# generated using pymatgen
data_YbPr7(Si3Ir)4
_symmetry_space_group_name_H-M   'P 1'
_cell_length_a   8.27067109
_cell_length_b   8.27066166
_cell_length_c   8.53322600
_cell_angle_alpha   90.00000000
_cell_angle_beta   90.00000000
_cell_angle_gamma   120.01668899
_symmetry_Int_Tables_number   1
_chemical_formula_structural   YbPr7(Si3Ir)4
_chemical_formula_sum   'Yb1 Pr7 Si12 Ir4'
_cell_volume   505.41930364
_cell_formula_units_Z   1
loop_
 _symmetry_equiv_pos_site_id
 _symmetry_equiv_pos_as_xyz
  1  'x, y, z'
loop_
 _atom_site_type_symbol
 _atom_site_label
 _atom_site_symmetry_multiplicity
 _atom_site_fract_x
 _atom_site_fract_y
 _atom_site_fract_z
 _atom_site_occupancy
  Yb  Yb0  1  0.499529  0.500471  0.750000  1
  Pr  Pr1  1  0.500390  0.499611  0.250000  1
  Pr  Pr2  1  0.001135  0.500512  0.750000  1
  Pr  Pr3  1  0.999017  0.499526  0.250000  1
  Pr  Pr4  1  0.499489  0.998866  0.750000  1
  Pr  Pr5  1  0.500473  0.000982  0.250000  1
  Pr  Pr6  1  0.000068  0.999932  0.750000  1
  Pr  Pr7  1  0.000004  0.999996  0.250000  1
  Si  Si8  1  0.833329  0.166671  0.001518  1
  Si  Si9  1  0.166626  0.833374  0.000781  1
  Si  Si10  1  0.334818  0.168483  0.998607  1
  Si  Si11  1  0.166626  0.833374  0.499219  1
  Si  Si12  1  0.665186  0.831518  0.997775  1
  Si  Si13  1  0.833329  0.166671  0.498482  1
  Si  Si14  1  0.831517  0.665182  0.998607  1
  Si  Si15  1  0.665186  0.831518  0.502225  1
  Si  Si16  1  0.168483  0.334814  0.997775  1
  Si  Si17  1  0.334818  0.168483  0.501393  1
  Si  Si18  1  0.168483  0.334814  0.502225  1
  Si  Si19  1  0.831517  0.665182  0.501393  1
  Ir  Ir20  1  0.666748  0.333253  0.997190  1
  Ir  Ir21  1  0.333240  0.666757  0.001668  1
  Ir  Ir22  1  0.333240  0.666757  0.498332  1
  Ir  Ir23  1  0.666748  0.333253  0.502810  1
