# generated using pymatgen
data_Ho2Nb3Si4
_symmetry_space_group_name_H-M   'P 1'
_cell_length_a   7.05870316
_cell_length_b   7.05903007
_cell_length_c   13.01602203
_cell_angle_alpha   89.98949007
_cell_angle_beta   89.99921819
_cell_angle_gamma   90.01897567
_symmetry_Int_Tables_number   1
_chemical_formula_structural   Ho2Nb3Si4
_chemical_formula_sum   'Ho8 Nb12 Si16'
_cell_volume   648.55706470
_cell_formula_units_Z   4
loop_
 _symmetry_equiv_pos_site_id
 _symmetry_equiv_pos_as_xyz
  1  'x, y, z'
loop_
 _atom_site_type_symbol
 _atom_site_label
 _atom_site_symmetry_multiplicity
 _atom_site_fract_x
 _atom_site_fract_y
 _atom_site_fract_z
 _atom_site_occupancy
  Ho  Ho0  1  0.998438  0.341088  0.217779  1
  Ho  Ho1  1  0.001529  0.658606  0.717768  1
  Ho  Ho2  1  0.158771  0.498782  0.467774  1
  Ho  Ho3  1  0.501602  0.841458  0.032136  1
  Ho  Ho4  1  0.841862  0.501370  0.967882  1
  Ho  Ho5  1  0.498757  0.158603  0.532247  1
  Ho  Ho6  1  0.341519  0.998417  0.782206  1
  Ho  Ho7  1  0.658426  0.001118  0.282313  1
  Nb  Nb8  1  0.170980  0.171295  0.999949  1
  Nb  Nb9  1  0.828800  0.829334  0.499749  1
  Nb  Nb10  1  0.329165  0.670965  0.250202  1
  Nb  Nb11  1  0.671221  0.329029  0.749879  1
  Nb  Nb12  1  0.152908  0.992734  0.375897  1
  Nb  Nb13  1  0.846764  0.007143  0.876020  1
  Nb  Nb14  1  0.506741  0.653440  0.626237  1
  Nb  Nb15  1  0.346551  0.493119  0.873928  1
  Nb  Nb16  1  0.493341  0.346120  0.126445  1
  Nb  Nb17  1  0.652929  0.506634  0.373590  1
  Nb  Nb18  1  0.992769  0.153917  0.623876  1
  Nb  Nb19  1  0.006646  0.846835  0.124126  1
  Si  Si20  1  0.293921  0.045227  0.186329  1
  Si  Si21  1  0.706183  0.954471  0.686324  1
  Si  Si22  1  0.454501  0.794020  0.436514  1
  Si  Si23  1  0.206265  0.545466  0.063851  1
  Si  Si24  1  0.545454  0.206177  0.936345  1
  Si  Si25  1  0.793927  0.455116  0.563410  1
  Si  Si26  1  0.045641  0.293978  0.813590  1
  Si  Si27  1  0.954399  0.705678  0.313580  1
  Si  Si28  1  0.366651  0.294616  0.318220  1
  Si  Si29  1  0.633395  0.704561  0.818177  1
  Si  Si30  1  0.204574  0.867283  0.568129  1
  Si  Si31  1  0.133150  0.795401  0.932004  1
  Si  Si32  1  0.795167  0.132998  0.068188  1
  Si  Si33  1  0.866965  0.205112  0.431695  1
  Si  Si34  1  0.295304  0.366821  0.681867  1
  Si  Si35  1  0.704785  0.633066  0.181773  1
