# generated using pymatgen
data_Ta5NbAl4(IrC)2
_symmetry_space_group_name_H-M   'P 1'
_cell_length_a   8.32048941
_cell_length_b   8.32049002
_cell_length_c   8.31589010
_cell_angle_alpha   59.93746317
_cell_angle_beta   59.93746334
_cell_angle_gamma   59.95922071
_symmetry_Int_Tables_number   1
_chemical_formula_structural   Ta5NbAl4(IrC)2
_chemical_formula_sum   'Ta10 Nb2 Al8 Ir4 C4'
_cell_volume   406.58054030
_cell_formula_units_Z   2
loop_
 _symmetry_equiv_pos_site_id
 _symmetry_equiv_pos_as_xyz
  1  'x, y, z'
loop_
 _atom_site_type_symbol
 _atom_site_label
 _atom_site_symmetry_multiplicity
 _atom_site_fract_x
 _atom_site_fract_y
 _atom_site_fract_z
 _atom_site_occupancy
  Ta  Ta0  1  0.686199  0.313872  0.313954  1
  Ta  Ta1  1  0.313697  0.686458  0.313524  1
  Ta  Ta2  1  0.686380  0.686349  0.313568  1
  Ta  Ta3  1  0.313767  0.313499  0.686520  1
  Ta  Ta4  1  0.563651  0.563620  0.936432  1
  Ta  Ta5  1  0.936666  0.563518  0.563367  1
  Ta  Ta6  1  0.563542  0.936303  0.936476  1
  Ta  Ta7  1  0.936501  0.936233  0.563480  1
  Ta  Ta8  1  0.686482  0.313334  0.686633  1
  Ta  Ta9  1  0.936128  0.563801  0.936046  1
  Nb  Nb10  1  0.563928  0.936159  0.563700  1
  Nb  Nb11  1  0.313841  0.686072  0.686300  1
  Al  Al12  1  0.917432  0.915870  0.916387  1
  Al  Al13  1  0.999717  0.333468  0.332833  1
  Al  Al14  1  0.333508  0.999425  0.334594  1
  Al  Al15  1  0.332740  0.334467  0.999443  1
  Al  Al16  1  0.916532  0.250283  0.917167  1
  Al  Al17  1  0.915533  0.917260  0.250557  1
  Al  Al18  1  0.250575  0.916492  0.915406  1
  Al  Al19  1  0.334130  0.332568  0.333613  1
  Ir  Ir20  1  0.125202  0.124798  0.125000  1
  Ir  Ir21  1  0.625209  0.125973  0.122615  1
  Ir  Ir22  1  0.124027  0.624791  0.127385  1
  Ir  Ir23  1  0.121559  0.128441  0.625000  1
  C  C24  1  0.627596  0.622404  0.625000  1
  C  C25  1  0.124385  0.624261  0.624608  1
  C  C26  1  0.625739  0.125615  0.625392  1
  C  C27  1  0.625335  0.624665  0.125000  1
