# generated using pymatgen
data_YbNp(ReO4)6
_symmetry_space_group_name_H-M   'P 1'
_cell_length_a   10.28382104
_cell_length_b   10.28382068
_cell_length_c   6.28194400
_cell_angle_alpha   90.00000000
_cell_angle_beta   90.00000000
_cell_angle_gamma   119.99999654
_symmetry_Int_Tables_number   1
_chemical_formula_structural   YbNp(ReO4)6
_chemical_formula_sum   'Yb1 Np1 Re6 O24'
_cell_volume   575.35211351
_cell_formula_units_Z   1
loop_
 _symmetry_equiv_pos_site_id
 _symmetry_equiv_pos_as_xyz
  1  'x, y, z'
loop_
 _atom_site_type_symbol
 _atom_site_label
 _atom_site_symmetry_multiplicity
 _atom_site_fract_x
 _atom_site_fract_y
 _atom_site_fract_z
 _atom_site_occupancy
  Yb  Yb0  1  0.333333  0.666667  0.250000  1
  Np  Np1  1  0.666667  0.333333  0.750000  1
  Re  Re2  1  0.086082  0.397804  0.750000  1
  Re  Re3  1  0.396830  0.300960  0.250000  1
  Re  Re4  1  0.602196  0.688277  0.750000  1
  Re  Re5  1  0.904129  0.603170  0.250000  1
  Re  Re6  1  0.311723  0.913918  0.750000  1
  Re  Re7  1  0.699040  0.095871  0.250000  1
  O  O8  1  0.488815  0.646170  0.523338  1
  O  O9  1  0.353830  0.842646  0.523338  1
  O  O10  1  0.838151  0.727814  0.250000  1
  O  O11  1  0.122291  0.855885  0.750000  1
  O  O12  1  0.272186  0.110336  0.250000  1
  O  O13  1  0.144115  0.266406  0.750000  1
  O  O14  1  0.513256  0.349158  0.020817  1
  O  O15  1  0.889664  0.161849  0.250000  1
  O  O16  1  0.099122  0.701247  0.250000  1
  O  O17  1  0.157354  0.511185  0.976662  1
  O  O18  1  0.157354  0.511185  0.523338  1
  O  O19  1  0.886033  0.307911  0.750000  1
  O  O20  1  0.298753  0.397877  0.250000  1
  O  O21  1  0.692089  0.578122  0.750000  1
  O  O22  1  0.835902  0.486744  0.479183  1
  O  O23  1  0.421878  0.113967  0.750000  1
  O  O24  1  0.650842  0.164098  0.020817  1
  O  O25  1  0.488815  0.646170  0.976662  1
  O  O26  1  0.353830  0.842646  0.976662  1
  O  O27  1  0.650842  0.164098  0.479183  1
  O  O28  1  0.513256  0.349158  0.479183  1
  O  O29  1  0.835902  0.486744  0.020817  1
  O  O30  1  0.733594  0.877709  0.750000  1
  O  O31  1  0.602123  0.900878  0.250000  1
