# generated using pymatgen
data_TmHfZrFe9
_symmetry_space_group_name_H-M   'P 1'
_cell_length_a   4.97355499
_cell_length_b   4.97355448
_cell_length_c   8.43683811
_cell_angle_alpha   72.85733844
_cell_angle_beta   72.85733773
_cell_angle_gamma   59.99999546
_symmetry_Int_Tables_number   1
_chemical_formula_structural   TmHfZrFe9
_chemical_formula_sum   'Tm1 Hf1 Zr1 Fe9'
_cell_volume   169.94562629
_cell_formula_units_Z   1
loop_
 _symmetry_equiv_pos_site_id
 _symmetry_equiv_pos_as_xyz
  1  'x, y, z'
loop_
 _atom_site_type_symbol
 _atom_site_label
 _atom_site_symmetry_multiplicity
 _atom_site_fract_x
 _atom_site_fract_y
 _atom_site_fract_z
 _atom_site_occupancy
  Tm  Tm0  1  0.999762  0.999762  0.000714  1
  Hf  Hf1  1  0.857582  0.857582  0.427256  1
  Zr  Zr2  1  0.142552  0.142552  0.572342  1
  Fe  Fe3  1  0.081580  0.585781  0.746859  1
  Fe  Fe4  1  0.585781  0.585781  0.746859  1
  Fe  Fe5  1  0.585781  0.081580  0.746859  1
  Fe  Fe6  1  0.917822  0.414498  0.253181  1
  Fe  Fe7  1  0.414498  0.414498  0.253181  1
  Fe  Fe8  1  0.414498  0.917822  0.253181  1
  Fe  Fe9  1  0.333038  0.333038  0.000887  1
  Fe  Fe10  1  0.667061  0.667061  0.998817  1
  Fe  Fe11  1  0.500046  0.500046  0.499862  1
