# generated using pymatgen
data_Hf7Sc(Si4Mo3)4
_symmetry_space_group_name_H-M   'P 1'
_cell_length_a   6.57175424
_cell_length_b   6.76581622
_cell_length_c   12.62841914
_cell_angle_alpha   90.00916951
_cell_angle_beta   89.98538887
_cell_angle_gamma   90.02741643
_symmetry_Int_Tables_number   1
_chemical_formula_structural   Hf7Sc(Si4Mo3)4
_chemical_formula_sum   'Hf7 Sc1 Si16 Mo12'
_cell_volume   561.50086440
_cell_formula_units_Z   1
loop_
 _symmetry_equiv_pos_site_id
 _symmetry_equiv_pos_as_xyz
  1  'x, y, z'
loop_
 _atom_site_type_symbol
 _atom_site_label
 _atom_site_symmetry_multiplicity
 _atom_site_fract_x
 _atom_site_fract_y
 _atom_site_fract_z
 _atom_site_occupancy
  Hf  Hf0  1  0.006115  0.826765  0.906763  1
  Hf  Hf1  1  0.506028  0.671873  0.907295  1
  Hf  Hf2  1  0.005772  0.828364  0.592790  1
  Hf  Hf3  1  0.495619  0.328659  0.092624  1
  Hf  Hf4  1  0.995084  0.171968  0.407512  1
  Hf  Hf5  1  0.494299  0.328163  0.407860  1
  Hf  Hf6  1  0.506083  0.671763  0.592629  1
  Sc  Sc7  1  0.995025  0.170902  0.091709  1
  Si  Si8  1  0.031992  0.122386  0.750587  1
  Si  Si9  1  0.967754  0.877966  0.249501  1
  Si  Si10  1  0.467313  0.622478  0.250134  1
  Si  Si11  1  0.532141  0.378379  0.749805  1
  Si  Si12  1  0.300741  0.861936  0.749809  1
  Si  Si13  1  0.699844  0.139134  0.249339  1
  Si  Si14  1  0.197809  0.360716  0.249350  1
  Si  Si15  1  0.800557  0.638220  0.750039  1
  Si  Si16  1  0.167426  0.459545  0.543143  1
  Si  Si17  1  0.832683  0.540408  0.457273  1
  Si  Si18  1  0.332574  0.959457  0.457309  1
  Si  Si19  1  0.833239  0.538882  0.043515  1
  Si  Si20  1  0.667502  0.040349  0.542968  1
  Si  Si21  1  0.167044  0.459163  0.956829  1
  Si  Si22  1  0.667062  0.040225  0.957021  1
  Si  Si23  1  0.331905  0.961025  0.043272  1
  Mo  Mo24  1  0.168264  0.515207  0.750235  1
  Mo  Mo25  1  0.831899  0.488539  0.251008  1
  Mo  Mo26  1  0.332763  0.013334  0.250777  1
  Mo  Mo27  1  0.668479  0.985516  0.749548  1
  Mo  Mo28  1  0.330916  0.164398  0.623135  1
  Mo  Mo29  1  0.668384  0.835482  0.377092  1
  Mo  Mo30  1  0.169040  0.664077  0.376899  1
  Mo  Mo31  1  0.666914  0.834104  0.123403  1
  Mo  Mo32  1  0.830563  0.335354  0.623077  1
  Mo  Mo33  1  0.332322  0.164368  0.876269  1
  Mo  Mo34  1  0.829859  0.336421  0.876129  1
  Mo  Mo35  1  0.168986  0.664476  0.123351  1
