# generated using pymatgen
data_YHoAl2IrPd
_symmetry_space_group_name_H-M   'P 1'
_cell_length_a   4.34518200
_cell_length_b   6.87094400
_cell_length_c   7.87370300
_cell_angle_alpha   90.00000000
_cell_angle_beta   90.00000000
_cell_angle_gamma   90.00000000
_symmetry_Int_Tables_number   1
_chemical_formula_structural   YHoAl2IrPd
_chemical_formula_sum   'Y2 Ho2 Al4 Ir2 Pd2'
_cell_volume   235.07335717
_cell_formula_units_Z   2
loop_
 _symmetry_equiv_pos_site_id
 _symmetry_equiv_pos_as_xyz
  1  'x, y, z'
loop_
 _atom_site_type_symbol
 _atom_site_label
 _atom_site_symmetry_multiplicity
 _atom_site_fract_x
 _atom_site_fract_y
 _atom_site_fract_z
 _atom_site_occupancy
  Y  Y0  1  0.250000  0.033462  0.678610  1
  Y  Y1  1  0.250000  0.533462  0.821390  1
  Ho  Ho2  1  0.750000  0.974201  0.316673  1
  Ho  Ho3  1  0.750000  0.474201  0.183327  1
  Al  Al4  1  0.250000  0.139483  0.066701  1
  Al  Al5  1  0.250000  0.639483  0.433299  1
  Al  Al6  1  0.750000  0.855326  0.942049  1
  Al  Al7  1  0.750000  0.355326  0.557951  1
  Ir  Ir8  1  0.250000  0.268468  0.380887  1
  Ir  Ir9  1  0.250000  0.768468  0.119113  1
  Pd  Pd10  1  0.750000  0.729059  0.619377  1
  Pd  Pd11  1  0.750000  0.229059  0.880623  1
