# generated using pymatgen
data_Dy7HoAu4
_symmetry_space_group_name_H-M   'P 1'
_cell_length_a   4.95448200
_cell_length_b   7.12058542
_cell_length_c   8.96613353
_cell_angle_alpha   90.03947752
_cell_angle_beta   90.00000000
_cell_angle_gamma   90.00000000
_symmetry_Int_Tables_number   1
_chemical_formula_structural   Dy7HoAu4
_chemical_formula_sum   'Dy7 Ho1 Au4'
_cell_volume   316.31446690
_cell_formula_units_Z   1
loop_
 _symmetry_equiv_pos_site_id
 _symmetry_equiv_pos_as_xyz
  1  'x, y, z'
loop_
 _atom_site_type_symbol
 _atom_site_label
 _atom_site_symmetry_multiplicity
 _atom_site_fract_x
 _atom_site_fract_y
 _atom_site_fract_z
 _atom_site_occupancy
  Dy  Dy0  1  0.250000  0.486904  0.176544  1
  Dy  Dy1  1  0.750000  0.513414  0.823435  1
  Dy  Dy2  1  0.250000  0.986755  0.323323  1
  Dy  Dy3  1  0.750000  0.013130  0.676632  1
  Dy  Dy4  1  0.750000  0.648939  0.419344  1
  Dy  Dy5  1  0.250000  0.351087  0.580727  1
  Dy  Dy6  1  0.750000  0.148880  0.080504  1
  Ho  Ho7  1  0.250000  0.851145  0.919400  1
  Au  Au8  1  0.250000  0.257686  0.900972  1
  Au  Au9  1  0.750000  0.742017  0.098782  1
  Au  Au10  1  0.250000  0.758159  0.599390  1
  Au  Au11  1  0.750000  0.241885  0.400947  1
