# generated using pymatgen
data_Ta15Mn(Co2N)4
_symmetry_space_group_name_H-M   'P 1'
_cell_length_a   8.16698679
_cell_length_b   8.16698775
_cell_length_c   8.16698695
_cell_angle_alpha   59.58578911
_cell_angle_beta   59.58578587
_cell_angle_gamma   59.58578814
_symmetry_Int_Tables_number   1
_chemical_formula_structural   Ta15Mn(Co2N)4
_chemical_formula_sum   'Ta15 Mn1 Co8 N4'
_cell_volume   381.55943861
_cell_formula_units_Z   1
loop_
 _symmetry_equiv_pos_site_id
 _symmetry_equiv_pos_as_xyz
  1  'x, y, z'
loop_
 _atom_site_type_symbol
 _atom_site_label
 _atom_site_symmetry_multiplicity
 _atom_site_fract_x
 _atom_site_fract_y
 _atom_site_fract_z
 _atom_site_occupancy
  Ta  Ta0  1  0.125000  0.625000  0.625000  1
  Ta  Ta1  1  0.625000  0.125000  0.625000  1
  Ta  Ta2  1  0.625000  0.625000  0.125000  1
  Ta  Ta3  1  0.805762  0.805762  0.198744  1
  Ta  Ta4  1  0.185647  0.185647  0.813415  1
  Ta  Ta5  1  0.805762  0.198744  0.805762  1
  Ta  Ta6  1  0.185647  0.813415  0.185647  1
  Ta  Ta7  1  0.198744  0.805762  0.805762  1
  Ta  Ta8  1  0.813415  0.185647  0.185647  1
  Ta  Ta9  1  0.444238  0.444238  0.051256  1
  Ta  Ta10  1  0.064353  0.064353  0.436585  1
  Ta  Ta11  1  0.444238  0.051256  0.444238  1
  Ta  Ta12  1  0.064353  0.436585  0.064353  1
  Ta  Ta13  1  0.051256  0.444238  0.444238  1
  Ta  Ta14  1  0.436585  0.064353  0.064353  1
  Mn  Mn15  1  0.625000  0.625000  0.625000  1
  Co  Co16  1  0.734402  0.428551  0.428551  1
  Co  Co17  1  0.428551  0.734402  0.428551  1
  Co  Co18  1  0.428551  0.428551  0.734402  1
  Co  Co19  1  0.414618  0.414618  0.414618  1
  Co  Co20  1  0.515598  0.821449  0.821449  1
  Co  Co21  1  0.821449  0.515598  0.821449  1
  Co  Co22  1  0.821449  0.821449  0.515598  1
  Co  Co23  1  0.835382  0.835382  0.835382  1
  N  N24  1  0.625000  0.125000  0.125000  1
  N  N25  1  0.125000  0.625000  0.125000  1
  N  N26  1  0.125000  0.125000  0.625000  1
  N  N27  1  0.125000  0.125000  0.125000  1
