# generated using pymatgen
data_Y2Er2TmIr2
_symmetry_space_group_name_H-M   'P 1'
_cell_length_a   6.44538552
_cell_length_b   7.21164066
_cell_length_c   8.49190262
_cell_angle_alpha   96.82391550
_cell_angle_beta   112.30282820
_cell_angle_gamma   89.99999926
_symmetry_Int_Tables_number   1
_chemical_formula_structural   Y2Er2TmIr2
_chemical_formula_sum   'Y4 Er4 Tm2 Ir4'
_cell_volume   362.16632087
_cell_formula_units_Z   2
loop_
 _symmetry_equiv_pos_site_id
 _symmetry_equiv_pos_as_xyz
  1  'x, y, z'
loop_
 _atom_site_type_symbol
 _atom_site_label
 _atom_site_symmetry_multiplicity
 _atom_site_fract_x
 _atom_site_fract_y
 _atom_site_fract_z
 _atom_site_occupancy
  Y  Y0  1  0.971330  0.920228  0.186461  1
  Y  Y1  1  0.784868  0.579772  0.813539  1
  Y  Y2  1  0.028670  0.079772  0.813539  1
  Y  Y3  1  0.215132  0.420228  0.186461  1
  Er  Er4  1  0.650102  0.816906  0.440471  1
  Er  Er5  1  0.209631  0.683094  0.559529  1
  Er  Er6  1  0.349898  0.183094  0.559529  1
  Er  Er7  1  0.790369  0.316906  0.440471  1
  Tm  Tm8  1  0.428335  0.750000  0.000000  1
  Tm  Tm9  1  0.571665  0.250000  0.000000  1
  Ir  Ir10  1  0.819124  0.573275  0.220670  1
  Ir  Ir11  1  0.598454  0.926725  0.779330  1
  Ir  Ir12  1  0.180877  0.426725  0.779330  1
  Ir  Ir13  1  0.401546  0.073275  0.220670  1
