# generated using pymatgen
data_Nd4CdBiRu2
_symmetry_space_group_name_H-M   'P 1'
_cell_length_a   9.43673034
_cell_length_b   9.43673025
_cell_length_c   9.43673100
_cell_angle_alpha   133.07812374
_cell_angle_beta   133.07813159
_cell_angle_gamma   68.53148051
_symmetry_Int_Tables_number   1
_chemical_formula_structural   Nd4CdBiRu2
_chemical_formula_sum   'Nd8 Cd2 Bi2 Ru4'
_cell_volume   440.32114457
_cell_formula_units_Z   2
loop_
 _symmetry_equiv_pos_site_id
 _symmetry_equiv_pos_as_xyz
  1  'x, y, z'
loop_
 _atom_site_type_symbol
 _atom_site_label
 _atom_site_symmetry_multiplicity
 _atom_site_fract_x
 _atom_site_fract_y
 _atom_site_fract_z
 _atom_site_occupancy
  Nd  Nd0  1  0.802782  0.302782  0.858697  1
  Nd  Nd1  1  0.197218  0.697218  0.141303  1
  Nd  Nd2  1  0.444086  0.944086  0.141303  1
  Nd  Nd3  1  0.302782  0.444086  0.500000  1
  Nd  Nd4  1  0.055914  0.197218  0.500000  1
  Nd  Nd5  1  0.555914  0.055914  0.858697  1
  Nd  Nd6  1  0.697218  0.555914  0.500000  1
  Nd  Nd7  1  0.944086  0.802782  0.500000  1
  Cd  Cd8  1  0.000000  0.000000  0.000000  1
  Cd  Cd9  1  0.500000  0.500000  0.000000  1
  Bi  Bi10  1  0.250000  0.250000  0.000000  1
  Bi  Bi11  1  0.750000  0.750000  0.000000  1
  Ru  Ru12  1  0.122677  0.622677  0.745354  1
  Ru  Ru13  1  0.877323  0.377323  0.254646  1
  Ru  Ru14  1  0.622677  0.877323  0.500000  1
  Ru  Ru15  1  0.377323  0.122677  0.500000  1
