# generated using pymatgen
data_PrGd2ErTm2Ta2O14
_symmetry_space_group_name_H-M   'P 1'
_cell_length_a   6.39007913
_cell_length_b   6.54420741
_cell_length_c   7.61668228
_cell_angle_alpha   106.61689221
_cell_angle_beta   89.78396429
_cell_angle_gamma   97.79097691
_symmetry_Int_Tables_number   1
_chemical_formula_structural   PrGd2ErTm2Ta2O14
_chemical_formula_sum   'Pr1 Gd2 Er1 Tm2 Ta2 O14'
_cell_volume   302.18987626
_cell_formula_units_Z   1
loop_
 _symmetry_equiv_pos_site_id
 _symmetry_equiv_pos_as_xyz
  1  'x, y, z'
loop_
 _atom_site_type_symbol
 _atom_site_label
 _atom_site_symmetry_multiplicity
 _atom_site_fract_x
 _atom_site_fract_y
 _atom_site_fract_z
 _atom_site_occupancy
  Pr  Pr0  1  0.740034  0.463689  0.117136  1
  Gd  Gd1  1  0.262497  0.547512  0.396939  1
  Gd  Gd2  1  0.263785  0.537939  0.879986  1
  Er  Er3  1  0.731747  0.446727  0.605458  1
  Tm  Tm4  1  0.546296  0.991733  0.749330  1
  Tm  Tm5  1  0.453582  0.006050  0.250421  1
  Ta  Ta6  1  0.002902  0.999710  0.998373  1
  Ta  Ta7  1  0.999114  0.001841  0.501684  1
  O  O8  1  0.706005  0.061863  0.477126  1
  O  O9  1  0.925205  0.675442  0.922543  1
  O  O10  1  0.708170  0.060320  0.054411  1
  O  O11  1  0.920012  0.673308  0.417720  1
  O  O12  1  0.914170  0.992331  0.747799  1
  O  O13  1  0.554341  0.338347  0.824871  1
  O  O14  1  0.531407  0.352848  0.345918  1
  O  O15  1  0.472660  0.645408  0.661837  1
  O  O16  1  0.437072  0.659397  0.166028  1
  O  O17  1  0.084446  0.015455  0.254569  1
  O  O18  1  0.071654  0.332017  0.592837  1
  O  O19  1  0.297054  0.936785  0.948254  1
  O  O20  1  0.085581  0.321916  0.062907  1
  O  O21  1  0.292264  0.939358  0.523853  1
