# generated using pymatgen
data_Dy4Sc6GaSn7
_symmetry_space_group_name_H-M   'P 1'
_cell_length_a   7.61604500
_cell_length_b   7.87029769
_cell_length_c   14.77512100
_cell_angle_alpha   90.00000000
_cell_angle_beta   90.00000000
_cell_angle_gamma   89.33212481
_symmetry_Int_Tables_number   1
_chemical_formula_structural   Dy4Sc6GaSn7
_chemical_formula_sum   'Dy8 Sc12 Ga2 Sn14'
_cell_volume   885.56858396
_cell_formula_units_Z   2
loop_
 _symmetry_equiv_pos_site_id
 _symmetry_equiv_pos_as_xyz
  1  'x, y, z'
loop_
 _atom_site_type_symbol
 _atom_site_label
 _atom_site_symmetry_multiplicity
 _atom_site_fract_x
 _atom_site_fract_y
 _atom_site_fract_z
 _atom_site_occupancy
  Dy  Dy0  1  0.993723  0.172038  0.095003  1
  Dy  Dy1  1  0.006277  0.827962  0.904997  1
  Dy  Dy2  1  0.506143  0.676590  0.904653  1
  Dy  Dy3  1  0.006277  0.827962  0.595003  1
  Dy  Dy4  1  0.493857  0.323410  0.095347  1
  Dy  Dy5  1  0.993723  0.172038  0.404997  1
  Dy  Dy6  1  0.493857  0.323410  0.404653  1
  Dy  Dy7  1  0.506143  0.676590  0.595347  1
  Sc  Sc8  1  0.172312  0.492714  0.750000  1
  Sc  Sc9  1  0.827688  0.507286  0.250000  1
  Sc  Sc10  1  0.320014  0.994413  0.250000  1
  Sc  Sc11  1  0.679986  0.005587  0.750000  1
  Sc  Sc12  1  0.327968  0.162430  0.627489  1
  Sc  Sc13  1  0.672032  0.837570  0.372511  1
  Sc  Sc14  1  0.147364  0.671481  0.368920  1
  Sc  Sc15  1  0.672032  0.837570  0.127489  1
  Sc  Sc16  1  0.852636  0.328519  0.631080  1
  Sc  Sc17  1  0.327968  0.162430  0.872511  1
  Sc  Sc18  1  0.852636  0.328519  0.868920  1
  Sc  Sc19  1  0.147364  0.671481  0.131080  1
  Ga  Ga20  1  0.035837  0.119297  0.750000  1
  Ga  Ga21  1  0.964163  0.880703  0.250000  1
  Sn  Sn22  1  0.464618  0.627394  0.250000  1
  Sn  Sn23  1  0.535382  0.372606  0.750000  1
  Sn  Sn24  1  0.304573  0.857200  0.750000  1
  Sn  Sn25  1  0.695427  0.142800  0.250000  1
  Sn  Sn26  1  0.187969  0.353407  0.250000  1
  Sn  Sn27  1  0.812031  0.646593  0.750000  1
  Sn  Sn28  1  0.181945  0.461169  0.539632  1
  Sn  Sn29  1  0.818055  0.538831  0.460368  1
  Sn  Sn30  1  0.322148  0.955903  0.457729  1
  Sn  Sn31  1  0.818055  0.538831  0.039632  1
  Sn  Sn32  1  0.677852  0.044097  0.542271  1
  Sn  Sn33  1  0.181945  0.461169  0.960368  1
  Sn  Sn34  1  0.677852  0.044097  0.957729  1
  Sn  Sn35  1  0.322148  0.955903  0.042271  1
