# generated using pymatgen
data_Cs2Bi3Pb
_symmetry_space_group_name_H-M   'P 1'
_cell_length_a   6.88272846
_cell_length_b   6.88272837
_cell_length_c   6.88272787
_cell_angle_alpha   61.46413329
_cell_angle_beta   61.46412990
_cell_angle_gamma   61.46413691
_symmetry_Int_Tables_number   1
_chemical_formula_structural   Cs2Bi3Pb
_chemical_formula_sum   'Cs2 Bi3 Pb1'
_cell_volume   238.13012190
_cell_formula_units_Z   1
loop_
 _symmetry_equiv_pos_site_id
 _symmetry_equiv_pos_as_xyz
  1  'x, y, z'
loop_
 _atom_site_type_symbol
 _atom_site_label
 _atom_site_symmetry_multiplicity
 _atom_site_fract_x
 _atom_site_fract_y
 _atom_site_fract_z
 _atom_site_occupancy
  Cs  Cs0  1  0.502094  0.502094  0.502094  1
  Cs  Cs1  1  0.747906  0.747906  0.747906  1
  Bi  Bi2  1  0.625000  0.125000  0.125000  1
  Bi  Bi3  1  0.125000  0.125000  0.625000  1
  Bi  Bi4  1  0.125000  0.625000  0.125000  1
  Pb  Pb5  1  0.125000  0.125000  0.125000  1
