# generated using pymatgen
data_Tb2DyZrSn2Ir3
_symmetry_space_group_name_H-M   'P 1'
_cell_length_a   7.27801000
_cell_length_b   7.38939681
_cell_length_c   4.20672300
_cell_angle_alpha   90.00000000
_cell_angle_beta   90.00000000
_cell_angle_gamma   119.50259174
_symmetry_Int_Tables_number   1
_chemical_formula_structural   Tb2DyZrSn2Ir3
_chemical_formula_sum   'Tb2 Dy1 Zr1 Sn2 Ir3'
_cell_volume   196.90249229
_cell_formula_units_Z   1
loop_
 _symmetry_equiv_pos_site_id
 _symmetry_equiv_pos_as_xyz
  1  'x, y, z'
loop_
 _atom_site_type_symbol
 _atom_site_label
 _atom_site_symmetry_multiplicity
 _atom_site_fract_x
 _atom_site_fract_y
 _atom_site_fract_z
 _atom_site_occupancy
  Tb  Tb0  1  0.994019  0.583131  0.000000  1
  Tb  Tb1  1  0.410888  0.416869  0.000000  1
  Dy  Dy2  1  0.603831  0.000000  0.000000  1
  Zr  Zr3  1  0.249685  0.000000  0.500000  1
  Sn  Sn4  1  0.001414  0.254069  0.500000  1
  Sn  Sn5  1  0.747345  0.745931  0.500000  1
  Ir  Ir6  1  0.327531  0.676906  0.500000  1
  Ir  Ir7  1  0.650627  0.323094  0.500000  1
  Ir  Ir8  1  0.014657  0.000000  0.000000  1
