# generated using pymatgen
data_Dy2Sc2CrCoB12
_symmetry_space_group_name_H-M   'P 1'
_cell_length_a   3.44862200
_cell_length_b   8.94886043
_cell_length_c   11.34250689
_cell_angle_alpha   89.74985036
_cell_angle_beta   90.00000000
_cell_angle_gamma   90.00000000
_symmetry_Int_Tables_number   1
_chemical_formula_structural   Dy2Sc2CrCoB12
_chemical_formula_sum   'Dy4 Sc4 Cr2 Co2 B24'
_cell_volume   350.04045660
_cell_formula_units_Z   2
loop_
 _symmetry_equiv_pos_site_id
 _symmetry_equiv_pos_as_xyz
  1  'x, y, z'
loop_
 _atom_site_type_symbol
 _atom_site_label
 _atom_site_symmetry_multiplicity
 _atom_site_fract_x
 _atom_site_fract_y
 _atom_site_fract_z
 _atom_site_occupancy
  Dy  Dy0  1  0.000000  0.821136  0.085701  1
  Dy  Dy1  1  0.000000  0.178864  0.914299  1
  Dy  Dy2  1  0.000000  0.322998  0.415647  1
  Dy  Dy3  1  0.000000  0.677002  0.584353  1
  Sc  Sc4  1  0.000000  0.445514  0.129362  1
  Sc  Sc5  1  0.000000  0.554486  0.870638  1
  Sc  Sc6  1  0.000000  0.942952  0.371270  1
  Sc  Sc7  1  0.000000  0.057048  0.628730  1
  Cr  Cr8  1  0.000000  0.641868  0.316732  1
  Cr  Cr9  1  0.000000  0.358132  0.683268  1
  Co  Co10  1  0.000000  0.141100  0.181754  1
  Co  Co11  1  0.000000  0.858900  0.818246  1
  B  B12  1  0.500000  0.056038  0.068188  1
  B  B13  1  0.500000  0.943962  0.931812  1
  B  B14  1  0.500000  0.554472  0.431593  1
  B  B15  1  0.500000  0.445528  0.568407  1
  B  B16  1  0.500000  0.251788  0.083022  1
  B  B17  1  0.500000  0.748212  0.916978  1
  B  B18  1  0.500000  0.752710  0.417489  1
  B  B19  1  0.500000  0.247290  0.582511  1
  B  B20  1  0.500000  0.292413  0.235275  1
  B  B21  1  0.500000  0.707587  0.764725  1
  B  B22  1  0.500000  0.795659  0.264511  1
  B  B23  1  0.500000  0.204341  0.735489  1
  B  B24  1  0.500000  0.129977  0.316407  1
  B  B25  1  0.500000  0.870023  0.683593  1
  B  B26  1  0.500000  0.630223  0.182710  1
  B  B27  1  0.500000  0.369777  0.817290  1
  B  B28  1  0.500000  0.482057  0.285588  1
  B  B29  1  0.500000  0.517943  0.714412  1
  B  B30  1  0.500000  0.985132  0.213134  1
  B  B31  1  0.500000  0.014868  0.786866  1
  B  B32  1  0.500000  0.098086  0.473097  1
  B  B33  1  0.500000  0.901914  0.526903  1
  B  B34  1  0.500000  0.598780  0.025629  1
  B  B35  1  0.500000  0.401220  0.974371  1
