# generated using pymatgen
data_BaGa3CuIr
_symmetry_space_group_name_H-M   'P 1'
_cell_length_a   6.80392652
_cell_length_b   6.80392603
_cell_length_c   5.36250811
_cell_angle_alpha   90.07564281
_cell_angle_beta   89.92435153
_cell_angle_gamma   74.63149637
_symmetry_Int_Tables_number   1
_chemical_formula_structural   BaGa3CuIr
_chemical_formula_sum   'Ba2 Ga6 Cu2 Ir2'
_cell_volume   239.37116419
_cell_formula_units_Z   2
loop_
 _symmetry_equiv_pos_site_id
 _symmetry_equiv_pos_as_xyz
  1  'x, y, z'
loop_
 _atom_site_type_symbol
 _atom_site_label
 _atom_site_symmetry_multiplicity
 _atom_site_fract_x
 _atom_site_fract_y
 _atom_site_fract_z
 _atom_site_occupancy
  Ba  Ba0  1  0.657223  0.342778  0.248445  1
  Ba  Ba1  1  0.342778  0.657223  0.751556  1
  Ga  Ga2  1  0.077525  0.527204  0.245440  1
  Ga  Ga3  1  0.472797  0.922476  0.245440  1
  Ga  Ga4  1  0.066662  0.933339  0.249551  1
  Ga  Ga5  1  0.933339  0.066662  0.750450  1
  Ga  Ga6  1  0.527204  0.077525  0.754561  1
  Ga  Ga7  1  0.922476  0.472797  0.754561  1
  Cu  Cu8  1  0.204047  0.204047  0.499999  1
  Cu  Cu9  1  0.795954  0.795954  0.499999  1
  Ir  Ir10  1  0.199743  0.199743  0.000000  1
  Ir  Ir11  1  0.800258  0.800258  0.000000  1
