# generated using pymatgen
data_Dy8Er12Sn9Pb7
_symmetry_space_group_name_H-M   'P 1'
_cell_length_a   8.05531010
_cell_length_b   8.18221028
_cell_length_c   15.46864338
_cell_angle_alpha   90.02439509
_cell_angle_beta   90.00651535
_cell_angle_gamma   90.01712704
_symmetry_Int_Tables_number   1
_chemical_formula_structural   Dy8Er12Sn9Pb7
_chemical_formula_sum   'Dy8 Er12 Sn9 Pb7'
_cell_volume   1019.54186992
_cell_formula_units_Z   1
loop_
 _symmetry_equiv_pos_site_id
 _symmetry_equiv_pos_as_xyz
  1  'x, y, z'
loop_
 _atom_site_type_symbol
 _atom_site_label
 _atom_site_symmetry_multiplicity
 _atom_site_fract_x
 _atom_site_fract_y
 _atom_site_fract_z
 _atom_site_occupancy
  Dy  Dy0  1  0.524120  0.322185  0.901224  1
  Dy  Dy1  1  0.022685  0.178834  0.599811  1
  Dy  Dy2  1  0.477508  0.678867  0.400130  1
  Dy  Dy3  1  0.976546  0.819089  0.099478  1
  Dy  Dy4  1  0.479740  0.677089  0.099340  1
  Dy  Dy5  1  0.977333  0.821001  0.400135  1
  Dy  Dy6  1  0.522567  0.321013  0.599729  1
  Dy  Dy7  1  0.021527  0.179910  0.900750  1
  Er  Er8  1  0.367449  0.837748  0.875579  1
  Er  Er9  1  0.867649  0.662191  0.624435  1
  Er  Er10  1  0.632292  0.162266  0.375474  1
  Er  Er11  1  0.130332  0.338005  0.124036  1
  Er  Er12  1  0.633473  0.164706  0.123765  1
  Er  Er13  1  0.132106  0.337768  0.375488  1
  Er  Er14  1  0.367693  0.837871  0.624529  1
  Er  Er15  1  0.867101  0.660955  0.876567  1
  Er  Er16  1  0.198354  0.503125  0.750100  1
  Er  Er17  1  0.698448  0.996731  0.750044  1
  Er  Er18  1  0.801308  0.496738  0.248615  1
  Er  Er19  1  0.301695  0.003319  0.249871  1
  Sn  Sn20  1  0.792665  0.462978  0.041602  1
  Sn  Sn21  1  0.564013  0.620558  0.750036  1
  Sn  Sn22  1  0.063875  0.879152  0.750176  1
  Sn  Sn23  1  0.435443  0.379526  0.250079  1
  Sn  Sn24  1  0.935963  0.120081  0.249972  1
  Sn  Sn25  1  0.330905  0.148731  0.750205  1
  Sn  Sn26  1  0.830775  0.351509  0.749983  1
  Sn  Sn27  1  0.669259  0.851902  0.249900  1
  Sn  Sn28  1  0.169438  0.648403  0.249900  1
  Pb  Pb29  1  0.291822  0.037765  0.041155  1
  Pb  Pb30  1  0.791830  0.462041  0.458776  1
  Pb  Pb31  1  0.708268  0.961895  0.540953  1
  Pb  Pb32  1  0.208050  0.538143  0.959206  1
  Pb  Pb33  1  0.707941  0.961991  0.959031  1
  Pb  Pb34  1  0.208226  0.537985  0.540955  1
  Pb  Pb35  1  0.291602  0.037928  0.458968  1
