# generated using pymatgen
data_K5Te2F13
_symmetry_space_group_name_H-M   'P 1'
_cell_length_a   7.23519698
_cell_length_b   7.23519914
_cell_length_c   9.33203100
_cell_angle_alpha   82.81142928
_cell_angle_beta   82.81142711
_cell_angle_gamma   51.70642611
_symmetry_Int_Tables_number   1
_chemical_formula_structural   K5Te2F13
_chemical_formula_sum   'K5 Te2 F13'
_cell_volume   379.68339694
_cell_formula_units_Z   1
loop_
 _symmetry_equiv_pos_site_id
 _symmetry_equiv_pos_as_xyz
  1  'x, y, z'
loop_
 _atom_site_type_symbol
 _atom_site_label
 _atom_site_symmetry_multiplicity
 _atom_site_fract_x
 _atom_site_fract_y
 _atom_site_fract_z
 _atom_site_occupancy
  K  K0  1  0.220477  0.220477  0.844638  1
  K  K1  1  0.779523  0.779523  0.155362  1
  K  K2  1  0.500000  0.500000  0.000000  1
  K  K3  1  0.656310  0.656310  0.571023  1
  K  K4  1  0.343690  0.343690  0.428977  1
  Te  Te5  1  0.926531  0.926531  0.737237  1
  Te  Te6  1  0.073469  0.073469  0.262763  1
  F  F7  1  0.042621  0.606566  0.645793  1
  F  F8  1  0.606566  0.042621  0.645793  1
  F  F9  1  0.957379  0.393434  0.354207  1
  F  F10  1  0.393434  0.957379  0.354207  1
  F  F11  1  0.663075  0.072765  0.912096  1
  F  F12  1  0.072765  0.663075  0.912096  1
  F  F13  1  0.336925  0.927235  0.087904  1
  F  F14  1  0.927235  0.336925  0.087904  1
  F  F15  1  0.269638  0.832418  0.750935  1
  F  F16  1  0.832418  0.269638  0.750935  1
  F  F17  1  0.730362  0.167582  0.249065  1
  F  F18  1  0.167582  0.730362  0.249065  1
  F  F19  1  0.000000  0.000000  0.500000  1
