# generated using pymatgen
data_Ac2PbO2
_symmetry_space_group_name_H-M   'P 1'
_cell_length_a   4.07403200
_cell_length_b   15.26933400
_cell_length_c   8.15846300
_cell_angle_alpha   90.00000000
_cell_angle_beta   90.00000000
_cell_angle_gamma   90.00000000
_symmetry_Int_Tables_number   1
_chemical_formula_structural   Ac2PbO2
_chemical_formula_sum   'Ac8 Pb4 O8'
_cell_volume   507.51967021
_cell_formula_units_Z   4
loop_
 _symmetry_equiv_pos_site_id
 _symmetry_equiv_pos_as_xyz
  1  'x, y, z'
loop_
 _atom_site_type_symbol
 _atom_site_label
 _atom_site_symmetry_multiplicity
 _atom_site_fract_x
 _atom_site_fract_y
 _atom_site_fract_z
 _atom_site_occupancy
  Ac  Ac0  1  0.000000  0.338376  0.876552  1
  Ac  Ac1  1  0.000000  0.661624  0.876552  1
  Ac  Ac2  1  0.500000  0.161624  0.123448  1
  Ac  Ac3  1  0.500000  0.838376  0.123448  1
  Ac  Ac4  1  0.000000  0.334811  0.373465  1
  Ac  Ac5  1  0.000000  0.665189  0.373465  1
  Ac  Ac6  1  0.500000  0.165189  0.626535  1
  Ac  Ac7  1  0.500000  0.834811  0.626535  1
  Pb  Pb8  1  0.000000  0.000000  0.854934  1
  Pb  Pb9  1  0.500000  0.500000  0.145066  1
  Pb  Pb10  1  0.000000  0.000000  0.395958  1
  Pb  Pb11  1  0.500000  0.500000  0.604042  1
  O  O12  1  0.000000  0.252436  0.627271  1
  O  O13  1  0.000000  0.747564  0.627271  1
  O  O14  1  0.500000  0.247564  0.372729  1
  O  O15  1  0.500000  0.752436  0.372729  1
  O  O16  1  0.000000  0.247521  0.122714  1
  O  O17  1  0.000000  0.752479  0.122714  1
  O  O18  1  0.500000  0.252479  0.877286  1
  O  O19  1  0.500000  0.747521  0.877286  1
