# generated using pymatgen
data_TbTmTa4(B2Ru5)2
_symmetry_space_group_name_H-M   'P 1'
_cell_length_a   9.54276382
_cell_length_b   9.54276385
_cell_length_c   3.08618100
_cell_angle_alpha   90.00000000
_cell_angle_beta   90.00000000
_cell_angle_gamma   90.56184112
_symmetry_Int_Tables_number   1
_chemical_formula_structural   TbTmTa4(B2Ru5)2
_chemical_formula_sum   'Tb1 Tm1 Ta4 B4 Ru10'
_cell_volume   281.02752907
_cell_formula_units_Z   1
loop_
 _symmetry_equiv_pos_site_id
 _symmetry_equiv_pos_as_xyz
  1  'x, y, z'
loop_
 _atom_site_type_symbol
 _atom_site_label
 _atom_site_symmetry_multiplicity
 _atom_site_fract_x
 _atom_site_fract_y
 _atom_site_fract_z
 _atom_site_occupancy
  Tb  Tb0  1  0.824140  0.675860  0.000000  1
  Tm  Tm1  1  0.176835  0.323165  0.000000  1
  Ta  Ta2  1  0.323877  0.824050  0.000000  1
  Ta  Ta3  1  0.675950  0.176123  0.000000  1
  Ta  Ta4  1  0.498981  0.499666  0.000000  1
  Ta  Ta5  1  0.000334  0.001019  0.000000  1
  B  B6  1  0.619493  0.880507  0.000000  1
  B  B7  1  0.379019  0.120981  0.000000  1
  B  B8  1  0.121764  0.620483  0.000000  1
  B  B9  1  0.879517  0.378236  0.000000  1
  Ru  Ru10  1  0.557774  0.723846  0.500000  1
  Ru  Ru11  1  0.439962  0.277221  0.500000  1
  Ru  Ru12  1  0.082716  0.785578  0.500000  1
  Ru  Ru13  1  0.919761  0.214363  0.500000  1
  Ru  Ru14  1  0.285637  0.580239  0.500000  1
  Ru  Ru15  1  0.714422  0.417284  0.500000  1
  Ru  Ru16  1  0.222779  0.060038  0.500000  1
  Ru  Ru17  1  0.776154  0.942226  0.500000  1
  Ru  Ru18  1  0.499282  0.000718  0.500000  1
  Ru  Ru19  1  0.001604  0.498396  0.500000  1
