# generated using pymatgen
data_NdDyTm2(Ir2O7)2
_symmetry_space_group_name_H-M   'P 1'
_cell_length_a   7.28991139
_cell_length_b   7.22303081
_cell_length_c   7.22303044
_cell_angle_alpha   59.91810208
_cell_angle_beta   60.23211372
_cell_angle_gamma   60.23211479
_symmetry_Int_Tables_number   1
_chemical_formula_structural   NdDyTm2(Ir2O7)2
_chemical_formula_sum   'Nd1 Dy1 Tm2 Ir4 O14'
_cell_volume   269.70536072
_cell_formula_units_Z   1
loop_
 _symmetry_equiv_pos_site_id
 _symmetry_equiv_pos_as_xyz
  1  'x, y, z'
loop_
 _atom_site_type_symbol
 _atom_site_label
 _atom_site_symmetry_multiplicity
 _atom_site_fract_x
 _atom_site_fract_y
 _atom_site_fract_z
 _atom_site_occupancy
  Nd  Nd0  1  0.625000  0.125000  0.125000  1
  Dy  Dy1  1  0.125000  0.125000  0.125000  1
  Tm  Tm2  1  0.125000  0.625000  0.125000  1
  Tm  Tm3  1  0.125000  0.125000  0.625000  1
  Ir  Ir4  1  0.125000  0.625000  0.625000  1
  Ir  Ir5  1  0.625000  0.125000  0.625000  1
  Ir  Ir6  1  0.625000  0.625000  0.125000  1
  Ir  Ir7  1  0.625000  0.625000  0.625000  1
  O  O8  1  0.723956  0.701004  0.287589  1
  O  O9  1  0.287430  0.288420  0.709968  1
  O  O10  1  0.723956  0.287589  0.701004  1
  O  O11  1  0.287430  0.709968  0.288420  1
  O  O12  1  0.286981  0.712524  0.712524  1
  O  O13  1  0.721155  0.288000  0.288000  1
  O  O14  1  0.526044  0.548996  0.962411  1
  O  O15  1  0.962570  0.961580  0.540032  1
  O  O16  1  0.526044  0.962411  0.548996  1
  O  O17  1  0.962570  0.540032  0.961580  1
  O  O18  1  0.963019  0.537476  0.537476  1
  O  O19  1  0.528845  0.962000  0.962000  1
  O  O20  1  0.238313  0.255796  0.255796  1
  O  O21  1  0.011687  0.994204  0.994204  1
