# generated using pymatgen
data_Sr4Os6BrO18
_symmetry_space_group_name_H-M   'P 1'
_cell_length_a   8.08204585
_cell_length_b   8.08204512
_cell_length_c   8.08204500
_cell_angle_alpha   109.47122033
_cell_angle_beta   109.47121851
_cell_angle_gamma   109.47122458
_symmetry_Int_Tables_number   1
_chemical_formula_structural   Sr4Os6BrO18
_chemical_formula_sum   'Sr4 Os6 Br1 O18'
_cell_volume   406.38900176
_cell_formula_units_Z   1
loop_
 _symmetry_equiv_pos_site_id
 _symmetry_equiv_pos_as_xyz
  1  'x, y, z'
loop_
 _atom_site_type_symbol
 _atom_site_label
 _atom_site_symmetry_multiplicity
 _atom_site_fract_x
 _atom_site_fract_y
 _atom_site_fract_z
 _atom_site_occupancy
  Sr  Sr0  1  0.000000  0.376235  0.000000  1
  Sr  Sr1  1  0.000000  0.000000  0.376235  1
  Sr  Sr2  1  0.623765  0.623765  0.623765  1
  Sr  Sr3  1  0.376235  0.000000  0.000000  1
  Os  Os4  1  0.500000  0.365621  0.865621  1
  Os  Os5  1  0.500000  0.634379  0.134379  1
  Os  Os6  1  0.365621  0.865621  0.500000  1
  Os  Os7  1  0.634379  0.134379  0.500000  1
  Os  Os8  1  0.865621  0.500000  0.365621  1
  Os  Os9  1  0.134379  0.500000  0.634379  1
  Br  Br10  1  0.000000  0.000000  0.000000  1
  O  O11  1  0.701466  0.343450  0.065357  1
  O  O12  1  0.656550  0.358016  0.721907  1
  O  O13  1  0.278093  0.636108  0.934643  1
  O  O14  1  0.641984  0.298534  0.363892  1
  O  O15  1  0.358016  0.721907  0.656550  1
  O  O16  1  0.934643  0.278093  0.636108  1
  O  O17  1  0.065357  0.701466  0.343450  1
  O  O18  1  0.000000  0.664978  0.664978  1
  O  O19  1  0.664978  0.664978  0.000000  1
  O  O20  1  0.721907  0.656550  0.358016  1
  O  O21  1  0.343450  0.065357  0.701466  1
  O  O22  1  0.664978  0.000000  0.664978  1
  O  O23  1  0.000000  0.335022  0.335022  1
  O  O24  1  0.636108  0.934643  0.278093  1
  O  O25  1  0.363892  0.641984  0.298534  1
  O  O26  1  0.298534  0.363892  0.641984  1
  O  O27  1  0.335022  0.000000  0.335022  1
  O  O28  1  0.335022  0.335022  0.000000  1
