# generated using pymatgen
data_Rb6Si2Se7
_symmetry_space_group_name_H-M   'P 1'
_cell_length_a   8.63846166
_cell_length_b   11.50747200
_cell_length_c   13.89409264
_cell_angle_alpha   89.99921135
_cell_angle_beta   125.49539895
_cell_angle_gamma   89.99947464
_symmetry_Int_Tables_number   1
_chemical_formula_structural   Rb6Si2Se7
_chemical_formula_sum   'Rb12 Si4 Se14'
_cell_volume   1124.49475592
_cell_formula_units_Z   2
loop_
 _symmetry_equiv_pos_site_id
 _symmetry_equiv_pos_as_xyz
  1  'x, y, z'
loop_
 _atom_site_type_symbol
 _atom_site_label
 _atom_site_symmetry_multiplicity
 _atom_site_fract_x
 _atom_site_fract_y
 _atom_site_fract_z
 _atom_site_occupancy
  Rb  Rb0  1  0.839086  0.271286  0.078413  1
  Rb  Rb1  1  0.987516  0.917248  0.076871  1
  Rb  Rb2  1  0.583629  0.957725  0.205144  1
  Rb  Rb3  1  0.440677  0.462322  0.308795  1
  Rb  Rb4  1  0.987410  0.415541  0.391297  1
  Rb  Rb5  1  0.194742  0.780158  0.416547  1
  Rb  Rb6  1  0.839097  0.728717  0.578415  1
  Rb  Rb7  1  0.987525  0.082750  0.576867  1
  Rb  Rb8  1  0.583634  0.042271  0.705144  1
  Rb  Rb9  1  0.440682  0.537674  0.808794  1
  Rb  Rb10  1  0.987403  0.584453  0.891296  1
  Rb  Rb11  1  0.194737  0.219842  0.916547  1
  Si  Si12  1  0.667114  0.617285  0.131260  1
  Si  Si13  1  0.323422  0.112294  0.359948  1
  Si  Si14  1  0.667113  0.382707  0.631255  1
  Si  Si15  1  0.323431  0.887710  0.859947  1
  Se  Se16  1  0.524250  0.439305  0.088947  1
  Se  Se17  1  0.916423  0.620189  0.115752  1
  Se  Se18  1  0.294109  0.180340  0.196673  1
  Se  Se19  1  0.752381  0.677401  0.312321  1
  Se  Se20  1  0.034723  0.070373  0.323842  1
  Se  Se21  1  0.533170  0.962448  0.441722  1
  Se  Se22  1  0.391526  0.265809  0.496083  1
  Se  Se23  1  0.524229  0.560688  0.588906  1
  Se  Se24  1  0.916448  0.379799  0.615777  1
  Se  Se25  1  0.294157  0.819661  0.696684  1
  Se  Se26  1  0.752375  0.322601  0.812319  1
  Se  Se27  1  0.034707  0.929651  0.823805  1
  Se  Se28  1  0.533177  0.037554  0.941738  1
  Se  Se29  1  0.391515  0.734189  0.996085  1
