# generated using pymatgen
data_Eu2DyY3Ta2O14
_symmetry_space_group_name_H-M   'P 1'
_cell_length_a   6.50051227
_cell_length_b   6.49525017
_cell_length_c   7.57356738
_cell_angle_alpha   90.02912477
_cell_angle_beta   89.96940705
_cell_angle_gamma   108.93286047
_symmetry_Int_Tables_number   1
_chemical_formula_structural   Eu2DyY3Ta2O14
_chemical_formula_sum   'Eu2 Dy1 Y3 Ta2 O14'
_cell_volume   302.47454556
_cell_formula_units_Z   1
loop_
 _symmetry_equiv_pos_site_id
 _symmetry_equiv_pos_as_xyz
  1  'x, y, z'
loop_
 _atom_site_type_symbol
 _atom_site_label
 _atom_site_symmetry_multiplicity
 _atom_site_fract_x
 _atom_site_fract_y
 _atom_site_fract_z
 _atom_site_occupancy
  Eu  Eu0  1  0.502755  0.502890  0.500160  1
  Eu  Eu1  1  0.496703  0.496878  0.999896  1
  Dy  Dy2  1  0.999929  0.465422  0.748859  1
  Y  Y3  1  0.999798  0.533890  0.248920  1
  Y  Y4  1  0.533655  0.999628  0.751118  1
  Y  Y5  1  0.466089  0.000232  0.251104  1
  Ta  Ta6  1  0.000045  0.999848  0.500103  1
  Ta  Ta7  1  0.000021  0.999859  0.999840  1
  O  O8  1  0.639691  0.360823  0.749931  1
  O  O9  1  0.360452  0.639282  0.250171  1
  O  O10  1  0.935038  0.066019  0.750009  1
  O  O11  1  0.064329  0.934622  0.249996  1
  O  O12  1  0.932049  0.679927  0.532616  1
  O  O13  1  0.068699  0.320572  0.031241  1
  O  O14  1  0.320400  0.069269  0.968743  1
  O  O15  1  0.679692  0.930664  0.468497  1
  O  O16  1  0.366211  0.633113  0.750338  1
  O  O17  1  0.633576  0.366813  0.249615  1
  O  O18  1  0.935501  0.682281  0.964882  1
  O  O19  1  0.065410  0.318178  0.466303  1
  O  O20  1  0.318050  0.066046  0.533735  1
  O  O21  1  0.681908  0.933744  0.033923  1
