# generated using pymatgen
data_Ho10In8RuPt3
_symmetry_space_group_name_H-M   'P 1'
_cell_length_a   3.62533700
_cell_length_b   8.10758786
_cell_length_c   18.19599093
_cell_angle_alpha   90.05288421
_cell_angle_beta   90.00000000
_cell_angle_gamma   90.00000000
_symmetry_Int_Tables_number   1
_chemical_formula_structural   Ho10In8RuPt3
_chemical_formula_sum   'Ho10 In8 Ru1 Pt3'
_cell_volume   534.82977123
_cell_formula_units_Z   1
loop_
 _symmetry_equiv_pos_site_id
 _symmetry_equiv_pos_as_xyz
  1  'x, y, z'
loop_
 _atom_site_type_symbol
 _atom_site_label
 _atom_site_symmetry_multiplicity
 _atom_site_fract_x
 _atom_site_fract_y
 _atom_site_fract_z
 _atom_site_occupancy
  Ho  Ho0  1  0.000000  0.115797  0.411718  1
  Ho  Ho1  1  0.000000  0.884278  0.585579  1
  Ho  Ho2  1  0.000000  0.384068  0.914329  1
  Ho  Ho3  1  0.000000  0.618142  0.087341  1
  Ho  Ho4  1  0.000000  0.233573  0.222632  1
  Ho  Ho5  1  0.000000  0.756991  0.778755  1
  Ho  Ho6  1  0.000000  0.256787  0.721383  1
  Ho  Ho7  1  0.000000  0.751291  0.278690  1
  Ho  Ho8  1  0.000000  0.999631  0.000476  1
  Ho  Ho9  1  0.000000  0.500349  0.499318  1
  In  In10  1  0.500000  0.424486  0.350906  1
  In  In11  1  0.500000  0.574184  0.647878  1
  In  In12  1  0.500000  0.074128  0.852135  1
  In  In13  1  0.500000  0.930678  0.149773  1
  In  In14  1  0.500000  0.292711  0.066315  1
  In  In15  1  0.500000  0.708300  0.933661  1
  In  In16  1  0.500000  0.209677  0.566647  1
  In  In17  1  0.500000  0.793592  0.431235  1
  Ru  Ru18  1  0.500000  0.018812  0.304474  1
  Pt  Pt19  1  0.500000  0.976592  0.696090  1
  Pt  Pt20  1  0.500000  0.477274  0.804190  1
  Pt  Pt21  1  0.500000  0.518659  0.196475  1
