# generated using pymatgen
data_GaNi7(Mo3N)4
_symmetry_space_group_name_H-M   'P 1'
_cell_length_a   6.68795574
_cell_length_b   6.68795574
_cell_length_c   6.68795574
_cell_angle_alpha   90.18677554
_cell_angle_beta   89.81322446
_cell_angle_gamma   90.18677554
_symmetry_Int_Tables_number   1
_chemical_formula_structural   GaNi7(Mo3N)4
_chemical_formula_sum   'Ga1 Ni7 Mo12 N4'
_cell_volume   299.13915539
_cell_formula_units_Z   1
loop_
 _symmetry_equiv_pos_site_id
 _symmetry_equiv_pos_as_xyz
  1  'x, y, z'
loop_
 _atom_site_type_symbol
 _atom_site_label
 _atom_site_symmetry_multiplicity
 _atom_site_fract_x
 _atom_site_fract_y
 _atom_site_fract_z
 _atom_site_occupancy
  Ga  Ga0  1  0.930540  0.569460  0.430540  1
  Ni  Ni1  1  0.181351  0.816733  0.317246  1
  Ni  Ni2  1  0.432110  0.932699  0.566641  1
  Ni  Ni3  1  0.683267  0.682754  0.681351  1
  Ni  Ni4  1  0.817246  0.318649  0.183267  1
  Ni  Ni5  1  0.315579  0.184421  0.815579  1
  Ni  Ni6  1  0.567301  0.433359  0.932110  1
  Ni  Ni7  1  0.066641  0.067890  0.067301  1
  Mo  Mo8  1  0.208460  0.446497  0.120061  1
  Mo  Mo9  1  0.053503  0.879939  0.708460  1
  Mo  Mo10  1  0.451931  0.125865  0.200702  1
  Mo  Mo11  1  0.303649  0.548314  0.627270  1
  Mo  Mo12  1  0.951686  0.372730  0.803649  1
  Mo  Mo13  1  0.542544  0.627878  0.296496  1
  Mo  Mo14  1  0.700702  0.048069  0.874135  1
  Mo  Mo15  1  0.620061  0.291540  0.553503  1
  Mo  Mo16  1  0.872122  0.703504  0.042544  1
  Mo  Mo17  1  0.374135  0.799298  0.951931  1
  Mo  Mo18  1  0.127270  0.196351  0.451686  1
  Mo  Mo19  1  0.796496  0.957456  0.372122  1
  N  N20  1  0.876594  0.123558  0.626504  1
  N  N21  1  0.623865  0.876135  0.123865  1
  N  N22  1  0.126504  0.623406  0.876442  1
  N  N23  1  0.376442  0.373496  0.376594  1
