# generated using pymatgen
data_Tc12AgI25
_symmetry_space_group_name_H-M   'P 1'
_cell_length_a   10.39354326
_cell_length_b   11.64152232
_cell_length_c   12.80214362
_cell_angle_alpha   85.79323112
_cell_angle_beta   79.43498451
_cell_angle_gamma   91.41666484
_symmetry_Int_Tables_number   1
_chemical_formula_structural   Tc12AgI25
_chemical_formula_sum   'Tc12 Ag1 I25'
_cell_volume   1517.50279426
_cell_formula_units_Z   1
loop_
 _symmetry_equiv_pos_site_id
 _symmetry_equiv_pos_as_xyz
  1  'x, y, z'
loop_
 _atom_site_type_symbol
 _atom_site_label
 _atom_site_symmetry_multiplicity
 _atom_site_fract_x
 _atom_site_fract_y
 _atom_site_fract_z
 _atom_site_occupancy
  Tc  Tc0  1  0.816189  0.248817  0.125179  1
  Tc  Tc1  1  0.183811  0.751183  0.874821  1
  Tc  Tc2  1  0.752481  0.123309  0.264049  1
  Tc  Tc3  1  0.247519  0.876691  0.735951  1
  Tc  Tc4  1  0.049952  0.281120  0.189638  1
  Tc  Tc5  1  0.950048  0.718880  0.810362  1
  Tc  Tc6  1  0.847746  0.417228  0.256848  1
  Tc  Tc7  1  0.152254  0.582772  0.743152  1
  Tc  Tc8  1  0.781020  0.292065  0.396745  1
  Tc  Tc9  1  0.218980  0.707935  0.603255  1
  Tc  Tc10  1  0.985422  0.157516  0.330533  1
  Tc  Tc11  1  0.014578  0.842484  0.669467  1
  Ag  Ag12  1  0.500000  0.000000  0.000000  1
  I  I13  1  0.925650  0.959031  0.260053  1
  I  I14  1  0.074350  0.040969  0.739947  1
  I  I15  1  0.978089  0.275286  0.500742  1
  I  I16  1  0.021911  0.724714  0.499258  1
  I  I17  1  0.645080  0.416202  0.155820  1
  I  I18  1  0.354920  0.583798  0.844180  1
  I  I19  1  0.092357  0.476455  0.276799  1
  I  I20  1  0.907643  0.523545  0.723201  1
  I  I21  1  0.000000  0.500000  0.000000  1
  I  I22  1  0.584970  0.958672  0.208825  1
  I  I23  1  0.415030  0.041328  0.791175  1
  I  I24  1  0.200772  0.053694  0.384286  1
  I  I25  1  0.799228  0.946306  0.615714  1
  I  I26  1  0.546240  0.207686  0.382883  1
  I  I27  1  0.453760  0.792314  0.617117  1
  I  I28  1  0.035197  0.161662  0.023558  1
  I  I29  1  0.964803  0.838338  0.976442  1
  I  I30  1  0.778561  0.634600  0.308585  1
  I  I31  1  0.221439  0.365400  0.691415  1
  I  I32  1  0.699819  0.189056  0.955535  1
  I  I33  1  0.300181  0.810944  0.044465  1
  I  I34  1  0.315623  0.271576  0.121594  1
  I  I35  1  0.684377  0.728424  0.878406  1
  I  I36  1  0.653448  0.402149  0.564604  1
  I  I37  1  0.346552  0.597851  0.435396  1
