# generated using pymatgen
data_Ho5Lu3Tc2(B12Os)2
_symmetry_space_group_name_H-M   'P 1'
_cell_length_a   3.63550900
_cell_length_b   9.09555700
_cell_length_c   11.48131105
_cell_angle_alpha   89.93957800
_cell_angle_beta   90.00000000
_cell_angle_gamma   90.00000000
_symmetry_Int_Tables_number   1
_chemical_formula_structural   Ho5Lu3Tc2(B12Os)2
_chemical_formula_sum   'Ho5 Lu3 Tc2 B24 Os2'
_cell_volume   379.65206422
_cell_formula_units_Z   1
loop_
 _symmetry_equiv_pos_site_id
 _symmetry_equiv_pos_as_xyz
  1  'x, y, z'
loop_
 _atom_site_type_symbol
 _atom_site_label
 _atom_site_symmetry_multiplicity
 _atom_site_fract_x
 _atom_site_fract_y
 _atom_site_fract_z
 _atom_site_occupancy
  Ho  Ho0  1  0.000000  0.324392  0.415313  1
  Ho  Ho1  1  0.000000  0.675494  0.585142  1
  Ho  Ho2  1  0.000000  0.820220  0.087129  1
  Ho  Ho3  1  0.000000  0.179726  0.912479  1
  Ho  Ho4  1  0.000000  0.942073  0.371502  1
  Lu  Lu5  1  0.000000  0.058305  0.629445  1
  Lu  Lu6  1  0.000000  0.444026  0.129267  1
  Lu  Lu7  1  0.000000  0.556033  0.870438  1
  Tc  Tc8  1  0.000000  0.637663  0.319370  1
  Tc  Tc9  1  0.000000  0.361070  0.680696  1
  B  B10  1  0.500000  0.552730  0.432966  1
  B  B11  1  0.500000  0.446497  0.567306  1
  B  B12  1  0.500000  0.054153  0.066603  1
  B  B13  1  0.500000  0.946045  0.932920  1
  B  B14  1  0.500000  0.748295  0.419027  1
  B  B15  1  0.500000  0.250419  0.581323  1
  B  B16  1  0.500000  0.250608  0.081005  1
  B  B17  1  0.500000  0.749771  0.918734  1
  B  B18  1  0.500000  0.791152  0.264870  1
  B  B19  1  0.500000  0.207690  0.734862  1
  B  B20  1  0.500000  0.292301  0.234121  1
  B  B21  1  0.500000  0.708224  0.765708  1
  B  B22  1  0.500000  0.630009  0.184222  1
  B  B23  1  0.500000  0.369618  0.815585  1
  B  B24  1  0.500000  0.131196  0.314182  1
  B  B25  1  0.500000  0.869916  0.685474  1
  B  B26  1  0.500000  0.982839  0.211719  1
  B  B27  1  0.500000  0.017807  0.787546  1
  B  B28  1  0.500000  0.481577  0.286766  1
  B  B29  1  0.500000  0.518130  0.713132  1
  B  B30  1  0.500000  0.600944  0.027553  1
  B  B31  1  0.500000  0.399047  0.972222  1
  B  B32  1  0.500000  0.102818  0.472558  1
  B  B33  1  0.500000  0.898298  0.529661  1
  Os  Os34  1  0.000000  0.139154  0.178093  1
  Os  Os35  1  0.000000  0.861759  0.821064  1
