# generated using pymatgen
data_Tl2V3P4O17
_symmetry_space_group_name_H-M   'P 1'
_cell_length_a   5.09897300
_cell_length_b   9.38315905
_cell_length_c   18.77208700
_cell_angle_alpha   65.43472844
_cell_angle_beta   90.00000000
_cell_angle_gamma   90.00000000
_symmetry_Int_Tables_number   1
_chemical_formula_structural   Tl2V3P4O17
_chemical_formula_sum   'Tl4 V6 P8 O34'
_cell_volume   816.84836869
_cell_formula_units_Z   2
loop_
 _symmetry_equiv_pos_site_id
 _symmetry_equiv_pos_as_xyz
  1  'x, y, z'
loop_
 _atom_site_type_symbol
 _atom_site_label
 _atom_site_symmetry_multiplicity
 _atom_site_fract_x
 _atom_site_fract_y
 _atom_site_fract_z
 _atom_site_occupancy
  Tl  Tl0  1  0.797003  0.676343  0.331017  1
  Tl  Tl1  1  0.202522  0.322542  0.170179  1
  Tl  Tl2  1  0.797478  0.322542  0.670179  1
  Tl  Tl3  1  0.202997  0.676343  0.831017  1
  V  V4  1  0.714284  0.862886  0.652232  1
  V  V5  1  0.234595  0.137959  0.847635  1
  V  V6  1  0.765405  0.137959  0.347635  1
  V  V7  1  0.285716  0.862886  0.152232  1
  V  V8  1  0.341784  0.497690  0.501372  1
  V  V9  1  0.658216  0.497690  0.001372  1
  P  P10  1  0.209466  0.705889  0.599927  1
  P  P11  1  0.730919  0.294881  0.900223  1
  P  P12  1  0.269081  0.294881  0.400223  1
  P  P13  1  0.790534  0.705889  0.099927  1
  P  P14  1  0.230687  0.123634  0.572688  1
  P  P15  1  0.747125  0.876168  0.927270  1
  P  P16  1  0.252875  0.876168  0.427270  1
  P  P17  1  0.769313  0.123634  0.072688  1
  O  O18  1  0.738567  0.809156  0.746918  1
  O  O19  1  0.255605  0.189583  0.753065  1
  O  O20  1  0.744395  0.189583  0.253065  1
  O  O21  1  0.261433  0.809156  0.246918  1
  O  O22  1  0.707976  0.846509  0.017864  1
  O  O23  1  0.190583  0.152406  0.482153  1
  O  O24  1  0.809417  0.152406  0.982153  1
  O  O25  1  0.292024  0.846509  0.517864  1
  O  O26  1  0.746470  0.713275  0.925851  1
  O  O27  1  0.213898  0.286480  0.573973  1
  O  O28  1  0.786102  0.286480  0.073973  1
  O  O29  1  0.253530  0.713275  0.425851  1
  O  O30  1  0.398228  0.722988  0.658758  1
  O  O31  1  0.924148  0.281610  0.841400  1
  O  O32  1  0.075852  0.281610  0.341400  1
  O  O33  1  0.601772  0.722988  0.158758  1
  O  O34  1  0.919864  0.723580  0.617877  1
  O  O35  1  0.443110  0.276367  0.881348  1
  O  O36  1  0.556890  0.276367  0.381348  1
  O  O37  1  0.080136  0.723580  0.117877  1
  O  O38  1  0.015199  0.951090  0.900437  1
  O  O39  1  0.503501  0.053454  0.597769  1
  O  O40  1  0.496499  0.053454  0.097769  1
  O  O41  1  0.984801  0.951090  0.400437  1
  O  O42  1  0.760621  0.551489  0.090419  1
  O  O43  1  0.237614  0.448004  0.410929  1
  O  O44  1  0.762386  0.448004  0.910929  1
  O  O45  1  0.239379  0.551489  0.590419  1
  O  O46  1  0.010784  0.017335  0.617747  1
  O  O47  1  0.520494  0.977962  0.883860  1
  O  O48  1  0.479506  0.977962  0.383860  1
  O  O49  1  0.989216  0.017335  0.117747  1
  O  O50  1  0.335912  0.489720  0.003289  1
  O  O51  1  0.664088  0.489720  0.503289  1
