# generated using pymatgen
data_Y5Er2BI12
_symmetry_space_group_name_H-M   'P 1'
_cell_length_a   9.66033248
_cell_length_b   9.65759172
_cell_length_c   9.65520729
_cell_angle_alpha   107.82345291
_cell_angle_beta   107.94291186
_cell_angle_gamma   107.75838930
_symmetry_Int_Tables_number   1
_chemical_formula_structural   Y5Er2BI12
_chemical_formula_sum   'Y5 Er2 B1 I12'
_cell_volume   732.27854678
_cell_formula_units_Z   1
loop_
 _symmetry_equiv_pos_site_id
 _symmetry_equiv_pos_as_xyz
  1  'x, y, z'
loop_
 _atom_site_type_symbol
 _atom_site_label
 _atom_site_symmetry_multiplicity
 _atom_site_fract_x
 _atom_site_fract_y
 _atom_site_fract_z
 _atom_site_occupancy
  Y  Y0  1  0.894857  0.960112  0.706514  1
  Y  Y1  1  0.706034  0.894975  0.960252  1
  Y  Y2  1  0.960051  0.705850  0.894959  1
  Y  Y3  1  0.095398  0.027185  0.290077  1
  Y  Y4  1  0.522232  0.522324  0.522146  1
  Er  Er5  1  0.287561  0.094500  0.027568  1
  Er  Er6  1  0.026913  0.288019  0.094557  1
  B  B7  1  0.005765  0.006313  0.004905  1
  I  I8  1  0.853586  0.609161  0.527778  1
  I  I9  1  0.527019  0.853571  0.609683  1
  I  I10  1  0.608325  0.526476  0.851925  1
  I  I11  1  0.158512  0.388600  0.462628  1
  I  I12  1  0.466013  0.159537  0.384950  1
  I  I13  1  0.385898  0.462957  0.159096  1
  I  I14  1  0.926054  0.312466  0.776873  1
  I  I15  1  0.773279  0.924590  0.311528  1
  I  I16  1  0.312481  0.776440  0.925517  1
  I  I17  1  0.076515  0.685236  0.221855  1
  I  I18  1  0.224639  0.077370  0.690466  1
  I  I19  1  0.688866  0.224318  0.076723  1
