# generated using pymatgen
data_Tb5Sc3(Ni4P3)4
_symmetry_space_group_name_H-M   'P 1'
_cell_length_a   12.33879900
_cell_length_b   12.33879805
_cell_length_c   3.80373300
_cell_angle_alpha   90.00000000
_cell_angle_beta   90.00000000
_cell_angle_gamma   120.00000523
_symmetry_Int_Tables_number   1
_chemical_formula_structural   Tb5Sc3(Ni4P3)4
_chemical_formula_sum   'Tb5 Sc3 Ni16 P12'
_cell_volume   501.51783142
_cell_formula_units_Z   1
loop_
 _symmetry_equiv_pos_site_id
 _symmetry_equiv_pos_as_xyz
  1  'x, y, z'
loop_
 _atom_site_type_symbol
 _atom_site_label
 _atom_site_symmetry_multiplicity
 _atom_site_fract_x
 _atom_site_fract_y
 _atom_site_fract_z
 _atom_site_occupancy
  Tb  Tb0  1  0.184428  0.184428  0.500000  1
  Tb  Tb1  1  0.815572  0.000000  0.500000  1
  Tb  Tb2  1  0.000000  0.815572  0.500000  1
  Tb  Tb3  1  0.333333  0.666667  0.000000  1
  Tb  Tb4  1  0.666667  0.333333  0.000000  1
  Sc  Sc5  1  0.563980  0.563980  0.000000  1
  Sc  Sc6  1  0.436020  0.000000  0.000000  1
  Sc  Sc7  1  0.000000  0.436020  0.000000  1
  Ni  Ni8  1  0.722788  0.722788  0.500000  1
  Ni  Ni9  1  0.277212  0.000000  0.500000  1
  Ni  Ni10  1  0.000000  0.277212  0.500000  1
  Ni  Ni11  1  0.186417  0.378630  0.000000  1
  Ni  Ni12  1  0.621370  0.807787  0.000000  1
  Ni  Ni13  1  0.192213  0.813583  0.000000  1
  Ni  Ni14  1  0.807787  0.621370  0.000000  1
  Ni  Ni15  1  0.813583  0.192213  0.000000  1
  Ni  Ni16  1  0.378630  0.186417  0.000000  1
  Ni  Ni17  1  0.360568  0.482977  0.500000  1
  Ni  Ni18  1  0.517023  0.877592  0.500000  1
  Ni  Ni19  1  0.122408  0.639432  0.500000  1
  Ni  Ni20  1  0.877592  0.517023  0.500000  1
  Ni  Ni21  1  0.639432  0.122408  0.500000  1
  Ni  Ni22  1  0.482977  0.360568  0.500000  1
  Ni  Ni23  1  0.000000  0.000000  0.000000  1
  P  P24  1  0.821218  0.821218  0.000000  1
  P  P25  1  0.178782  0.000000  0.000000  1
  P  P26  1  0.000000  0.178782  0.000000  1
  P  P27  1  0.170358  0.475867  0.500000  1
  P  P28  1  0.524133  0.694490  0.500000  1
  P  P29  1  0.305510  0.829642  0.500000  1
  P  P30  1  0.694490  0.524133  0.500000  1
  P  P31  1  0.829642  0.305510  0.500000  1
  P  P32  1  0.475867  0.170358  0.500000  1
  P  P33  1  0.356664  0.356664  0.000000  1
  P  P34  1  0.643336  0.000000  0.000000  1
  P  P35  1  0.000000  0.643336  0.000000  1
