# generated using pymatgen
data_Ho6Er2TcOsBr8
_symmetry_space_group_name_H-M   'P 1'
_cell_length_a   8.95118326
_cell_length_b   8.93827799
_cell_length_c   6.53678260
_cell_angle_alpha   89.51227261
_cell_angle_beta   89.64206798
_cell_angle_gamma   89.42965537
_symmetry_Int_Tables_number   1
_chemical_formula_structural   Ho6Er2TcOsBr8
_chemical_formula_sum   'Ho6 Er2 Tc1 Os1 Br8'
_cell_volume   522.94118576
_cell_formula_units_Z   1
loop_
 _symmetry_equiv_pos_site_id
 _symmetry_equiv_pos_as_xyz
  1  'x, y, z'
loop_
 _atom_site_type_symbol
 _atom_site_label
 _atom_site_symmetry_multiplicity
 _atom_site_fract_x
 _atom_site_fract_y
 _atom_site_fract_z
 _atom_site_occupancy
  Ho  Ho0  1  0.247771  0.901155  0.011194  1
  Ho  Ho1  1  0.751663  0.098923  0.989695  1
  Ho  Ho2  1  0.098693  0.751424  0.488753  1
  Ho  Ho3  1  0.901213  0.249187  0.510365  1
  Ho  Ho4  1  0.753327  0.903014  0.506877  1
  Ho  Ho5  1  0.246803  0.097509  0.492206  1
  Er  Er6  1  0.096266  0.245647  0.992380  1
  Er  Er7  1  0.903246  0.754301  0.008383  1
  Tc  Tc8  1  0.994703  0.005476  0.250055  1
  Os  Os9  1  0.005093  0.994728  0.749889  1
  Br  Br10  1  0.419112  0.817559  0.409846  1
  Br  Br11  1  0.580923  0.182002  0.592379  1
  Br  Br12  1  0.181133  0.579961  0.090238  1
  Br  Br13  1  0.819372  0.420023  0.907666  1
  Br  Br14  1  0.413676  0.190516  0.092569  1
  Br  Br15  1  0.586682  0.809006  0.906453  1
  Br  Br16  1  0.810077  0.585643  0.405649  1
  Br  Br17  1  0.190248  0.413925  0.595403  1
