# generated using pymatgen
data_Ho2TmSc3CoBi2
_symmetry_space_group_name_H-M   'P 1'
_cell_length_a   7.97854523
_cell_length_b   7.95337010
_cell_length_c   4.09180800
_cell_angle_alpha   90.00000000
_cell_angle_beta   90.00000000
_cell_angle_gamma   119.89568611
_symmetry_Int_Tables_number   1
_chemical_formula_structural   Ho2TmSc3CoBi2
_chemical_formula_sum   'Ho2 Tm1 Sc3 Co1 Bi2'
_cell_volume   225.10043047
_cell_formula_units_Z   1
loop_
 _symmetry_equiv_pos_site_id
 _symmetry_equiv_pos_as_xyz
  1  'x, y, z'
loop_
 _atom_site_type_symbol
 _atom_site_label
 _atom_site_symmetry_multiplicity
 _atom_site_fract_x
 _atom_site_fract_y
 _atom_site_fract_z
 _atom_site_occupancy
  Ho  Ho0  1  0.385028  0.385451  0.500000  1
  Ho  Ho1  1  0.614972  0.000423  0.500000  1
  Tm  Tm2  1  0.000000  0.619732  0.500000  1
  Sc  Sc3  1  0.224320  0.001622  0.000000  1
  Sc  Sc4  1  0.775680  0.777302  0.000000  1
  Sc  Sc5  1  0.000000  0.223264  0.000000  1
  Co  Co6  1  0.000000  0.989989  0.500000  1
  Bi  Bi7  1  0.331675  0.666947  0.000000  1
  Bi  Bi8  1  0.668325  0.335272  0.000000  1
