# generated using pymatgen
data_K2Ti(Te2Au)2
_symmetry_space_group_name_H-M   'P 1'
_cell_length_a   7.90880173
_cell_length_b   7.90880214
_cell_length_c   6.37555500
_cell_angle_alpha   90.00000000
_cell_angle_beta   90.00000000
_cell_angle_gamma   132.25510176
_symmetry_Int_Tables_number   1
_chemical_formula_structural   K2Ti(Te2Au)2
_chemical_formula_sum   'K2 Ti1 Te4 Au2'
_cell_volume   295.16440457
_cell_formula_units_Z   1
loop_
 _symmetry_equiv_pos_site_id
 _symmetry_equiv_pos_as_xyz
  1  'x, y, z'
loop_
 _atom_site_type_symbol
 _atom_site_label
 _atom_site_symmetry_multiplicity
 _atom_site_fract_x
 _atom_site_fract_y
 _atom_site_fract_z
 _atom_site_occupancy
  K  K0  1  0.500000  0.000000  0.253678  1
  K  K1  1  0.000000  0.500000  0.746322  1
  Ti  Ti2  1  0.000000  0.000000  0.000000  1
  Te  Te3  1  0.876292  0.652534  0.235336  1
  Te  Te4  1  0.123708  0.347466  0.235336  1
  Te  Te5  1  0.652534  0.876292  0.764664  1
  Te  Te6  1  0.347466  0.123708  0.764664  1
  Au  Au7  1  0.000000  0.000000  0.500000  1
  Au  Au8  1  0.500000  0.500000  0.000000  1
