# generated using pymatgen
data_Li4NdGd3Si8
_symmetry_space_group_name_H-M   'P 1'
_cell_length_a   3.81758500
_cell_length_b   7.62147652
_cell_length_c   10.25407000
_cell_angle_alpha   89.90942702
_cell_angle_beta   90.00000000
_cell_angle_gamma   90.00000000
_symmetry_Int_Tables_number   1
_chemical_formula_structural   Li4NdGd3Si8
_chemical_formula_sum   'Li4 Nd1 Gd3 Si8'
_cell_volume   298.34829958
_cell_formula_units_Z   1
loop_
 _symmetry_equiv_pos_site_id
 _symmetry_equiv_pos_as_xyz
  1  'x, y, z'
loop_
 _atom_site_type_symbol
 _atom_site_label
 _atom_site_symmetry_multiplicity
 _atom_site_fract_x
 _atom_site_fract_y
 _atom_site_fract_z
 _atom_site_occupancy
  Li  Li0  1  0.250000  0.994083  0.392001  1
  Li  Li1  1  0.750000  0.009385  0.609507  1
  Li  Li2  1  0.250000  0.489510  0.107490  1
  Li  Li3  1  0.750000  0.509087  0.893070  1
  Nd  Nd4  1  0.750000  0.360592  0.364642  1
  Gd  Gd5  1  0.250000  0.136293  0.864612  1
  Gd  Gd6  1  0.750000  0.860096  0.134441  1
  Gd  Gd7  1  0.250000  0.639757  0.635712  1
  Si  Si8  1  0.750000  0.265601  0.065886  1
  Si  Si9  1  0.250000  0.730469  0.930703  1
  Si  Si10  1  0.750000  0.772907  0.430984  1
  Si  Si11  1  0.250000  0.230168  0.573589  1
  Si  Si12  1  0.750000  0.840267  0.819745  1
  Si  Si13  1  0.250000  0.154623  0.175909  1
  Si  Si14  1  0.750000  0.342945  0.682253  1
  Si  Si15  1  0.250000  0.664220  0.319459  1
