# generated using pymatgen
data_Hf18Ta5Tc2Ni2W
_symmetry_space_group_name_H-M   'P 1'
_cell_length_a   8.77160479
_cell_length_b   8.79392759
_cell_length_c   8.47956700
_cell_angle_alpha   90.00000000
_cell_angle_beta   90.00000000
_cell_angle_gamma   120.08422048
_symmetry_Int_Tables_number   1
_chemical_formula_structural   Hf18Ta5Tc2Ni2W
_chemical_formula_sum   'Hf18 Ta5 Tc2 Ni2 W1'
_cell_volume   565.97474698
_cell_formula_units_Z   1
loop_
 _symmetry_equiv_pos_site_id
 _symmetry_equiv_pos_as_xyz
  1  'x, y, z'
loop_
 _atom_site_type_symbol
 _atom_site_label
 _atom_site_symmetry_multiplicity
 _atom_site_fract_x
 _atom_site_fract_y
 _atom_site_fract_z
 _atom_site_occupancy
  Hf  Hf0  1  0.201200  0.799224  0.441570  1
  Hf  Hf1  1  0.201200  0.401978  0.441570  1
  Hf  Hf2  1  0.599337  0.799669  0.444037  1
  Hf  Hf3  1  0.798889  0.199574  0.559777  1
  Hf  Hf4  1  0.798889  0.599314  0.559777  1
  Hf  Hf5  1  0.402223  0.201111  0.558176  1
  Hf  Hf6  1  0.798889  0.199574  0.940223  1
  Hf  Hf7  1  0.798889  0.599314  0.940223  1
  Hf  Hf8  1  0.402223  0.201111  0.941824  1
  Hf  Hf9  1  0.201200  0.799224  0.058430  1
  Hf  Hf10  1  0.201200  0.401978  0.058430  1
  Hf  Hf11  1  0.599337  0.799669  0.055963  1
  Hf  Hf12  1  0.541983  0.457976  0.250000  1
  Hf  Hf13  1  0.541983  0.084006  0.250000  1
  Hf  Hf14  1  0.915087  0.457543  0.250000  1
  Hf  Hf15  1  0.459908  0.543889  0.750000  1
  Hf  Hf16  1  0.459908  0.916020  0.750000  1
  Hf  Hf17  1  0.085005  0.542504  0.750000  1
  Ta  Ta18  1  0.888037  0.111183  0.250000  1
  Ta  Ta19  1  0.888037  0.776854  0.250000  1
  Ta  Ta20  1  0.222783  0.111392  0.250000  1
  Ta  Ta21  1  0.109366  0.887506  0.750000  1
  Ta  Ta22  1  0.109366  0.221860  0.750000  1
  Tc  Tc23  1  0.998611  0.999306  0.500542  1
  Tc  Tc24  1  0.998611  0.999306  0.999458  1
  Ni  Ni25  1  0.335071  0.667536  0.250000  1
  Ni  Ni26  1  0.667030  0.333515  0.750000  1
  W  W27  1  0.775737  0.887869  0.750000  1
