# generated using pymatgen
data_Ho8Lu2Ga3Bi2Ir
_symmetry_space_group_name_H-M   'P 1'
_cell_length_a   8.60153582
_cell_length_b   8.60153535
_cell_length_c   8.73002971
_cell_angle_alpha   125.01184855
_cell_angle_beta   125.01184889
_cell_angle_gamma   80.52405401
_symmetry_Int_Tables_number   1
_chemical_formula_structural   Ho8Lu2Ga3Bi2Ir
_chemical_formula_sum   'Ho8 Lu2 Ga3 Bi2 Ir1'
_cell_volume   420.04437055
_cell_formula_units_Z   1
loop_
 _symmetry_equiv_pos_site_id
 _symmetry_equiv_pos_as_xyz
  1  'x, y, z'
loop_
 _atom_site_type_symbol
 _atom_site_label
 _atom_site_symmetry_multiplicity
 _atom_site_fract_x
 _atom_site_fract_y
 _atom_site_fract_z
 _atom_site_occupancy
  Ho  Ho0  1  0.016325  0.500905  0.798839  1
  Ho  Ho1  1  0.717486  0.202065  0.201161  1
  Ho  Ho2  1  0.516368  0.705677  0.500000  1
  Ho  Ho3  1  0.195138  0.039180  0.500000  1
  Ho  Ho4  1  0.999095  0.483675  0.201161  1
  Ho  Ho5  1  0.297935  0.782514  0.798839  1
  Ho  Ho6  1  0.460820  0.304862  0.500000  1
  Ho  Ho7  1  0.794323  0.983632  0.500000  1
  Lu  Lu8  1  0.999631  0.999983  0.999614  1
  Lu  Lu9  1  0.500017  0.500369  0.000386  1
  Ga  Ga10  1  0.356662  0.854983  0.211643  1
  Ga  Ga11  1  0.645017  0.143338  0.788357  1
  Ga  Ga12  1  0.863673  0.636327  0.500000  1
  Bi  Bi13  1  0.755478  0.744522  0.000000  1
  Bi  Bi14  1  0.255478  0.244522  0.000000  1
  Ir  Ir15  1  0.126558  0.373442  0.500000  1
