# generated using pymatgen
data_Tb8In2IrPd
_symmetry_space_group_name_H-M   'P 1'
_cell_length_a   9.73482019
_cell_length_b   9.73482002
_cell_length_c   9.69857300
_cell_angle_alpha   60.12309077
_cell_angle_beta   60.12309135
_cell_angle_gamma   60.29023239
_symmetry_Int_Tables_number   1
_chemical_formula_structural   Tb8In2IrPd
_chemical_formula_sum   'Tb16 In4 Ir2 Pd2'
_cell_volume   652.53124490
_cell_formula_units_Z   2
loop_
 _symmetry_equiv_pos_site_id
 _symmetry_equiv_pos_as_xyz
  1  'x, y, z'
loop_
 _atom_site_type_symbol
 _atom_site_label
 _atom_site_symmetry_multiplicity
 _atom_site_fract_x
 _atom_site_fract_y
 _atom_site_fract_z
 _atom_site_occupancy
  Tb  Tb0  1  0.601492  0.601492  0.594507  1
  Tb  Tb1  1  0.601492  0.601492  0.202510  1
  Tb  Tb2  1  0.607634  0.193560  0.599404  1
  Tb  Tb3  1  0.193560  0.607634  0.599404  1
  Tb  Tb4  1  0.055209  0.440769  0.439652  1
  Tb  Tb5  1  0.440769  0.055209  0.064369  1
  Tb  Tb6  1  0.440769  0.055209  0.439652  1
  Tb  Tb7  1  0.055209  0.440769  0.064369  1
  Tb  Tb8  1  0.440851  0.440851  0.059149  1
  Tb  Tb9  1  0.060775  0.060775  0.439225  1
  Tb  Tb10  1  0.188762  0.815087  0.809297  1
  Tb  Tb11  1  0.815087  0.188762  0.186854  1
  Tb  Tb12  1  0.815087  0.188762  0.809297  1
  Tb  Tb13  1  0.188762  0.815087  0.186854  1
  Tb  Tb14  1  0.812308  0.812308  0.187692  1
  Tb  Tb15  1  0.188004  0.188004  0.811996  1
  In  In16  1  0.832278  0.832278  0.833631  1
  In  In17  1  0.832278  0.832278  0.501814  1
  In  In18  1  0.831438  0.502282  0.833140  1
  In  In19  1  0.502282  0.831438  0.833140  1
  Ir  Ir20  1  0.389795  0.822801  0.393703  1
  Ir  Ir21  1  0.822801  0.389795  0.393703  1
  Pd  Pd22  1  0.391680  0.391680  0.396261  1
  Pd  Pd23  1  0.391680  0.391680  0.820379  1
