# generated using pymatgen
data_Ti8MnOs7
_symmetry_space_group_name_H-M   'P 1'
_cell_length_a   4.36271301
_cell_length_b   12.31859003
_cell_length_c   4.36261400
_cell_angle_alpha   90.00000000
_cell_angle_beta   90.00000000
_cell_angle_gamma   90.00817741
_symmetry_Int_Tables_number   1
_chemical_formula_structural   Ti8MnOs7
_chemical_formula_sum   'Ti8 Mn1 Os7'
_cell_volume   234.45766275
_cell_formula_units_Z   1
loop_
 _symmetry_equiv_pos_site_id
 _symmetry_equiv_pos_as_xyz
  1  'x, y, z'
loop_
 _atom_site_type_symbol
 _atom_site_label
 _atom_site_symmetry_multiplicity
 _atom_site_fract_x
 _atom_site_fract_y
 _atom_site_fract_z
 _atom_site_occupancy
  Ti  Ti0  1  0.917310  0.003374  0.000000  1
  Ti  Ti1  1  0.915992  0.246623  0.000000  1
  Ti  Ti2  1  0.916196  0.498843  0.000000  1
  Ti  Ti3  1  0.917155  0.751152  0.000000  1
  Ti  Ti4  1  0.417160  0.003372  0.500000  1
  Ti  Ti5  1  0.416144  0.246631  0.500000  1
  Ti  Ti6  1  0.416197  0.498844  0.500000  1
  Ti  Ti7  1  0.417148  0.751156  0.500000  1
  Mn  Mn8  1  0.416549  0.125006  0.000000  1
  Os  Os9  1  0.416096  0.373359  0.000000  1
  Os  Os10  1  0.416682  0.625001  0.000000  1
  Os  Os11  1  0.417282  0.876641  0.000000  1
  Os  Os12  1  0.916638  0.125000  0.500000  1
  Os  Os13  1  0.916116  0.374274  0.500000  1
  Os  Os14  1  0.916681  0.624999  0.500000  1
  Os  Os15  1  0.917243  0.875727  0.500000  1
