# generated using pymatgen
data_Y10CoAu3
_symmetry_space_group_name_H-M   'P 1'
_cell_length_a   9.45949000
_cell_length_b   9.45949067
_cell_length_c   9.55012600
_cell_angle_alpha   90.00000000
_cell_angle_beta   90.00000000
_cell_angle_gamma   119.99999066
_symmetry_Int_Tables_number   1
_chemical_formula_structural   Y10CoAu3
_chemical_formula_sum   'Y20 Co2 Au6'
_cell_volume   740.07417517
_cell_formula_units_Z   2
loop_
 _symmetry_equiv_pos_site_id
 _symmetry_equiv_pos_as_xyz
  1  'x, y, z'
loop_
 _atom_site_type_symbol
 _atom_site_label
 _atom_site_symmetry_multiplicity
 _atom_site_fract_x
 _atom_site_fract_y
 _atom_site_fract_z
 _atom_site_occupancy
  Y  Y0  1  0.000000  0.000000  0.500000  1
  Y  Y1  1  0.000000  0.000000  0.000000  1
  Y  Y2  1  0.543055  0.456945  0.250000  1
  Y  Y3  1  0.543055  0.086111  0.250000  1
  Y  Y4  1  0.913889  0.456945  0.250000  1
  Y  Y5  1  0.456945  0.543055  0.750000  1
  Y  Y6  1  0.456945  0.913889  0.750000  1
  Y  Y7  1  0.086111  0.543055  0.750000  1
  Y  Y8  1  0.208859  0.791141  0.436484  1
  Y  Y9  1  0.208859  0.417717  0.436484  1
  Y  Y10  1  0.582283  0.791141  0.436484  1
  Y  Y11  1  0.791141  0.208859  0.563516  1
  Y  Y12  1  0.791141  0.582283  0.563516  1
  Y  Y13  1  0.417717  0.208859  0.563516  1
  Y  Y14  1  0.791141  0.208859  0.936484  1
  Y  Y15  1  0.791141  0.582283  0.936484  1
  Y  Y16  1  0.417717  0.208859  0.936484  1
  Y  Y17  1  0.208859  0.791141  0.063516  1
  Y  Y18  1  0.208859  0.417717  0.063516  1
  Y  Y19  1  0.582283  0.791141  0.063516  1
  Co  Co20  1  0.333333  0.666667  0.250000  1
  Co  Co21  1  0.666667  0.333333  0.750000  1
  Au  Au22  1  0.879851  0.120149  0.250000  1
  Au  Au23  1  0.879851  0.759702  0.250000  1
  Au  Au24  1  0.240298  0.120149  0.250000  1
  Au  Au25  1  0.120149  0.879851  0.750000  1
  Au  Au26  1  0.120149  0.240298  0.750000  1
  Au  Au27  1  0.759702  0.879851  0.750000  1
