# generated using pymatgen
data_NpZnSiH
_symmetry_space_group_name_H-M   'P 1'
_cell_length_a   4.01151900
_cell_length_b   4.01151900
_cell_length_c   7.27235200
_cell_angle_alpha   90.00000000
_cell_angle_beta   90.00000000
_cell_angle_gamma   90.00000000
_symmetry_Int_Tables_number   1
_chemical_formula_structural   NpZnSiH
_chemical_formula_sum   'Np2 Zn2 Si2 H2'
_cell_volume   117.02875873
_cell_formula_units_Z   2
loop_
 _symmetry_equiv_pos_site_id
 _symmetry_equiv_pos_as_xyz
  1  'x, y, z'
loop_
 _atom_site_type_symbol
 _atom_site_label
 _atom_site_symmetry_multiplicity
 _atom_site_fract_x
 _atom_site_fract_y
 _atom_site_fract_z
 _atom_site_occupancy
  Np  Np0  1  0.500000  0.000000  0.357507  1
  Np  Np1  1  0.000000  0.500000  0.642493  1
  Zn  Zn2  1  0.500000  0.500000  0.000000  1
  Zn  Zn3  1  0.000000  0.000000  0.000000  1
  Si  Si4  1  0.500000  0.000000  0.779769  1
  Si  Si5  1  0.000000  0.500000  0.220231  1
  H  H6  1  0.000000  0.000000  0.500000  1
  H  H7  1  0.500000  0.500000  0.500000  1
