# generated using pymatgen
data_YLu9(IrPt2)2
_symmetry_space_group_name_H-M   'P 1'
_cell_length_a   10.84718200
_cell_length_b   10.84692900
_cell_length_c   6.28267900
_cell_angle_alpha   90.00000000
_cell_angle_beta   90.00258197
_cell_angle_gamma   90.00000000
_symmetry_Int_Tables_number   1
_chemical_formula_structural   YLu9(IrPt2)2
_chemical_formula_sum   'Y2 Lu18 Ir4 Pt8'
_cell_volume   739.21129672
_cell_formula_units_Z   2
loop_
 _symmetry_equiv_pos_site_id
 _symmetry_equiv_pos_as_xyz
  1  'x, y, z'
loop_
 _atom_site_type_symbol
 _atom_site_label
 _atom_site_symmetry_multiplicity
 _atom_site_fract_x
 _atom_site_fract_y
 _atom_site_fract_z
 _atom_site_occupancy
  Y  Y0  1  0.087483  0.706247  0.626704  1
  Y  Y1  1  0.087483  0.293753  0.126704  1
  Lu  Lu2  1  0.296847  0.086133  0.375303  1
  Lu  Lu3  1  0.296847  0.913867  0.875303  1
  Lu  Lu4  1  0.703844  0.086879  0.874747  1
  Lu  Lu5  1  0.703844  0.913121  0.374747  1
  Lu  Lu6  1  0.586835  0.796020  0.875017  1
  Lu  Lu7  1  0.586835  0.203980  0.375017  1
  Lu  Lu8  1  0.413441  0.796056  0.374771  1
  Lu  Lu9  1  0.413441  0.203944  0.874771  1
  Lu  Lu10  1  0.204470  0.412857  0.625165  1
  Lu  Lu11  1  0.204470  0.587143  0.125165  1
  Lu  Lu12  1  0.794847  0.413503  0.125183  1
  Lu  Lu13  1  0.794847  0.586497  0.625183  1
  Lu  Lu14  1  0.912220  0.703797  0.125148  1
  Lu  Lu15  1  0.912220  0.296203  0.625148  1
  Lu  Lu16  1  0.999230  0.000759  0.499350  1
  Lu  Lu17  1  0.999230  0.999241  0.999350  1
  Lu  Lu18  1  0.500130  0.499906  0.000087  1
  Lu  Lu19  1  0.500130  0.500094  0.500087  1
  Ir  Ir20  1  0.500178  0.999935  0.121555  1
  Ir  Ir21  1  0.500178  0.000065  0.621555  1
  Ir  Ir22  1  0.998525  0.500082  0.878704  1
  Ir  Ir23  1  0.998525  0.499918  0.378704  1
  Pt  Pt24  1  0.845075  0.153232  0.250900  1
  Pt  Pt25  1  0.845075  0.846768  0.750900  1
  Pt  Pt26  1  0.154527  0.152315  0.746116  1
  Pt  Pt27  1  0.154527  0.847685  0.246116  1
  Pt  Pt28  1  0.653916  0.346202  0.749944  1
  Pt  Pt29  1  0.653916  0.653798  0.249944  1
  Pt  Pt30  1  0.348432  0.346551  0.251306  1
  Pt  Pt31  1  0.348432  0.653449  0.751306  1
