# generated using pymatgen
data_Nd15Th(AlRu)4
_symmetry_space_group_name_H-M   'P 1'
_cell_length_a   9.85764074
_cell_length_b   9.85764062
_cell_length_c   9.75493000
_cell_angle_alpha   60.34407630
_cell_angle_beta   60.34407669
_cell_angle_gamma   59.94065573
_symmetry_Int_Tables_number   1
_chemical_formula_structural   Nd15Th(AlRu)4
_chemical_formula_sum   'Nd15 Th1 Al4 Ru4'
_cell_volume   673.43726623
_cell_formula_units_Z   1
loop_
 _symmetry_equiv_pos_site_id
 _symmetry_equiv_pos_as_xyz
  1  'x, y, z'
loop_
 _atom_site_type_symbol
 _atom_site_label
 _atom_site_symmetry_multiplicity
 _atom_site_fract_x
 _atom_site_fract_y
 _atom_site_fract_z
 _atom_site_occupancy
  Nd  Nd0  1  0.189776  0.809714  0.188567  1
  Nd  Nd1  1  0.813008  0.813008  0.186992  1
  Nd  Nd2  1  0.185905  0.185905  0.814095  1
  Nd  Nd3  1  0.400273  0.797736  0.400995  1
  Nd  Nd4  1  0.809714  0.189776  0.811942  1
  Nd  Nd5  1  0.946886  0.946886  0.553114  1
  Nd  Nd6  1  0.809714  0.189776  0.188567  1
  Nd  Nd7  1  0.949559  0.555066  0.944156  1
  Nd  Nd8  1  0.797736  0.400273  0.400995  1
  Nd  Nd9  1  0.555066  0.949559  0.944156  1
  Nd  Nd10  1  0.189776  0.809714  0.811942  1
  Nd  Nd11  1  0.555066  0.949559  0.551219  1
  Nd  Nd12  1  0.397850  0.397850  0.403808  1
  Nd  Nd13  1  0.949559  0.555066  0.551219  1
  Nd  Nd14  1  0.397850  0.397850  0.800491  1
  Th  Th15  1  0.559795  0.559795  0.940205  1
  Al  Al16  1  0.174773  0.474229  0.175500  1
  Al  Al17  1  0.175992  0.175992  0.473526  1
  Al  Al18  1  0.474229  0.174773  0.175500  1
  Al  Al19  1  0.175992  0.175992  0.174491  1
  Ru  Ru20  1  0.166658  0.614660  0.609340  1
  Ru  Ru21  1  0.605080  0.605080  0.152754  1
  Ru  Ru22  1  0.605080  0.605080  0.637084  1
  Ru  Ru23  1  0.614660  0.166658  0.609340  1
