# generated using pymatgen
data_NdSm4(FeB3)2
_symmetry_space_group_name_H-M   'P 1'
_cell_length_a   8.63262157
_cell_length_b   8.63262179
_cell_length_c   8.63262092
_cell_angle_alpha   36.92124473
_cell_angle_beta   36.92124401
_cell_angle_gamma   36.92123630
_symmetry_Int_Tables_number   1
_chemical_formula_structural   NdSm4(FeB3)2
_chemical_formula_sum   'Nd1 Sm4 Fe2 B6'
_cell_volume   207.97998655
_cell_formula_units_Z   1
loop_
 _symmetry_equiv_pos_site_id
 _symmetry_equiv_pos_as_xyz
  1  'x, y, z'
loop_
 _atom_site_type_symbol
 _atom_site_label
 _atom_site_symmetry_multiplicity
 _atom_site_fract_x
 _atom_site_fract_y
 _atom_site_fract_z
 _atom_site_occupancy
  Nd  Nd0  1  0.000000  0.000000  0.000000  1
  Sm  Sm1  1  0.582281  0.582281  0.582281  1
  Sm  Sm2  1  0.417719  0.417719  0.417719  1
  Sm  Sm3  1  0.749564  0.749564  0.749564  1
  Sm  Sm4  1  0.250436  0.250436  0.250436  1
  Fe  Fe5  1  0.878877  0.878877  0.878877  1
  Fe  Fe6  1  0.121123  0.121123  0.121123  1
  B  B7  1  0.500000  0.833052  0.166948  1
  B  B8  1  0.166948  0.500000  0.833052  1
  B  B9  1  0.833052  0.166948  0.500000  1
  B  B10  1  0.500000  0.166948  0.833052  1
  B  B11  1  0.833052  0.500000  0.166948  1
  B  B12  1  0.166948  0.833052  0.500000  1
