# generated using pymatgen
data_Zr16Co4Cu3AuN4
_symmetry_space_group_name_H-M   'P 1'
_cell_length_a   8.71969102
_cell_length_b   8.71799989
_cell_length_c   8.71800000
_cell_angle_alpha   59.99999960
_cell_angle_beta   60.00641499
_cell_angle_gamma   60.00641143
_symmetry_Int_Tables_number   1
_chemical_formula_structural   Zr16Co4Cu3AuN4
_chemical_formula_sum   'Zr16 Co4 Cu3 Au1 N4'
_cell_volume   468.66434324
_cell_formula_units_Z   1
loop_
 _symmetry_equiv_pos_site_id
 _symmetry_equiv_pos_as_xyz
  1  'x, y, z'
loop_
 _atom_site_type_symbol
 _atom_site_label
 _atom_site_symmetry_multiplicity
 _atom_site_fract_x
 _atom_site_fract_y
 _atom_site_fract_z
 _atom_site_occupancy
  Zr  Zr0  1  0.081951  0.639349  0.639349  1
  Zr  Zr1  1  0.638281  0.076529  0.642595  1
  Zr  Zr2  1  0.638281  0.642595  0.076529  1
  Zr  Zr3  1  0.638281  0.642595  0.642595  1
  Zr  Zr4  1  0.817102  0.816849  0.183025  1
  Zr  Zr5  1  0.183101  0.183289  0.816805  1
  Zr  Zr6  1  0.817102  0.183025  0.816849  1
  Zr  Zr7  1  0.183101  0.816805  0.183289  1
  Zr  Zr8  1  0.183101  0.816805  0.816805  1
  Zr  Zr9  1  0.817102  0.183025  0.183025  1
  Zr  Zr10  1  0.432079  0.431683  0.068119  1
  Zr  Zr11  1  0.071660  0.064177  0.432082  1
  Zr  Zr12  1  0.432079  0.068119  0.431683  1
  Zr  Zr13  1  0.071660  0.432082  0.064177  1
  Zr  Zr14  1  0.071660  0.432082  0.432082  1
  Zr  Zr15  1  0.432079  0.068119  0.068119  1
  Co  Co16  1  0.442638  0.852455  0.852455  1
  Co  Co17  1  0.852086  0.447873  0.850021  1
  Co  Co18  1  0.852086  0.850021  0.447873  1
  Co  Co19  1  0.852086  0.850021  0.850021  1
  Cu  Cu20  1  0.416688  0.743866  0.419723  1
  Cu  Cu21  1  0.416688  0.419723  0.743866  1
  Cu  Cu22  1  0.416688  0.419723  0.419723  1
  Au  Au23  1  0.742057  0.419314  0.419314  1
  N  N24  1  0.624102  0.125299  0.125299  1
  N  N25  1  0.125421  0.623327  0.125626  1
  N  N26  1  0.125421  0.125626  0.623327  1
  N  N27  1  0.125421  0.125626  0.125626  1
