# generated using pymatgen
data_TbCe2Dy(AlIr)4
_symmetry_space_group_name_H-M   'P 1'
_cell_length_a   6.85754402
_cell_length_b   4.31533000
_cell_length_c   7.94799302
_cell_angle_alpha   90.00000000
_cell_angle_beta   90.00858380
_cell_angle_gamma   90.00000000
_symmetry_Int_Tables_number   1
_chemical_formula_structural   TbCe2Dy(AlIr)4
_chemical_formula_sum   'Tb1 Ce2 Dy1 Al4 Ir4'
_cell_volume   235.20150093
_cell_formula_units_Z   1
loop_
 _symmetry_equiv_pos_site_id
 _symmetry_equiv_pos_as_xyz
  1  'x, y, z'
loop_
 _atom_site_type_symbol
 _atom_site_label
 _atom_site_symmetry_multiplicity
 _atom_site_fract_x
 _atom_site_fract_y
 _atom_site_fract_z
 _atom_site_occupancy
  Tb  Tb0  1  0.964413  0.250000  0.184115  1
  Ce  Ce1  1  0.033989  0.750000  0.820959  1
  Ce  Ce2  1  0.533854  0.750000  0.678855  1
  Dy  Dy3  1  0.464326  0.250000  0.315973  1
  Al  Al4  1  0.863725  0.250000  0.557501  1
  Al  Al5  1  0.363854  0.250000  0.942568  1
  Al  Al6  1  0.138035  0.750000  0.434159  1
  Al  Al7  1  0.637744  0.750000  0.065975  1
  Ir  Ir8  1  0.737630  0.250000  0.876212  1
  Ir  Ir9  1  0.237808  0.250000  0.623563  1
  Ir  Ir10  1  0.262633  0.750000  0.114480  1
  Ir  Ir11  1  0.761989  0.750000  0.385639  1
