# generated using pymatgen
data_Th4Ga7(SiRh2)3
_symmetry_space_group_name_H-M   'P 1'
_cell_length_a   8.53008437
_cell_length_b   8.59292715
_cell_length_c   8.59292741
_cell_angle_alpha   140.63988679
_cell_angle_beta   106.92761304
_cell_angle_gamma   86.40707527
_symmetry_Int_Tables_number   1
_chemical_formula_structural   Th4Ga7(SiRh2)3
_chemical_formula_sum   'Th4 Ga7 Si3 Rh6'
_cell_volume   368.18474592
_cell_formula_units_Z   1
loop_
 _symmetry_equiv_pos_site_id
 _symmetry_equiv_pos_as_xyz
  1  'x, y, z'
loop_
 _atom_site_type_symbol
 _atom_site_label
 _atom_site_symmetry_multiplicity
 _atom_site_fract_x
 _atom_site_fract_y
 _atom_site_fract_z
 _atom_site_occupancy
  Th  Th0  1  0.865664  0.633635  0.232030  1
  Th  Th1  1  0.138845  0.363856  0.774988  1
  Th  Th2  1  0.408727  0.136720  0.272008  1
  Th  Th3  1  0.595529  0.865900  0.729630  1
  Ga  Ga4  1  0.502518  0.752353  0.250396  1
  Ga  Ga5  1  0.502518  0.252122  0.750165  1
  Ga  Ga6  1  0.220397  0.969637  0.754116  1
  Ga  Ga7  1  0.778706  0.528146  0.746268  1
  Ga  Ga8  1  0.778706  0.032438  0.250560  1
  Ga  Ga9  1  0.220397  0.466281  0.250760  1
  Ga  Ga10  1  0.056364  0.901131  0.155234  1
  Si  Si11  1  0.946530  0.100216  0.846313  1
  Si  Si12  1  0.743092  0.397613  0.345479  1
  Si  Si13  1  0.246722  0.595861  0.650861  1
  Rh  Rh14  1  0.993522  0.748847  0.738602  1
  Rh  Rh15  1  0.993522  0.254920  0.244675  1
  Rh  Rh16  1  0.248441  0.856205  0.392236  1
  Rh  Rh17  1  0.763775  0.143033  0.620742  1
  Rh  Rh18  1  0.477388  0.359897  0.117490  1
  Rh  Rh19  1  0.518635  0.641189  0.877447  1
