# generated using pymatgen
data_Li4Zr3URh8
_symmetry_space_group_name_H-M   'P 1'
_cell_length_a   5.92747403
_cell_length_b   5.92743705
_cell_length_c   7.07081200
_cell_angle_alpha   90.00002584
_cell_angle_beta   90.00052029
_cell_angle_gamma   90.00169162
_symmetry_Int_Tables_number   1
_chemical_formula_structural   Li4Zr3URh8
_chemical_formula_sum   'Li4 Zr3 U1 Rh8'
_cell_volume   248.43106421
_cell_formula_units_Z   1
loop_
 _symmetry_equiv_pos_site_id
 _symmetry_equiv_pos_as_xyz
  1  'x, y, z'
loop_
 _atom_site_type_symbol
 _atom_site_label
 _atom_site_symmetry_multiplicity
 _atom_site_fract_x
 _atom_site_fract_y
 _atom_site_fract_z
 _atom_site_occupancy
  Li  Li0  1  0.749973  0.249999  0.000124  1
  Li  Li1  1  0.249967  0.750000  0.499875  1
  Li  Li2  1  0.750020  0.249998  0.500133  1
  Li  Li3  1  0.250030  0.750005  0.999886  1
  Zr  Zr4  1  0.750073  0.749999  0.999998  1
  Zr  Zr5  1  0.250099  0.249996  0.500008  1
  Zr  Zr6  1  0.749912  0.750001  0.500007  1
  U  U7  1  0.249912  0.250009  0.000003  1
  Rh  Rh8  1  0.496937  0.496927  0.245440  1
  Rh  Rh9  1  0.496935  0.003065  0.245440  1
  Rh  Rh10  1  0.003086  0.496925  0.245520  1
  Rh  Rh11  1  0.003079  0.003077  0.245520  1
  Rh  Rh12  1  0.003058  0.496941  0.754453  1
  Rh  Rh13  1  0.003050  0.003062  0.754468  1
  Rh  Rh14  1  0.496930  0.496945  0.754568  1
  Rh  Rh15  1  0.496938  0.003051  0.754556  1
