# generated using pymatgen
data_Yb10P6O25
_symmetry_space_group_name_H-M   'P 1'
_cell_length_a   9.35508700
_cell_length_b   9.35508639
_cell_length_c   6.72818000
_cell_angle_alpha   90.00000000
_cell_angle_beta   90.00000000
_cell_angle_gamma   120.00000570
_symmetry_Int_Tables_number   1
_chemical_formula_structural   Yb10P6O25
_chemical_formula_sum   'Yb10 P6 O25'
_cell_volume   509.94559114
_cell_formula_units_Z   1
loop_
 _symmetry_equiv_pos_site_id
 _symmetry_equiv_pos_as_xyz
  1  'x, y, z'
loop_
 _atom_site_type_symbol
 _atom_site_label
 _atom_site_symmetry_multiplicity
 _atom_site_fract_x
 _atom_site_fract_y
 _atom_site_fract_z
 _atom_site_occupancy
  Yb  Yb0  1  0.333333  0.666667  0.747606  1
  Yb  Yb1  1  0.666667  0.333333  0.744750  1
  Yb  Yb2  1  0.333333  0.666667  0.252394  1
  Yb  Yb3  1  0.267768  0.993260  0.000000  1
  Yb  Yb4  1  0.725492  0.732232  0.000000  1
  Yb  Yb5  1  0.006740  0.274508  0.000000  1
  Yb  Yb6  1  0.768535  0.994673  0.500000  1
  Yb  Yb7  1  0.226138  0.231465  0.500000  1
  Yb  Yb8  1  0.005327  0.773862  0.500000  1
  Yb  Yb9  1  0.666667  0.333333  0.255250  1
  P  P10  1  0.969854  0.613051  0.000000  1
  P  P11  1  0.643197  0.030146  0.000000  1
  P  P12  1  0.587036  0.620291  0.500000  1
  P  P13  1  0.033254  0.412964  0.500000  1
  P  P14  1  0.379709  0.966746  0.500000  1
  P  P15  1  0.386949  0.356803  0.000000  1
  O  O16  1  0.323192  0.480773  0.000000  1
  O  O17  1  0.157581  0.676808  0.000000  1
  O  O18  1  0.519227  0.842419  0.000000  1
  O  O19  1  0.657499  0.502536  0.500000  1
  O  O20  1  0.845037  0.342501  0.500000  1
  O  O21  1  0.497464  0.154963  0.500000  1
  O  O22  1  0.580234  0.454065  0.000000  1
  O  O23  1  0.873833  0.419766  0.000000  1
  O  O24  1  0.545935  0.126167  0.000000  1
  O  O25  1  0.395908  0.525068  0.500000  1
  O  O26  1  0.129160  0.604092  0.500000  1
  O  O27  1  0.474932  0.870840  0.500000  1
  O  O28  1  0.326594  0.240194  0.817930  1
  O  O29  1  0.913599  0.673406  0.182070  1
  O  O30  1  0.759806  0.086401  0.182070  1
  O  O31  1  0.759806  0.086401  0.817930  1
  O  O32  1  0.913599  0.673406  0.817930  1
  O  O33  1  0.326594  0.240194  0.182070  1
  O  O34  1  0.642788  0.732308  0.686445  1
  O  O35  1  0.089519  0.357212  0.313555  1
  O  O36  1  0.267692  0.910481  0.313555  1
  O  O37  1  0.267692  0.910481  0.686445  1
  O  O38  1  0.089519  0.357212  0.686445  1
  O  O39  1  0.642788  0.732308  0.313555  1
  O  O40  1  0.000000  0.000000  0.500000  1
