# generated using pymatgen
data_Dy3Cd(OsO4)4
_symmetry_space_group_name_H-M   'P 1'
_cell_length_a   5.36494420
_cell_length_b   7.44393934
_cell_length_c   7.76573711
_cell_angle_alpha   79.21311494
_cell_angle_beta   93.48347208
_cell_angle_gamma   91.39105402
_symmetry_Int_Tables_number   1
_chemical_formula_structural   Dy3Cd(OsO4)4
_chemical_formula_sum   'Dy3 Cd1 Os4 O16'
_cell_volume   304.06568013
_cell_formula_units_Z   1
loop_
 _symmetry_equiv_pos_site_id
 _symmetry_equiv_pos_as_xyz
  1  'x, y, z'
loop_
 _atom_site_type_symbol
 _atom_site_label
 _atom_site_symmetry_multiplicity
 _atom_site_fract_x
 _atom_site_fract_y
 _atom_site_fract_z
 _atom_site_occupancy
  Dy  Dy0  1  0.266518  0.110816  0.615502  1
  Dy  Dy1  1  0.807986  0.397694  0.333547  1
  Dy  Dy2  1  0.197863  0.606281  0.664373  1
  Cd  Cd3  1  0.747078  0.886586  0.379356  1
  Os  Os4  1  0.753215  0.292920  0.838025  1
  Os  Os5  1  0.246517  0.706140  0.162304  1
  Os  Os6  1  0.278458  0.200214  0.164950  1
  Os  Os7  1  0.721111  0.799037  0.834973  1
  O  O8  1  0.947024  0.784071  0.032227  1
  O  O9  1  0.048602  0.209344  0.970155  1
  O  O10  1  0.369008  0.950529  0.175485  1
  O  O11  1  0.619306  0.049009  0.827529  1
  O  O12  1  0.146213  0.447550  0.166766  1
  O  O13  1  0.845933  0.552539  0.821101  1
  O  O14  1  0.585659  0.299789  0.056334  1
  O  O15  1  0.412204  0.701200  0.941447  1
  O  O16  1  0.949161  0.320164  0.616927  1
  O  O17  1  0.058171  0.668153  0.383998  1
  O  O18  1  0.487723  0.199068  0.382908  1
  O  O19  1  0.503565  0.822446  0.613961  1
  O  O20  1  0.540535  0.625036  0.295540  1
  O  O21  1  0.451868  0.369058  0.700846  1
  O  O22  1  0.018103  0.122946  0.338350  1
  O  O23  1  0.998178  0.879411  0.683397  1
