# generated using pymatgen
data_La3Y6ThSn8
_symmetry_space_group_name_H-M   'P 1'
_cell_length_a   8.19947700
_cell_length_b   8.32431580
_cell_length_c   15.69597900
_cell_angle_alpha   90.12498055
_cell_angle_beta   90.00000000
_cell_angle_gamma   90.00000000
_symmetry_Int_Tables_number   1
_chemical_formula_structural   La3Y6ThSn8
_chemical_formula_sum   'La6 Y12 Th2 Sn16'
_cell_volume   1071.32706257
_cell_formula_units_Z   2
loop_
 _symmetry_equiv_pos_site_id
 _symmetry_equiv_pos_as_xyz
  1  'x, y, z'
loop_
 _atom_site_type_symbol
 _atom_site_label
 _atom_site_symmetry_multiplicity
 _atom_site_fract_x
 _atom_site_fract_y
 _atom_site_fract_z
 _atom_site_occupancy
  La  La0  1  0.517469  0.320714  0.903266  1
  La  La1  1  0.017469  0.179286  0.596734  1
  La  La2  1  0.483542  0.678376  0.403479  1
  La  La3  1  0.983542  0.821624  0.096521  1
  La  La4  1  0.484464  0.678833  0.096253  1
  La  La5  1  0.984464  0.821167  0.403747  1
  Y  Y6  1  0.361424  0.836367  0.876518  1
  Y  Y7  1  0.861424  0.663633  0.623482  1
  Y  Y8  1  0.637532  0.163552  0.376998  1
  Y  Y9  1  0.137532  0.336448  0.123002  1
  Y  Y10  1  0.638873  0.162423  0.122639  1
  Y  Y11  1  0.138873  0.337577  0.377361  1
  Y  Y12  1  0.361266  0.836769  0.623442  1
  Y  Y13  1  0.861266  0.663231  0.876558  1
  Y  Y14  1  0.193046  0.501283  0.750429  1
  Y  Y15  1  0.693046  0.998717  0.749571  1
  Y  Y16  1  0.805475  0.497778  0.250426  1
  Y  Y17  1  0.305475  0.002222  0.249574  1
  Th  Th18  1  0.517292  0.320775  0.597804  1
  Th  Th19  1  0.017292  0.179225  0.902196  1
  Sn  Sn20  1  0.298171  0.042376  0.040450  1
  Sn  Sn21  1  0.798171  0.457624  0.459550  1
  Sn  Sn22  1  0.696660  0.962944  0.544024  1
  Sn  Sn23  1  0.196660  0.537056  0.955976  1
  Sn  Sn24  1  0.701604  0.962270  0.955801  1
  Sn  Sn25  1  0.201604  0.537730  0.544199  1
  Sn  Sn26  1  0.303838  0.043085  0.458646  1
  Sn  Sn27  1  0.803838  0.456915  0.041354  1
  Sn  Sn28  1  0.559199  0.623173  0.748437  1
  Sn  Sn29  1  0.059199  0.876827  0.751563  1
  Sn  Sn30  1  0.439678  0.375163  0.249640  1
  Sn  Sn31  1  0.939678  0.124837  0.250360  1
  Sn  Sn32  1  0.324766  0.142610  0.749703  1
  Sn  Sn33  1  0.824766  0.357390  0.750297  1
  Sn  Sn34  1  0.675703  0.858693  0.250025  1
  Sn  Sn35  1  0.175703  0.641307  0.249975  1
