# generated using pymatgen
data_Zr2Co3Si2P5Ru9
_symmetry_space_group_name_H-M   'P 1'
_cell_length_a   9.32299817
_cell_length_b   9.28546349
_cell_length_c   3.77961700
_cell_angle_alpha   90.00000000
_cell_angle_beta   90.00000000
_cell_angle_gamma   120.11210301
_symmetry_Int_Tables_number   1
_chemical_formula_structural   Zr2Co3Si2P5Ru9
_chemical_formula_sum   'Zr2 Co3 Si2 P5 Ru9'
_cell_volume   283.03875950
_cell_formula_units_Z   1
loop_
 _symmetry_equiv_pos_site_id
 _symmetry_equiv_pos_as_xyz
  1  'x, y, z'
loop_
 _atom_site_type_symbol
 _atom_site_label
 _atom_site_symmetry_multiplicity
 _atom_site_fract_x
 _atom_site_fract_y
 _atom_site_fract_z
 _atom_site_occupancy
  Zr  Zr0  1  0.334528  0.665712  0.000000  1
  Zr  Zr1  1  0.665512  0.333039  0.500000  1
  Co  Co2  1  0.156350  0.281760  0.000000  1
  Co  Co3  1  0.721464  0.882202  0.000000  1
  Co  Co4  1  0.119373  0.838626  0.000000  1
  Si  Si5  1  0.001777  0.001072  0.000000  1
  Si  Si6  1  0.408753  0.296572  0.000000  1
  P  P7  1  0.116843  0.401200  0.500000  1
  P  P8  1  0.601144  0.716547  0.500000  1
  P  P9  1  0.283625  0.883308  0.500000  1
  P  P10  1  0.698781  0.109408  0.000000  1
  P  P11  1  0.889235  0.589204  0.000000  1
  Ru  Ru12  1  0.429843  0.058400  0.000000  1
  Ru  Ru13  1  0.930615  0.363029  0.000000  1
  Ru  Ru14  1  0.639021  0.572590  0.000000  1
  Ru  Ru15  1  0.383820  0.445845  0.500000  1
  Ru  Ru16  1  0.559155  0.940845  0.500000  1
  Ru  Ru17  1  0.056144  0.614724  0.500000  1
  Ru  Ru18  1  0.212360  0.093984  0.500000  1
  Ru  Ru19  1  0.910654  0.119737  0.500000  1
  Ru  Ru20  1  0.881002  0.792197  0.500000  1
