# generated using pymatgen
data_Tl3Ge(SO4)6
_symmetry_space_group_name_H-M   'P 1'
_cell_length_a   8.72478779
_cell_length_b   8.72404758
_cell_length_c   9.42052900
_cell_angle_alpha   62.39810762
_cell_angle_beta   62.42953775
_cell_angle_gamma   60.04712164
_symmetry_Int_Tables_number   1
_chemical_formula_structural   Tl3Ge(SO4)6
_chemical_formula_sum   'Tl3 Ge1 S6 O24'
_cell_volume   524.94620906
_cell_formula_units_Z   1
loop_
 _symmetry_equiv_pos_site_id
 _symmetry_equiv_pos_as_xyz
  1  'x, y, z'
loop_
 _atom_site_type_symbol
 _atom_site_label
 _atom_site_symmetry_multiplicity
 _atom_site_fract_x
 _atom_site_fract_y
 _atom_site_fract_z
 _atom_site_occupancy
  Tl  Tl0  1  0.642002  0.641847  0.074252  1
  Tl  Tl1  1  0.354654  0.354619  0.935997  1
  Tl  Tl2  1  0.154303  0.154251  0.537408  1
  Ge  Ge3  1  0.840840  0.840982  0.477101  1
  S  S4  1  0.758612  0.467902  0.736523  1
  S  S5  1  0.036595  0.758704  0.736773  1
  S  S6  1  0.574822  0.939805  0.261007  1
  S  S7  1  0.939994  0.224329  0.261030  1
  S  S8  1  0.224333  0.574872  0.261143  1
  S  S9  1  0.467983  0.036715  0.736559  1
  O  O10  1  0.917714  0.690541  0.907930  1
  O  O11  1  0.484422  0.917610  0.907545  1
  O  O12  1  0.686271  0.957168  0.335064  1
  O  O13  1  0.382554  0.961243  0.378036  1
  O  O14  1  0.986702  0.961816  0.695217  1
  O  O15  1  0.722644  0.663179  0.608928  1
  O  O16  1  0.690332  0.484429  0.907422  1
  O  O17  1  0.664764  0.748369  0.244081  1
  O  O18  1  0.961538  0.356254  0.695381  1
  O  O19  1  0.232869  0.654078  0.726038  1
  O  O20  1  0.653850  0.386719  0.726087  1
  O  O21  1  0.004125  0.722561  0.609817  1
  O  O22  1  0.961622  0.278700  0.377627  1
  O  O23  1  0.342753  0.665183  0.243676  1
  O  O24  1  0.748677  0.342514  0.243871  1
  O  O25  1  0.021684  0.685960  0.335551  1
  O  O26  1  0.387095  0.233014  0.725931  1
  O  O27  1  0.238946  0.578297  0.098661  1
  O  O28  1  0.278401  0.382534  0.378343  1
  O  O29  1  0.957212  0.021495  0.335904  1
  O  O30  1  0.663107  0.004818  0.609097  1
  O  O31  1  0.355997  0.986590  0.695560  1
  O  O32  1  0.578568  0.083842  0.098182  1
  O  O33  1  0.084008  0.239055  0.098257  1
