# generated using pymatgen
data_Li(NdBi)2
_symmetry_space_group_name_H-M   'P 1'
_cell_length_a   4.69027400
_cell_length_b   4.69027276
_cell_length_c   15.47031000
_cell_angle_alpha   90.00000000
_cell_angle_beta   90.00000000
_cell_angle_gamma   120.00000876
_symmetry_Int_Tables_number   1
_chemical_formula_structural   Li(NdBi)2
_chemical_formula_sum   'Li2 Nd4 Bi4'
_cell_volume   294.73107181
_cell_formula_units_Z   2
loop_
 _symmetry_equiv_pos_site_id
 _symmetry_equiv_pos_as_xyz
  1  'x, y, z'
loop_
 _atom_site_type_symbol
 _atom_site_label
 _atom_site_symmetry_multiplicity
 _atom_site_fract_x
 _atom_site_fract_y
 _atom_site_fract_z
 _atom_site_occupancy
  Li  Li0  1  0.000000  0.000000  0.250000  1
  Li  Li1  1  0.000000  0.000000  0.750000  1
  Nd  Nd2  1  0.333333  0.666667  0.113115  1
  Nd  Nd3  1  0.333333  0.666667  0.386885  1
  Nd  Nd4  1  0.666667  0.333332  0.613115  1
  Nd  Nd5  1  0.666667  0.333332  0.886885  1
  Bi  Bi6  1  0.000000  0.000000  0.000000  1
  Bi  Bi7  1  0.666667  0.333332  0.250000  1
  Bi  Bi8  1  0.000000  0.000000  0.500000  1
  Bi  Bi9  1  0.333333  0.666667  0.750000  1
