# generated using pymatgen
data_Ba2Sr(NiAs)6
_symmetry_space_group_name_H-M   'P 1'
_cell_length_a   9.16067305
_cell_length_b   9.16067277
_cell_length_c   6.41772207
_cell_angle_alpha   64.05725987
_cell_angle_beta   64.05726001
_cell_angle_gamma   39.03936854
_symmetry_Int_Tables_number   1
_chemical_formula_structural   Ba2Sr(NiAs)6
_chemical_formula_sum   'Ba2 Sr1 Ni6 As6'
_cell_volume   300.46259221
_cell_formula_units_Z   1
loop_
 _symmetry_equiv_pos_site_id
 _symmetry_equiv_pos_as_xyz
  1  'x, y, z'
loop_
 _atom_site_type_symbol
 _atom_site_label
 _atom_site_symmetry_multiplicity
 _atom_site_fract_x
 _atom_site_fract_y
 _atom_site_fract_z
 _atom_site_occupancy
  Ba  Ba0  1  0.666402  0.666402  0.997868  1
  Ba  Ba1  1  0.333598  0.333598  0.002132  1
  Sr  Sr2  1  0.000000  0.000000  0.000000  1
  Ni  Ni3  1  0.726773  0.273227  0.500000  1
  Ni  Ni4  1  0.055252  0.619418  0.494871  1
  Ni  Ni5  1  0.380582  0.944748  0.505129  1
  Ni  Ni6  1  0.619418  0.055252  0.494871  1
  Ni  Ni7  1  0.944748  0.380582  0.505129  1
  Ni  Ni8  1  0.273227  0.726773  0.500000  1
  As  As9  1  0.892374  0.892374  0.697381  1
  As  As10  1  0.228083  0.228083  0.679910  1
  As  As11  1  0.558152  0.558152  0.687902  1
  As  As12  1  0.441848  0.441848  0.312098  1
  As  As13  1  0.771917  0.771917  0.320090  1
  As  As14  1  0.107626  0.107626  0.302619  1
