# generated using pymatgen
data_HoMgAlNi3
_symmetry_space_group_name_H-M   'P 1'
_cell_length_a   5.11191356
_cell_length_b   5.11191302
_cell_length_c   4.92626785
_cell_angle_alpha   58.74537265
_cell_angle_beta   58.74538189
_cell_angle_gamma   60.00000368
_symmetry_Int_Tables_number   1
_chemical_formula_structural   HoMgAlNi3
_chemical_formula_sum   'Ho1 Mg1 Al1 Ni3'
_cell_volume   89.26237875
_cell_formula_units_Z   1
loop_
 _symmetry_equiv_pos_site_id
 _symmetry_equiv_pos_as_xyz
  1  'x, y, z'
loop_
 _atom_site_type_symbol
 _atom_site_label
 _atom_site_symmetry_multiplicity
 _atom_site_fract_x
 _atom_site_fract_y
 _atom_site_fract_z
 _atom_site_occupancy
  Ho  Ho0  1  0.004966  0.004966  0.985103  1
  Mg  Mg1  1  0.255249  0.255249  0.234251  1
  Al  Al2  1  0.621186  0.621186  0.136445  1
  Ni  Ni3  1  0.622052  0.124497  0.631401  1
  Ni  Ni4  1  0.124497  0.622052  0.631401  1
  Ni  Ni5  1  0.622052  0.622052  0.631401  1
