# generated using pymatgen
data_YTm2ReB7
_symmetry_space_group_name_H-M   'P 1'
_cell_length_a   7.99388153
_cell_length_b   7.99388111
_cell_length_c   9.31176500
_cell_angle_alpha   90.00000000
_cell_angle_beta   90.00000000
_cell_angle_gamma   154.62388905
_symmetry_Int_Tables_number   1
_chemical_formula_structural   YTm2ReB7
_chemical_formula_sum   'Y2 Tm4 Re2 B14'
_cell_volume   255.01015181
_cell_formula_units_Z   2
loop_
 _symmetry_equiv_pos_site_id
 _symmetry_equiv_pos_as_xyz
  1  'x, y, z'
loop_
 _atom_site_type_symbol
 _atom_site_label
 _atom_site_symmetry_multiplicity
 _atom_site_fract_x
 _atom_site_fract_y
 _atom_site_fract_z
 _atom_site_occupancy
  Y  Y0  1  0.244137  0.755863  0.250000  1
  Y  Y1  1  0.755863  0.244137  0.750000  1
  Tm  Tm2  1  0.894736  0.105264  0.058958  1
  Tm  Tm3  1  0.105264  0.894736  0.558958  1
  Tm  Tm4  1  0.105264  0.894736  0.941042  1
  Tm  Tm5  1  0.894736  0.105264  0.441042  1
  Re  Re6  1  0.051793  0.948207  0.250000  1
  Re  Re7  1  0.948207  0.051793  0.750000  1
  B  B8  1  0.454560  0.545440  0.250000  1
  B  B9  1  0.545440  0.454560  0.750000  1
  B  B10  1  0.727270  0.272730  0.033349  1
  B  B11  1  0.272730  0.727270  0.533349  1
  B  B12  1  0.272730  0.727270  0.966651  1
  B  B13  1  0.727270  0.272730  0.466651  1
  B  B14  1  0.631821  0.368179  0.349774  1
  B  B15  1  0.368179  0.631821  0.849774  1
  B  B16  1  0.368179  0.631821  0.650226  1
  B  B17  1  0.631821  0.368179  0.150226  1
  B  B18  1  0.519947  0.480053  0.405212  1
  B  B19  1  0.480053  0.519947  0.905212  1
  B  B20  1  0.480053  0.519947  0.594788  1
  B  B21  1  0.519947  0.480053  0.094788  1
