# generated using pymatgen
data_TbGd2(GaNi)3
_symmetry_space_group_name_H-M   'P 1'
_cell_length_a   7.04440900
_cell_length_b   7.05795549
_cell_length_c   3.81837200
_cell_angle_alpha   90.00000000
_cell_angle_beta   90.00000000
_cell_angle_gamma   119.93653430
_symmetry_Int_Tables_number   1
_chemical_formula_structural   TbGd2(GaNi)3
_chemical_formula_sum   'Tb1 Gd2 Ga3 Ni3'
_cell_volume   164.51660279
_cell_formula_units_Z   1
loop_
 _symmetry_equiv_pos_site_id
 _symmetry_equiv_pos_as_xyz
  1  'x, y, z'
loop_
 _atom_site_type_symbol
 _atom_site_label
 _atom_site_symmetry_multiplicity
 _atom_site_fract_x
 _atom_site_fract_y
 _atom_site_fract_z
 _atom_site_occupancy
  Tb  Tb0  1  0.590197  0.000000  0.000000  1
  Gd  Gd1  1  0.999999  0.589860  0.000000  1
  Gd  Gd2  1  0.410140  0.410140  0.000000  1
  Ga  Ga3  1  0.242328  0.000000  0.500000  1
  Ga  Ga4  1  0.758121  0.758623  0.500000  1
  Ga  Ga5  1  0.999499  0.241377  0.500000  1
  Ni  Ni6  1  0.999958  0.000000  0.000000  1
  Ni  Ni7  1  0.666560  0.333358  0.500000  1
  Ni  Ni8  1  0.333200  0.666642  0.500000  1
