# generated using pymatgen
data_Yb2Y2Ir3PdO14
_symmetry_space_group_name_H-M   'P 1'
_cell_length_a   7.25058230
_cell_length_b   7.22788312
_cell_length_c   7.23835000
_cell_angle_alpha   59.95207568
_cell_angle_beta   60.05578331
_cell_angle_gamma   59.85722723
_symmetry_Int_Tables_number   1
_chemical_formula_structural   Yb2Y2Ir3PdO14
_chemical_formula_sum   'Yb2 Y2 Ir3 Pd1 O14'
_cell_volume   267.95558469
_cell_formula_units_Z   1
loop_
 _symmetry_equiv_pos_site_id
 _symmetry_equiv_pos_as_xyz
  1  'x, y, z'
loop_
 _atom_site_type_symbol
 _atom_site_label
 _atom_site_symmetry_multiplicity
 _atom_site_fract_x
 _atom_site_fract_y
 _atom_site_fract_z
 _atom_site_occupancy
  Yb  Yb0  1  0.625000  0.125000  0.125000  1
  Yb  Yb1  1  0.125000  0.625000  0.125000  1
  Y  Y2  1  0.125000  0.125000  0.625000  1
  Y  Y3  1  0.125000  0.125000  0.125000  1
  Ir  Ir4  1  0.125000  0.625000  0.625000  1
  Ir  Ir5  1  0.625000  0.625000  0.125000  1
  Ir  Ir6  1  0.625000  0.625000  0.625000  1
  Pd  Pd7  1  0.625000  0.125000  0.625000  1
  O  O8  1  0.708717  0.692962  0.299160  1
  O  O9  1  0.284189  0.290845  0.712484  1
  O  O10  1  0.714381  0.293189  0.707841  1
  O  O11  1  0.296098  0.701446  0.296878  1
  O  O12  1  0.296098  0.701446  0.705577  1
  O  O13  1  0.714381  0.293189  0.284590  1
  O  O14  1  0.541283  0.557038  0.950840  1
  O  O15  1  0.965811  0.959155  0.537516  1
  O  O16  1  0.535619  0.956811  0.542159  1
  O  O17  1  0.953902  0.548554  0.953122  1
  O  O18  1  0.953902  0.548554  0.544423  1
  O  O19  1  0.535619  0.956811  0.965410  1
  O  O20  1  0.244894  0.246888  0.254108  1
  O  O21  1  0.005106  0.003112  0.995892  1
