# generated using pymatgen
data_DySc2Ni9
_symmetry_space_group_name_H-M   'P 1'
_cell_length_a   4.86096705
_cell_length_b   4.86096606
_cell_length_c   8.41897058
_cell_angle_alpha   73.22037176
_cell_angle_beta   73.22037493
_cell_angle_gamma   60.00001380
_symmetry_Int_Tables_number   1
_chemical_formula_structural   DySc2Ni9
_chemical_formula_sum   'Dy1 Sc2 Ni9'
_cell_volume   162.42603056
_cell_formula_units_Z   1
loop_
 _symmetry_equiv_pos_site_id
 _symmetry_equiv_pos_as_xyz
  1  'x, y, z'
loop_
 _atom_site_type_symbol
 _atom_site_label
 _atom_site_symmetry_multiplicity
 _atom_site_fract_x
 _atom_site_fract_y
 _atom_site_fract_z
 _atom_site_occupancy
  Dy  Dy0  1  0.000000  0.000000  0.000000  1
  Sc  Sc1  1  0.140970  0.140970  0.577090  1
  Sc  Sc2  1  0.859030  0.859030  0.422910  1
  Ni  Ni3  1  0.081409  0.586126  0.746340  1
  Ni  Ni4  1  0.586126  0.586126  0.746340  1
  Ni  Ni5  1  0.586126  0.081409  0.746340  1
  Ni  Ni6  1  0.918591  0.413874  0.253660  1
  Ni  Ni7  1  0.413874  0.413874  0.253660  1
  Ni  Ni8  1  0.413874  0.918591  0.253660  1
  Ni  Ni9  1  0.333221  0.333221  0.000336  1
  Ni  Ni10  1  0.666779  0.666779  0.999664  1
  Ni  Ni11  1  0.500000  0.500000  0.500000  1
