# generated using pymatgen
data_Sr3(ZnAu)4
_symmetry_space_group_name_H-M   'P 1'
_cell_length_a   8.76847862
_cell_length_b   8.76847803
_cell_length_c   8.76847837
_cell_angle_alpha   150.86556627
_cell_angle_beta   127.97931278
_cell_angle_gamma   60.73453718
_symmetry_Int_Tables_number   1
_chemical_formula_structural   Sr3(ZnAu)4
_chemical_formula_sum   'Sr3 Zn4 Au4'
_cell_volume   256.63257280
_cell_formula_units_Z   1
loop_
 _symmetry_equiv_pos_site_id
 _symmetry_equiv_pos_as_xyz
  1  'x, y, z'
loop_
 _atom_site_type_symbol
 _atom_site_label
 _atom_site_symmetry_multiplicity
 _atom_site_fract_x
 _atom_site_fract_y
 _atom_site_fract_z
 _atom_site_occupancy
  Sr  Sr0  1  0.500000  0.000000  0.500000  1
  Sr  Sr1  1  0.871281  0.871281  0.000000  1
  Sr  Sr2  1  0.128719  0.128719  0.000000  1
  Zn  Zn3  1  0.855862  0.669580  0.186281  1
  Zn  Zn4  1  0.483299  0.669580  0.813719  1
  Zn  Zn5  1  0.516701  0.330420  0.186281  1
  Zn  Zn6  1  0.144138  0.330420  0.813719  1
  Au  Au7  1  0.283343  0.783343  0.500000  1
  Au  Au8  1  0.716657  0.216657  0.500000  1
  Au  Au9  1  0.194336  0.500000  0.694336  1
  Au  Au10  1  0.805664  0.500000  0.305664  1
