# generated using pymatgen
data_Tb4Pr3Y(CdPt)2
_symmetry_space_group_name_H-M   'P 1'
_cell_length_a   9.85261020
_cell_length_b   9.85260980
_cell_length_c   9.86724900
_cell_angle_alpha   59.95083394
_cell_angle_beta   59.95083528
_cell_angle_gamma   60.09832419
_symmetry_Int_Tables_number   1
_chemical_formula_structural   Tb4Pr3Y(CdPt)2
_chemical_formula_sum   'Tb8 Pr6 Y2 Cd4 Pt4'
_cell_volume   677.30102394
_cell_formula_units_Z   2
loop_
 _symmetry_equiv_pos_site_id
 _symmetry_equiv_pos_as_xyz
  1  'x, y, z'
loop_
 _atom_site_type_symbol
 _atom_site_label
 _atom_site_symmetry_multiplicity
 _atom_site_fract_x
 _atom_site_fract_y
 _atom_site_fract_z
 _atom_site_occupancy
  Tb  Tb0  1  0.349854  0.349854  0.350307  1
  Tb  Tb1  1  0.349854  0.349854  0.949985  1
  Tb  Tb2  1  0.350307  0.949985  0.349854  1
  Tb  Tb3  1  0.949985  0.350307  0.349854  1
  Tb  Tb4  1  0.811517  0.188483  0.188483  1
  Tb  Tb5  1  0.188483  0.811517  0.811517  1
  Tb  Tb6  1  0.188483  0.811517  0.188483  1
  Tb  Tb7  1  0.811517  0.188483  0.811517  1
  Pr  Pr8  1  0.937866  0.562134  0.562134  1
  Pr  Pr9  1  0.562134  0.937866  0.937866  1
  Pr  Pr10  1  0.562134  0.937866  0.562134  1
  Pr  Pr11  1  0.937866  0.562134  0.937866  1
  Pr  Pr12  1  0.561945  0.561945  0.938055  1
  Pr  Pr13  1  0.938055  0.938055  0.561945  1
  Y  Y14  1  0.188987  0.188987  0.811013  1
  Y  Y15  1  0.811013  0.811013  0.188987  1
  Cd  Cd16  1  0.579767  0.579767  0.579261  1
  Cd  Cd17  1  0.579767  0.579767  0.261203  1
  Cd  Cd18  1  0.579261  0.261203  0.579767  1
  Cd  Cd19  1  0.261203  0.579261  0.579767  1
  Pt  Pt20  1  0.142479  0.142479  0.143312  1
  Pt  Pt21  1  0.142479  0.142479  0.571729  1
  Pt  Pt22  1  0.143312  0.571729  0.142479  1
  Pt  Pt23  1  0.571729  0.143312  0.142479  1
