# generated using pymatgen
data_Tb2Er3Sn3Sb
_symmetry_space_group_name_H-M   'P 1'
_cell_length_a   8.08208100
_cell_length_b   8.11617900
_cell_length_c   15.28635400
_cell_angle_alpha   90.00000000
_cell_angle_beta   90.00000000
_cell_angle_gamma   90.00000000
_symmetry_Int_Tables_number   1
_chemical_formula_structural   Tb2Er3Sn3Sb
_chemical_formula_sum   'Tb8 Er12 Sn12 Sb4'
_cell_volume   1002.71780838
_cell_formula_units_Z   4
loop_
 _symmetry_equiv_pos_site_id
 _symmetry_equiv_pos_as_xyz
  1  'x, y, z'
loop_
 _atom_site_type_symbol
 _atom_site_label
 _atom_site_symmetry_multiplicity
 _atom_site_fract_x
 _atom_site_fract_y
 _atom_site_fract_z
 _atom_site_occupancy
  Tb  Tb0  1  0.532180  0.324798  0.899183  1
  Tb  Tb1  1  0.032180  0.175202  0.600817  1
  Tb  Tb2  1  0.467820  0.675202  0.399183  1
  Tb  Tb3  1  0.967820  0.824798  0.100817  1
  Tb  Tb4  1  0.476078  0.676979  0.099218  1
  Tb  Tb5  1  0.976078  0.823021  0.400782  1
  Tb  Tb6  1  0.523922  0.323021  0.599218  1
  Tb  Tb7  1  0.023922  0.176979  0.900782  1
  Er  Er8  1  0.370880  0.839011  0.876904  1
  Er  Er9  1  0.870880  0.660989  0.623096  1
  Er  Er10  1  0.629120  0.160989  0.376904  1
  Er  Er11  1  0.129120  0.339011  0.123096  1
  Er  Er12  1  0.631705  0.162613  0.122930  1
  Er  Er13  1  0.131705  0.337387  0.377070  1
  Er  Er14  1  0.368295  0.837387  0.622930  1
  Er  Er15  1  0.868295  0.662613  0.877070  1
  Er  Er16  1  0.197811  0.501545  0.748398  1
  Er  Er17  1  0.697811  0.998455  0.751602  1
  Er  Er18  1  0.802189  0.498455  0.248398  1
  Er  Er19  1  0.302189  0.001545  0.251602  1
  Sn  Sn20  1  0.710410  0.964464  0.957759  1
  Sn  Sn21  1  0.210410  0.535536  0.542241  1
  Sn  Sn22  1  0.289590  0.035536  0.457759  1
  Sn  Sn23  1  0.789590  0.464464  0.042241  1
  Sn  Sn24  1  0.565026  0.621779  0.749342  1
  Sn  Sn25  1  0.065026  0.878221  0.750658  1
  Sn  Sn26  1  0.434974  0.378221  0.249342  1
  Sn  Sn27  1  0.934974  0.121779  0.250658  1
  Sn  Sn28  1  0.334918  0.147708  0.750543  1
  Sn  Sn29  1  0.834918  0.352292  0.749457  1
  Sn  Sn30  1  0.665082  0.852292  0.250543  1
  Sn  Sn31  1  0.165082  0.647708  0.249457  1
  Sb  Sb32  1  0.286520  0.034388  0.043127  1
  Sb  Sb33  1  0.786520  0.465612  0.456873  1
  Sb  Sb34  1  0.713480  0.965612  0.543127  1
  Sb  Sb35  1  0.213480  0.534388  0.956873  1
