# generated using pymatgen
data_La3Mg3CdSn2
_symmetry_space_group_name_H-M   'P 1'
_cell_length_a   7.81491300
_cell_length_b   7.81491395
_cell_length_c   4.80323500
_cell_angle_alpha   90.00000000
_cell_angle_beta   90.00000000
_cell_angle_gamma   120.00000019
_symmetry_Int_Tables_number   1
_chemical_formula_structural   La3Mg3CdSn2
_chemical_formula_sum   'La3 Mg3 Cd1 Sn2'
_cell_volume   254.04626497
_cell_formula_units_Z   1
loop_
 _symmetry_equiv_pos_site_id
 _symmetry_equiv_pos_as_xyz
  1  'x, y, z'
loop_
 _atom_site_type_symbol
 _atom_site_label
 _atom_site_symmetry_multiplicity
 _atom_site_fract_x
 _atom_site_fract_y
 _atom_site_fract_z
 _atom_site_occupancy
  La  La0  1  0.418789  0.418789  0.500000  1
  La  La1  1  0.581211  0.000000  0.500000  1
  La  La2  1  0.000000  0.581211  0.500000  1
  Mg  Mg3  1  0.760014  0.760014  0.000000  1
  Mg  Mg4  1  0.239986  0.000000  0.000000  1
  Mg  Mg5  1  0.000000  0.239986  0.000000  1
  Cd  Cd6  1  0.000000  0.000000  0.500000  1
  Sn  Sn7  1  0.666667  0.333333  0.000000  1
  Sn  Sn8  1  0.333333  0.666667  0.000000  1
