# generated using pymatgen
data_Tb8Er9Sc3(Ga3Si)4
_symmetry_space_group_name_H-M   'P 1'
_cell_length_a   7.39686853
_cell_length_b   7.74800953
_cell_length_c   14.84988700
_cell_angle_alpha   90.00000000
_cell_angle_beta   90.00000000
_cell_angle_gamma   90.04285007
_symmetry_Int_Tables_number   1
_chemical_formula_structural   Tb8Er9Sc3(Ga3Si)4
_chemical_formula_sum   'Tb8 Er9 Sc3 Ga12 Si4'
_cell_volume   851.06175243
_cell_formula_units_Z   1
loop_
 _symmetry_equiv_pos_site_id
 _symmetry_equiv_pos_as_xyz
  1  'x, y, z'
loop_
 _atom_site_type_symbol
 _atom_site_label
 _atom_site_symmetry_multiplicity
 _atom_site_fract_x
 _atom_site_fract_y
 _atom_site_fract_z
 _atom_site_occupancy
  Tb  Tb0  1  0.015533  0.183084  0.097993  1
  Tb  Tb1  1  0.983017  0.819559  0.904620  1
  Tb  Tb2  1  0.485915  0.683107  0.904083  1
  Tb  Tb3  1  0.983017  0.819559  0.595380  1
  Tb  Tb4  1  0.514952  0.317819  0.097653  1
  Tb  Tb5  1  0.015533  0.183084  0.402007  1
  Tb  Tb6  1  0.514952  0.317819  0.402347  1
  Tb  Tb7  1  0.485915  0.683107  0.595917  1
  Er  Er8  1  0.160374  0.514297  0.750000  1
  Er  Er9  1  0.327751  0.172245  0.621642  1
  Er  Er10  1  0.673076  0.826918  0.377034  1
  Er  Er11  1  0.173094  0.673054  0.376821  1
  Er  Er12  1  0.673076  0.826918  0.122966  1
  Er  Er13  1  0.826407  0.325165  0.620710  1
  Er  Er14  1  0.327751  0.172245  0.878358  1
  Er  Er15  1  0.826407  0.325165  0.879290  1
  Er  Er16  1  0.173094  0.673054  0.123179  1
  Sc  Sc17  1  0.839432  0.485463  0.250000  1
  Sc  Sc18  1  0.339218  0.014795  0.250000  1
  Sc  Sc19  1  0.659925  0.986942  0.750000  1
  Ga  Ga20  1  0.026297  0.097719  0.750000  1
  Ga  Ga21  1  0.973130  0.900917  0.250000  1
  Ga  Ga22  1  0.473256  0.598743  0.250000  1
  Ga  Ga23  1  0.534353  0.394031  0.750000  1
  Ga  Ga24  1  0.159471  0.469608  0.540646  1
  Ga  Ga25  1  0.840597  0.529069  0.456247  1
  Ga  Ga26  1  0.339874  0.971303  0.456335  1
  Ga  Ga27  1  0.840597  0.529069  0.043753  1
  Ga  Ga28  1  0.658867  0.028139  0.542210  1
  Ga  Ga29  1  0.159471  0.469608  0.959354  1
  Ga  Ga30  1  0.658867  0.028139  0.957790  1
  Ga  Ga31  1  0.339874  0.971303  0.043665  1
  Si  Si32  1  0.284719  0.876952  0.750000  1
  Si  Si33  1  0.718499  0.129706  0.250000  1
  Si  Si34  1  0.219284  0.370431  0.250000  1
  Si  Si35  1  0.774402  0.631865  0.750000  1
