# generated using pymatgen
data_SrTi(NbSe2)6
_symmetry_space_group_name_H-M   'P 1'
_cell_length_a   6.06766200
_cell_length_b   6.06766299
_cell_length_c   14.46326000
_cell_angle_alpha   90.00000000
_cell_angle_beta   90.00000000
_cell_angle_gamma   120.00000550
_symmetry_Int_Tables_number   1
_chemical_formula_structural   SrTi(NbSe2)6
_chemical_formula_sum   'Sr1 Ti1 Nb6 Se12'
_cell_volume   461.14726009
_cell_formula_units_Z   1
loop_
 _symmetry_equiv_pos_site_id
 _symmetry_equiv_pos_as_xyz
  1  'x, y, z'
loop_
 _atom_site_type_symbol
 _atom_site_label
 _atom_site_symmetry_multiplicity
 _atom_site_fract_x
 _atom_site_fract_y
 _atom_site_fract_z
 _atom_site_occupancy
  Sr  Sr0  1  0.333333  0.666667  0.250000  1
  Ti  Ti1  1  0.666667  0.333333  0.750000  1
  Nb  Nb2  1  0.000000  0.000000  0.526797  1
  Nb  Nb3  1  0.000000  0.000000  0.973203  1
  Nb  Nb4  1  0.333333  0.666667  0.974278  1
  Nb  Nb5  1  0.666667  0.333333  0.973427  1
  Nb  Nb6  1  0.666667  0.333333  0.526573  1
  Nb  Nb7  1  0.333333  0.666667  0.525722  1
  Se  Se8  1  0.333166  0.328664  0.410087  1
  Se  Se9  1  0.671336  0.004503  0.410087  1
  Se  Se10  1  0.995497  0.666834  0.410087  1
  Se  Se11  1  0.330053  0.334054  0.642335  1
  Se  Se12  1  0.004001  0.669947  0.642335  1
  Se  Se13  1  0.665946  0.995999  0.642335  1
  Se  Se14  1  0.665946  0.669947  0.857665  1
  Se  Se15  1  0.330053  0.995999  0.857665  1
  Se  Se16  1  0.004001  0.334054  0.857665  1
  Se  Se17  1  0.671336  0.666834  0.089913  1
  Se  Se18  1  0.995497  0.328664  0.089913  1
  Se  Se19  1  0.333166  0.004503  0.089913  1
