# generated using pymatgen
data_TbLu2Hg5
_symmetry_space_group_name_H-M   'P 1'
_cell_length_a   6.33717776
_cell_length_b   6.33717718
_cell_length_c   10.05184500
_cell_angle_alpha   90.00000000
_cell_angle_beta   90.00000000
_cell_angle_gamma   104.98680195
_symmetry_Int_Tables_number   1
_chemical_formula_structural   TbLu2Hg5
_chemical_formula_sum   'Tb2 Lu4 Hg10'
_cell_volume   389.94925328
_cell_formula_units_Z   2
loop_
 _symmetry_equiv_pos_site_id
 _symmetry_equiv_pos_as_xyz
  1  'x, y, z'
loop_
 _atom_site_type_symbol
 _atom_site_label
 _atom_site_symmetry_multiplicity
 _atom_site_fract_x
 _atom_site_fract_y
 _atom_site_fract_z
 _atom_site_occupancy
  Tb  Tb0  1  0.784355  0.215645  0.500000  1
  Tb  Tb1  1  0.784355  0.215645  0.000000  1
  Lu  Lu2  1  0.562100  0.567406  0.250000  1
  Lu  Lu3  1  0.432594  0.437900  0.750000  1
  Lu  Lu4  1  0.217537  0.782463  0.500000  1
  Lu  Lu5  1  0.217537  0.782463  0.000000  1
  Hg  Hg6  1  0.963791  0.964315  0.250000  1
  Hg  Hg7  1  0.035685  0.036209  0.750000  1
  Hg  Hg8  1  0.293935  0.291679  0.028502  1
  Hg  Hg9  1  0.708321  0.706065  0.971498  1
  Hg  Hg10  1  0.293935  0.291679  0.471498  1
  Hg  Hg11  1  0.708321  0.706065  0.528502  1
  Hg  Hg12  1  0.470967  0.030698  0.250000  1
  Hg  Hg13  1  0.969302  0.529033  0.750000  1
  Hg  Hg14  1  0.518026  0.960760  0.750000  1
  Hg  Hg15  1  0.039240  0.481974  0.250000  1
