# generated using pymatgen
data_Y2Fe3Tc14C3
_symmetry_space_group_name_H-M   'P 1'
_cell_length_a   6.89774012
_cell_length_b   6.89773976
_cell_length_c   6.89773966
_cell_angle_alpha   82.40757960
_cell_angle_beta   82.40757695
_cell_angle_gamma   82.40756921
_symmetry_Int_Tables_number   1
_chemical_formula_structural   Y2Fe3Tc14C3
_chemical_formula_sum   'Y2 Fe3 Tc14 C3'
_cell_volume   320.25361327
_cell_formula_units_Z   1
loop_
 _symmetry_equiv_pos_site_id
 _symmetry_equiv_pos_as_xyz
  1  'x, y, z'
loop_
 _atom_site_type_symbol
 _atom_site_label
 _atom_site_symmetry_multiplicity
 _atom_site_fract_x
 _atom_site_fract_y
 _atom_site_fract_z
 _atom_site_occupancy
  Y  Y0  1  0.652511  0.652511  0.652511  1
  Y  Y1  1  0.347489  0.347489  0.347489  1
  Fe  Fe2  1  0.000000  0.000000  0.500000  1
  Fe  Fe3  1  0.500000  0.000000  0.000000  1
  Fe  Fe4  1  0.000000  0.500000  0.000000  1
  Tc  Tc5  1  0.724296  0.275704  0.000000  1
  Tc  Tc6  1  0.000000  0.724296  0.275704  1
  Tc  Tc7  1  0.275704  0.000000  0.724296  1
  Tc  Tc8  1  0.000000  0.275704  0.724296  1
  Tc  Tc9  1  0.724296  0.000000  0.275704  1
  Tc  Tc10  1  0.275704  0.724296  0.000000  1
  Tc  Tc11  1  0.348682  0.348682  0.860307  1
  Tc  Tc12  1  0.860307  0.348682  0.348682  1
  Tc  Tc13  1  0.348682  0.860307  0.348682  1
  Tc  Tc14  1  0.651318  0.651318  0.139693  1
  Tc  Tc15  1  0.139693  0.651318  0.651318  1
  Tc  Tc16  1  0.651318  0.139693  0.651318  1
  Tc  Tc17  1  0.899345  0.899345  0.899345  1
  Tc  Tc18  1  0.100655  0.100655  0.100655  1
  C  C19  1  0.500000  0.500000  0.000000  1
  C  C20  1  0.000000  0.500000  0.500000  1
  C  C21  1  0.500000  0.000000  0.500000  1
