# generated using pymatgen
data_Y6Tm2AlPd24
_symmetry_space_group_name_H-M   'P 1'
_cell_length_a   8.35403448
_cell_length_b   8.35403496
_cell_length_c   8.35403600
_cell_angle_alpha   89.98059057
_cell_angle_beta   90.01940943
_cell_angle_gamma   90.01940915
_symmetry_Int_Tables_number   1
_chemical_formula_structural   Y6Tm2AlPd24
_chemical_formula_sum   'Y6 Tm2 Al1 Pd24'
_cell_volume   583.02720398
_cell_formula_units_Z   1
loop_
 _symmetry_equiv_pos_site_id
 _symmetry_equiv_pos_as_xyz
  1  'x, y, z'
loop_
 _atom_site_type_symbol
 _atom_site_label
 _atom_site_symmetry_multiplicity
 _atom_site_fract_x
 _atom_site_fract_y
 _atom_site_fract_z
 _atom_site_occupancy
  Y  Y0  1  0.251131  0.251472  0.251472  1
  Y  Y1  1  0.748869  0.748528  0.748528  1
  Y  Y2  1  0.748528  0.748869  0.251472  1
  Y  Y3  1  0.748528  0.251472  0.748869  1
  Y  Y4  1  0.251472  0.251131  0.748528  1
  Y  Y5  1  0.251472  0.748528  0.251131  1
  Tm  Tm6  1  0.251304  0.748696  0.748696  1
  Tm  Tm7  1  0.748696  0.251304  0.251304  1
  Al  Al8  1  0.000000  0.000000  0.000000  1
  Pd  Pd9  1  0.259541  0.500745  0.998577  1
  Pd  Pd10  1  0.740459  0.499255  0.001423  1
  Pd  Pd11  1  0.998577  0.259541  0.499255  1
  Pd  Pd12  1  0.500745  0.259541  0.001423  1
  Pd  Pd13  1  0.001423  0.740459  0.500745  1
  Pd  Pd14  1  0.499255  0.740459  0.998577  1
  Pd  Pd15  1  0.500745  0.001423  0.259541  1
  Pd  Pd16  1  0.259541  0.998577  0.500745  1
  Pd  Pd17  1  0.499255  0.998577  0.740459  1
  Pd  Pd18  1  0.740459  0.001423  0.499255  1
  Pd  Pd19  1  0.998577  0.499255  0.259541  1
  Pd  Pd20  1  0.001423  0.500745  0.740459  1
  Pd  Pd21  1  0.252554  0.501046  0.501046  1
  Pd  Pd22  1  0.747446  0.498954  0.498954  1
  Pd  Pd23  1  0.501046  0.252554  0.498954  1
  Pd  Pd24  1  0.498954  0.747446  0.501046  1
  Pd  Pd25  1  0.501046  0.498954  0.252554  1
  Pd  Pd26  1  0.498954  0.501046  0.747446  1
  Pd  Pd27  1  0.288905  0.998667  0.998667  1
  Pd  Pd28  1  0.711095  0.001333  0.001333  1
  Pd  Pd29  1  0.998667  0.288905  0.001333  1
  Pd  Pd30  1  0.001333  0.711095  0.998667  1
  Pd  Pd31  1  0.998667  0.001333  0.288905  1
  Pd  Pd32  1  0.001333  0.998667  0.711095  1
