# generated using pymatgen
data_LiLa3Cd2Ag2Ir
_symmetry_space_group_name_H-M   'P 1'
_cell_length_a   7.87244500
_cell_length_b   7.98130792
_cell_length_c   4.04391100
_cell_angle_alpha   90.00000000
_cell_angle_beta   90.00000000
_cell_angle_gamma   120.20029002
_symmetry_Int_Tables_number   1
_chemical_formula_structural   LiLa3Cd2Ag2Ir
_chemical_formula_sum   'Li1 La3 Cd2 Ag2 Ir1'
_cell_volume   219.60178312
_cell_formula_units_Z   1
loop_
 _symmetry_equiv_pos_site_id
 _symmetry_equiv_pos_as_xyz
  1  'x, y, z'
loop_
 _atom_site_type_symbol
 _atom_site_label
 _atom_site_symmetry_multiplicity
 _atom_site_fract_x
 _atom_site_fract_y
 _atom_site_fract_z
 _atom_site_occupancy
  Li  Li0  1  0.757709  0.755975  0.000000  1
  La  La1  1  0.430754  0.402961  0.500000  1
  La  La2  1  0.598451  0.027752  0.500000  1
  La  La3  1  0.973591  0.572970  0.500000  1
  Cd  Cd4  1  0.246593  0.998175  0.000000  1
  Cd  Cd5  1  0.005087  0.252913  0.000000  1
  Ag  Ag6  1  0.335297  0.668405  0.000000  1
  Ag  Ag7  1  0.986505  0.987797  0.500000  1
  Ir  Ir8  1  0.666012  0.333053  0.000000  1
