# generated using pymatgen
data_La4Al17Si(OsPd2)2
_symmetry_space_group_name_H-M   'P 1'
_cell_length_a   7.73364368
_cell_length_b   7.73364517
_cell_length_c   9.61592700
_cell_angle_alpha   90.00000000
_cell_angle_beta   90.00000000
_cell_angle_gamma   119.73461332
_symmetry_Int_Tables_number   1
_chemical_formula_structural   La4Al17Si(OsPd2)2
_chemical_formula_sum   'La4 Al17 Si1 Os2 Pd4'
_cell_volume   499.39637412
_cell_formula_units_Z   1
loop_
 _symmetry_equiv_pos_site_id
 _symmetry_equiv_pos_as_xyz
  1  'x, y, z'
loop_
 _atom_site_type_symbol
 _atom_site_label
 _atom_site_symmetry_multiplicity
 _atom_site_fract_x
 _atom_site_fract_y
 _atom_site_fract_z
 _atom_site_occupancy
  La  La0  1  0.994419  0.674602  0.250000  1
  La  La1  1  0.002137  0.331324  0.750000  1
  La  La2  1  0.674602  0.994419  0.250000  1
  La  La3  1  0.331324  0.002137  0.750000  1
  Al  Al4  1  0.874464  0.874464  0.750000  1
  Al  Al5  1  0.004503  0.332358  0.076466  1
  Al  Al6  1  0.996114  0.671690  0.926083  1
  Al  Al7  1  0.996114  0.671690  0.573917  1
  Al  Al8  1  0.332358  0.004503  0.423534  1
  Al  Al9  1  0.004503  0.332358  0.423534  1
  Al  Al10  1  0.671690  0.996114  0.573917  1
  Al  Al11  1  0.671690  0.996114  0.926083  1
  Al  Al12  1  0.332358  0.004503  0.076466  1
  Al  Al13  1  0.329212  0.329212  0.552542  1
  Al  Al14  1  0.665879  0.665879  0.453780  1
  Al  Al15  1  0.665879  0.665879  0.046220  1
  Al  Al16  1  0.329212  0.329212  0.947458  1
  Al  Al17  1  0.339223  0.542648  0.250000  1
  Al  Al18  1  0.658295  0.457326  0.750000  1
  Al  Al19  1  0.542648  0.339223  0.250000  1
  Al  Al20  1  0.457326  0.658295  0.750000  1
  Si  Si21  1  0.129960  0.129960  0.250000  1
  Os  Os22  1  0.000912  0.000912  0.007761  1
  Os  Os23  1  0.000912  0.000912  0.492239  1
  Pd  Pd24  1  0.669589  0.327544  0.000096  1
  Pd  Pd25  1  0.327544  0.669589  0.000096  1
  Pd  Pd26  1  0.327544  0.669589  0.499904  1
  Pd  Pd27  1  0.669589  0.327544  0.499904  1
