# generated using pymatgen
data_Cs8Zr6CrI20
_symmetry_space_group_name_H-M   'P 1'
_cell_length_a   13.34995064
_cell_length_b   13.34995099
_cell_length_c   13.34994900
_cell_angle_alpha   59.99999751
_cell_angle_beta   59.99999663
_cell_angle_gamma   59.99999720
_symmetry_Int_Tables_number   1
_chemical_formula_structural   Cs8Zr6CrI20
_chemical_formula_sum   'Cs8 Zr6 Cr1 I20'
_cell_volume   1682.37928298
_cell_formula_units_Z   1
loop_
 _symmetry_equiv_pos_site_id
 _symmetry_equiv_pos_as_xyz
  1  'x, y, z'
loop_
 _atom_site_type_symbol
 _atom_site_label
 _atom_site_symmetry_multiplicity
 _atom_site_fract_x
 _atom_site_fract_y
 _atom_site_fract_z
 _atom_site_occupancy
  Cs  Cs0  1  0.361458  0.361458  0.361458  1
  Cs  Cs1  1  0.638542  0.638542  0.638542  1
  Cs  Cs2  1  0.361458  0.361458  0.915626  1
  Cs  Cs3  1  0.361458  0.915626  0.361458  1
  Cs  Cs4  1  0.638542  0.638542  0.084374  1
  Cs  Cs5  1  0.638542  0.084374  0.638542  1
  Cs  Cs6  1  0.915626  0.361458  0.361458  1
  Cs  Cs7  1  0.084374  0.638542  0.638542  1
  Zr  Zr8  1  0.866675  0.133325  0.133325  1
  Zr  Zr9  1  0.133325  0.866675  0.866675  1
  Zr  Zr10  1  0.133325  0.866675  0.133325  1
  Zr  Zr11  1  0.866675  0.133325  0.866675  1
  Zr  Zr12  1  0.133325  0.133325  0.866675  1
  Zr  Zr13  1  0.866675  0.866675  0.133325  1
  Cr  Cr14  1  0.000000  0.000000  0.000000  1
  I  I15  1  0.312068  0.000000  0.000000  1
  I  I16  1  0.687932  0.000000  0.000000  1
  I  I17  1  0.000000  0.312068  0.687932  1
  I  I18  1  0.000000  0.687932  0.312068  1
  I  I19  1  0.000000  0.312068  0.000000  1
  I  I20  1  0.687932  0.000000  0.312068  1
  I  I21  1  0.000000  0.687932  0.000000  1
  I  I22  1  0.312068  0.000000  0.687932  1
  I  I23  1  0.000000  0.000000  0.312068  1
  I  I24  1  0.000000  0.000000  0.687932  1
  I  I25  1  0.687932  0.312068  0.000000  1
  I  I26  1  0.312068  0.687932  0.000000  1
  I  I27  1  0.692882  0.307118  0.307118  1
  I  I28  1  0.307118  0.692882  0.692882  1
  I  I29  1  0.307118  0.692882  0.307118  1
  I  I30  1  0.692882  0.307118  0.692882  1
  I  I31  1  0.307118  0.307118  0.692882  1
  I  I32  1  0.692882  0.692882  0.307118  1
  I  I33  1  0.250000  0.250000  0.250000  1
  I  I34  1  0.750000  0.750000  0.750000  1
