# generated using pymatgen
data_Pa5Co16(P4W)3
_symmetry_space_group_name_H-M   'P 1'
_cell_length_a   12.10169200
_cell_length_b   12.10169176
_cell_length_c   3.76217400
_cell_angle_alpha   90.00000000
_cell_angle_beta   90.00000000
_cell_angle_gamma   119.99999519
_symmetry_Int_Tables_number   1
_chemical_formula_structural   Pa5Co16(P4W)3
_chemical_formula_sum   'Pa5 Co16 P12 W3'
_cell_volume   477.15745426
_cell_formula_units_Z   1
loop_
 _symmetry_equiv_pos_site_id
 _symmetry_equiv_pos_as_xyz
  1  'x, y, z'
loop_
 _atom_site_type_symbol
 _atom_site_label
 _atom_site_symmetry_multiplicity
 _atom_site_fract_x
 _atom_site_fract_y
 _atom_site_fract_z
 _atom_site_occupancy
  Pa  Pa0  1  0.666667  0.333333  0.000000  1
  Pa  Pa1  1  0.333333  0.666667  0.000000  1
  Pa  Pa2  1  0.183972  0.183972  0.500000  1
  Pa  Pa3  1  0.816028  0.000000  0.500000  1
  Pa  Pa4  1  0.000000  0.816028  0.500000  1
  Co  Co5  1  0.819303  0.193863  0.000000  1
  Co  Co6  1  0.806137  0.625440  0.000000  1
  Co  Co7  1  0.374560  0.180697  0.000000  1
  Co  Co8  1  0.193863  0.819303  0.000000  1
  Co  Co9  1  0.625440  0.806137  0.000000  1
  Co  Co10  1  0.180697  0.374560  0.000000  1
  Co  Co11  1  0.639715  0.126134  0.500000  1
  Co  Co12  1  0.873866  0.513581  0.500000  1
  Co  Co13  1  0.486419  0.360285  0.500000  1
  Co  Co14  1  0.126134  0.639715  0.500000  1
  Co  Co15  1  0.513581  0.873866  0.500000  1
  Co  Co16  1  0.360285  0.486419  0.500000  1
  Co  Co17  1  0.720316  0.720316  0.500000  1
  Co  Co18  1  0.279684  0.000000  0.500000  1
  Co  Co19  1  0.000000  0.279684  0.500000  1
  Co  Co20  1  0.000000  0.000000  0.000000  1
  P  P21  1  0.365296  0.365296  0.000000  1
  P  P22  1  0.634704  0.000000  0.000000  1
  P  P23  1  0.000000  0.634704  0.000000  1
  P  P24  1  0.834772  0.310867  0.500000  1
  P  P25  1  0.689133  0.523905  0.500000  1
  P  P26  1  0.476095  0.165228  0.500000  1
  P  P27  1  0.310867  0.834772  0.500000  1
  P  P28  1  0.523905  0.689133  0.500000  1
  P  P29  1  0.165228  0.476095  0.500000  1
  P  P30  1  0.819660  0.819660  0.000000  1
  P  P31  1  0.180340  0.000000  0.000000  1
  P  P32  1  0.000000  0.180340  0.000000  1
  W  W33  1  0.557950  0.557950  0.000000  1
  W  W34  1  0.442050  0.000000  0.000000  1
  W  W35  1  0.000000  0.442050  0.000000  1
