# generated using pymatgen
data_Rb6ErMoF12
_symmetry_space_group_name_H-M   'P 1'
_cell_length_a   6.71421513
_cell_length_b   6.47900958
_cell_length_c   11.26232300
_cell_angle_alpha   55.22479468
_cell_angle_beta   90.01121302
_cell_angle_gamma   89.99200740
_symmetry_Int_Tables_number   1
_chemical_formula_structural   Rb6ErMoF12
_chemical_formula_sum   'Rb6 Er1 Mo1 F12'
_cell_volume   402.42454784
_cell_formula_units_Z   1
loop_
 _symmetry_equiv_pos_site_id
 _symmetry_equiv_pos_as_xyz
  1  'x, y, z'
loop_
 _atom_site_type_symbol
 _atom_site_label
 _atom_site_symmetry_multiplicity
 _atom_site_fract_x
 _atom_site_fract_y
 _atom_site_fract_z
 _atom_site_occupancy
  Rb  Rb0  1  0.500000  0.500000  0.000000  1
  Rb  Rb1  1  0.000000  0.500000  0.500000  1
  Rb  Rb2  1  0.049867  0.731055  0.754941  1
  Rb  Rb3  1  0.950133  0.268945  0.245059  1
  Rb  Rb4  1  0.551164  0.263996  0.749690  1
  Rb  Rb5  1  0.448836  0.736004  0.250310  1
  Er  Er6  1  0.500000  0.000000  0.500000  1
  Mo  Mo7  1  0.000000  0.000000  0.000000  1
  F  F8  1  0.765754  0.771675  0.565188  1
  F  F9  1  0.234246  0.228325  0.434812  1
  F  F10  1  0.259279  0.223572  0.937364  1
  F  F11  1  0.740721  0.776428  0.062636  1
  F  F12  1  0.449687  0.886634  0.718648  1
  F  F13  1  0.550313  0.113366  0.281352  1
  F  F14  1  0.951230  0.111138  0.786365  1
  F  F15  1  0.048770  0.888862  0.213635  1
  F  F16  1  0.328291  0.680959  0.546928  1
  F  F17  1  0.671709  0.319041  0.453072  1
  F  F18  1  0.830059  0.310433  0.954882  1
  F  F19  1  0.169941  0.689567  0.045118  1
