# generated using pymatgen
data_Hf6GaGeC2
_symmetry_space_group_name_H-M   'P 1'
_cell_length_a   5.89498435
_cell_length_b   5.89498405
_cell_length_c   8.83782700
_cell_angle_alpha   90.00000000
_cell_angle_beta   90.00000000
_cell_angle_gamma   146.35881761
_symmetry_Int_Tables_number   1
_chemical_formula_structural   Hf6GaGeC2
_chemical_formula_sum   'Hf6 Ga1 Ge1 C2'
_cell_volume   170.14248746
_cell_formula_units_Z   1
loop_
 _symmetry_equiv_pos_site_id
 _symmetry_equiv_pos_as_xyz
  1  'x, y, z'
loop_
 _atom_site_type_symbol
 _atom_site_label
 _atom_site_symmetry_multiplicity
 _atom_site_fract_x
 _atom_site_fract_y
 _atom_site_fract_z
 _atom_site_occupancy
  Hf  Hf0  1  0.128321  0.871679  0.047703  1
  Hf  Hf1  1  0.449924  0.550075  0.250000  1
  Hf  Hf2  1  0.128321  0.871679  0.452297  1
  Hf  Hf3  1  0.871314  0.128686  0.548530  1
  Hf  Hf4  1  0.552455  0.447544  0.750000  1
  Hf  Hf5  1  0.871314  0.128686  0.951470  1
  Ga  Ga6  1  0.750589  0.249411  0.250000  1
  Ge  Ge7  1  0.248238  0.751762  0.750000  1
  C  C8  1  0.499761  0.500239  0.999062  1
  C  C9  1  0.499761  0.500239  0.500938  1
