# generated using pymatgen
data_RbY3(SbAu)4
_symmetry_space_group_name_H-M   'P 1'
_cell_length_a   4.64865700
_cell_length_b   4.64865720
_cell_length_c   17.57346200
_cell_angle_alpha   90.00000000
_cell_angle_beta   90.00000000
_cell_angle_gamma   120.00000568
_symmetry_Int_Tables_number   1
_chemical_formula_structural   RbY3(SbAu)4
_chemical_formula_sum   'Rb1 Y3 Sb4 Au4'
_cell_volume   328.88416100
_cell_formula_units_Z   1
loop_
 _symmetry_equiv_pos_site_id
 _symmetry_equiv_pos_as_xyz
  1  'x, y, z'
loop_
 _atom_site_type_symbol
 _atom_site_label
 _atom_site_symmetry_multiplicity
 _atom_site_fract_x
 _atom_site_fract_y
 _atom_site_fract_z
 _atom_site_occupancy
  Rb  Rb0  1  0.000000  0.000000  0.250000  1
  Y  Y1  1  0.000000  0.000000  0.518762  1
  Y  Y2  1  0.000000  0.000000  0.981238  1
  Y  Y3  1  0.000000  0.000000  0.750000  1
  Sb  Sb4  1  0.333333  0.666667  0.398838  1
  Sb  Sb5  1  0.666667  0.333333  0.620482  1
  Sb  Sb6  1  0.666667  0.333333  0.879518  1
  Sb  Sb7  1  0.333333  0.666667  0.101162  1
  Au  Au8  1  0.666667  0.333333  0.437971  1
  Au  Au9  1  0.333333  0.666667  0.667721  1
  Au  Au10  1  0.333333  0.666667  0.832279  1
  Au  Au11  1  0.666667  0.333333  0.062029  1
