# generated using pymatgen
data_Y5Th(SiPd5)2
_symmetry_space_group_name_H-M   'P 1'
_cell_length_a   8.26580242
_cell_length_b   8.26580136
_cell_length_c   8.26580116
_cell_angle_alpha   127.29916686
_cell_angle_beta   125.39777225
_cell_angle_gamma   79.32567700
_symmetry_Int_Tables_number   1
_chemical_formula_structural   Y5Th(SiPd5)2
_chemical_formula_sum   'Y5 Th1 Si2 Pd10'
_cell_volume   354.03302420
_cell_formula_units_Z   1
loop_
 _symmetry_equiv_pos_site_id
 _symmetry_equiv_pos_as_xyz
  1  'x, y, z'
loop_
 _atom_site_type_symbol
 _atom_site_label
 _atom_site_symmetry_multiplicity
 _atom_site_fract_x
 _atom_site_fract_y
 _atom_site_fract_z
 _atom_site_occupancy
  Y  Y0  1  0.225178  0.447850  0.777328  1
  Y  Y1  1  0.774701  0.548916  0.225785  1
  Y  Y2  1  0.829479  0.052150  0.777328  1
  Y  Y3  1  0.176869  0.951084  0.225785  1
  Y  Y4  1  0.392068  0.250000  0.142068  1
  Th  Th5  1  0.613327  0.750000  0.863327  1
  Si  Si6  1  0.788148  0.250000  0.538148  1
  Si  Si7  1  0.209322  0.750000  0.459322  1
  Pd  Pd8  1  0.169446  0.403111  0.358989  1
  Pd  Pd9  1  0.830572  0.187641  0.230965  1
  Pd  Pd10  1  0.455879  0.096889  0.766337  1
  Pd  Pd11  1  0.543324  0.312359  0.642931  1
  Pd  Pd12  1  0.996233  0.504140  0.000373  1
  Pd  Pd13  1  0.996233  0.995860  0.492092  1
  Pd  Pd14  1  0.455879  0.689542  0.358989  1
  Pd  Pd15  1  0.543324  0.900393  0.230965  1
  Pd  Pd16  1  0.169446  0.810458  0.766337  1
  Pd  Pd17  1  0.830572  0.599607  0.642931  1
