# generated using pymatgen
data_Ac5PPb3
_symmetry_space_group_name_H-M   'P 1'
_cell_length_a   9.99757300
_cell_length_b   9.99757258
_cell_length_c   7.67508700
_cell_angle_alpha   90.00000000
_cell_angle_beta   90.00000000
_cell_angle_gamma   119.99999807
_symmetry_Int_Tables_number   1
_chemical_formula_structural   Ac5PPb3
_chemical_formula_sum   'Ac10 P2 Pb6'
_cell_volume   664.35941942
_cell_formula_units_Z   2
loop_
 _symmetry_equiv_pos_site_id
 _symmetry_equiv_pos_as_xyz
  1  'x, y, z'
loop_
 _atom_site_type_symbol
 _atom_site_label
 _atom_site_symmetry_multiplicity
 _atom_site_fract_x
 _atom_site_fract_y
 _atom_site_fract_z
 _atom_site_occupancy
  Ac  Ac0  1  0.763151  0.763151  0.250000  1
  Ac  Ac1  1  0.236849  0.000000  0.250000  1
  Ac  Ac2  1  0.000000  0.236849  0.250000  1
  Ac  Ac3  1  0.236849  0.236849  0.750000  1
  Ac  Ac4  1  0.763151  0.000000  0.750000  1
  Ac  Ac5  1  0.000000  0.763151  0.750000  1
  Ac  Ac6  1  0.666667  0.333333  0.500000  1
  Ac  Ac7  1  0.333333  0.666667  0.500000  1
  Ac  Ac8  1  0.333333  0.666667  0.000000  1
  Ac  Ac9  1  0.666667  0.333333  0.000000  1
  P  P10  1  0.000000  0.000000  0.500000  1
  P  P11  1  0.000000  0.000000  0.000000  1
  Pb  Pb12  1  0.402252  0.402252  0.250000  1
  Pb  Pb13  1  0.597748  0.000000  0.250000  1
  Pb  Pb14  1  0.000000  0.597748  0.250000  1
  Pb  Pb15  1  0.597748  0.597748  0.750000  1
  Pb  Pb16  1  0.402252  0.000000  0.750000  1
  Pb  Pb17  1  0.000000  0.402252  0.750000  1
