# generated using pymatgen
data_Cs2Hf(TeO4)3
_symmetry_space_group_name_H-M   'P 1'
_cell_length_a   7.44095992
_cell_length_b   7.44096003
_cell_length_c   7.44096050
_cell_angle_alpha   59.27592538
_cell_angle_beta   59.27592692
_cell_angle_gamma   59.27592290
_symmetry_Int_Tables_number   1
_chemical_formula_structural   Cs2Hf(TeO4)3
_chemical_formula_sum   'Cs2 Hf1 Te3 O12'
_cell_volume   286.51732431
_cell_formula_units_Z   1
loop_
 _symmetry_equiv_pos_site_id
 _symmetry_equiv_pos_as_xyz
  1  'x, y, z'
loop_
 _atom_site_type_symbol
 _atom_site_label
 _atom_site_symmetry_multiplicity
 _atom_site_fract_x
 _atom_site_fract_y
 _atom_site_fract_z
 _atom_site_occupancy
  Cs  Cs0  1  0.372391  0.372391  0.372391  1
  Cs  Cs1  1  0.627609  0.627609  0.627609  1
  Hf  Hf2  1  0.000000  0.000000  0.000000  1
  Te  Te3  1  0.500000  0.000000  0.000000  1
  Te  Te4  1  0.000000  0.000000  0.500000  1
  Te  Te5  1  0.000000  0.500000  0.000000  1
  O  O6  1  0.928412  0.321106  0.321106  1
  O  O7  1  0.329081  0.934303  0.934303  1
  O  O8  1  0.321106  0.321106  0.928412  1
  O  O9  1  0.934303  0.934303  0.329081  1
  O  O10  1  0.934303  0.329081  0.934303  1
  O  O11  1  0.321106  0.928412  0.321106  1
  O  O12  1  0.071588  0.678894  0.678894  1
  O  O13  1  0.670919  0.065697  0.065697  1
  O  O14  1  0.678894  0.678894  0.071588  1
  O  O15  1  0.065697  0.065697  0.670919  1
  O  O16  1  0.065697  0.670919  0.065697  1
  O  O17  1  0.678894  0.071588  0.678894  1
