# generated using pymatgen
data_Pr5NpU4O20
_symmetry_space_group_name_H-M   'P 1'
_cell_length_a   6.77536524
_cell_length_b   7.71271558
_cell_length_c   8.62743600
_cell_angle_alpha   101.59014284
_cell_angle_beta   97.67700010
_cell_angle_gamma   107.15686866
_symmetry_Int_Tables_number   1
_chemical_formula_structural   Pr5NpU4O20
_chemical_formula_sum   'Pr5 Np1 U4 O20'
_cell_volume   412.93943129
_cell_formula_units_Z   1
loop_
 _symmetry_equiv_pos_site_id
 _symmetry_equiv_pos_as_xyz
  1  'x, y, z'
loop_
 _atom_site_type_symbol
 _atom_site_label
 _atom_site_symmetry_multiplicity
 _atom_site_fract_x
 _atom_site_fract_y
 _atom_site_fract_z
 _atom_site_occupancy
  Pr  Pr0  1  0.603084  0.701101  0.700083  1
  Pr  Pr1  1  0.396916  0.298899  0.299917  1
  Pr  Pr2  1  0.200471  0.900168  0.898077  1
  Pr  Pr3  1  0.000000  0.500000  0.500000  1
  Pr  Pr4  1  0.799529  0.099832  0.101923  1
  Np  Np5  1  0.000000  0.000000  0.500000  1
  U  U6  1  0.399741  0.801142  0.300591  1
  U  U7  1  0.200769  0.401963  0.901542  1
  U  U8  1  0.799231  0.598037  0.098458  1
  U  U9  1  0.600259  0.198858  0.699409  1
  O  O10  1  0.446429  0.536835  0.136894  1
  O  O11  1  0.555401  0.993608  0.838133  1
  O  O12  1  0.263014  0.146852  0.740861  1
  O  O13  1  0.356075  0.594876  0.437310  1
  O  O14  1  0.055970  0.736607  0.333192  1
  O  O15  1  0.444599  0.006392  0.161867  1
  O  O16  1  0.152022  0.191600  0.035257  1
  O  O17  1  0.553571  0.463165  0.863106  1
  O  O18  1  0.852858  0.340600  0.944604  1
  O  O19  1  0.249903  0.606003  0.762145  1
  O  O20  1  0.955187  0.790137  0.638935  1
  O  O21  1  0.350318  0.058443  0.457993  1
  O  O22  1  0.649682  0.941557  0.542007  1
  O  O23  1  0.044813  0.209863  0.361065  1
  O  O24  1  0.750097  0.393997  0.237855  1
  O  O25  1  0.147142  0.659400  0.055396  1
  O  O26  1  0.847978  0.808400  0.964743  1
  O  O27  1  0.944030  0.263393  0.666808  1
  O  O28  1  0.643925  0.405124  0.562690  1
  O  O29  1  0.736986  0.853148  0.259139  1
