# generated using pymatgen
data_Rb6GaAs3
_symmetry_space_group_name_H-M   'P 1'
_cell_length_a   6.03976600
_cell_length_b   10.31873571
_cell_length_c   11.90084803
_cell_angle_alpha   78.84479491
_cell_angle_beta   90.00000000
_cell_angle_gamma   90.00000000
_symmetry_Int_Tables_number   1
_chemical_formula_structural   Rb6GaAs3
_chemical_formula_sum   'Rb12 Ga2 As6'
_cell_volume   727.68053546
_cell_formula_units_Z   2
loop_
 _symmetry_equiv_pos_site_id
 _symmetry_equiv_pos_as_xyz
  1  'x, y, z'
loop_
 _atom_site_type_symbol
 _atom_site_label
 _atom_site_symmetry_multiplicity
 _atom_site_fract_x
 _atom_site_fract_y
 _atom_site_fract_z
 _atom_site_occupancy
  Rb  Rb0  1  0.750000  0.460592  0.076910  1
  Rb  Rb1  1  0.250000  0.539408  0.923090  1
  Rb  Rb2  1  0.750000  0.740710  0.227383  1
  Rb  Rb3  1  0.250000  0.259290  0.772617  1
  Rb  Rb4  1  0.250000  0.560201  0.542022  1
  Rb  Rb5  1  0.750000  0.439799  0.457978  1
  Rb  Rb6  1  0.250000  0.862376  0.022167  1
  Rb  Rb7  1  0.750000  0.137624  0.977833  1
  Rb  Rb8  1  0.250000  0.874964  0.678391  1
  Rb  Rb9  1  0.750000  0.125036  0.321609  1
  Rb  Rb10  1  0.250000  0.916871  0.369075  1
  Rb  Rb11  1  0.750000  0.083129  0.630925  1
  Ga  Ga12  1  0.750000  0.676335  0.719973  1
  Ga  Ga13  1  0.250000  0.323665  0.280027  1
  As  As14  1  0.250000  0.213827  0.484311  1
  As  As15  1  0.750000  0.786173  0.515689  1
  As  As16  1  0.250000  0.565432  0.229276  1
  As  As17  1  0.750000  0.434568  0.770724  1
  As  As18  1  0.750000  0.813716  0.874804  1
  As  As19  1  0.250000  0.186284  0.125196  1
