# generated using pymatgen
data_Ho5Tm3Mn2(B12Rh)2
_symmetry_space_group_name_H-M   'P 1'
_cell_length_a   3.59663700
_cell_length_b   9.07872450
_cell_length_c   11.45396016
_cell_angle_alpha   90.14137697
_cell_angle_beta   90.00000000
_cell_angle_gamma   90.00000000
_symmetry_Int_Tables_number   1
_chemical_formula_structural   Ho5Tm3Mn2(B12Rh)2
_chemical_formula_sum   'Ho5 Tm3 Mn2 B24 Rh2'
_cell_volume   374.00360718
_cell_formula_units_Z   1
loop_
 _symmetry_equiv_pos_site_id
 _symmetry_equiv_pos_as_xyz
  1  'x, y, z'
loop_
 _atom_site_type_symbol
 _atom_site_label
 _atom_site_symmetry_multiplicity
 _atom_site_fract_x
 _atom_site_fract_y
 _atom_site_fract_z
 _atom_site_occupancy
  Ho  Ho0  1  0.500000  0.317566  0.410345  1
  Ho  Ho1  1  0.500000  0.682418  0.589868  1
  Ho  Ho2  1  0.500000  0.171866  0.917468  1
  Ho  Ho3  1  0.500000  0.827986  0.082157  1
  Ho  Ho4  1  0.500000  0.439913  0.126262  1
  Tm  Tm5  1  0.500000  0.560512  0.873292  1
  Tm  Tm6  1  0.500000  0.052019  0.629884  1
  Tm  Tm7  1  0.500000  0.947867  0.370339  1
  Mn  Mn8  1  0.500000  0.138897  0.180770  1
  Mn  Mn9  1  0.500000  0.860424  0.819240  1
  B  B10  1  0.000000  0.107081  0.470925  1
  B  B11  1  0.000000  0.892877  0.529236  1
  B  B12  1  0.000000  0.391008  0.969456  1
  B  B13  1  0.000000  0.609660  0.029485  1
  B  B14  1  0.000000  0.131541  0.313630  1
  B  B15  1  0.000000  0.868215  0.686600  1
  B  B16  1  0.000000  0.368069  0.817031  1
  B  B17  1  0.000000  0.632661  0.182945  1
  B  B18  1  0.000000  0.053549  0.068086  1
  B  B19  1  0.000000  0.945967  0.931712  1
  B  B20  1  0.000000  0.446024  0.566442  1
  B  B21  1  0.000000  0.554065  0.433803  1
  B  B22  1  0.000000  0.482500  0.286956  1
  B  B23  1  0.000000  0.517812  0.713532  1
  B  B24  1  0.000000  0.014462  0.788178  1
  B  B25  1  0.000000  0.985298  0.211872  1
  B  B26  1  0.000000  0.245587  0.081699  1
  B  B27  1  0.000000  0.753837  0.918098  1
  B  B28  1  0.000000  0.249125  0.579161  1
  B  B29  1  0.000000  0.750987  0.420962  1
  B  B30  1  0.000000  0.289935  0.233477  1
  B  B31  1  0.000000  0.709555  0.766696  1
  B  B32  1  0.000000  0.207185  0.734831  1
  B  B33  1  0.000000  0.793131  0.265218  1
  Rh  Rh34  1  0.500000  0.361280  0.678999  1
  Rh  Rh35  1  0.500000  0.639121  0.321344  1
