# generated using pymatgen
data_Y2Ti3As7Pd9
_symmetry_space_group_name_H-M   'P 1'
_cell_length_a   3.93929700
_cell_length_b   10.26200969
_cell_length_c   10.26201100
_cell_angle_alpha   119.99999540
_cell_angle_beta   90.00000000
_cell_angle_gamma   90.00000000
_symmetry_Int_Tables_number   1
_chemical_formula_structural   Y2Ti3As7Pd9
_chemical_formula_sum   'Y2 Ti3 As7 Pd9'
_cell_volume   359.26447364
_cell_formula_units_Z   1
loop_
 _symmetry_equiv_pos_site_id
 _symmetry_equiv_pos_as_xyz
  1  'x, y, z'
loop_
 _atom_site_type_symbol
 _atom_site_label
 _atom_site_symmetry_multiplicity
 _atom_site_fract_x
 _atom_site_fract_y
 _atom_site_fract_z
 _atom_site_occupancy
  Y  Y0  1  0.000000  0.666667  0.333333  1
  Y  Y1  1  0.500000  0.333333  0.666667  1
  Ti  Ti2  1  0.500000  0.772505  0.900703  1
  Ti  Ti3  1  0.500000  0.128198  0.227495  1
  Ti  Ti4  1  0.500000  0.099297  0.871802  1
  As  As5  1  0.000000  0.000000  0.000000  1
  As  As6  1  0.500000  0.705348  0.115646  1
  As  As7  1  0.500000  0.410297  0.294652  1
  As  As8  1  0.500000  0.884354  0.589703  1
  As  As9  1  0.000000  0.592116  0.715065  1
  As  As10  1  0.000000  0.122948  0.407884  1
  As  As11  1  0.000000  0.284935  0.877052  1
  Pd  Pd12  1  0.000000  0.553596  0.932351  1
  Pd  Pd13  1  0.000000  0.378754  0.446404  1
  Pd  Pd14  1  0.000000  0.067649  0.621246  1
  Pd  Pd15  1  0.000000  0.876184  0.151820  1
  Pd  Pd16  1  0.000000  0.275637  0.123816  1
  Pd  Pd17  1  0.000000  0.848180  0.724363  1
  Pd  Pd18  1  0.500000  0.937962  0.378772  1
  Pd  Pd19  1  0.500000  0.440810  0.062038  1
  Pd  Pd20  1  0.500000  0.621228  0.559190  1
