# generated using pymatgen
data_LiNd4(CdAg5)2
_symmetry_space_group_name_H-M   'P 1'
_cell_length_a   8.73486400
_cell_length_b   8.73486515
_cell_length_c   10.49287100
_cell_angle_alpha   90.00000000
_cell_angle_beta   90.00000000
_cell_angle_gamma   107.76417090
_symmetry_Int_Tables_number   1
_chemical_formula_structural   LiNd4(CdAg5)2
_chemical_formula_sum   'Li2 Nd8 Cd4 Ag20'
_cell_volume   762.41206299
_cell_formula_units_Z   2
loop_
 _symmetry_equiv_pos_site_id
 _symmetry_equiv_pos_as_xyz
  1  'x, y, z'
loop_
 _atom_site_type_symbol
 _atom_site_label
 _atom_site_symmetry_multiplicity
 _atom_site_fract_x
 _atom_site_fract_y
 _atom_site_fract_z
 _atom_site_occupancy
  Li  Li0  1  0.000000  0.000000  0.000000  1
  Li  Li1  1  0.500000  0.500000  0.500000  1
  Nd  Nd2  1  0.700886  0.299114  0.000000  1
  Nd  Nd3  1  0.299114  0.700886  0.000000  1
  Nd  Nd4  1  0.799114  0.200886  0.500000  1
  Nd  Nd5  1  0.200886  0.799114  0.500000  1
  Nd  Nd6  1  0.302545  0.302545  0.203565  1
  Nd  Nd7  1  0.697455  0.697455  0.796435  1
  Nd  Nd8  1  0.197455  0.197455  0.703565  1
  Nd  Nd9  1  0.802545  0.802545  0.296435  1
  Cd  Cd10  1  0.027257  0.527257  0.250000  1
  Cd  Cd11  1  0.972743  0.472743  0.750000  1
  Cd  Cd12  1  0.472743  0.972743  0.750000  1
  Cd  Cd13  1  0.527257  0.027257  0.250000  1
  Ag  Ag14  1  0.096738  0.096738  0.405853  1
  Ag  Ag15  1  0.903262  0.903262  0.594147  1
  Ag  Ag16  1  0.403262  0.403262  0.905853  1
  Ag  Ag17  1  0.596738  0.596738  0.094147  1
  Ag  Ag18  1  0.898807  0.171402  0.203405  1
  Ag  Ag19  1  0.101193  0.828598  0.796595  1
  Ag  Ag20  1  0.601193  0.328598  0.703405  1
  Ag  Ag21  1  0.671402  0.398807  0.296595  1
  Ag  Ag22  1  0.398807  0.671402  0.296595  1
  Ag  Ag23  1  0.328598  0.601193  0.703405  1
  Ag  Ag24  1  0.828598  0.101193  0.796595  1
  Ag  Ag25  1  0.171402  0.898807  0.203405  1
  Ag  Ag26  1  0.931628  0.668291  0.024169  1
  Ag  Ag27  1  0.068372  0.331709  0.975831  1
  Ag  Ag28  1  0.568372  0.831709  0.524169  1
  Ag  Ag29  1  0.168291  0.431628  0.475831  1
  Ag  Ag30  1  0.431628  0.168291  0.475831  1
  Ag  Ag31  1  0.831709  0.568372  0.524169  1
  Ag  Ag32  1  0.331709  0.068372  0.975831  1
  Ag  Ag33  1  0.668291  0.931628  0.024169  1
