# generated using pymatgen
data_Y4Cd(NiTe)2
_symmetry_space_group_name_H-M   'P 1'
_cell_length_a   7.60947438
_cell_length_b   7.60947372
_cell_length_c   15.12271900
_cell_angle_alpha   90.00000000
_cell_angle_beta   90.00000000
_cell_angle_gamma   149.92878215
_symmetry_Int_Tables_number   1
_chemical_formula_structural   Y4Cd(NiTe)2
_chemical_formula_sum   'Y8 Cd2 Ni4 Te4'
_cell_volume   438.77596148
_cell_formula_units_Z   2
loop_
 _symmetry_equiv_pos_site_id
 _symmetry_equiv_pos_as_xyz
  1  'x, y, z'
loop_
 _atom_site_type_symbol
 _atom_site_label
 _atom_site_symmetry_multiplicity
 _atom_site_fract_x
 _atom_site_fract_y
 _atom_site_fract_z
 _atom_site_occupancy
  Y  Y0  1  0.968681  0.031319  0.130414  1
  Y  Y1  1  0.031319  0.968681  0.869586  1
  Y  Y2  1  0.031319  0.968681  0.630414  1
  Y  Y3  1  0.968681  0.031319  0.369586  1
  Y  Y4  1  0.751748  0.248252  0.633732  1
  Y  Y5  1  0.248252  0.751748  0.366268  1
  Y  Y6  1  0.248252  0.751748  0.133732  1
  Y  Y7  1  0.751748  0.248252  0.866268  1
  Cd  Cd8  1  0.607628  0.392372  0.250000  1
  Cd  Cd9  1  0.392372  0.607628  0.750000  1
  Ni  Ni10  1  0.414370  0.585630  0.250000  1
  Ni  Ni11  1  0.585630  0.414370  0.750000  1
  Ni  Ni12  1  0.810265  0.189735  0.250000  1
  Ni  Ni13  1  0.189735  0.810265  0.750000  1
  Te  Te14  1  0.619189  0.380811  0.027433  1
  Te  Te15  1  0.380811  0.619189  0.972567  1
  Te  Te16  1  0.380811  0.619189  0.527433  1
  Te  Te17  1  0.619189  0.380811  0.472567  1
