# generated using pymatgen
data_Lu5ReRuC7
_symmetry_space_group_name_H-M   'P 1'
_cell_length_a   8.08150015
_cell_length_b   8.08149967
_cell_length_c   3.38578000
_cell_angle_alpha   90.00000000
_cell_angle_beta   90.00000000
_cell_angle_gamma   121.40900499
_symmetry_Int_Tables_number   1
_chemical_formula_structural   Lu5ReRuC7
_chemical_formula_sum   'Lu5 Re1 Ru1 C7'
_cell_volume   188.72541145
_cell_formula_units_Z   1
loop_
 _symmetry_equiv_pos_site_id
 _symmetry_equiv_pos_as_xyz
  1  'x, y, z'
loop_
 _atom_site_type_symbol
 _atom_site_label
 _atom_site_symmetry_multiplicity
 _atom_site_fract_x
 _atom_site_fract_y
 _atom_site_fract_z
 _atom_site_occupancy
  Lu  Lu0  1  0.337892  0.077969  0.500000  1
  Lu  Lu1  1  0.658820  0.919345  0.500000  1
  Lu  Lu2  1  0.080655  0.341180  0.500000  1
  Lu  Lu3  1  0.922031  0.662108  0.500000  1
  Lu  Lu4  1  0.499137  0.500863  0.000000  1
  Re  Re5  1  0.715749  0.284251  0.000000  1
  Ru  Ru6  1  0.286276  0.713724  0.000000  1
  C  C7  1  0.171758  0.171672  0.000000  1
  C  C8  1  0.828328  0.828242  0.000000  1
  C  C9  1  0.000728  0.999272  0.000000  1
  C  C10  1  0.374653  0.625347  0.500000  1
  C  C11  1  0.622653  0.377347  0.500000  1
  C  C12  1  0.502356  0.001035  0.000000  1
  C  C13  1  0.998965  0.497644  0.000000  1
