# generated using pymatgen
data_Tb8YbEu3Se16
_symmetry_space_group_name_H-M   'P 1'
_cell_length_a   4.13708900
_cell_length_b   13.77088805
_cell_length_c   14.06406128
_cell_angle_alpha   90.00686111
_cell_angle_beta   90.00000000
_cell_angle_gamma   90.00000000
_symmetry_Int_Tables_number   1
_chemical_formula_structural   Tb8YbEu3Se16
_chemical_formula_sum   'Tb8 Yb1 Eu3 Se16'
_cell_volume   801.24910698
_cell_formula_units_Z   1
loop_
 _symmetry_equiv_pos_site_id
 _symmetry_equiv_pos_as_xyz
  1  'x, y, z'
loop_
 _atom_site_type_symbol
 _atom_site_label
 _atom_site_symmetry_multiplicity
 _atom_site_fract_x
 _atom_site_fract_y
 _atom_site_fract_z
 _atom_site_occupancy
  Tb  Tb0  1  0.250000  0.104947  0.415936  1
  Tb  Tb1  1  0.250000  0.605651  0.082490  1
  Tb  Tb2  1  0.750000  0.895274  0.582485  1
  Tb  Tb3  1  0.750000  0.393093  0.919987  1
  Tb  Tb4  1  0.250000  0.149003  0.800329  1
  Tb  Tb5  1  0.250000  0.649039  0.700871  1
  Tb  Tb6  1  0.750000  0.853683  0.199172  1
  Tb  Tb7  1  0.750000  0.348737  0.298012  1
  Yb  Yb8  1  0.750000  0.130492  0.081209  1
  Eu  Eu9  1  0.250000  0.367560  0.584091  1
  Eu  Eu10  1  0.250000  0.868690  0.916020  1
  Eu  Eu11  1  0.750000  0.632085  0.414716  1
  Se  Se12  1  0.250000  0.213694  0.236856  1
  Se  Se13  1  0.250000  0.717910  0.260187  1
  Se  Se14  1  0.750000  0.784608  0.761200  1
  Se  Se15  1  0.750000  0.284165  0.740183  1
  Se  Se16  1  0.250000  0.256555  0.976931  1
  Se  Se17  1  0.250000  0.759111  0.526530  1
  Se  Se18  1  0.750000  0.741400  0.026083  1
  Se  Se19  1  0.750000  0.240206  0.473457  1
  Se  Se20  1  0.250000  0.467029  0.381932  1
  Se  Se21  1  0.250000  0.972535  0.116409  1
  Se  Se22  1  0.750000  0.532080  0.616849  1
  Se  Se23  1  0.750000  0.033486  0.886213  1
  Se  Se24  1  0.250000  0.036335  0.618567  1
  Se  Se25  1  0.250000  0.534341  0.882398  1
  Se  Se26  1  0.750000  0.963523  0.382048  1
  Se  Se27  1  0.750000  0.464767  0.118839  1
