# generated using pymatgen
data_DyZrAgS4
_symmetry_space_group_name_H-M   'P 1'
_cell_length_a   7.81727730
_cell_length_b   7.81727756
_cell_length_c   11.03002870
_cell_angle_alpha   91.61757439
_cell_angle_beta   91.61757514
_cell_angle_gamma   90.06280558
_symmetry_Int_Tables_number   1
_chemical_formula_structural   DyZrAgS4
_chemical_formula_sum   'Dy4 Zr4 Ag4 S16'
_cell_volume   673.50482961
_cell_formula_units_Z   4
loop_
 _symmetry_equiv_pos_site_id
 _symmetry_equiv_pos_as_xyz
  1  'x, y, z'
loop_
 _atom_site_type_symbol
 _atom_site_label
 _atom_site_symmetry_multiplicity
 _atom_site_fract_x
 _atom_site_fract_y
 _atom_site_fract_z
 _atom_site_occupancy
  Dy  Dy0  1  0.001862  0.749068  0.624148  1
  Dy  Dy1  1  0.749068  0.501862  0.874148  1
  Dy  Dy2  1  0.249068  0.001862  0.374148  1
  Dy  Dy3  1  0.501862  0.249068  0.124148  1
  Zr  Zr4  1  0.999742  0.249201  0.625601  1
  Zr  Zr5  1  0.749201  0.999742  0.375601  1
  Zr  Zr6  1  0.499742  0.749201  0.125601  1
  Zr  Zr7  1  0.249201  0.499742  0.875601  1
  Ag  Ag8  1  0.998236  0.002032  0.000518  1
  Ag  Ag9  1  0.498236  0.502032  0.500518  1
  Ag  Ag10  1  0.502032  0.998236  0.750518  1
  Ag  Ag11  1  0.002032  0.498236  0.250518  1
  S  S12  1  0.986853  0.235701  0.388401  1
  S  S13  1  0.765155  0.010620  0.612527  1
  S  S14  1  0.986894  0.772676  0.378490  1
  S  S15  1  0.728620  0.513336  0.120315  1
  S  S16  1  0.510620  0.765155  0.362527  1
  S  S17  1  0.272676  0.986894  0.128490  1
  S  S18  1  0.513336  0.228620  0.370315  1
  S  S19  1  0.735701  0.986853  0.138401  1
  S  S20  1  0.486853  0.735701  0.888401  1
  S  S21  1  0.265155  0.510620  0.112527  1
  S  S22  1  0.486894  0.272676  0.878490  1
  S  S23  1  0.228620  0.013336  0.620315  1
  S  S24  1  0.010620  0.265155  0.862527  1
  S  S25  1  0.772676  0.486894  0.628490  1
  S  S26  1  0.013336  0.728620  0.870315  1
  S  S27  1  0.235701  0.486853  0.638401  1
