# generated using pymatgen
data_Dy3HoGa16Co3
_symmetry_space_group_name_H-M   'P 1'
_cell_length_a   6.02332600
_cell_length_b   6.01928000
_cell_length_c   11.12332000
_cell_angle_alpha   90.00000000
_cell_angle_beta   90.00000000
_cell_angle_gamma   90.00000000
_symmetry_Int_Tables_number   1
_chemical_formula_structural   Dy3HoGa16Co3
_chemical_formula_sum   'Dy3 Ho1 Ga16 Co3'
_cell_volume   403.28804347
_cell_formula_units_Z   1
loop_
 _symmetry_equiv_pos_site_id
 _symmetry_equiv_pos_as_xyz
  1  'x, y, z'
loop_
 _atom_site_type_symbol
 _atom_site_label
 _atom_site_symmetry_multiplicity
 _atom_site_fract_x
 _atom_site_fract_y
 _atom_site_fract_z
 _atom_site_occupancy
  Dy  Dy0  1  0.000000  0.500000  0.194778  1
  Dy  Dy1  1  0.500000  0.000000  0.805257  1
  Dy  Dy2  1  0.000000  0.500000  0.805353  1
  Ho  Ho3  1  0.500000  0.000000  0.194901  1
  Ga  Ga4  1  0.280407  0.280030  0.000170  1
  Ga  Ga5  1  0.719593  0.280030  0.000170  1
  Ga  Ga6  1  0.280407  0.719970  0.000170  1
  Ga  Ga7  1  0.719593  0.719970  0.000170  1
  Ga  Ga8  1  0.500000  0.500000  0.195273  1
  Ga  Ga9  1  0.000000  0.000000  0.217587  1
  Ga  Ga10  1  0.249722  0.249521  0.384608  1
  Ga  Ga11  1  0.750278  0.249521  0.384608  1
  Ga  Ga12  1  0.249722  0.750479  0.384608  1
  Ga  Ga13  1  0.750278  0.750479  0.384608  1
  Ga  Ga14  1  0.249593  0.249661  0.615225  1
  Ga  Ga15  1  0.750407  0.249661  0.615225  1
  Ga  Ga16  1  0.249593  0.750339  0.615225  1
  Ga  Ga17  1  0.750407  0.750339  0.615225  1
  Ga  Ga18  1  0.000000  0.000000  0.782326  1
  Ga  Ga19  1  0.500000  0.500000  0.804742  1
  Co  Co20  1  0.000000  0.000000  0.999972  1
  Co  Co21  1  0.500000  0.000000  0.499904  1
  Co  Co22  1  0.000000  0.500000  0.499899  1
