# generated using pymatgen
data_Tb4Nd(In2Ir)2
_symmetry_space_group_name_H-M   'P 1'
_cell_length_a   3.70465800
_cell_length_b   8.07424200
_cell_length_c   18.44901400
_cell_angle_alpha   90.00000000
_cell_angle_beta   90.00000000
_cell_angle_gamma   90.00000000
_symmetry_Int_Tables_number   1
_chemical_formula_structural   Tb4Nd(In2Ir)2
_chemical_formula_sum   'Tb8 Nd2 In8 Ir4'
_cell_volume   551.85253776
_cell_formula_units_Z   2
loop_
 _symmetry_equiv_pos_site_id
 _symmetry_equiv_pos_as_xyz
  1  'x, y, z'
loop_
 _atom_site_type_symbol
 _atom_site_label
 _atom_site_symmetry_multiplicity
 _atom_site_fract_x
 _atom_site_fract_y
 _atom_site_fract_z
 _atom_site_occupancy
  Tb  Tb0  1  0.000000  0.115735  0.409513  1
  Tb  Tb1  1  0.000000  0.884265  0.590487  1
  Tb  Tb2  1  0.000000  0.384265  0.909513  1
  Tb  Tb3  1  0.000000  0.615735  0.090487  1
  Tb  Tb4  1  0.000000  0.242010  0.222380  1
  Tb  Tb5  1  0.000000  0.757990  0.777620  1
  Tb  Tb6  1  0.000000  0.257990  0.722380  1
  Tb  Tb7  1  0.000000  0.742010  0.277620  1
  Nd  Nd8  1  0.000000  0.000000  0.000000  1
  Nd  Nd9  1  0.000000  0.500000  0.500000  1
  In  In10  1  0.500000  0.430455  0.349037  1
  In  In11  1  0.500000  0.569545  0.650963  1
  In  In12  1  0.500000  0.069545  0.849037  1
  In  In13  1  0.500000  0.930455  0.150963  1
  In  In14  1  0.500000  0.294502  0.069935  1
  In  In15  1  0.500000  0.705498  0.930065  1
  In  In16  1  0.500000  0.205498  0.569935  1
  In  In17  1  0.500000  0.794502  0.430065  1
  Ir  Ir18  1  0.500000  0.013935  0.304447  1
  Ir  Ir19  1  0.500000  0.986065  0.695553  1
  Ir  Ir20  1  0.500000  0.486065  0.804447  1
  Ir  Ir21  1  0.500000  0.513935  0.195553  1
