# generated using pymatgen
data_Tb12Co4SnPt
_symmetry_space_group_name_H-M   'P 1'
_cell_length_a   8.35958520
_cell_length_b   8.35958611
_cell_length_c   8.35958597
_cell_angle_alpha   111.42810959
_cell_angle_beta   109.72048916
_cell_angle_gamma   107.29157609
_symmetry_Int_Tables_number   1
_chemical_formula_structural   Tb12Co4SnPt
_chemical_formula_sum   'Tb12 Co4 Sn1 Pt1'
_cell_volume   449.12013525
_cell_formula_units_Z   1
loop_
 _symmetry_equiv_pos_site_id
 _symmetry_equiv_pos_as_xyz
  1  'x, y, z'
loop_
 _atom_site_type_symbol
 _atom_site_label
 _atom_site_symmetry_multiplicity
 _atom_site_fract_x
 _atom_site_fract_y
 _atom_site_fract_z
 _atom_site_occupancy
  Tb  Tb0  1  0.415720  0.220410  0.195310  1
  Tb  Tb1  1  0.584280  0.779590  0.804690  1
  Tb  Tb2  1  0.025100  0.220410  0.804690  1
  Tb  Tb3  1  0.974900  0.779590  0.195310  1
  Tb  Tb4  1  0.181275  0.286667  0.467942  1
  Tb  Tb5  1  0.818725  0.713333  0.532058  1
  Tb  Tb6  1  0.181275  0.713333  0.894608  1
  Tb  Tb7  1  0.818725  0.286667  0.105392  1
  Tb  Tb8  1  0.323358  0.635436  0.312078  1
  Tb  Tb9  1  0.676642  0.364564  0.687922  1
  Tb  Tb10  1  0.323358  0.011280  0.687922  1
  Tb  Tb11  1  0.676642  0.988720  0.312078  1
  Co  Co12  1  0.355071  0.000000  0.355071  1
  Co  Co13  1  0.644929  0.000000  0.644929  1
  Co  Co14  1  0.113067  0.613067  0.500000  1
  Co  Co15  1  0.886933  0.386933  0.500000  1
  Sn  Sn16  1  0.500000  0.500000  0.000000  1
  Pt  Pt17  1  0.000000  0.000000  0.000000  1
