# generated using pymatgen
data_K4Ga3Si20
_symmetry_space_group_name_H-M   'P 1'
_cell_length_a   10.48044000
_cell_length_b   10.48044000
_cell_length_c   10.48044000
_cell_angle_alpha   90.00000000
_cell_angle_beta   90.00000000
_cell_angle_gamma   90.00000000
_symmetry_Int_Tables_number   1
_chemical_formula_structural   K4Ga3Si20
_chemical_formula_sum   'K8 Ga6 Si40'
_cell_volume   1151.16757421
_cell_formula_units_Z   2
loop_
 _symmetry_equiv_pos_site_id
 _symmetry_equiv_pos_as_xyz
  1  'x, y, z'
loop_
 _atom_site_type_symbol
 _atom_site_label
 _atom_site_symmetry_multiplicity
 _atom_site_fract_x
 _atom_site_fract_y
 _atom_site_fract_z
 _atom_site_occupancy
  K  K0  1  0.000000  0.000000  0.000000  1
  K  K1  1  0.500000  0.500000  0.500000  1
  K  K2  1  0.250000  0.000000  0.500000  1
  K  K3  1  0.750000  0.000000  0.500000  1
  K  K4  1  0.500000  0.250000  0.000000  1
  K  K5  1  0.500000  0.750000  0.000000  1
  K  K6  1  0.000000  0.500000  0.250000  1
  K  K7  1  0.000000  0.500000  0.750000  1
  Ga  Ga8  1  0.250000  0.500000  0.000000  1
  Ga  Ga9  1  0.750000  0.500000  0.000000  1
  Ga  Ga10  1  0.000000  0.250000  0.500000  1
  Ga  Ga11  1  0.000000  0.750000  0.500000  1
  Ga  Ga12  1  0.500000  0.000000  0.250000  1
  Ga  Ga13  1  0.500000  0.000000  0.750000  1
  Si  Si14  1  0.000000  0.117032  0.302869  1
  Si  Si15  1  0.000000  0.882968  0.697131  1
  Si  Si16  1  0.000000  0.882968  0.302869  1
  Si  Si17  1  0.000000  0.117032  0.697131  1
  Si  Si18  1  0.302869  0.000000  0.117032  1
  Si  Si19  1  0.617032  0.500000  0.197131  1
  Si  Si20  1  0.697131  0.000000  0.882968  1
  Si  Si21  1  0.382968  0.500000  0.802869  1
  Si  Si22  1  0.302869  0.000000  0.882968  1
  Si  Si23  1  0.382968  0.500000  0.197131  1
  Si  Si24  1  0.697131  0.000000  0.117032  1
  Si  Si25  1  0.617032  0.500000  0.802869  1
  Si  Si26  1  0.117032  0.302869  0.000000  1
  Si  Si27  1  0.500000  0.802869  0.382968  1
  Si  Si28  1  0.882968  0.697131  0.000000  1
  Si  Si29  1  0.500000  0.197131  0.617032  1
  Si  Si30  1  0.117032  0.697131  0.000000  1
  Si  Si31  1  0.500000  0.197131  0.382968  1
  Si  Si32  1  0.882968  0.302869  0.000000  1
  Si  Si33  1  0.500000  0.802869  0.617032  1
  Si  Si34  1  0.197131  0.617032  0.500000  1
  Si  Si35  1  0.802869  0.382968  0.500000  1
  Si  Si36  1  0.197131  0.382968  0.500000  1
  Si  Si37  1  0.802869  0.617032  0.500000  1
  Si  Si38  1  0.183979  0.183979  0.183979  1
  Si  Si39  1  0.816021  0.816021  0.816021  1
  Si  Si40  1  0.816021  0.816021  0.183979  1
  Si  Si41  1  0.816021  0.183979  0.816021  1
  Si  Si42  1  0.683979  0.683979  0.316021  1
  Si  Si43  1  0.183979  0.183979  0.816021  1
  Si  Si44  1  0.183979  0.816021  0.183979  1
  Si  Si45  1  0.316021  0.316021  0.683979  1
  Si  Si46  1  0.183979  0.816021  0.816021  1
  Si  Si47  1  0.316021  0.316021  0.316021  1
  Si  Si48  1  0.816021  0.183979  0.183979  1
  Si  Si49  1  0.683979  0.683979  0.683979  1
  Si  Si50  1  0.683979  0.316021  0.683979  1
  Si  Si51  1  0.316021  0.683979  0.316021  1
  Si  Si52  1  0.316021  0.683979  0.683979  1
  Si  Si53  1  0.683979  0.316021  0.316021  1
