# generated using pymatgen
data_Ca5Zr3Cu(Ni5As4)3
_symmetry_space_group_name_H-M   'P 1'
_cell_length_a   12.84491842
_cell_length_b   12.84728535
_cell_length_c   3.94045800
_cell_angle_alpha   90.00000000
_cell_angle_beta   90.00000000
_cell_angle_gamma   120.04787373
_symmetry_Int_Tables_number   1
_chemical_formula_structural   Ca5Zr3Cu(Ni5As4)3
_chemical_formula_sum   'Ca5 Zr3 Cu1 Ni15 As12'
_cell_volume   562.87290859
_cell_formula_units_Z   1
loop_
 _symmetry_equiv_pos_site_id
 _symmetry_equiv_pos_as_xyz
  1  'x, y, z'
loop_
 _atom_site_type_symbol
 _atom_site_label
 _atom_site_symmetry_multiplicity
 _atom_site_fract_x
 _atom_site_fract_y
 _atom_site_fract_z
 _atom_site_occupancy
  Ca  Ca0  1  0.183844  0.182865  0.500000  1
  Ca  Ca1  1  0.815329  0.999371  0.500000  1
  Ca  Ca2  1  0.999839  0.815912  0.500000  1
  Ca  Ca3  1  0.333766  0.667343  0.000000  1
  Ca  Ca4  1  0.666538  0.333446  0.000000  1
  Zr  Zr5  1  0.565224  0.564904  0.000000  1
  Zr  Zr6  1  0.436299  0.000129  0.000000  1
  Zr  Zr7  1  0.999699  0.436493  0.000000  1
  Cu  Cu8  1  0.185269  0.375236  0.000000  1
  Ni  Ni9  1  0.723114  0.722920  0.500000  1
  Ni  Ni10  1  0.277534  0.000664  0.500000  1
  Ni  Ni11  1  0.998584  0.277125  0.500000  1
  Ni  Ni12  1  0.621817  0.806718  0.000000  1
  Ni  Ni13  1  0.193703  0.815748  0.000000  1
  Ni  Ni14  1  0.806614  0.621553  0.000000  1
  Ni  Ni15  1  0.815264  0.194055  0.000000  1
  Ni  Ni16  1  0.378087  0.183166  0.000000  1
  Ni  Ni17  1  0.364088  0.483884  0.500000  1
  Ni  Ni18  1  0.517024  0.879363  0.500000  1
  Ni  Ni19  1  0.119760  0.639605  0.500000  1
  Ni  Ni20  1  0.878944  0.516413  0.500000  1
  Ni  Ni21  1  0.637534  0.120448  0.500000  1
  Ni  Ni22  1  0.484138  0.362404  0.500000  1
  Ni  Ni23  1  0.000028  0.999106  0.000000  1
  As  As24  1  0.820464  0.820415  0.000000  1
  As  As25  1  0.178691  0.999000  0.000000  1
  As  As26  1  0.995432  0.175120  0.000000  1
  As  As27  1  0.171238  0.482269  0.500000  1
  As  As28  1  0.522653  0.694482  0.500000  1
  As  As29  1  0.305946  0.828739  0.500000  1
  As  As30  1  0.694809  0.522811  0.500000  1
  As  As31  1  0.827003  0.305621  0.500000  1
  As  As32  1  0.477980  0.171827  0.500000  1
  As  As33  1  0.359974  0.356476  0.000000  1
  As  As34  1  0.643892  0.999900  0.000000  1
  As  As35  1  0.999876  0.644471  0.000000  1
