# generated using pymatgen
data_LiPr2Be(PPd4)5
_symmetry_space_group_name_H-M   'P 1'
_cell_length_a   8.67618271
_cell_length_b   8.64939366
_cell_length_c   8.64939330
_cell_angle_alpha   60.20501441
_cell_angle_beta   59.89750001
_cell_angle_gamma   59.89749682
_symmetry_Int_Tables_number   1
_chemical_formula_structural   LiPr2Be(PPd4)5
_chemical_formula_sum   'Li1 Pr2 Be1 P5 Pd20'
_cell_volume   458.96194757
_cell_formula_units_Z   1
loop_
 _symmetry_equiv_pos_site_id
 _symmetry_equiv_pos_as_xyz
  1  'x, y, z'
loop_
 _atom_site_type_symbol
 _atom_site_label
 _atom_site_symmetry_multiplicity
 _atom_site_fract_x
 _atom_site_fract_y
 _atom_site_fract_z
 _atom_site_occupancy
  Li  Li0  1  0.996829  0.003171  0.003171  1
  Pr  Pr1  1  0.249873  0.250127  0.250127  1
  Pr  Pr2  1  0.749873  0.750127  0.750127  1
  Be  Be3  1  0.733859  0.266141  0.266141  1
  P  P4  1  0.260082  0.739918  0.739918  1
  P  P5  1  0.261551  0.738449  0.261282  1
  P  P6  1  0.738718  0.261282  0.738449  1
  P  P7  1  0.261551  0.261282  0.738449  1
  P  P8  1  0.738718  0.738449  0.261282  1
  Pd  Pd9  1  0.388309  0.384677  0.384677  1
  Pd  Pd10  1  0.614044  0.613307  0.613307  1
  Pd  Pd11  1  0.386693  0.385956  0.840657  1
  Pd  Pd12  1  0.386693  0.840657  0.385956  1
  Pd  Pd13  1  0.615323  0.611691  0.157662  1
  Pd  Pd14  1  0.615323  0.157662  0.611691  1
  Pd  Pd15  1  0.842338  0.384677  0.384677  1
  Pd  Pd16  1  0.159343  0.613307  0.613307  1
  Pd  Pd17  1  0.342257  0.000988  0.000988  1
  Pd  Pd18  1  0.655769  0.000988  0.000988  1
  Pd  Pd19  1  0.999012  0.344231  0.657743  1
  Pd  Pd20  1  0.999012  0.657743  0.344231  1
  Pd  Pd21  1  0.997315  0.340479  0.002685  1
  Pd  Pd22  1  0.659521  0.002685  0.340479  1
  Pd  Pd23  1  0.000097  0.654517  0.999903  1
  Pd  Pd24  1  0.345483  0.999903  0.654517  1
  Pd  Pd25  1  0.997315  0.002685  0.340479  1
  Pd  Pd26  1  0.000097  0.999903  0.654517  1
  Pd  Pd27  1  0.659521  0.340479  0.002685  1
  Pd  Pd28  1  0.345483  0.654517  0.999903  1
