# generated using pymatgen
data_Er8Hf2Zr10Si15Sn
_symmetry_space_group_name_H-M   'P 1'
_cell_length_a   7.33452443
_cell_length_b   7.36149663
_cell_length_c   13.47999447
_cell_angle_alpha   89.77516796
_cell_angle_beta   90.04727699
_cell_angle_gamma   89.81244905
_symmetry_Int_Tables_number   1
_chemical_formula_structural   Er8Hf2Zr10Si15Sn
_chemical_formula_sum   'Er8 Hf2 Zr10 Si15 Sn1'
_cell_volume   727.81661907
_cell_formula_units_Z   1
loop_
 _symmetry_equiv_pos_site_id
 _symmetry_equiv_pos_as_xyz
  1  'x, y, z'
loop_
 _atom_site_type_symbol
 _atom_site_label
 _atom_site_symmetry_multiplicity
 _atom_site_fract_x
 _atom_site_fract_y
 _atom_site_fract_z
 _atom_site_occupancy
  Er  Er0  1  0.989538  0.347167  0.211031  1
  Er  Er1  1  0.003822  0.654429  0.715446  1
  Er  Er2  1  0.145909  0.506718  0.469856  1
  Er  Er3  1  0.505839  0.844757  0.033507  1
  Er  Er4  1  0.847455  0.503025  0.963063  1
  Er  Er5  1  0.498248  0.151493  0.539977  1
  Er  Er6  1  0.346342  0.996211  0.785753  1
  Er  Er7  1  0.660209  0.997120  0.284150  1
  Hf  Hf8  1  0.993885  0.146324  0.626470  1
  Hf  Hf9  1  0.003268  0.851812  0.123403  1
  Zr  Zr10  1  0.175493  0.175418  0.999199  1
  Zr  Zr11  1  0.824676  0.826169  0.501062  1
  Zr  Zr12  1  0.325295  0.682246  0.248284  1
  Zr  Zr13  1  0.675983  0.323977  0.750103  1
  Zr  Zr14  1  0.138560  0.988296  0.373724  1
  Zr  Zr15  1  0.854606  0.002316  0.874819  1
  Zr  Zr16  1  0.503408  0.648048  0.624948  1
  Zr  Zr17  1  0.353040  0.495183  0.875056  1
  Zr  Zr18  1  0.496913  0.353257  0.120006  1
  Zr  Zr19  1  0.657875  0.514960  0.378724  1
  Si  Si20  1  0.640398  0.705795  0.817472  1
  Si  Si21  1  0.204647  0.862549  0.568666  1
  Si  Si22  1  0.141484  0.793837  0.932659  1
  Si  Si23  1  0.795606  0.138768  0.065960  1
  Si  Si24  1  0.858078  0.205535  0.434308  1
  Si  Si25  1  0.293028  0.359205  0.682585  1
  Si  Si26  1  0.705915  0.640473  0.181522  1
  Si  Si27  1  0.295571  0.043212  0.181519  1
  Si  Si28  1  0.704813  0.948330  0.687676  1
  Si  Si29  1  0.447832  0.798850  0.436958  1
  Si  Si30  1  0.202848  0.551515  0.063267  1
  Si  Si31  1  0.551258  0.202144  0.935236  1
  Si  Si32  1  0.795367  0.447916  0.565680  1
  Si  Si33  1  0.050981  0.295226  0.812572  1
  Si  Si34  1  0.950976  0.701617  0.310664  1
  Sn  Sn35  1  0.360831  0.296103  0.324675  1
