# generated using pymatgen
data_Tb8Sm4Fe2Br17
_symmetry_space_group_name_H-M   'P 1'
_cell_length_a   9.30378164
_cell_length_b   11.21083091
_cell_length_c   11.26632847
_cell_angle_alpha   93.52262727
_cell_angle_beta   104.72695860
_cell_angle_gamma   114.14147895
_symmetry_Int_Tables_number   1
_chemical_formula_structural   Tb8Sm4Fe2Br17
_chemical_formula_sum   'Tb8 Sm4 Fe2 Br17'
_cell_volume   1018.72912810
_cell_formula_units_Z   1
loop_
 _symmetry_equiv_pos_site_id
 _symmetry_equiv_pos_as_xyz
  1  'x, y, z'
loop_
 _atom_site_type_symbol
 _atom_site_label
 _atom_site_symmetry_multiplicity
 _atom_site_fract_x
 _atom_site_fract_y
 _atom_site_fract_z
 _atom_site_occupancy
  Tb  Tb0  1  0.225218  0.672205  0.987918  1
  Tb  Tb1  1  0.255994  0.986585  0.890907  1
  Tb  Tb2  1  0.356024  0.760456  0.714565  1
  Tb  Tb3  1  0.943065  0.488294  0.680080  1
  Tb  Tb4  1  0.743240  0.010718  0.108116  1
  Tb  Tb5  1  0.147479  0.286641  0.148738  1
  Tb  Tb6  1  0.771397  0.326809  0.006953  1
  Tb  Tb7  1  0.846132  0.711707  0.851041  1
  Sm  Sm8  1  0.062237  0.518160  0.321887  1
  Sm  Sm9  1  0.982550  0.808749  0.579801  1
  Sm  Sm10  1  0.644083  0.238489  0.284702  1
  Sm  Sm11  1  0.019025  0.189285  0.424392  1
  Fe  Fe12  1  0.102877  0.738259  0.785676  1
  Fe  Fe13  1  0.895895  0.261368  0.214311  1
  Br  Br14  1  0.790781  0.524423  0.423285  1
  Br  Br15  1  0.650260  0.423549  0.763626  1
  Br  Br16  1  0.844803  0.899984  0.323646  1
  Br  Br17  1  0.323237  0.215315  0.361136  1
  Br  Br18  1  0.155535  0.099454  0.676821  1
  Br  Br19  1  0.583608  0.051002  0.850392  1
  Br  Br20  1  0.764261  0.191489  0.538922  1
  Br  Br21  1  0.547857  0.712907  0.950447  1
  Br  Br22  1  0.351409  0.574132  0.232501  1
  Br  Br23  1  0.210547  0.475416  0.580429  1
  Br  Br24  1  0.053655  0.373562  0.902269  1
  Br  Br25  1  0.450923  0.287504  0.045985  1
  Br  Br26  1  0.000670  0.001236  0.000778  1
  Br  Br27  1  0.244377  0.814778  0.467431  1
  Br  Br28  1  0.417145  0.947298  0.147968  1
  Br  Br29  1  0.672594  0.784624  0.639372  1
  Br  Br30  1  0.943125  0.625603  0.095904  1
