# generated using pymatgen
data_Rb13Na5(AlBi4)2
_symmetry_space_group_name_H-M   'P 1'
_cell_length_a   10.80650100
_cell_length_b   10.91780230
_cell_length_c   11.26146900
_cell_angle_alpha   90.00000000
_cell_angle_beta   90.00000000
_cell_angle_gamma   119.66331130
_symmetry_Int_Tables_number   1
_chemical_formula_structural   Rb13Na5(AlBi4)2
_chemical_formula_sum   'Rb13 Na5 Al2 Bi8'
_cell_volume   1154.54125538
_cell_formula_units_Z   1
loop_
 _symmetry_equiv_pos_site_id
 _symmetry_equiv_pos_as_xyz
  1  'x, y, z'
loop_
 _atom_site_type_symbol
 _atom_site_label
 _atom_site_symmetry_multiplicity
 _atom_site_fract_x
 _atom_site_fract_y
 _atom_site_fract_z
 _atom_site_occupancy
  Rb  Rb0  1  0.883277  0.766553  0.750000  1
  Rb  Rb1  1  0.210193  0.793474  0.961483  1
  Rb  Rb2  1  0.206573  0.413144  0.959799  1
  Rb  Rb3  1  0.583283  0.793474  0.961483  1
  Rb  Rb4  1  0.413283  0.206661  0.457584  1
  Rb  Rb5  1  0.791778  0.583557  0.047376  1
  Rb  Rb6  1  0.793377  0.206661  0.457584  1
  Rb  Rb7  1  0.791778  0.583557  0.452624  1
  Rb  Rb8  1  0.210193  0.793474  0.538517  1
  Rb  Rb9  1  0.583283  0.793474  0.538517  1
  Rb  Rb10  1  0.413283  0.206661  0.042416  1
  Rb  Rb11  1  0.793377  0.206661  0.042416  1
  Rb  Rb12  1  0.206573  0.413144  0.540201  1
  Na  Na13  1  0.238428  0.123589  0.750000  1
  Na  Na14  1  0.885159  0.123590  0.750000  1
  Na  Na15  1  0.768635  0.885268  0.250000  1
  Na  Na16  1  0.115353  0.230709  0.250000  1
  Na  Na17  1  0.116635  0.885267  0.250000  1
  Al  Al18  1  0.333649  0.667297  0.250000  1
  Al  Al19  1  0.666005  0.332010  0.750000  1
  Bi  Bi20  1  0.003445  0.006889  0.009491  1
  Bi  Bi21  1  0.043105  0.522808  0.250000  1
  Bi  Bi22  1  0.477932  0.955864  0.250000  1
  Bi  Bi23  1  0.521332  0.042663  0.750000  1
  Bi  Bi24  1  0.509003  0.466924  0.750000  1
  Bi  Bi25  1  0.003445  0.006889  0.490509  1
  Bi  Bi26  1  0.479703  0.522808  0.250000  1
  Bi  Bi27  1  0.957921  0.466924  0.750000  1
