# generated using pymatgen
data_La7Nd13Ir12
_symmetry_space_group_name_H-M   'P 1'
_cell_length_a   11.35020685
_cell_length_b   11.34255073
_cell_length_c   6.62876390
_cell_angle_alpha   89.98115023
_cell_angle_beta   89.86180817
_cell_angle_gamma   90.06045370
_symmetry_Int_Tables_number   1
_chemical_formula_structural   La7Nd13Ir12
_chemical_formula_sum   'La7 Nd13 Ir12'
_cell_volume   853.38602945
_cell_formula_units_Z   1
loop_
 _symmetry_equiv_pos_site_id
 _symmetry_equiv_pos_as_xyz
  1  'x, y, z'
loop_
 _atom_site_type_symbol
 _atom_site_label
 _atom_site_symmetry_multiplicity
 _atom_site_fract_x
 _atom_site_fract_y
 _atom_site_fract_z
 _atom_site_occupancy
  La  La0  1  0.092011  0.291134  0.111437  1
  La  La1  1  0.790875  0.407436  0.111360  1
  La  La2  1  0.208929  0.592545  0.112162  1
  La  La3  1  0.906877  0.709624  0.112888  1
  La  La4  1  0.409886  0.791870  0.388151  1
  La  La5  1  0.592487  0.207735  0.389299  1
  La  La6  1  0.291065  0.092277  0.388751  1
  Nd  Nd7  1  0.708505  0.909243  0.386913  1
  Nd  Nd8  1  0.411392  0.208017  0.886306  1
  Nd  Nd9  1  0.708044  0.087376  0.886035  1
  Nd  Nd10  1  0.292002  0.911305  0.885586  1
  Nd  Nd11  1  0.589936  0.792731  0.885981  1
  Nd  Nd12  1  0.088441  0.707647  0.614499  1
  Nd  Nd13  1  0.911425  0.292243  0.613139  1
  Nd  Nd14  1  0.207921  0.411100  0.614024  1
  Nd  Nd15  1  0.791844  0.589239  0.613193  1
  Nd  Nd16  1  0.000037  0.000361  0.998759  1
  Nd  Nd17  1  0.499938  0.499864  0.997795  1
  Nd  Nd18  1  0.500345  0.500128  0.501801  1
  Nd  Nd19  1  0.998521  0.999067  0.501729  1
  Ir  Ir20  1  0.152822  0.847098  0.250222  1
  Ir  Ir21  1  0.346921  0.347441  0.250474  1
  Ir  Ir22  1  0.652715  0.653409  0.249748  1
  Ir  Ir23  1  0.846047  0.151335  0.251267  1
  Ir  Ir24  1  0.345583  0.654965  0.749912  1
  Ir  Ir25  1  0.154178  0.154817  0.749003  1
  Ir  Ir26  1  0.846557  0.844736  0.750839  1
  Ir  Ir27  1  0.654835  0.345426  0.750081  1
  Ir  Ir28  1  0.999631  0.500460  0.372793  1
  Ir  Ir29  1  0.499207  0.000360  0.125566  1
  Ir  Ir30  1  0.501138  0.999492  0.620330  1
  Ir  Ir31  1  0.999887  0.499522  0.879956  1
