# generated using pymatgen
data_Gd4(TcB2)3
_symmetry_space_group_name_H-M   'P 1'
_cell_length_a   5.47455827
_cell_length_b   5.47457022
_cell_length_c   8.07787273
_cell_angle_alpha   70.19429690
_cell_angle_beta   109.80577243
_cell_angle_gamma   119.99993380
_symmetry_Int_Tables_number   1
_chemical_formula_structural   Gd4(TcB2)3
_chemical_formula_sum   'Gd4 Tc3 B6'
_cell_volume   192.95194460
_cell_formula_units_Z   1
loop_
 _symmetry_equiv_pos_site_id
 _symmetry_equiv_pos_as_xyz
  1  'x, y, z'
loop_
 _atom_site_type_symbol
 _atom_site_label
 _atom_site_symmetry_multiplicity
 _atom_site_fract_x
 _atom_site_fract_y
 _atom_site_fract_z
 _atom_site_occupancy
  Gd  Gd0  1  0.744742  0.255258  0.234221  1
  Gd  Gd1  1  0.411317  0.588683  0.233943  1
  Gd  Gd2  1  0.588682  0.411318  0.766054  1
  Gd  Gd3  1  0.255256  0.744746  0.765770  1
  Tc  Tc4  1  0.000001  0.000000  0.000000  1
  Tc  Tc5  1  0.106962  0.893038  0.320851  1
  Tc  Tc6  1  0.893039  0.106962  0.679150  1
  B  B7  1  0.499999  0.171919  0.500004  1
  B  B8  1  0.171902  0.171901  0.500001  1
  B  B9  1  0.828082  0.500001  0.500004  1
  B  B10  1  0.171919  0.499998  0.499999  1
  B  B11  1  0.828099  0.828098  0.500001  1
  B  B12  1  0.500002  0.828080  0.499999  1
