# generated using pymatgen
data_Nb6FeCo6
_symmetry_space_group_name_H-M   'P 1'
_cell_length_a   4.86928650
_cell_length_b   4.86928698
_cell_length_c   9.19331897
_cell_angle_alpha   74.64330749
_cell_angle_beta   74.64330477
_cell_angle_gamma   59.99999827
_symmetry_Int_Tables_number   1
_chemical_formula_structural   Nb6FeCo6
_chemical_formula_sum   'Nb6 Fe1 Co6'
_cell_volume   179.72762497
_cell_formula_units_Z   1
loop_
 _symmetry_equiv_pos_site_id
 _symmetry_equiv_pos_as_xyz
  1  'x, y, z'
loop_
 _atom_site_type_symbol
 _atom_site_label
 _atom_site_symmetry_multiplicity
 _atom_site_fract_x
 _atom_site_fract_y
 _atom_site_fract_z
 _atom_site_occupancy
  Nb  Nb0  1  0.834333  0.834333  0.497001  1
  Nb  Nb1  1  0.165667  0.165667  0.502999  1
  Nb  Nb2  1  0.654725  0.654725  0.035825  1
  Nb  Nb3  1  0.345275  0.345275  0.964175  1
  Nb  Nb4  1  0.550632  0.550632  0.348104  1
  Nb  Nb5  1  0.449368  0.449368  0.651896  1
  Fe  Fe6  1  0.000000  0.000000  0.000000  1
  Co  Co7  1  0.909381  0.407187  0.774052  1
  Co  Co8  1  0.407187  0.909381  0.774052  1
  Co  Co9  1  0.909381  0.909381  0.774052  1
  Co  Co10  1  0.090619  0.592813  0.225948  1
  Co  Co11  1  0.592813  0.090619  0.225948  1
  Co  Co12  1  0.090619  0.090619  0.225948  1
