# generated using pymatgen
data_DyHo3Tc5Os3
_symmetry_space_group_name_H-M   'P 1'
_cell_length_a   5.31535527
_cell_length_b   5.24762958
_cell_length_c   9.03076601
_cell_angle_alpha   90.00047900
_cell_angle_beta   89.99476203
_cell_angle_gamma   119.31474720
_symmetry_Int_Tables_number   1
_chemical_formula_structural   DyHo3Tc5Os3
_chemical_formula_sum   'Dy1 Ho3 Tc5 Os3'
_cell_volume   219.63841061
_cell_formula_units_Z   1
loop_
 _symmetry_equiv_pos_site_id
 _symmetry_equiv_pos_as_xyz
  1  'x, y, z'
loop_
 _atom_site_type_symbol
 _atom_site_label
 _atom_site_symmetry_multiplicity
 _atom_site_fract_x
 _atom_site_fract_y
 _atom_site_fract_z
 _atom_site_occupancy
  Dy  Dy0  1  0.332005  0.666112  0.437742  1
  Ho  Ho1  1  0.670114  0.335015  0.564442  1
  Ho  Ho2  1  0.670119  0.335017  0.935684  1
  Ho  Ho3  1  0.331847  0.666047  0.062227  1
  Tc  Tc4  1  0.828280  0.170880  0.249692  1
  Tc  Tc5  1  0.827657  0.655465  0.249698  1
  Tc  Tc6  1  0.340651  0.170650  0.249667  1
  Tc  Tc7  1  0.170000  0.830373  0.750263  1
  Tc  Tc8  1  0.170758  0.340441  0.750241  1
  Os  Os9  1  0.002448  0.001530  0.500718  1
  Os  Os10  1  0.002560  0.001558  0.999347  1
  Os  Os11  1  0.653563  0.826913  0.750278  1
