# generated using pymatgen
data_Dy7Lu4In9Ni4
_symmetry_space_group_name_H-M   'P 1'
_cell_length_a   3.61160000
_cell_length_b   12.91902276
_cell_length_c   12.91902174
_cell_angle_alpha   112.20910071
_cell_angle_beta   90.00000000
_cell_angle_gamma   90.00000000
_symmetry_Int_Tables_number   1
_chemical_formula_structural   Dy7Lu4In9Ni4
_chemical_formula_sum   'Dy7 Lu4 In9 Ni4'
_cell_volume   558.06022022
_cell_formula_units_Z   1
loop_
 _symmetry_equiv_pos_site_id
 _symmetry_equiv_pos_as_xyz
  1  'x, y, z'
loop_
 _atom_site_type_symbol
 _atom_site_label
 _atom_site_symmetry_multiplicity
 _atom_site_fract_x
 _atom_site_fract_y
 _atom_site_fract_z
 _atom_site_occupancy
  Dy  Dy0  1  0.000000  0.159579  0.840421  1
  Dy  Dy1  1  0.000000  0.840421  0.159579  1
  Dy  Dy2  1  0.000000  0.372771  0.627229  1
  Dy  Dy3  1  0.000000  0.627229  0.372771  1
  Dy  Dy4  1  0.000000  0.688341  0.688341  1
  Dy  Dy5  1  0.000000  0.311659  0.311659  1
  Dy  Dy6  1  0.000000  0.000000  0.000000  1
  Lu  Lu7  1  0.000000  0.917916  0.581045  1
  Lu  Lu8  1  0.000000  0.082084  0.418955  1
  Lu  Lu9  1  0.000000  0.581045  0.917916  1
  Lu  Lu10  1  0.000000  0.418955  0.082084  1
  In  In11  1  0.500000  0.154428  0.631303  1
  In  In12  1  0.500000  0.845572  0.368697  1
  In  In13  1  0.500000  0.631303  0.154428  1
  In  In14  1  0.500000  0.368697  0.845572  1
  In  In15  1  0.500000  0.923047  0.778076  1
  In  In16  1  0.500000  0.076953  0.221924  1
  In  In17  1  0.500000  0.778076  0.923047  1
  In  In18  1  0.500000  0.221924  0.076953  1
  In  In19  1  0.500000  0.500000  0.500000  1
  Ni  Ni20  1  0.500000  0.754120  0.549192  1
  Ni  Ni21  1  0.500000  0.245880  0.450808  1
  Ni  Ni22  1  0.500000  0.549192  0.754120  1
  Ni  Ni23  1  0.500000  0.450808  0.245880  1
