# generated using pymatgen
data_SmBi3(As4O9)2
_symmetry_space_group_name_H-M   'P 1'
_cell_length_a   7.01513487
_cell_length_b   7.67035799
_cell_length_c   10.05967739
_cell_angle_alpha   94.99101680
_cell_angle_beta   104.56229025
_cell_angle_gamma   104.19490748
_symmetry_Int_Tables_number   1
_chemical_formula_structural   SmBi3(As4O9)2
_chemical_formula_sum   'Sm1 Bi3 As8 O18'
_cell_volume   501.49686239
_cell_formula_units_Z   1
loop_
 _symmetry_equiv_pos_site_id
 _symmetry_equiv_pos_as_xyz
  1  'x, y, z'
loop_
 _atom_site_type_symbol
 _atom_site_label
 _atom_site_symmetry_multiplicity
 _atom_site_fract_x
 _atom_site_fract_y
 _atom_site_fract_z
 _atom_site_occupancy
  Sm  Sm0  1  0.279823  0.458680  0.592272  1
  Bi  Bi1  1  0.241428  0.920152  0.621708  1
  Bi  Bi2  1  0.764419  0.081487  0.376441  1
  Bi  Bi3  1  0.708051  0.543369  0.407892  1
  As  As4  1  0.672046  0.771521  0.065323  1
  As  As5  1  0.326510  0.230586  0.933152  1
  As  As6  1  0.179744  0.757739  0.912843  1
  As  As7  1  0.819888  0.241244  0.083797  1
  As  As8  1  0.745515  0.910375  0.706347  1
  As  As9  1  0.253307  0.088907  0.294788  1
  As  As10  1  0.806280  0.344625  0.699374  1
  As  As11  1  0.189391  0.654764  0.301063  1
  O  O12  1  0.725085  0.743021  0.240459  1
  O  O13  1  0.283486  0.269192  0.761386  1
  O  O14  1  0.316536  0.984124  0.880122  1
  O  O15  1  0.678785  0.016223  0.114624  1
  O  O16  1  0.608079  0.322223  0.991148  1
  O  O17  1  0.390708  0.681113  0.012778  1
  O  O18  1  0.145457  0.663277  0.737969  1
  O  O19  1  0.865626  0.332429  0.261365  1
  O  O20  1  0.835034  0.857565  0.558525  1
  O  O21  1  0.168411  0.146774  0.443232  1
  O  O22  1  0.491259  0.767807  0.664170  1
  O  O23  1  0.509893  0.227861  0.332161  1
  O  O24  1  0.369294  0.539650  0.377230  1
  O  O25  1  0.623204  0.453073  0.619635  1
  O  O26  1  0.094346  0.662562  0.454462  1
  O  O27  1  0.912249  0.330956  0.551603  1
  O  O28  1  0.356845  0.897762  0.356764  1
  O  O29  1  0.639302  0.100939  0.647368  1
