# generated using pymatgen
data_Rb7SmMnFe5(P4O17)2
_symmetry_space_group_name_H-M   'P 1'
_cell_length_a   9.43739302
_cell_length_b   10.03820397
_cell_length_c   10.15917100
_cell_angle_alpha   92.09282611
_cell_angle_beta   93.74803460
_cell_angle_gamma   116.32234957
_symmetry_Int_Tables_number   1
_chemical_formula_structural   Rb7SmMnFe5(P4O17)2
_chemical_formula_sum   'Rb7 Sm1 Mn1 Fe5 P8 O34'
_cell_volume   858.47668929
_cell_formula_units_Z   1
loop_
 _symmetry_equiv_pos_site_id
 _symmetry_equiv_pos_as_xyz
  1  'x, y, z'
loop_
 _atom_site_type_symbol
 _atom_site_label
 _atom_site_symmetry_multiplicity
 _atom_site_fract_x
 _atom_site_fract_y
 _atom_site_fract_z
 _atom_site_occupancy
  Rb  Rb0  1  0.072850  0.208734  0.340450  1
  Rb  Rb1  1  0.927996  0.793087  0.659248  1
  Rb  Rb2  1  0.624842  0.974776  0.373507  1
  Rb  Rb3  1  0.374212  0.024242  0.627968  1
  Rb  Rb4  1  0.682498  0.441247  0.906098  1
  Rb  Rb5  1  0.320193  0.561095  0.094749  1
  Rb  Rb6  1  0.499640  0.999653  0.999618  1
  Sm  Sm7  1  0.500006  0.499984  0.499942  1
  Mn  Mn8  1  0.159034  0.109646  0.966803  1
  Fe  Fe9  1  0.846310  0.894110  0.033717  1
  Fe  Fe10  1  0.835886  0.095901  0.756850  1
  Fe  Fe11  1  0.165770  0.904756  0.242673  1
  Fe  Fe12  1  0.840893  0.423036  0.278244  1
  Fe  Fe13  1  0.156827  0.577072  0.724380  1
  P  P14  1  0.787180  0.331800  0.572153  1
  P  P15  1  0.211957  0.667150  0.428008  1
  P  P16  1  0.193523  0.264729  0.692574  1
  P  P17  1  0.806356  0.736194  0.307707  1
  P  P18  1  0.909410  0.234093  0.039648  1
  P  P19  1  0.089718  0.764381  0.958704  1
  P  P20  1  0.559161  0.756492  0.785422  1
  P  P21  1  0.439791  0.242812  0.215153  1
  O  O22  1  0.374395  0.219318  0.066063  1
  O  O23  1  0.627996  0.779846  0.932863  1
  O  O24  1  0.831073  0.306060  0.430355  1
  O  O25  1  0.167925  0.692328  0.569900  1
  O  O26  1  0.015567  0.158568  0.645051  1
  O  O27  1  0.985123  0.843223  0.352658  1
  O  O28  1  0.182117  0.903770  0.884084  1
  O  O29  1  0.820710  0.085213  0.107013  1
  O  O30  1  0.257010  0.196315  0.802326  1
  O  O31  1  0.743311  0.805176  0.198693  1
  O  O32  1  0.940897  0.010031  0.877857  1
  O  O33  1  0.071780  0.999335  0.120516  1
  O  O34  1  0.212393  0.418067  0.747298  1
  O  O35  1  0.786908  0.582714  0.252778  1
  O  O36  1  0.085860  0.277454  0.031699  1
  O  O37  1  0.914779  0.733834  0.971588  1
  O  O38  1  0.614940  0.273382  0.215813  1
  O  O39  1  0.383795  0.726848  0.785827  1
  O  O40  1  0.292454  0.284957  0.573020  1
  O  O41  1  0.709604  0.715693  0.428792  1
  O  O42  1  0.717163  0.176034  0.630514  1
  O  O43  1  0.282125  0.823190  0.369807  1
  O  O44  1  0.659480  0.388990  0.560783  1
  O  O45  1  0.340064  0.610431  0.438929  1
  O  O46  1  0.815936  0.218132  0.900851  1
  O  O47  1  0.181573  0.780150  0.098266  1
  O  O48  1  0.899803  0.364431  0.118760  1
  O  O49  1  0.083171  0.623249  0.884302  1
  O  O50  1  0.579699  0.630408  0.710119  1
  O  O51  1  0.417640  0.368717  0.288942  1
  O  O52  1  0.648193  0.905206  0.715578  1
  O  O53  1  0.353125  0.094732  0.285947  1
  O  O54  1  0.931675  0.444426  0.661130  1
  O  O55  1  0.067664  0.554783  0.338258  1
