# generated using pymatgen
data_Zr5TiBI12
_symmetry_space_group_name_H-M   'P 1'
_cell_length_a   9.22390727
_cell_length_b   9.50812105
_cell_length_c   9.24263266
_cell_angle_alpha   106.52731899
_cell_angle_beta   106.61520232
_cell_angle_gamma   107.15891074
_symmetry_Int_Tables_number   1
_chemical_formula_structural   Zr5TiBI12
_chemical_formula_sum   'Zr5 Ti1 B1 I12'
_cell_volume   679.29711309
_cell_formula_units_Z   1
loop_
 _symmetry_equiv_pos_site_id
 _symmetry_equiv_pos_as_xyz
  1  'x, y, z'
loop_
 _atom_site_type_symbol
 _atom_site_label
 _atom_site_symmetry_multiplicity
 _atom_site_fract_x
 _atom_site_fract_y
 _atom_site_fract_z
 _atom_site_occupancy
  Zr  Zr0  1  0.274053  0.088342  0.026061  1
  Zr  Zr1  1  0.088575  0.026668  0.273303  1
  Zr  Zr2  1  0.910681  0.971344  0.726583  1
  Zr  Zr3  1  0.725977  0.910876  0.974447  1
  Zr  Zr4  1  0.024639  0.265961  0.085338  1
  Ti  Ti5  1  0.977238  0.752998  0.919761  1
  B  B6  1  0.000210  0.002424  0.001094  1
  I  I7  1  0.918622  0.292287  0.769182  1
  I  I8  1  0.687999  0.217625  0.075458  1
  I  I9  1  0.441998  0.140787  0.366626  1
  I  I10  1  0.867543  0.641581  0.576259  1
  I  I11  1  0.226394  0.074142  0.689333  1
  I  I12  1  0.648209  0.571927  0.864364  1
  I  I13  1  0.365648  0.432671  0.136275  1
  I  I14  1  0.772367  0.918304  0.308230  1
  I  I15  1  0.138059  0.359364  0.438189  1
  I  I16  1  0.556326  0.854536  0.633360  1
  I  I17  1  0.300207  0.778706  0.923731  1
  I  I18  1  0.075255  0.699458  0.212407  1
