# generated using pymatgen
data_HoCo4CuP3
_symmetry_space_group_name_H-M   'P 1'
_cell_length_a   3.69222600
_cell_length_b   10.23977800
_cell_length_c   11.87051200
_cell_angle_alpha   90.00000000
_cell_angle_beta   90.00000000
_cell_angle_gamma   90.00000000
_symmetry_Int_Tables_number   1
_chemical_formula_structural   HoCo4CuP3
_chemical_formula_sum   'Ho4 Co16 Cu4 P12'
_cell_volume   448.79526757
_cell_formula_units_Z   4
loop_
 _symmetry_equiv_pos_site_id
 _symmetry_equiv_pos_as_xyz
  1  'x, y, z'
loop_
 _atom_site_type_symbol
 _atom_site_label
 _atom_site_symmetry_multiplicity
 _atom_site_fract_x
 _atom_site_fract_y
 _atom_site_fract_z
 _atom_site_occupancy
  Ho  Ho0  1  0.250000  0.577586  0.702211  1
  Ho  Ho1  1  0.250000  0.922414  0.202211  1
  Ho  Ho2  1  0.750000  0.422414  0.297789  1
  Ho  Ho3  1  0.750000  0.077586  0.797789  1
  Co  Co4  1  0.250000  0.405896  0.483399  1
  Co  Co5  1  0.250000  0.094104  0.983399  1
  Co  Co6  1  0.750000  0.594104  0.516601  1
  Co  Co7  1  0.750000  0.905896  0.016601  1
  Co  Co8  1  0.250000  0.225129  0.172263  1
  Co  Co9  1  0.250000  0.274871  0.672263  1
  Co  Co10  1  0.750000  0.774871  0.827737  1
  Co  Co11  1  0.750000  0.725129  0.327737  1
  Co  Co12  1  0.250000  0.878232  0.700510  1
  Co  Co13  1  0.250000  0.621768  0.200510  1
  Co  Co14  1  0.750000  0.121768  0.299490  1
  Co  Co15  1  0.750000  0.378232  0.799490  1
  Co  Co16  1  0.250000  0.463843  0.933241  1
  Co  Co17  1  0.250000  0.036157  0.433241  1
  Co  Co18  1  0.750000  0.536157  0.066759  1
  Co  Co19  1  0.750000  0.963843  0.566759  1
  Cu  Cu20  1  0.250000  0.710856  0.993062  1
  Cu  Cu21  1  0.250000  0.789144  0.493062  1
  Cu  Cu22  1  0.750000  0.289144  0.006938  1
  Cu  Cu23  1  0.750000  0.210856  0.506938  1
  P  P24  1  0.250000  0.426400  0.116160  1
  P  P25  1  0.250000  0.073600  0.616160  1
  P  P26  1  0.750000  0.573600  0.883840  1
  P  P27  1  0.750000  0.926400  0.383840  1
  P  P28  1  0.250000  0.268072  0.858759  1
  P  P29  1  0.250000  0.231928  0.358759  1
  P  P30  1  0.750000  0.731928  0.141241  1
  P  P31  1  0.750000  0.768072  0.641241  1
  P  P32  1  0.250000  0.600736  0.392396  1
  P  P33  1  0.250000  0.899264  0.892396  1
  P  P34  1  0.750000  0.399264  0.607604  1
  P  P35  1  0.750000  0.100736  0.107604  1
