# generated using pymatgen
data_Yb2SmNpO7
_symmetry_space_group_name_H-M   'P 1'
_cell_length_a   6.53366290
_cell_length_b   6.53366387
_cell_length_c   7.76770100
_cell_angle_alpha   90.00000000
_cell_angle_beta   90.00000000
_cell_angle_gamma   110.16694480
_symmetry_Int_Tables_number   1
_chemical_formula_structural   Yb2SmNpO7
_chemical_formula_sum   'Yb4 Sm2 Np2 O14'
_cell_volume   311.26419301
_cell_formula_units_Z   2
loop_
 _symmetry_equiv_pos_site_id
 _symmetry_equiv_pos_as_xyz
  1  'x, y, z'
loop_
 _atom_site_type_symbol
 _atom_site_label
 _atom_site_symmetry_multiplicity
 _atom_site_fract_x
 _atom_site_fract_y
 _atom_site_fract_z
 _atom_site_occupancy
  Yb  Yb0  1  0.466042  0.997931  0.250153  1
  Yb  Yb1  1  0.002069  0.533958  0.249847  1
  Yb  Yb2  1  0.533958  0.002069  0.750153  1
  Yb  Yb3  1  0.997931  0.466042  0.749847  1
  Sm  Sm4  1  0.499817  0.499817  0.000000  1
  Sm  Sm5  1  0.500183  0.500183  0.500000  1
  Np  Np6  1  0.999947  0.999947  0.500000  1
  Np  Np7  1  0.000053  0.000053  0.000000  1
  O  O8  1  0.919200  0.080800  0.750000  1
  O  O9  1  0.632751  0.367249  0.750000  1
  O  O10  1  0.316235  0.072171  0.532387  1
  O  O11  1  0.927829  0.683765  0.967613  1
  O  O12  1  0.630411  0.369589  0.250000  1
  O  O13  1  0.927310  0.683411  0.532032  1
  O  O14  1  0.316589  0.072690  0.967968  1
  O  O15  1  0.072690  0.316589  0.032032  1
  O  O16  1  0.683411  0.927310  0.467968  1
  O  O17  1  0.369589  0.630411  0.750000  1
  O  O18  1  0.683765  0.927829  0.032387  1
  O  O19  1  0.072171  0.316235  0.467613  1
  O  O20  1  0.367249  0.632751  0.250000  1
  O  O21  1  0.080800  0.919200  0.250000  1
