# generated using pymatgen
data_TiV3(SiPt)4
_symmetry_space_group_name_H-M   'P 1'
_cell_length_a   3.83608800
_cell_length_b   6.21552860
_cell_length_c   7.28899403
_cell_angle_alpha   89.89537439
_cell_angle_beta   90.00000000
_cell_angle_gamma   90.00000000
_symmetry_Int_Tables_number   1
_chemical_formula_structural   TiV3(SiPt)4
_chemical_formula_sum   'Ti1 V3 Si4 Pt4'
_cell_volume   173.79348851
_cell_formula_units_Z   1
loop_
 _symmetry_equiv_pos_site_id
 _symmetry_equiv_pos_as_xyz
  1  'x, y, z'
loop_
 _atom_site_type_symbol
 _atom_site_label
 _atom_site_symmetry_multiplicity
 _atom_site_fract_x
 _atom_site_fract_y
 _atom_site_fract_z
 _atom_site_occupancy
  Ti  Ti0  1  0.750000  0.471685  0.825781  1
  V  V1  1  0.250000  0.028462  0.325115  1
  V  V2  1  0.250000  0.530073  0.172178  1
  V  V3  1  0.750000  0.970153  0.672689  1
  Si  Si4  1  0.250000  0.244075  0.616988  1
  Si  Si5  1  0.250000  0.759386  0.877454  1
  Si  Si6  1  0.750000  0.750681  0.379609  1
  Si  Si7  1  0.750000  0.244063  0.127883  1
  Pt  Pt8  1  0.250000  0.151505  0.934423  1
  Pt  Pt9  1  0.250000  0.649797  0.565066  1
  Pt  Pt10  1  0.750000  0.849249  0.066084  1
  Pt  Pt11  1  0.750000  0.350870  0.436730  1
