# generated using pymatgen
data_Ac2Cu3NiP4
_symmetry_space_group_name_H-M   'P 1'
_cell_length_a   4.02760300
_cell_length_b   8.95784925
_cell_length_c   10.17265155
_cell_angle_alpha   89.62207178
_cell_angle_beta   90.00000000
_cell_angle_gamma   90.00000000
_symmetry_Int_Tables_number   1
_chemical_formula_structural   Ac2Cu3NiP4
_chemical_formula_sum   'Ac4 Cu6 Ni2 P8'
_cell_volume   367.00765765
_cell_formula_units_Z   2
loop_
 _symmetry_equiv_pos_site_id
 _symmetry_equiv_pos_as_xyz
  1  'x, y, z'
loop_
 _atom_site_type_symbol
 _atom_site_label
 _atom_site_symmetry_multiplicity
 _atom_site_fract_x
 _atom_site_fract_y
 _atom_site_fract_z
 _atom_site_occupancy
  Ac  Ac0  1  0.250000  0.255637  0.670569  1
  Ac  Ac1  1  0.750000  0.744363  0.329431  1
  Ac  Ac2  1  0.250000  0.762737  0.827581  1
  Ac  Ac3  1  0.750000  0.237263  0.172419  1
  Cu  Cu4  1  0.750000  0.090673  0.454539  1
  Cu  Cu5  1  0.250000  0.909327  0.545461  1
  Cu  Cu6  1  0.750000  0.581091  0.047902  1
  Cu  Cu7  1  0.250000  0.418909  0.952098  1
  Cu  Cu8  1  0.250000  0.947725  0.117937  1
  Cu  Cu9  1  0.750000  0.052275  0.882063  1
  Ni  Ni10  1  0.250000  0.459560  0.384569  1
  Ni  Ni11  1  0.750000  0.540440  0.615431  1
  P  P12  1  0.250000  0.153767  0.955890  1
  P  P13  1  0.750000  0.846233  0.044110  1
  P  P14  1  0.250000  0.632382  0.549235  1
  P  P15  1  0.750000  0.367618  0.450765  1
  P  P16  1  0.250000  0.519831  0.169427  1
  P  P17  1  0.750000  0.480169  0.830573  1
  P  P18  1  0.250000  0.028309  0.337918  1
  P  P19  1  0.750000  0.971691  0.662082  1
