# generated using pymatgen
data_Pr6Ta2Fe(Co5P4)3
_symmetry_space_group_name_H-M   'P 1'
_cell_length_a   3.77184200
_cell_length_b   10.79106700
_cell_length_c   12.52504400
_cell_angle_alpha   90.00000000
_cell_angle_beta   90.00000000
_cell_angle_gamma   90.00000000
_symmetry_Int_Tables_number   1
_chemical_formula_structural   Pr6Ta2Fe(Co5P4)3
_chemical_formula_sum   'Pr6 Ta2 Fe1 Co15 P12'
_cell_volume   509.79684258
_cell_formula_units_Z   1
loop_
 _symmetry_equiv_pos_site_id
 _symmetry_equiv_pos_as_xyz
  1  'x, y, z'
loop_
 _atom_site_type_symbol
 _atom_site_label
 _atom_site_symmetry_multiplicity
 _atom_site_fract_x
 _atom_site_fract_y
 _atom_site_fract_z
 _atom_site_occupancy
  Pr  Pr0  1  0.000000  0.500000  0.525559  1
  Pr  Pr1  1  0.500000  0.000000  0.474029  1
  Pr  Pr2  1  0.500000  0.819739  0.205452  1
  Pr  Pr3  1  0.500000  0.180261  0.205452  1
  Pr  Pr4  1  0.000000  0.678822  0.795010  1
  Pr  Pr5  1  0.000000  0.321178  0.795010  1
  Ta  Ta6  1  0.500000  0.500000  0.152656  1
  Ta  Ta7  1  0.000000  0.000000  0.846373  1
  Fe  Fe8  1  0.000000  0.500000  0.989844  1
  Co  Co9  1  0.500000  0.500000  0.702560  1
  Co  Co10  1  0.000000  0.000000  0.296497  1
  Co  Co11  1  0.500000  0.000000  0.011867  1
  Co  Co12  1  0.500000  0.330788  0.994264  1
  Co  Co13  1  0.500000  0.669212  0.994264  1
  Co  Co14  1  0.000000  0.166501  0.006183  1
  Co  Co15  1  0.000000  0.833499  0.006183  1
  Co  Co16  1  0.500000  0.295565  0.431843  1
  Co  Co17  1  0.500000  0.704435  0.431843  1
  Co  Co18  1  0.000000  0.204412  0.568367  1
  Co  Co19  1  0.000000  0.795588  0.568367  1
  Co  Co20  1  0.500000  0.880681  0.707200  1
  Co  Co21  1  0.500000  0.119319  0.707200  1
  Co  Co22  1  0.000000  0.619667  0.292543  1
  Co  Co23  1  0.000000  0.380333  0.292543  1
  P  P24  1  0.500000  0.500000  0.888771  1
  P  P25  1  0.000000  0.000000  0.113618  1
  P  P26  1  0.500000  0.500000  0.350383  1
  P  P27  1  0.000000  0.000000  0.649416  1
  P  P28  1  0.500000  0.305576  0.613829  1
  P  P29  1  0.500000  0.694424  0.613829  1
  P  P30  1  0.000000  0.194483  0.386219  1
  P  P31  1  0.000000  0.805517  0.386219  1
  P  P32  1  0.500000  0.843329  0.895751  1
  P  P33  1  0.500000  0.156671  0.895751  1
  P  P34  1  0.000000  0.656507  0.102554  1
  P  P35  1  0.000000  0.343493  0.102554  1
