# generated using pymatgen
data_Er3Si3Ru2
_symmetry_space_group_name_H-M   'P 1'
_cell_length_a   5.69909370
_cell_length_b   5.69909391
_cell_length_c   13.68646600
_cell_angle_alpha   90.00000000
_cell_angle_beta   90.00000000
_cell_angle_gamma   137.19145064
_symmetry_Int_Tables_number   1
_chemical_formula_structural   Er3Si3Ru2
_chemical_formula_sum   'Er6 Si6 Ru4'
_cell_volume   302.08200037
_cell_formula_units_Z   2
loop_
 _symmetry_equiv_pos_site_id
 _symmetry_equiv_pos_as_xyz
  1  'x, y, z'
loop_
 _atom_site_type_symbol
 _atom_site_label
 _atom_site_symmetry_multiplicity
 _atom_site_fract_x
 _atom_site_fract_y
 _atom_site_fract_z
 _atom_site_occupancy
  Er  Er0  1  0.640665  0.359335  0.250000  1
  Er  Er1  1  0.359335  0.640665  0.750000  1
  Er  Er2  1  0.922645  0.077355  0.114251  1
  Er  Er3  1  0.077355  0.922645  0.885749  1
  Er  Er4  1  0.077355  0.922645  0.614251  1
  Er  Er5  1  0.922645  0.077355  0.385749  1
  Si  Si6  1  0.329141  0.670859  0.250000  1
  Si  Si7  1  0.670859  0.329141  0.750000  1
  Si  Si8  1  0.616638  0.383362  0.038523  1
  Si  Si9  1  0.383362  0.616638  0.961477  1
  Si  Si10  1  0.383362  0.616638  0.538523  1
  Si  Si11  1  0.616638  0.383362  0.461477  1
  Ru  Ru12  1  0.787121  0.212879  0.581646  1
  Ru  Ru13  1  0.212879  0.787121  0.418354  1
  Ru  Ru14  1  0.212879  0.787121  0.081646  1
  Ru  Ru15  1  0.787121  0.212879  0.918354  1
