# generated using pymatgen
data_PrTh3(Pd2Pb)2
_symmetry_space_group_name_H-M   'P 1'
_cell_length_a   8.05046356
_cell_length_b   8.05046356
_cell_length_c   3.83583000
_cell_angle_alpha   90.00000000
_cell_angle_beta   90.00000000
_cell_angle_gamma   90.71236719
_symmetry_Int_Tables_number   1
_chemical_formula_structural   PrTh3(Pd2Pb)2
_chemical_formula_sum   'Pr1 Th3 Pd4 Pb2'
_cell_volume   248.58078782
_cell_formula_units_Z   1
loop_
 _symmetry_equiv_pos_site_id
 _symmetry_equiv_pos_as_xyz
  1  'x, y, z'
loop_
 _atom_site_type_symbol
 _atom_site_label
 _atom_site_symmetry_multiplicity
 _atom_site_fract_x
 _atom_site_fract_y
 _atom_site_fract_z
 _atom_site_occupancy
  Pr  Pr0  1  0.175282  0.324718  0.500000  1
  Th  Th1  1  0.325564  0.825423  0.500000  1
  Th  Th2  1  0.674577  0.174436  0.500000  1
  Th  Th3  1  0.827033  0.672967  0.500000  1
  Pd  Pd4  1  0.865972  0.379190  0.000000  1
  Pd  Pd5  1  0.629262  0.870738  0.000000  1
  Pd  Pd6  1  0.383269  0.116731  0.000000  1
  Pd  Pd7  1  0.120810  0.634028  0.000000  1
  Pb  Pb8  1  0.496655  0.498423  0.000000  1
  Pb  Pb9  1  0.001577  0.003345  0.000000  1
