# generated using pymatgen
data_Er4ZnCo
_symmetry_space_group_name_H-M   'P 1'
_cell_length_a   9.23727317
_cell_length_b   9.23746172
_cell_length_c   9.23746100
_cell_angle_alpha   59.99999901
_cell_angle_beta   59.99932379
_cell_angle_gamma   59.99932096
_symmetry_Int_Tables_number   1
_chemical_formula_structural   Er4ZnCo
_chemical_formula_sum   'Er16 Zn4 Co4'
_cell_volume   557.35205611
_cell_formula_units_Z   4
loop_
 _symmetry_equiv_pos_site_id
 _symmetry_equiv_pos_as_xyz
  1  'x, y, z'
loop_
 _atom_site_type_symbol
 _atom_site_label
 _atom_site_symmetry_multiplicity
 _atom_site_fract_x
 _atom_site_fract_y
 _atom_site_fract_z
 _atom_site_occupancy
  Er  Er0  1  0.599518  0.599599  0.599599  1
  Er  Er1  1  0.599518  0.599599  0.201285  1
  Er  Er2  1  0.599518  0.201285  0.599599  1
  Er  Er3  1  0.198751  0.600417  0.600417  1
  Er  Er4  1  0.059427  0.440237  0.440237  1
  Er  Er5  1  0.439808  0.059986  0.059986  1
  Er  Er6  1  0.439808  0.059986  0.440219  1
  Er  Er7  1  0.059427  0.440237  0.060097  1
  Er  Er8  1  0.439808  0.440219  0.059986  1
  Er  Er9  1  0.059427  0.060097  0.440237  1
  Er  Er10  1  0.187673  0.812332  0.812332  1
  Er  Er11  1  0.812165  0.187726  0.187726  1
  Er  Er12  1  0.812165  0.187726  0.812383  1
  Er  Er13  1  0.187673  0.812332  0.187663  1
  Er  Er14  1  0.812165  0.812383  0.187726  1
  Er  Er15  1  0.187673  0.187663  0.812332  1
  Zn  Zn16  1  0.522278  0.825908  0.825908  1
  Zn  Zn17  1  0.828408  0.827775  0.827775  1
  Zn  Zn18  1  0.828408  0.827775  0.516042  1
  Zn  Zn19  1  0.828408  0.516042  0.827775  1
  Co  Co20  1  0.391266  0.392092  0.392092  1
  Co  Co21  1  0.391266  0.392092  0.824552  1
  Co  Co22  1  0.391266  0.824552  0.392092  1
  Co  Co23  1  0.824175  0.391942  0.391942  1
