# generated using pymatgen
data_Er2ZrSnIr2
_symmetry_space_group_name_H-M   'P 1'
_cell_length_a   4.37513300
_cell_length_b   7.08784800
_cell_length_c   8.40696100
_cell_angle_alpha   90.00000000
_cell_angle_beta   90.00000000
_cell_angle_gamma   90.00000000
_symmetry_Int_Tables_number   1
_chemical_formula_structural   Er2ZrSnIr2
_chemical_formula_sum   'Er4 Zr2 Sn2 Ir4'
_cell_volume   260.70219509
_cell_formula_units_Z   2
loop_
 _symmetry_equiv_pos_site_id
 _symmetry_equiv_pos_as_xyz
  1  'x, y, z'
loop_
 _atom_site_type_symbol
 _atom_site_label
 _atom_site_symmetry_multiplicity
 _atom_site_fract_x
 _atom_site_fract_y
 _atom_site_fract_z
 _atom_site_occupancy
  Er  Er0  1  0.250000  0.033041  0.331834  1
  Er  Er1  1  0.250000  0.533041  0.168166  1
  Er  Er2  1  0.750000  0.970716  0.677738  1
  Er  Er3  1  0.750000  0.470716  0.822262  1
  Zr  Zr4  1  0.250000  0.131040  0.939346  1
  Zr  Zr5  1  0.250000  0.631040  0.560654  1
  Sn  Sn6  1  0.750000  0.855654  0.071577  1
  Sn  Sn7  1  0.750000  0.355654  0.428423  1
  Ir  Ir8  1  0.250000  0.258712  0.634203  1
  Ir  Ir9  1  0.250000  0.758712  0.865797  1
  Ir  Ir10  1  0.750000  0.750838  0.392879  1
  Ir  Ir11  1  0.750000  0.250838  0.107121  1
