# generated using pymatgen
data_Ta3MoPb4O13
_symmetry_space_group_name_H-M   'P 1'
_cell_length_a   7.59559078
_cell_length_b   7.59559139
_cell_length_c   7.59559012
_cell_angle_alpha   60.01665978
_cell_angle_beta   60.01665571
_cell_angle_gamma   60.01665709
_symmetry_Int_Tables_number   1
_chemical_formula_structural   Ta3MoPb4O13
_chemical_formula_sum   'Ta3 Mo1 Pb4 O13'
_cell_volume   309.97998001
_cell_formula_units_Z   1
loop_
 _symmetry_equiv_pos_site_id
 _symmetry_equiv_pos_as_xyz
  1  'x, y, z'
loop_
 _atom_site_type_symbol
 _atom_site_label
 _atom_site_symmetry_multiplicity
 _atom_site_fract_x
 _atom_site_fract_y
 _atom_site_fract_z
 _atom_site_occupancy
  Ta  Ta0  1  0.002139  0.501136  0.501136  1
  Ta  Ta1  1  0.501136  0.501136  0.002139  1
  Ta  Ta2  1  0.501136  0.002139  0.501136  1
  Mo  Mo3  1  0.500857  0.500857  0.500857  1
  Pb  Pb4  1  0.000624  0.000624  0.000624  1
  Pb  Pb5  1  0.500598  0.007947  0.007947  1
  Pb  Pb6  1  0.007947  0.007947  0.500598  1
  Pb  Pb7  1  0.007947  0.500598  0.007947  1
  O  O8  1  0.848765  0.414705  0.414705  1
  O  O9  1  0.428489  0.808923  0.808923  1
  O  O10  1  0.414705  0.414705  0.848765  1
  O  O11  1  0.808923  0.808923  0.428489  1
  O  O12  1  0.808923  0.428489  0.808923  1
  O  O13  1  0.414705  0.848765  0.414705  1
  O  O14  1  0.165279  0.572142  0.572142  1
  O  O15  1  0.570823  0.187488  0.187488  1
  O  O16  1  0.572142  0.572142  0.165279  1
  O  O17  1  0.187488  0.187488  0.570823  1
  O  O18  1  0.187488  0.570823  0.187488  1
  O  O19  1  0.572142  0.165279  0.572142  1
  O  O20  1  0.122743  0.122743  0.122743  1
