# generated using pymatgen
data_Ho3Ir7Rh2
_symmetry_space_group_name_H-M   'P 1'
_cell_length_a   5.29824600
_cell_length_b   5.29824632
_cell_length_c   17.45467600
_cell_angle_alpha   90.00000000
_cell_angle_beta   90.00000000
_cell_angle_gamma   119.99999801
_symmetry_Int_Tables_number   1
_chemical_formula_structural   Ho3Ir7Rh2
_chemical_formula_sum   'Ho6 Ir14 Rh4'
_cell_volume   424.33289090
_cell_formula_units_Z   2
loop_
 _symmetry_equiv_pos_site_id
 _symmetry_equiv_pos_as_xyz
  1  'x, y, z'
loop_
 _atom_site_type_symbol
 _atom_site_label
 _atom_site_symmetry_multiplicity
 _atom_site_fract_x
 _atom_site_fract_y
 _atom_site_fract_z
 _atom_site_occupancy
  Ho  Ho0  1  0.333333  0.666667  0.541160  1
  Ho  Ho1  1  0.666667  0.333333  0.041160  1
  Ho  Ho2  1  0.666667  0.333333  0.458840  1
  Ho  Ho3  1  0.333333  0.666667  0.958840  1
  Ho  Ho4  1  0.333333  0.666667  0.750000  1
  Ho  Ho5  1  0.666667  0.333333  0.250000  1
  Ir  Ir6  1  0.167681  0.335361  0.125391  1
  Ir  Ir7  1  0.832319  0.664639  0.625391  1
  Ir  Ir8  1  0.664639  0.832319  0.125391  1
  Ir  Ir9  1  0.167681  0.832319  0.125391  1
  Ir  Ir10  1  0.832319  0.167681  0.625391  1
  Ir  Ir11  1  0.335361  0.167681  0.625391  1
  Ir  Ir12  1  0.832319  0.664639  0.874609  1
  Ir  Ir13  1  0.832319  0.167681  0.874609  1
  Ir  Ir14  1  0.335361  0.167681  0.874609  1
  Ir  Ir15  1  0.664639  0.832319  0.374609  1
  Ir  Ir16  1  0.167681  0.832319  0.374609  1
  Ir  Ir17  1  0.167681  0.335361  0.374609  1
  Ir  Ir18  1  0.000000  0.000000  0.000000  1
  Ir  Ir19  1  0.000000  0.000000  0.500000  1
  Rh  Rh20  1  0.000000  0.000000  0.250000  1
  Rh  Rh21  1  0.000000  0.000000  0.750000  1
  Rh  Rh22  1  0.333333  0.666667  0.250000  1
  Rh  Rh23  1  0.666667  0.333333  0.750000  1
