# generated using pymatgen
data_Ba9Sr11(Bi2As)4
_symmetry_space_group_name_H-M   'P 1'
_cell_length_a   9.04263679
_cell_length_b   10.26519354
_cell_length_c   13.84207018
_cell_angle_alpha   89.96589056
_cell_angle_beta   90.06959030
_cell_angle_gamma   90.01733404
_symmetry_Int_Tables_number   1
_chemical_formula_structural   Ba9Sr11(Bi2As)4
_chemical_formula_sum   'Ba9 Sr11 Bi8 As4'
_cell_volume   1284.88085732
_cell_formula_units_Z   1
loop_
 _symmetry_equiv_pos_site_id
 _symmetry_equiv_pos_as_xyz
  1  'x, y, z'
loop_
 _atom_site_type_symbol
 _atom_site_label
 _atom_site_symmetry_multiplicity
 _atom_site_fract_x
 _atom_site_fract_y
 _atom_site_fract_z
 _atom_site_occupancy
  Ba  Ba0  1  0.855040  0.748288  0.799424  1
  Ba  Ba1  1  0.143649  0.251400  0.201128  1
  Ba  Ba2  1  0.356836  0.250977  0.699052  1
  Ba  Ba3  1  0.644450  0.749987  0.299938  1
  Ba  Ba4  1  0.184020  0.034928  0.926333  1
  Ba  Ba5  1  0.332219  0.749270  0.712987  1
  Ba  Ba6  1  0.668526  0.250239  0.285832  1
  Ba  Ba7  1  0.829780  0.251589  0.784871  1
  Ba  Ba8  1  0.168565  0.749051  0.214977  1
  Sr  Sr9  1  0.042941  0.749945  0.501035  1
  Sr  Sr10  1  0.956870  0.250010  0.498154  1
  Sr  Sr11  1  0.546761  0.252488  0.999255  1
  Sr  Sr12  1  0.458815  0.748066  0.001890  1
  Sr  Sr13  1  0.683654  0.534286  0.573313  1
  Sr  Sr14  1  0.316766  0.466061  0.426184  1
  Sr  Sr15  1  0.183379  0.467011  0.926884  1
  Sr  Sr16  1  0.316104  0.034036  0.426492  1
  Sr  Sr17  1  0.816908  0.535208  0.074358  1
  Sr  Sr18  1  0.684074  0.965858  0.573648  1
  Sr  Sr19  1  0.813677  0.966261  0.074897  1
  Bi  Bi20  1  0.558896  0.508566  0.833654  1
  Bi  Bi21  1  0.440595  0.491924  0.166173  1
  Bi  Bi22  1  0.059683  0.491471  0.665947  1
  Bi  Bi23  1  0.441249  0.007608  0.166087  1
  Bi  Bi24  1  0.940424  0.508014  0.334769  1
  Bi  Bi25  1  0.564463  0.991364  0.832863  1
  Bi  Bi26  1  0.940517  0.991824  0.333335  1
  Bi  Bi27  1  0.059018  0.007911  0.663048  1
  As  As28  1  0.071977  0.743858  0.987480  1
  As  As29  1  0.919486  0.252496  0.016093  1
  As  As30  1  0.576664  0.250213  0.514957  1
  As  As31  1  0.423992  0.749792  0.484942  1
