# generated using pymatgen
data_Ce2Nd3CdSn3
_symmetry_space_group_name_H-M   'P 1'
_cell_length_a   9.62029100
_cell_length_b   9.62029127
_cell_length_c   6.57869700
_cell_angle_alpha   90.00000000
_cell_angle_beta   90.00000000
_cell_angle_gamma   119.99999563
_symmetry_Int_Tables_number   1
_chemical_formula_structural   Ce2Nd3CdSn3
_chemical_formula_sum   'Ce4 Nd6 Cd2 Sn6'
_cell_volume   527.28688006
_cell_formula_units_Z   2
loop_
 _symmetry_equiv_pos_site_id
 _symmetry_equiv_pos_as_xyz
  1  'x, y, z'
loop_
 _atom_site_type_symbol
 _atom_site_label
 _atom_site_symmetry_multiplicity
 _atom_site_fract_x
 _atom_site_fract_y
 _atom_site_fract_z
 _atom_site_occupancy
  Ce  Ce0  1  0.333333  0.666667  0.500000  1
  Ce  Ce1  1  0.666667  0.333333  0.500000  1
  Ce  Ce2  1  0.666667  0.333333  0.000000  1
  Ce  Ce3  1  0.333333  0.666667  0.000000  1
  Nd  Nd4  1  0.293360  0.000000  0.750000  1
  Nd  Nd5  1  0.706640  0.000000  0.250000  1
  Nd  Nd6  1  0.000000  0.293360  0.750000  1
  Nd  Nd7  1  0.000000  0.706640  0.250000  1
  Nd  Nd8  1  0.706640  0.706640  0.750000  1
  Nd  Nd9  1  0.293360  0.293360  0.250000  1
  Cd  Cd10  1  0.000000  0.000000  0.500000  1
  Cd  Cd11  1  0.000000  0.000000  0.000000  1
  Sn  Sn12  1  0.633271  0.000000  0.750000  1
  Sn  Sn13  1  0.366729  0.000000  0.250000  1
  Sn  Sn14  1  0.000000  0.633271  0.750000  1
  Sn  Sn15  1  0.000000  0.366729  0.250000  1
  Sn  Sn16  1  0.366729  0.366729  0.750000  1
  Sn  Sn17  1  0.633271  0.633271  0.250000  1
