# generated using pymatgen
data_Sr3Cu2Pd7
_symmetry_space_group_name_H-M   'P 1'
_cell_length_a   9.26092018
_cell_length_b   9.26091858
_cell_length_c   9.26092006
_cell_angle_alpha   34.80072141
_cell_angle_beta   34.80073711
_cell_angle_gamma   34.80072950
_symmetry_Int_Tables_number   1
_chemical_formula_structural   Sr3Cu2Pd7
_chemical_formula_sum   'Sr3 Cu2 Pd7'
_cell_volume   230.91948831
_cell_formula_units_Z   1
loop_
 _symmetry_equiv_pos_site_id
 _symmetry_equiv_pos_as_xyz
  1  'x, y, z'
loop_
 _atom_site_type_symbol
 _atom_site_label
 _atom_site_symmetry_multiplicity
 _atom_site_fract_x
 _atom_site_fract_y
 _atom_site_fract_z
 _atom_site_occupancy
  Sr  Sr0  1  0.359788  0.359788  0.359788  1
  Sr  Sr1  1  0.500000  0.500000  0.500000  1
  Sr  Sr2  1  0.640212  0.640212  0.640212  1
  Cu  Cu3  1  0.166807  0.166807  0.166807  1
  Cu  Cu4  1  0.833193  0.833193  0.833193  1
  Pd  Pd5  1  0.000000  0.000000  0.000000  1
  Pd  Pd6  1  0.578755  0.079346  0.079346  1
  Pd  Pd7  1  0.079346  0.578755  0.079346  1
  Pd  Pd8  1  0.920654  0.920654  0.421245  1
  Pd  Pd9  1  0.079346  0.079346  0.578755  1
  Pd  Pd10  1  0.920654  0.421245  0.920654  1
  Pd  Pd11  1  0.421245  0.920654  0.920654  1
