# generated using pymatgen
data_DyY3In3Co2
_symmetry_space_group_name_H-M   'P 1'
_cell_length_a   3.66796600
_cell_length_b   7.34802157
_cell_length_c   8.16193188
_cell_angle_alpha   71.94181336
_cell_angle_beta   90.00000000
_cell_angle_gamma   90.00000000
_symmetry_Int_Tables_number   1
_chemical_formula_structural   DyY3In3Co2
_chemical_formula_sum   'Dy1 Y3 In3 Co2'
_cell_volume   209.14691491
_cell_formula_units_Z   1
loop_
 _symmetry_equiv_pos_site_id
 _symmetry_equiv_pos_as_xyz
  1  'x, y, z'
loop_
 _atom_site_type_symbol
 _atom_site_label
 _atom_site_symmetry_multiplicity
 _atom_site_fract_x
 _atom_site_fract_y
 _atom_site_fract_z
 _atom_site_occupancy
  Dy  Dy0  1  0.500000  0.607923  0.681507  1
  Y  Y1  1  0.500000  0.910128  0.222645  1
  Y  Y2  1  0.500000  0.089510  0.777564  1
  Y  Y3  1  0.500000  0.391216  0.316798  1
  In  In4  1  0.000000  0.704767  0.007178  1
  In  In5  1  0.000000  0.295521  0.992213  1
  In  In6  1  0.000000  0.999820  0.499991  1
  Co  Co7  1  0.000000  0.649782  0.398563  1
  Co  Co8  1  0.000000  0.351331  0.603541  1
