# generated using pymatgen
data_PrNd2(AlNi)3
_symmetry_space_group_name_H-M   'P 1'
_cell_length_a   7.06737600
_cell_length_b   7.05205537
_cell_length_c   4.07542500
_cell_angle_alpha   90.00000000
_cell_angle_beta   90.00000000
_cell_angle_gamma   120.07189198
_symmetry_Int_Tables_number   1
_chemical_formula_structural   PrNd2(AlNi)3
_chemical_formula_sum   'Pr1 Nd2 Al3 Ni3'
_cell_volume   175.77713234
_cell_formula_units_Z   1
loop_
 _symmetry_equiv_pos_site_id
 _symmetry_equiv_pos_as_xyz
  1  'x, y, z'
loop_
 _atom_site_type_symbol
 _atom_site_label
 _atom_site_symmetry_multiplicity
 _atom_site_fract_x
 _atom_site_fract_y
 _atom_site_fract_z
 _atom_site_occupancy
  Pr  Pr0  1  0.420271  0.000000  0.500000  1
  Nd  Nd1  1  0.999580  0.419359  0.500000  1
  Nd  Nd2  1  0.580221  0.580641  0.500000  1
  Al  Al3  1  0.998616  0.771030  0.000000  1
  Al  Al4  1  0.227586  0.228970  0.000000  1
  Al  Al5  1  0.773047  0.000000  0.000000  1
  Ni  Ni6  1  0.333117  0.665682  0.000000  1
  Ni  Ni7  1  0.667437  0.334318  0.000000  1
  Ni  Ni8  1  0.000125  0.000000  0.500000  1
