# generated using pymatgen
data_LaPr5YRh3
_symmetry_space_group_name_H-M   'P 1'
_cell_length_a   6.48069882
_cell_length_b   10.20861528
_cell_length_c   10.13179569
_cell_angle_alpha   120.24832840
_cell_angle_beta   90.08985849
_cell_angle_gamma   90.00323592
_symmetry_Int_Tables_number   1
_chemical_formula_structural   LaPr5YRh3
_chemical_formula_sum   'La2 Pr10 Y2 Rh6'
_cell_volume   579.04564105
_cell_formula_units_Z   2
loop_
 _symmetry_equiv_pos_site_id
 _symmetry_equiv_pos_as_xyz
  1  'x, y, z'
loop_
 _atom_site_type_symbol
 _atom_site_label
 _atom_site_symmetry_multiplicity
 _atom_site_fract_x
 _atom_site_fract_y
 _atom_site_fract_z
 _atom_site_occupancy
  La  La0  1  0.253345  0.127171  0.875467  1
  La  La1  1  0.253317  0.748229  0.875368  1
  Pr  Pr2  1  0.250318  0.126835  0.253668  1
  Pr  Pr3  1  0.752385  0.875466  0.127098  1
  Pr  Pr4  1  0.752456  0.251628  0.127098  1
  Pr  Pr5  1  0.751751  0.873716  0.747422  1
  Pr  Pr6  1  0.437528  0.539311  0.459966  1
  Pr  Pr7  1  0.437561  0.920643  0.459972  1
  Pr  Pr8  1  0.436173  0.539420  0.078849  1
  Pr  Pr9  1  0.935957  0.460050  0.539789  1
  Pr  Pr10  1  0.935961  0.079723  0.539757  1
  Pr  Pr11  1  0.931126  0.460447  0.920853  1
  Y  Y12  1  0.468583  0.332682  0.665330  1
  Y  Y13  1  0.972533  0.666709  0.333445  1
  Rh  Rh14  1  0.187828  0.808724  0.184350  1
  Rh  Rh15  1  0.187878  0.375609  0.184303  1
  Rh  Rh16  1  0.190080  0.813758  0.627486  1
  Rh  Rh17  1  0.681594  0.188770  0.810407  1
  Rh  Rh18  1  0.681618  0.621616  0.810391  1
  Rh  Rh19  1  0.688013  0.189493  0.378983  1
