# generated using pymatgen
data_Lu4Co5
_symmetry_space_group_name_H-M   'P 1'
_cell_length_a   5.32868403
_cell_length_b   5.32868386
_cell_length_c   8.55801220
_cell_angle_alpha   72.76564970
_cell_angle_beta   72.76565080
_cell_angle_gamma   43.57171950
_symmetry_Int_Tables_number   1
_chemical_formula_structural   Lu4Co5
_chemical_formula_sum   'Lu4 Co5'
_cell_volume   158.73855120
_cell_formula_units_Z   1
loop_
 _symmetry_equiv_pos_site_id
 _symmetry_equiv_pos_as_xyz
  1  'x, y, z'
loop_
 _atom_site_type_symbol
 _atom_site_label
 _atom_site_symmetry_multiplicity
 _atom_site_fract_x
 _atom_site_fract_y
 _atom_site_fract_z
 _atom_site_occupancy
  Lu  Lu0  1  0.739013  0.739013  0.660525  1
  Lu  Lu1  1  0.260987  0.260987  0.339475  1
  Lu  Lu2  1  0.388692  0.388692  0.881551  1
  Lu  Lu3  1  0.611308  0.611308  0.118449  1
  Co  Co4  1  0.500000  0.500000  0.500000  1
  Co  Co5  1  0.033837  0.033837  0.636261  1
  Co  Co6  1  0.966163  0.966163  0.363739  1
  Co  Co7  1  0.089150  0.089150  0.877618  1
  Co  Co8  1  0.910850  0.910850  0.122382  1
