# generated using pymatgen
data_Ta3Si2GeMo3
_symmetry_space_group_name_H-M   'P 1'
_cell_length_a   7.00799700
_cell_length_b   7.00799688
_cell_length_c   3.33064600
_cell_angle_alpha   90.00000000
_cell_angle_beta   90.00000000
_cell_angle_gamma   120.00000530
_symmetry_Int_Tables_number   1
_chemical_formula_structural   Ta3Si2GeMo3
_chemical_formula_sum   'Ta3 Si2 Ge1 Mo3'
_cell_volume   141.65988704
_cell_formula_units_Z   1
loop_
 _symmetry_equiv_pos_site_id
 _symmetry_equiv_pos_as_xyz
  1  'x, y, z'
loop_
 _atom_site_type_symbol
 _atom_site_label
 _atom_site_symmetry_multiplicity
 _atom_site_fract_x
 _atom_site_fract_y
 _atom_site_fract_z
 _atom_site_occupancy
  Ta  Ta0  1  0.393883  0.403868  0.500000  1
  Ta  Ta1  1  0.596132  0.990015  0.500000  1
  Ta  Ta2  1  0.009985  0.606117  0.500000  1
  Si  Si3  1  0.333333  0.666667  0.000000  1
  Si  Si4  1  0.000000  0.000000  0.500000  1
  Ge  Ge5  1  0.666667  0.333333  0.000000  1
  Mo  Mo6  1  0.739315  0.743446  0.000000  1
  Mo  Mo7  1  0.256554  0.995869  0.000000  1
  Mo  Mo8  1  0.004131  0.260685  0.000000  1
