# generated using pymatgen
data_NdH2Cl
_symmetry_space_group_name_H-M   'P 1'
_cell_length_a   10.64173434
_cell_length_b   10.64173441
_cell_length_c   10.64173364
_cell_angle_alpha   21.12864901
_cell_angle_beta   21.12864631
_cell_angle_gamma   21.12864753
_symmetry_Int_Tables_number   1
_chemical_formula_structural   NdH2Cl
_chemical_formula_sum   'Nd2 H4 Cl2'
_cell_volume   137.14563123
_cell_formula_units_Z   2
loop_
 _symmetry_equiv_pos_site_id
 _symmetry_equiv_pos_as_xyz
  1  'x, y, z'
loop_
 _atom_site_type_symbol
 _atom_site_label
 _atom_site_symmetry_multiplicity
 _atom_site_fract_x
 _atom_site_fract_y
 _atom_site_fract_z
 _atom_site_occupancy
  Nd  Nd0  1  0.887742  0.887742  0.887742  1
  Nd  Nd1  1  0.112258  0.112258  0.112258  1
  H  H2  1  0.813282  0.813282  0.813282  1
  H  H3  1  0.186718  0.186718  0.186718  1
  H  H4  1  0.546199  0.546199  0.546199  1
  H  H5  1  0.453801  0.453801  0.453801  1
  Cl  Cl6  1  0.721394  0.721394  0.721394  1
  Cl  Cl7  1  0.278606  0.278606  0.278606  1
