# generated using pymatgen
data_Er5In4PtRh
_symmetry_space_group_name_H-M   'P 1'
_cell_length_a   3.60275900
_cell_length_b   8.08128413
_cell_length_c   18.11889671
_cell_angle_alpha   90.08289197
_cell_angle_beta   90.00000000
_cell_angle_gamma   90.00000000
_symmetry_Int_Tables_number   1
_chemical_formula_structural   Er5In4PtRh
_chemical_formula_sum   'Er10 In8 Pt2 Rh2'
_cell_volume   527.52966025
_cell_formula_units_Z   2
loop_
 _symmetry_equiv_pos_site_id
 _symmetry_equiv_pos_as_xyz
  1  'x, y, z'
loop_
 _atom_site_type_symbol
 _atom_site_label
 _atom_site_symmetry_multiplicity
 _atom_site_fract_x
 _atom_site_fract_y
 _atom_site_fract_z
 _atom_site_occupancy
  Er  Er0  1  0.000000  0.115435  0.412569  1
  Er  Er1  1  0.000000  0.884565  0.587431  1
  Er  Er2  1  0.000000  0.382912  0.913546  1
  Er  Er3  1  0.000000  0.617088  0.086454  1
  Er  Er4  1  0.000000  0.239726  0.221256  1
  Er  Er5  1  0.000000  0.760274  0.778744  1
  Er  Er6  1  0.000000  0.251998  0.720464  1
  Er  Er7  1  0.000000  0.748002  0.279536  1
  Er  Er8  1  0.000000  0.000000  0.000000  1
  Er  Er9  1  0.000000  0.500000  0.500000  1
  In  In10  1  0.500000  0.422989  0.351526  1
  In  In11  1  0.500000  0.577011  0.648474  1
  In  In12  1  0.500000  0.073269  0.850335  1
  In  In13  1  0.500000  0.926731  0.149665  1
  In  In14  1  0.500000  0.291954  0.066142  1
  In  In15  1  0.500000  0.708046  0.933858  1
  In  In16  1  0.500000  0.206616  0.567385  1
  In  In17  1  0.500000  0.793384  0.432615  1
  Pt  Pt18  1  0.500000  0.478061  0.803713  1
  Pt  Pt19  1  0.500000  0.521939  0.196287  1
  Rh  Rh20  1  0.500000  0.022314  0.304428  1
  Rh  Rh21  1  0.500000  0.977686  0.695572  1
