# generated using pymatgen
data_MnFe2(NiPt2)3
_symmetry_space_group_name_H-M   'P 1'
_cell_length_a   3.70347700
_cell_length_b   3.86279700
_cell_length_c   11.60998700
_cell_angle_alpha   90.00000000
_cell_angle_beta   90.00000000
_cell_angle_gamma   90.00000000
_symmetry_Int_Tables_number   1
_chemical_formula_structural   MnFe2(NiPt2)3
_chemical_formula_sum   'Mn1 Fe2 Ni3 Pt6'
_cell_volume   166.08991803
_cell_formula_units_Z   1
loop_
 _symmetry_equiv_pos_site_id
 _symmetry_equiv_pos_as_xyz
  1  'x, y, z'
loop_
 _atom_site_type_symbol
 _atom_site_label
 _atom_site_symmetry_multiplicity
 _atom_site_fract_x
 _atom_site_fract_y
 _atom_site_fract_z
 _atom_site_occupancy
  Mn  Mn0  1  0.000000  0.000000  0.000000  1
  Fe  Fe1  1  0.000000  0.000000  0.332756  1
  Fe  Fe2  1  0.000000  0.000000  0.667244  1
  Ni  Ni3  1  0.000000  0.500000  0.169908  1
  Ni  Ni4  1  0.000000  0.500000  0.500000  1
  Ni  Ni5  1  0.000000  0.500000  0.830092  1
  Pt  Pt6  1  0.500000  0.500000  0.000000  1
  Pt  Pt7  1  0.500000  0.500000  0.334939  1
  Pt  Pt8  1  0.500000  0.500000  0.665061  1
  Pt  Pt9  1  0.500000  0.000000  0.168556  1
  Pt  Pt10  1  0.500000  0.000000  0.500000  1
  Pt  Pt11  1  0.500000  0.000000  0.831444  1
