# generated using pymatgen
data_Dy4HoThRh18
_symmetry_space_group_name_H-M   'P 1'
_cell_length_a   5.25833400
_cell_length_b   5.25813923
_cell_length_c   17.58048700
_cell_angle_alpha   90.00000000
_cell_angle_beta   90.00000000
_cell_angle_gamma   119.99893536
_symmetry_Int_Tables_number   1
_chemical_formula_structural   Dy4HoThRh18
_chemical_formula_sum   'Dy4 Ho1 Th1 Rh18'
_cell_volume   420.96543884
_cell_formula_units_Z   1
loop_
 _symmetry_equiv_pos_site_id
 _symmetry_equiv_pos_as_xyz
  1  'x, y, z'
loop_
 _atom_site_type_symbol
 _atom_site_label
 _atom_site_symmetry_multiplicity
 _atom_site_fract_x
 _atom_site_fract_y
 _atom_site_fract_z
 _atom_site_occupancy
  Dy  Dy0  1  0.333330  0.666665  0.957347  1
  Dy  Dy1  1  0.666670  0.333335  0.039896  1
  Dy  Dy2  1  0.666672  0.333334  0.460274  1
  Dy  Dy3  1  0.333335  0.666668  0.749905  1
  Ho  Ho4  1  0.333343  0.666665  0.542803  1
  Th  Th5  1  0.666656  0.333333  0.249999  1
  Rh  Rh6  1  0.167330  0.832675  0.375433  1
  Rh  Rh7  1  0.167333  0.334655  0.375432  1
  Rh  Rh8  1  0.665348  0.832672  0.375429  1
  Rh  Rh9  1  0.832631  0.167367  0.625735  1
  Rh  Rh10  1  0.832634  0.665267  0.625736  1
  Rh  Rh11  1  0.334729  0.167367  0.625737  1
  Rh  Rh12  1  0.832638  0.167356  0.874087  1
  Rh  Rh13  1  0.832640  0.665283  0.874085  1
  Rh  Rh14  1  0.334711  0.167356  0.874084  1
  Rh  Rh15  1  0.167293  0.832724  0.124667  1
  Rh  Rh16  1  0.167290  0.334566  0.124667  1
  Rh  Rh17  1  0.665441  0.832715  0.124672  1
  Rh  Rh18  1  0.333308  0.666660  0.250021  1
  Rh  Rh19  1  0.666668  0.333332  0.749950  1
  Rh  Rh20  1  0.000010  0.000009  0.250074  1
  Rh  Rh21  1  0.999998  0.000001  0.749938  1
  Rh  Rh22  1  0.999996  0.999995  0.500308  1
  Rh  Rh23  1  0.999995  0.999998  0.999721  1
