# generated using pymatgen
data_Cs4Rb2(Ti2S9)3
_symmetry_space_group_name_H-M   'P 1'
_cell_length_a   10.42205051
_cell_length_b   10.51482466
_cell_length_c   10.27038700
_cell_angle_alpha   83.67973230
_cell_angle_beta   82.31581468
_cell_angle_gamma   83.04184088
_symmetry_Int_Tables_number   1
_chemical_formula_structural   Cs4Rb2(Ti2S9)3
_chemical_formula_sum   'Cs4 Rb2 Ti6 S27'
_cell_volume   1102.11516186
_cell_formula_units_Z   1
loop_
 _symmetry_equiv_pos_site_id
 _symmetry_equiv_pos_as_xyz
  1  'x, y, z'
loop_
 _atom_site_type_symbol
 _atom_site_label
 _atom_site_symmetry_multiplicity
 _atom_site_fract_x
 _atom_site_fract_y
 _atom_site_fract_z
 _atom_site_occupancy
  Cs  Cs0  1  0.786044  0.166341  0.434738  1
  Cs  Cs1  1  0.231206  0.231936  0.235181  1
  Cs  Cs2  1  0.159388  0.431150  0.793049  1
  Cs  Cs3  1  0.987384  0.994576  0.991889  1
  Rb  Rb4  1  0.639802  0.640397  0.647165  1
  Rb  Rb5  1  0.417188  0.776454  0.159111  1
  Ti  Ti6  1  0.867382  0.529448  0.174026  1
  Ti  Ti7  1  0.999573  0.725944  0.334844  1
  Ti  Ti8  1  0.525680  0.175590  0.870386  1
  Ti  Ti9  1  0.722746  0.339870  0.997978  1
  Ti  Ti10  1  0.339632  0.995410  0.726614  1
  Ti  Ti11  1  0.181403  0.867243  0.523112  1
  S  S12  1  0.911449  0.314995  0.111210  1
  S  S13  1  0.406799  0.900733  0.492202  1
  S  S14  1  0.817730  0.782337  0.212305  1
  S  S15  1  0.714512  0.500549  0.365311  1
  S  S16  1  0.781334  0.210068  0.817221  1
  S  S17  1  0.400085  0.784765  0.828327  1
  S  S18  1  0.181658  0.556207  0.318508  1
  S  S19  1  0.598380  0.160911  0.098804  1
  S  S20  1  0.333855  0.173613  0.553758  1
  S  S21  1  0.031413  0.704629  0.575576  1
  S  S22  1  0.698321  0.576688  0.028986  1
  S  S23  1  0.309602  0.115077  0.914611  1
  S  S24  1  0.499032  0.356397  0.710236  1
  S  S25  1  0.966275  0.880558  0.648525  1
  S  S26  1  0.118609  0.910264  0.306190  1
  S  S27  1  0.367098  0.711878  0.492846  1
  S  S28  1  0.645406  0.962814  0.887309  1
  S  S29  1  0.873689  0.649204  0.957467  1
  S  S30  1  0.160048  0.090926  0.600254  1
  S  S31  1  0.906197  0.498900  0.400302  1
  S  S32  1  0.787445  0.824189  0.406767  1
  S  S33  1  0.210631  0.819312  0.783065  1
  S  S34  1  0.494099  0.399670  0.903252  1
  S  S35  1  0.822219  0.399022  0.779582  1
  S  S36  1  0.578982  0.022000  0.706263  1
  S  S37  1  0.550434  0.333913  0.183157  1
  S  S38  1  0.094014  0.602764  0.146613  1
