# generated using pymatgen
data_Tm5LuPa2(ReB6)4
_symmetry_space_group_name_H-M   'P 1'
_cell_length_a   3.67240600
_cell_length_b   9.11088172
_cell_length_c   11.47614259
_cell_angle_alpha   90.31931621
_cell_angle_beta   90.00000000
_cell_angle_gamma   90.00000000
_symmetry_Int_Tables_number   1
_chemical_formula_structural   Tm5LuPa2(ReB6)4
_chemical_formula_sum   'Tm5 Lu1 Pa2 Re4 B24'
_cell_volume   383.97264719
_cell_formula_units_Z   1
loop_
 _symmetry_equiv_pos_site_id
 _symmetry_equiv_pos_as_xyz
  1  'x, y, z'
loop_
 _atom_site_type_symbol
 _atom_site_label
 _atom_site_symmetry_multiplicity
 _atom_site_fract_x
 _atom_site_fract_y
 _atom_site_fract_z
 _atom_site_occupancy
  Tm  Tm0  1  0.000000  0.823344  0.085300  1
  Tm  Tm1  1  0.000000  0.176643  0.914508  1
  Tm  Tm2  1  0.000000  0.944952  0.372035  1
  Tm  Tm3  1  0.000000  0.055040  0.628103  1
  Tm  Tm4  1  0.000000  0.444064  0.125956  1
  Lu  Lu5  1  0.000000  0.556104  0.873631  1
  Pa  Pa6  1  0.000000  0.321079  0.413256  1
  Pa  Pa7  1  0.000000  0.678931  0.586893  1
  Re  Re8  1  0.000000  0.636148  0.323598  1
  Re  Re9  1  0.000000  0.364086  0.676648  1
  Re  Re10  1  0.000000  0.140462  0.180996  1
  Re  Re11  1  0.000000  0.859098  0.819052  1
  B  B12  1  0.500000  0.554024  0.432897  1
  B  B13  1  0.500000  0.446062  0.567321  1
  B  B14  1  0.500000  0.053284  0.066545  1
  B  B15  1  0.500000  0.946354  0.933372  1
  B  B16  1  0.500000  0.749793  0.419170  1
  B  B17  1  0.500000  0.250306  0.580933  1
  B  B18  1  0.500000  0.248839  0.079531  1
  B  B19  1  0.500000  0.750641  0.920305  1
  B  B20  1  0.500000  0.792500  0.264389  1
  B  B21  1  0.500000  0.207741  0.735716  1
  B  B22  1  0.500000  0.292602  0.233634  1
  B  B23  1  0.500000  0.706977  0.766507  1
  B  B24  1  0.500000  0.631407  0.184195  1
  B  B25  1  0.500000  0.369123  0.815860  1
  B  B26  1  0.500000  0.131357  0.314299  1
  B  B27  1  0.500000  0.868458  0.685818  1
  B  B28  1  0.500000  0.981531  0.211625  1
  B  B29  1  0.500000  0.018336  0.788436  1
  B  B30  1  0.500000  0.482842  0.285967  1
  B  B31  1  0.500000  0.517385  0.714390  1
  B  B32  1  0.500000  0.603333  0.028253  1
  B  B33  1  0.500000  0.397186  0.970760  1
  B  B34  1  0.500000  0.106958  0.470461  1
  B  B35  1  0.500000  0.893013  0.529641  1
