# generated using pymatgen
data_Tm5LuFe3Si6Ru
_symmetry_space_group_name_H-M   'P 1'
_cell_length_a   5.59436402
_cell_length_b   5.59436628
_cell_length_c   13.48161150
_cell_angle_alpha   89.83358523
_cell_angle_beta   90.16641517
_cell_angle_gamma   137.20142206
_symmetry_Int_Tables_number   1
_chemical_formula_structural   Tm5LuFe3Si6Ru
_chemical_formula_sum   'Tm5 Lu1 Fe3 Si6 Ru1'
_cell_volume   286.66958542
_cell_formula_units_Z   1
loop_
 _symmetry_equiv_pos_site_id
 _symmetry_equiv_pos_as_xyz
  1  'x, y, z'
loop_
 _atom_site_type_symbol
 _atom_site_label
 _atom_site_symmetry_multiplicity
 _atom_site_fract_x
 _atom_site_fract_y
 _atom_site_fract_z
 _atom_site_occupancy
  Tm  Tm0  1  0.362518  0.637482  0.750790  1
  Tm  Tm1  1  0.919317  0.080683  0.111987  1
  Tm  Tm2  1  0.079488  0.920512  0.889967  1
  Tm  Tm3  1  0.079646  0.920354  0.613257  1
  Tm  Tm4  1  0.922017  0.077983  0.384475  1
  Lu  Lu5  1  0.638460  0.361540  0.248819  1
  Fe  Fe6  1  0.213038  0.786962  0.418145  1
  Fe  Fe7  1  0.214004  0.785996  0.081407  1
  Fe  Fe8  1  0.785254  0.214746  0.920439  1
  Si  Si9  1  0.325974  0.674026  0.249300  1
  Si  Si10  1  0.671865  0.328135  0.754674  1
  Si  Si11  1  0.623957  0.376043  0.040174  1
  Si  Si12  1  0.375493  0.624507  0.961048  1
  Si  Si13  1  0.382938  0.617062  0.535137  1
  Si  Si14  1  0.619444  0.380556  0.457281  1
  Ru  Ru15  1  0.786588  0.213412  0.583101  1
