# generated using pymatgen
data_Dy19Er(BiPb3)4
_symmetry_space_group_name_H-M   'P 1'
_cell_length_a   8.28344533
_cell_length_b   8.29655255
_cell_length_c   15.60715021
_cell_angle_alpha   90.07500089
_cell_angle_beta   89.94441055
_cell_angle_gamma   89.93196045
_symmetry_Int_Tables_number   1
_chemical_formula_structural   Dy19Er(BiPb3)4
_chemical_formula_sum   'Dy19 Er1 Bi4 Pb12'
_cell_volume   1072.58422495
_cell_formula_units_Z   1
loop_
 _symmetry_equiv_pos_site_id
 _symmetry_equiv_pos_as_xyz
  1  'x, y, z'
loop_
 _atom_site_type_symbol
 _atom_site_label
 _atom_site_symmetry_multiplicity
 _atom_site_fract_x
 _atom_site_fract_y
 _atom_site_fract_z
 _atom_site_occupancy
  Dy  Dy0  1  0.381620  0.841931  0.877833  1
  Dy  Dy1  1  0.881711  0.657995  0.622355  1
  Dy  Dy2  1  0.618089  0.157802  0.377542  1
  Dy  Dy3  1  0.118495  0.341935  0.122524  1
  Dy  Dy4  1  0.624270  0.159241  0.121642  1
  Dy  Dy5  1  0.124494  0.340488  0.378261  1
  Dy  Dy6  1  0.375613  0.840644  0.621387  1
  Dy  Dy7  1  0.875503  0.659384  0.878380  1
  Dy  Dy8  1  0.551014  0.330336  0.894581  1
  Dy  Dy9  1  0.051143  0.169749  0.605231  1
  Dy  Dy10  1  0.448726  0.670013  0.394597  1
  Dy  Dy11  1  0.949072  0.830344  0.105347  1
  Dy  Dy12  1  0.462839  0.671539  0.103127  1
  Dy  Dy13  1  0.963076  0.828694  0.396799  1
  Dy  Dy14  1  0.537037  0.328648  0.603217  1
  Dy  Dy15  1  0.036902  0.171361  0.897083  1
  Dy  Dy16  1  0.210939  0.500879  0.747738  1
  Dy  Dy17  1  0.710897  0.998953  0.752241  1
  Dy  Dy18  1  0.789284  0.499207  0.247737  1
  Er  Er19  1  0.289092  0.001514  0.252416  1
  Bi  Bi20  1  0.275392  0.025795  0.045599  1
  Bi  Bi21  1  0.775284  0.473804  0.454970  1
  Bi  Bi22  1  0.724748  0.973941  0.544945  1
  Bi  Bi23  1  0.224538  0.526012  0.955088  1
  Pb  Pb24  1  0.719984  0.969898  0.956545  1
  Pb  Pb25  1  0.220137  0.529729  0.543371  1
  Pb  Pb26  1  0.279719  0.029576  0.456161  1
  Pb  Pb27  1  0.779813  0.470084  0.043371  1
  Pb  Pb28  1  0.573150  0.628088  0.748478  1
  Pb  Pb29  1  0.073306  0.871941  0.751466  1
  Pb  Pb30  1  0.426680  0.372256  0.248541  1
  Pb  Pb31  1  0.927147  0.127534  0.251419  1
  Pb  Pb32  1  0.353421  0.151466  0.751327  1
  Pb  Pb33  1  0.853722  0.347977  0.748808  1
  Pb  Pb34  1  0.646128  0.848323  0.251136  1
  Pb  Pb35  1  0.147012  0.652918  0.248738  1
