# generated using pymatgen
data_La20Ir5Ru4Au3
_symmetry_space_group_name_H-M   'P 1'
_cell_length_a   11.45866839
_cell_length_b   11.45866819
_cell_length_c   6.70455300
_cell_angle_alpha   90.07334814
_cell_angle_beta   90.07334814
_cell_angle_gamma   90.19845479
_symmetry_Int_Tables_number   1
_chemical_formula_structural   La20Ir5Ru4Au3
_chemical_formula_sum   'La20 Ir5 Ru4 Au3'
_cell_volume   880.30831463
_cell_formula_units_Z   1
loop_
 _symmetry_equiv_pos_site_id
 _symmetry_equiv_pos_as_xyz
  1  'x, y, z'
loop_
 _atom_site_type_symbol
 _atom_site_label
 _atom_site_symmetry_multiplicity
 _atom_site_fract_x
 _atom_site_fract_y
 _atom_site_fract_z
 _atom_site_occupancy
  La  La0  1  0.299829  0.085285  0.364531  1
  La  La1  1  0.297323  0.904348  0.879833  1
  La  La2  1  0.698326  0.091525  0.865683  1
  La  La3  1  0.694761  0.905904  0.365302  1
  La  La4  1  0.580633  0.790852  0.884930  1
  La  La5  1  0.581482  0.209546  0.383802  1
  La  La6  1  0.407069  0.791735  0.385036  1
  La  La7  1  0.417068  0.208504  0.883380  1
  La  La8  1  0.209148  0.419367  0.615070  1
  La  La9  1  0.208265  0.592931  0.114964  1
  La  La10  1  0.790454  0.418518  0.116198  1
  La  La11  1  0.791496  0.582932  0.616620  1
  La  La12  1  0.914715  0.700171  0.135469  1
  La  La13  1  0.908475  0.301674  0.634317  1
  La  La14  1  0.095652  0.702677  0.620167  1
  La  La15  1  0.094096  0.305239  0.134698  1
  La  La16  1  0.005656  0.993420  0.496885  1
  La  La17  1  0.006580  0.994344  0.003115  1
  La  La18  1  0.498706  0.500082  0.001482  1
  La  La19  1  0.499918  0.501294  0.498518  1
  Ir  Ir20  1  0.151328  0.848672  0.250000  1
  Ir  Ir21  1  0.652761  0.347239  0.750000  1
  Ir  Ir22  1  0.654606  0.652151  0.248701  1
  Ir  Ir23  1  0.347849  0.345394  0.251299  1
  Ir  Ir24  1  0.347058  0.652942  0.750000  1
  Ru  Ru25  1  0.501656  0.000142  0.115631  1
  Ru  Ru26  1  0.500727  0.000649  0.616431  1
  Ru  Ru27  1  0.999351  0.499273  0.883569  1
  Ru  Ru28  1  0.999858  0.498344  0.384369  1
  Au  Au29  1  0.845257  0.154743  0.250000  1
  Au  Au30  1  0.842255  0.842357  0.749609  1
  Au  Au31  1  0.157643  0.157745  0.750391  1
