# generated using pymatgen
data_Ho10Tm2InCo4Os
_symmetry_space_group_name_H-M   'P 1'
_cell_length_a   8.23038557
_cell_length_b   8.23834503
_cell_length_c   8.23038557
_cell_angle_alpha   111.51455537
_cell_angle_beta   110.50531066
_cell_angle_gamma   106.39993986
_symmetry_Int_Tables_number   1
_chemical_formula_structural   Ho10Tm2InCo4Os
_chemical_formula_sum   'Ho10 Tm2 In1 Co4 Os1'
_cell_volume   428.84925232
_cell_formula_units_Z   1
loop_
 _symmetry_equiv_pos_site_id
 _symmetry_equiv_pos_as_xyz
  1  'x, y, z'
loop_
 _atom_site_type_symbol
 _atom_site_label
 _atom_site_symmetry_multiplicity
 _atom_site_fract_x
 _atom_site_fract_y
 _atom_site_fract_z
 _atom_site_occupancy
  Ho  Ho0  1  0.415935  0.221083  0.193215  1
  Ho  Ho1  1  0.584065  0.778917  0.806785  1
  Ho  Ho2  1  0.027867  0.221083  0.805149  1
  Ho  Ho3  1  0.972133  0.778917  0.194851  1
  Ho  Ho4  1  0.180642  0.278579  0.461040  1
  Ho  Ho5  1  0.819358  0.721421  0.538960  1
  Ho  Ho6  1  0.182462  0.721421  0.902063  1
  Ho  Ho7  1  0.817538  0.278579  0.097937  1
  Ho  Ho8  1  0.315064  0.621489  0.306425  1
  Ho  Ho9  1  0.684936  0.378511  0.693575  1
  Tm  Tm10  1  0.315269  0.008033  0.692765  1
  Tm  Tm11  1  0.684731  0.991967  0.307235  1
  In  In12  1  0.500000  0.500000  0.000000  1
  Co  Co13  1  0.376176  0.000000  0.376176  1
  Co  Co14  1  0.623824  0.000000  0.623824  1
  Co  Co15  1  0.111504  0.611841  0.500337  1
  Co  Co16  1  0.888496  0.388159  0.499663  1
  Os  Os17  1  0.000000  0.000000  0.000000  1
