# generated using pymatgen
data_Er5GaNiBi
_symmetry_space_group_name_H-M   'P 1'
_cell_length_a   8.51661648
_cell_length_b   8.51661636
_cell_length_c   8.69188316
_cell_angle_alpha   125.06674268
_cell_angle_beta   125.06673855
_cell_angle_gamma   80.05472920
_symmetry_Int_Tables_number   1
_chemical_formula_structural   Er5GaNiBi
_chemical_formula_sum   'Er10 Ga2 Ni2 Bi2'
_cell_volume   410.52576401
_cell_formula_units_Z   2
loop_
 _symmetry_equiv_pos_site_id
 _symmetry_equiv_pos_as_xyz
  1  'x, y, z'
loop_
 _atom_site_type_symbol
 _atom_site_label
 _atom_site_symmetry_multiplicity
 _atom_site_fract_x
 _atom_site_fract_y
 _atom_site_fract_z
 _atom_site_occupancy
  Er  Er0  1  0.000000  0.000000  0.000000  1
  Er  Er1  1  0.500000  0.500000  0.000000  1
  Er  Er2  1  0.779545  0.279545  0.789363  1
  Er  Er3  1  0.220455  0.720455  0.210637  1
  Er  Er4  1  0.490181  0.990181  0.210637  1
  Er  Er5  1  0.305237  0.461192  0.500000  1
  Er  Er6  1  0.038808  0.194763  0.500000  1
  Er  Er7  1  0.509819  0.009819  0.789363  1
  Er  Er8  1  0.694763  0.538808  0.500000  1
  Er  Er9  1  0.961192  0.805237  0.500000  1
  Ga  Ga10  1  0.139099  0.639099  0.778199  1
  Ga  Ga11  1  0.860901  0.360901  0.221801  1
  Ni  Ni12  1  0.628659  0.871341  0.500000  1
  Ni  Ni13  1  0.371341  0.128659  0.500000  1
  Bi  Bi14  1  0.250000  0.250000  0.000000  1
  Bi  Bi15  1  0.750000  0.750000  0.000000  1
