# generated using pymatgen
data_Pr16CdHg3OsPd3
_symmetry_space_group_name_H-M   'P 1'
_cell_length_a   10.08818690
_cell_length_b   10.11598567
_cell_length_c   10.11598465
_cell_angle_alpha   59.51545006
_cell_angle_beta   59.51849067
_cell_angle_gamma   59.51849491
_symmetry_Int_Tables_number   1
_chemical_formula_structural   Pr16CdHg3OsPd3
_chemical_formula_sum   'Pr16 Cd1 Hg3 Os1 Pd3'
_cell_volume   721.97603410
_cell_formula_units_Z   1
loop_
 _symmetry_equiv_pos_site_id
 _symmetry_equiv_pos_as_xyz
  1  'x, y, z'
loop_
 _atom_site_type_symbol
 _atom_site_label
 _atom_site_symmetry_multiplicity
 _atom_site_fract_x
 _atom_site_fract_y
 _atom_site_fract_z
 _atom_site_occupancy
  Pr  Pr0  1  0.354291  0.353522  0.353522  1
  Pr  Pr1  1  0.349243  0.348996  0.948582  1
  Pr  Pr2  1  0.349243  0.948582  0.348996  1
  Pr  Pr3  1  0.945663  0.349813  0.349813  1
  Pr  Pr4  1  0.816848  0.188912  0.188912  1
  Pr  Pr5  1  0.188012  0.807706  0.807706  1
  Pr  Pr6  1  0.187737  0.817604  0.188709  1
  Pr  Pr7  1  0.806263  0.189565  0.806378  1
  Pr  Pr8  1  0.187737  0.188709  0.817604  1
  Pr  Pr9  1  0.806263  0.806378  0.189565  1
  Pr  Pr10  1  0.936387  0.564480  0.564480  1
  Pr  Pr11  1  0.554966  0.938515  0.938515  1
  Pr  Pr12  1  0.563750  0.937020  0.564531  1
  Pr  Pr13  1  0.937884  0.555699  0.938055  1
  Pr  Pr14  1  0.563750  0.564531  0.937020  1
  Pr  Pr15  1  0.937884  0.938055  0.555699  1
  Cd  Cd16  1  0.261023  0.579495  0.579495  1
  Hg  Hg17  1  0.582339  0.584762  0.584762  1
  Hg  Hg18  1  0.582977  0.585591  0.246170  1
  Hg  Hg19  1  0.582977  0.246170  0.585591  1
  Os  Os20  1  0.143052  0.143628  0.143628  1
  Pd  Pd21  1  0.145421  0.146075  0.570474  1
  Pd  Pd22  1  0.145421  0.570474  0.146075  1
  Pd  Pd23  1  0.570869  0.145715  0.145715  1
