# generated using pymatgen
data_DyErCdNi2
_symmetry_space_group_name_H-M   'P 1'
_cell_length_a   7.30774561
_cell_length_b   7.30774548
_cell_length_c   3.61254300
_cell_angle_alpha   90.00000000
_cell_angle_beta   90.00000000
_cell_angle_gamma   148.70496793
_symmetry_Int_Tables_number   1
_chemical_formula_structural   DyErCdNi2
_chemical_formula_sum   'Dy1 Er1 Cd1 Ni2'
_cell_volume   100.21193504
_cell_formula_units_Z   1
loop_
 _symmetry_equiv_pos_site_id
 _symmetry_equiv_pos_as_xyz
  1  'x, y, z'
loop_
 _atom_site_type_symbol
 _atom_site_label
 _atom_site_symmetry_multiplicity
 _atom_site_fract_x
 _atom_site_fract_y
 _atom_site_fract_z
 _atom_site_occupancy
  Dy  Dy0  1  0.361465  0.638535  0.500000  1
  Er  Er1  1  0.639260  0.360740  0.500000  1
  Cd  Cd2  1  0.000951  0.999049  0.000000  1
  Ni  Ni3  1  0.799920  0.200080  0.000000  1
  Ni  Ni4  1  0.198404  0.801596  0.000000  1
