# generated using pymatgen
data_K8Li4TmSc3As8
_symmetry_space_group_name_H-M   'P 1'
_cell_length_a   10.13013216
_cell_length_b   10.13013328
_cell_length_c   6.59392630
_cell_angle_alpha   90.02615835
_cell_angle_beta   89.97383683
_cell_angle_gamma   98.90370413
_symmetry_Int_Tables_number   1
_chemical_formula_structural   K8Li4TmSc3As8
_chemical_formula_sum   'K8 Li4 Tm1 Sc3 As8'
_cell_volume   668.51196756
_cell_formula_units_Z   1
loop_
 _symmetry_equiv_pos_site_id
 _symmetry_equiv_pos_as_xyz
  1  'x, y, z'
loop_
 _atom_site_type_symbol
 _atom_site_label
 _atom_site_symmetry_multiplicity
 _atom_site_fract_x
 _atom_site_fract_y
 _atom_site_fract_z
 _atom_site_occupancy
  K  K0  1  0.570046  0.930354  0.750420  1
  K  K1  1  0.930354  0.570046  0.249580  1
  K  K2  1  0.430835  0.067181  0.248612  1
  K  K3  1  0.067181  0.430835  0.751388  1
  K  K4  1  0.678694  0.323048  0.785432  1
  K  K5  1  0.823113  0.176597  0.284118  1
  K  K6  1  0.323048  0.678694  0.214568  1
  K  K7  1  0.176597  0.823113  0.715882  1
  Li  Li8  1  0.619937  0.619937  0.000000  1
  Li  Li9  1  0.880599  0.880599  0.500000  1
  Li  Li10  1  0.380744  0.380744  0.000000  1
  Li  Li11  1  0.117432  0.117432  0.500000  1
  Tm  Tm12  1  0.368305  0.368305  0.500000  1
  Sc  Sc13  1  0.869028  0.869028  0.000000  1
  Sc  Sc14  1  0.632517  0.632517  0.500000  1
  Sc  Sc15  1  0.129776  0.129776  0.000000  1
  As  As16  1  0.342829  0.150764  0.757220  1
  As  As17  1  0.150764  0.342829  0.242780  1
  As  As18  1  0.658103  0.842465  0.250213  1
  As  As19  1  0.842465  0.658103  0.749787  1
  As  As20  1  0.907943  0.091287  0.773429  1
  As  As21  1  0.598633  0.409770  0.268392  1
  As  As22  1  0.091287  0.907943  0.226571  1
  As  As23  1  0.409770  0.598633  0.731608  1
