# generated using pymatgen
data_Pr10Ir3Ru2Rh
_symmetry_space_group_name_H-M   'P 1'
_cell_length_a   11.32141133
_cell_length_b   11.32171900
_cell_length_c   6.67539438
_cell_angle_alpha   90.00000000
_cell_angle_beta   90.07352037
_cell_angle_gamma   90.00000000
_symmetry_Int_Tables_number   1
_chemical_formula_structural   Pr10Ir3Ru2Rh
_chemical_formula_sum   'Pr20 Ir6 Ru4 Rh2'
_cell_volume   855.63691265
_cell_formula_units_Z   2
loop_
 _symmetry_equiv_pos_site_id
 _symmetry_equiv_pos_as_xyz
  1  'x, y, z'
loop_
 _atom_site_type_symbol
 _atom_site_label
 _atom_site_symmetry_multiplicity
 _atom_site_fract_x
 _atom_site_fract_y
 _atom_site_fract_z
 _atom_site_occupancy
  Pr  Pr0  1  0.293037  0.088439  0.382472  1
  Pr  Pr1  1  0.293037  0.911561  0.882472  1
  Pr  Pr2  1  0.704950  0.089630  0.880822  1
  Pr  Pr3  1  0.704950  0.910370  0.380822  1
  Pr  Pr4  1  0.586832  0.793204  0.882998  1
  Pr  Pr5  1  0.586832  0.206796  0.382998  1
  Pr  Pr6  1  0.411054  0.793252  0.382410  1
  Pr  Pr7  1  0.411054  0.206748  0.882410  1
  Pr  Pr8  1  0.206791  0.411262  0.617481  1
  Pr  Pr9  1  0.206791  0.588738  0.117481  1
  Pr  Pr10  1  0.793210  0.412914  0.117210  1
  Pr  Pr11  1  0.793210  0.587086  0.617210  1
  Pr  Pr12  1  0.912199  0.705928  0.119477  1
  Pr  Pr13  1  0.912199  0.294072  0.619477  1
  Pr  Pr14  1  0.090306  0.705978  0.617159  1
  Pr  Pr15  1  0.090306  0.294022  0.117159  1
  Pr  Pr16  1  0.000340  0.999896  0.499977  1
  Pr  Pr17  1  0.000340  0.000104  0.999977  1
  Pr  Pr18  1  0.499871  0.500163  0.999987  1
  Pr  Pr19  1  0.499871  0.499837  0.499987  1
  Ir  Ir20  1  0.152060  0.152407  0.750141  1
  Ir  Ir21  1  0.152060  0.847593  0.250141  1
  Ir  Ir22  1  0.653437  0.346767  0.750070  1
  Ir  Ir23  1  0.653437  0.653233  0.250070  1
  Ir  Ir24  1  0.347389  0.347208  0.249914  1
  Ir  Ir25  1  0.347389  0.652792  0.749914  1
  Ru  Ru26  1  0.501677  0.000019  0.117028  1
  Ru  Ru27  1  0.501677  0.999981  0.617028  1
  Ru  Ru28  1  0.999066  0.500256  0.882969  1
  Ru  Ru29  1  0.999066  0.499744  0.382969  1
  Rh  Rh30  1  0.847782  0.151855  0.249884  1
  Rh  Rh31  1  0.847782  0.848145  0.749884  1
