# generated using pymatgen
data_Tm8Si12Pt3Rh
_symmetry_space_group_name_H-M   'P 1'
_cell_length_a   8.12998500
_cell_length_b   8.12998428
_cell_length_c   7.81679900
_cell_angle_alpha   90.00000000
_cell_angle_beta   90.00000000
_cell_angle_gamma   119.99999886
_symmetry_Int_Tables_number   1
_chemical_formula_structural   Tm8Si12Pt3Rh
_chemical_formula_sum   'Tm8 Si12 Pt3 Rh1'
_cell_volume   447.44435318
_cell_formula_units_Z   1
loop_
 _symmetry_equiv_pos_site_id
 _symmetry_equiv_pos_as_xyz
  1  'x, y, z'
loop_
 _atom_site_type_symbol
 _atom_site_label
 _atom_site_symmetry_multiplicity
 _atom_site_fract_x
 _atom_site_fract_y
 _atom_site_fract_z
 _atom_site_occupancy
  Tm  Tm0  1  0.000000  0.000000  0.251078  1
  Tm  Tm1  1  0.000000  0.000000  0.749527  1
  Tm  Tm2  1  0.488761  0.511239  0.251981  1
  Tm  Tm3  1  0.488761  0.977522  0.251981  1
  Tm  Tm4  1  0.022478  0.511239  0.251981  1
  Tm  Tm5  1  0.509687  0.490313  0.747721  1
  Tm  Tm6  1  0.980625  0.490313  0.747721  1
  Tm  Tm7  1  0.509687  0.019375  0.747721  1
  Si  Si8  1  0.835862  0.164138  0.497847  1
  Si  Si9  1  0.835862  0.671724  0.497847  1
  Si  Si10  1  0.328276  0.164138  0.497847  1
  Si  Si11  1  0.834910  0.165090  0.001379  1
  Si  Si12  1  0.834910  0.669820  0.001379  1
  Si  Si13  1  0.330180  0.165090  0.001379  1
  Si  Si14  1  0.165182  0.834818  0.998998  1
  Si  Si15  1  0.669636  0.834818  0.998998  1
  Si  Si16  1  0.165182  0.330364  0.998998  1
  Si  Si17  1  0.167613  0.832387  0.501782  1
  Si  Si18  1  0.664776  0.832387  0.501782  1
  Si  Si19  1  0.167613  0.335224  0.501782  1
  Pt  Pt20  1  0.666667  0.333333  0.466413  1
  Pt  Pt21  1  0.666667  0.333333  0.033525  1
  Pt  Pt22  1  0.333333  0.666667  0.961883  1
  Rh  Rh23  1  0.333333  0.666667  0.538456  1
