# generated using pymatgen
data_Yb2Mg3PaIr3
_symmetry_space_group_name_H-M   'P 1'
_cell_length_a   7.21619233
_cell_length_b   7.43007550
_cell_length_c   4.10015600
_cell_angle_alpha   90.00000000
_cell_angle_beta   90.00000000
_cell_angle_gamma   120.98540015
_symmetry_Int_Tables_number   1
_chemical_formula_structural   Yb2Mg3PaIr3
_chemical_formula_sum   'Yb2 Mg3 Pa1 Ir3'
_cell_volume   188.46633174
_cell_formula_units_Z   1
loop_
 _symmetry_equiv_pos_site_id
 _symmetry_equiv_pos_as_xyz
  1  'x, y, z'
loop_
 _atom_site_type_symbol
 _atom_site_label
 _atom_site_symmetry_multiplicity
 _atom_site_fract_x
 _atom_site_fract_y
 _atom_site_fract_z
 _atom_site_occupancy
  Yb  Yb0  1  0.589055  0.589284  0.500000  1
  Yb  Yb1  1  0.410945  0.000228  0.500000  1
  Mg  Mg2  1  0.000000  0.770355  0.000000  1
  Mg  Mg3  1  0.258689  0.246313  0.000000  1
  Mg  Mg4  1  0.741311  0.987624  0.000000  1
  Pa  Pa5  1  0.000000  0.405113  0.500000  1
  Ir  Ir6  1  0.293213  0.634179  0.000000  1
  Ir  Ir7  1  0.706787  0.340965  0.000000  1
  Ir  Ir8  1  0.000000  0.025938  0.500000  1
