# generated using pymatgen
data_MgZnNi3PdO8
_symmetry_space_group_name_H-M   'P 1'
_cell_length_a   6.03571022
_cell_length_b   6.03571055
_cell_length_c   6.03571032
_cell_angle_alpha   58.79971771
_cell_angle_beta   58.79971245
_cell_angle_gamma   58.79971179
_symmetry_Int_Tables_number   1
_chemical_formula_structural   MgZnNi3PdO8
_chemical_formula_sum   'Mg1 Zn1 Ni3 Pd1 O8'
_cell_volume   151.21664067
_cell_formula_units_Z   1
loop_
 _symmetry_equiv_pos_site_id
 _symmetry_equiv_pos_as_xyz
  1  'x, y, z'
loop_
 _atom_site_type_symbol
 _atom_site_label
 _atom_site_symmetry_multiplicity
 _atom_site_fract_x
 _atom_site_fract_y
 _atom_site_fract_z
 _atom_site_occupancy
  Mg  Mg0  1  0.492037  0.492037  0.492037  1
  Zn  Zn1  1  0.758139  0.758139  0.758139  1
  Ni  Ni2  1  0.623165  0.125624  0.125624  1
  Ni  Ni3  1  0.125624  0.623165  0.125624  1
  Ni  Ni4  1  0.125624  0.125624  0.623165  1
  Pd  Pd5  1  0.125349  0.125349  0.125349  1
  O  O6  1  0.891756  0.891756  0.891756  1
  O  O7  1  0.901332  0.362956  0.362956  1
  O  O8  1  0.362956  0.901332  0.362956  1
  O  O9  1  0.362956  0.362956  0.901332  1
  O  O10  1  0.886863  0.349258  0.886863  1
  O  O11  1  0.886863  0.886863  0.349258  1
  O  O12  1  0.349258  0.886863  0.886863  1
  O  O13  1  0.358081  0.358081  0.358081  1
