# generated using pymatgen
data_Y5Bi2Os
_symmetry_space_group_name_H-M   'P 1'
_cell_length_a   7.99054900
_cell_length_b   9.08226200
_cell_length_c   12.53108400
_cell_angle_alpha   90.00000000
_cell_angle_beta   90.00000000
_cell_angle_gamma   90.00000000
_symmetry_Int_Tables_number   1
_chemical_formula_structural   Y5Bi2Os
_chemical_formula_sum   'Y20 Bi8 Os4'
_cell_volume   909.40908039
_cell_formula_units_Z   4
loop_
 _symmetry_equiv_pos_site_id
 _symmetry_equiv_pos_as_xyz
  1  'x, y, z'
loop_
 _atom_site_type_symbol
 _atom_site_label
 _atom_site_symmetry_multiplicity
 _atom_site_fract_x
 _atom_site_fract_y
 _atom_site_fract_z
 _atom_site_occupancy
  Y  Y0  1  0.841381  0.750000  0.791768  1
  Y  Y1  1  0.158619  0.250000  0.208232  1
  Y  Y2  1  0.341381  0.250000  0.708232  1
  Y  Y3  1  0.658619  0.750000  0.291768  1
  Y  Y4  1  0.374545  0.750000  0.692409  1
  Y  Y5  1  0.625455  0.250000  0.307591  1
  Y  Y6  1  0.874545  0.250000  0.807591  1
  Y  Y7  1  0.125455  0.750000  0.192409  1
  Y  Y8  1  0.943099  0.750000  0.504564  1
  Y  Y9  1  0.056901  0.250000  0.495436  1
  Y  Y10  1  0.443099  0.250000  0.995436  1
  Y  Y11  1  0.556901  0.750000  0.004564  1
  Y  Y12  1  0.674908  0.041689  0.564203  1
  Y  Y13  1  0.325092  0.958311  0.435797  1
  Y  Y14  1  0.174908  0.958311  0.935797  1
  Y  Y15  1  0.325092  0.541689  0.435797  1
  Y  Y16  1  0.825092  0.041689  0.064203  1
  Y  Y17  1  0.674908  0.458311  0.564203  1
  Y  Y18  1  0.825092  0.458311  0.064203  1
  Y  Y19  1  0.174908  0.541689  0.935797  1
  Bi  Bi20  1  0.568047  0.493638  0.827801  1
  Bi  Bi21  1  0.431953  0.506362  0.172199  1
  Bi  Bi22  1  0.068047  0.506362  0.672199  1
  Bi  Bi23  1  0.431953  0.993638  0.172199  1
  Bi  Bi24  1  0.931953  0.493638  0.327801  1
  Bi  Bi25  1  0.568047  0.006362  0.827801  1
  Bi  Bi26  1  0.931953  0.006362  0.327801  1
  Bi  Bi27  1  0.068047  0.993638  0.672199  1
  Os  Os28  1  0.575357  0.750000  0.510609  1
  Os  Os29  1  0.424643  0.250000  0.489391  1
  Os  Os30  1  0.075357  0.250000  0.989391  1
  Os  Os31  1  0.924643  0.750000  0.010609  1
