# generated using pymatgen
data_TmFe2GeP
_symmetry_space_group_name_H-M   'P 1'
_cell_length_a   5.54174370
_cell_length_b   5.54174402
_cell_length_c   5.54174438
_cell_angle_alpha   138.73059852
_cell_angle_beta   138.73060417
_cell_angle_gamma   59.78587182
_symmetry_Int_Tables_number   1
_chemical_formula_structural   TmFe2GeP
_chemical_formula_sum   'Tm1 Fe2 Ge1 P1'
_cell_volume   73.29768089
_cell_formula_units_Z   1
loop_
 _symmetry_equiv_pos_site_id
 _symmetry_equiv_pos_as_xyz
  1  'x, y, z'
loop_
 _atom_site_type_symbol
 _atom_site_label
 _atom_site_symmetry_multiplicity
 _atom_site_fract_x
 _atom_site_fract_y
 _atom_site_fract_z
 _atom_site_occupancy
  Tm  Tm0  1  0.003834  0.003834  0.000000  1
  Fe  Fe1  1  0.741651  0.241651  0.500000  1
  Fe  Fe2  1  0.241651  0.741651  0.500000  1
  Ge  Ge3  1  0.374535  0.374535  0.000000  1
  P  P4  1  0.638328  0.638328  0.000000  1
