# generated using pymatgen
data_SmLu7Sc11Si16Ag
_symmetry_space_group_name_H-M   'P 1'
_cell_length_a   6.97389131
_cell_length_b   7.34329444
_cell_length_c   13.93552227
_cell_angle_alpha   90.06233401
_cell_angle_beta   89.87487393
_cell_angle_gamma   89.87325070
_symmetry_Int_Tables_number   1
_chemical_formula_structural   SmLu7Sc11Si16Ag
_chemical_formula_sum   'Sm1 Lu7 Sc11 Si16 Ag1'
_cell_volume   713.65285693
_cell_formula_units_Z   1
loop_
 _symmetry_equiv_pos_site_id
 _symmetry_equiv_pos_as_xyz
  1  'x, y, z'
loop_
 _atom_site_type_symbol
 _atom_site_label
 _atom_site_symmetry_multiplicity
 _atom_site_fract_x
 _atom_site_fract_y
 _atom_site_fract_z
 _atom_site_occupancy
  Sm  Sm0  1  0.485470  0.672061  0.596356  1
  Lu  Lu1  1  0.011448  0.177662  0.095910  1
  Lu  Lu2  1  0.989722  0.814150  0.903760  1
  Lu  Lu3  1  0.486518  0.674546  0.902482  1
  Lu  Lu4  1  0.989136  0.813506  0.598237  1
  Lu  Lu5  1  0.510620  0.322183  0.096069  1
  Lu  Lu6  1  0.009706  0.177671  0.402082  1
  Lu  Lu7  1  0.509505  0.322181  0.401574  1
  Sc  Sc8  1  0.838096  0.496070  0.249743  1
  Sc  Sc9  1  0.341707  0.004907  0.249642  1
  Sc  Sc10  1  0.655994  0.996039  0.750363  1
  Sc  Sc11  1  0.322957  0.181237  0.627635  1
  Sc  Sc12  1  0.671392  0.825882  0.373343  1
  Sc  Sc13  1  0.169594  0.679529  0.372667  1
  Sc  Sc14  1  0.671909  0.824376  0.125349  1
  Sc  Sc15  1  0.839780  0.326277  0.627870  1
  Sc  Sc16  1  0.324096  0.180503  0.873537  1
  Sc  Sc17  1  0.836590  0.326284  0.874962  1
  Sc  Sc18  1  0.169966  0.679462  0.126211  1
  Si  Si19  1  0.024096  0.092018  0.751611  1
  Si  Si20  1  0.971129  0.893651  0.249137  1
  Si  Si21  1  0.468606  0.613758  0.249018  1
  Si  Si22  1  0.537803  0.383696  0.751439  1
  Si  Si23  1  0.285455  0.878175  0.751883  1
  Si  Si24  1  0.714373  0.133016  0.248934  1
  Si  Si25  1  0.213038  0.369160  0.249057  1
  Si  Si26  1  0.779571  0.630478  0.752538  1
  Si  Si27  1  0.159571  0.457189  0.528738  1
  Si  Si28  1  0.840658  0.534802  0.460758  1
  Si  Si29  1  0.342303  0.970278  0.460807  1
  Si  Si30  1  0.841893  0.534587  0.038759  1
  Si  Si31  1  0.660017  0.038194  0.538648  1
  Si  Si32  1  0.165665  0.460841  0.968608  1
  Si  Si33  1  0.657771  0.033206  0.960169  1
  Si  Si34  1  0.343572  0.966102  0.037694  1
  Ag  Ag35  1  0.160272  0.516324  0.754408  1
