# generated using pymatgen
data_TmPa3(B4Ru)4
_symmetry_space_group_name_H-M   'P 1'
_cell_length_a   3.58918600
_cell_length_b   5.99994165
_cell_length_c   11.60592300
_cell_angle_alpha   90.09727013
_cell_angle_beta   90.00000000
_cell_angle_gamma   90.00000000
_symmetry_Int_Tables_number   1
_chemical_formula_structural   TmPa3(B4Ru)4
_chemical_formula_sum   'Tm1 Pa3 B16 Ru4'
_cell_volume   249.93210715
_cell_formula_units_Z   1
loop_
 _symmetry_equiv_pos_site_id
 _symmetry_equiv_pos_as_xyz
  1  'x, y, z'
loop_
 _atom_site_type_symbol
 _atom_site_label
 _atom_site_symmetry_multiplicity
 _atom_site_fract_x
 _atom_site_fract_y
 _atom_site_fract_z
 _atom_site_occupancy
  Tm  Tm0  1  0.500000  0.370872  0.648974  1
  Pa  Pa1  1  0.500000  0.127924  0.150213  1
  Pa  Pa2  1  0.500000  0.871883  0.848569  1
  Pa  Pa3  1  0.500000  0.628838  0.351215  1
  B  B4  1  0.000000  0.473105  0.191656  1
  B  B5  1  0.000000  0.524839  0.807244  1
  B  B6  1  0.000000  0.974131  0.309033  1
  B  B7  1  0.000000  0.027745  0.690930  1
  B  B8  1  0.000000  0.287755  0.312490  1
  B  B9  1  0.000000  0.710445  0.686751  1
  B  B10  1  0.000000  0.789249  0.188231  1
  B  B11  1  0.000000  0.211076  0.812469  1
  B  B12  1  0.000000  0.364884  0.469962  1
  B  B13  1  0.000000  0.636271  0.532697  1
  B  B14  1  0.000000  0.864471  0.032015  1
  B  B15  1  0.000000  0.133663  0.966537  1
  B  B16  1  0.000000  0.386361  0.045274  1
  B  B17  1  0.000000  0.611721  0.952777  1
  B  B18  1  0.000000  0.888160  0.455384  1
  B  B19  1  0.000000  0.114778  0.547452  1
  Ru  Ru20  1  0.500000  0.142566  0.405299  1
  Ru  Ru21  1  0.500000  0.858582  0.593595  1
  Ru  Ru22  1  0.500000  0.640312  0.095370  1
  Ru  Ru23  1  0.500000  0.360372  0.905865  1
