# generated using pymatgen
data_Ti8CuBi4Os
_symmetry_space_group_name_H-M   'P 1'
_cell_length_a   7.94532820
_cell_length_b   7.94532851
_cell_length_c   7.94532803
_cell_angle_alpha   95.61856852
_cell_angle_beta   95.61856431
_cell_angle_gamma   143.53202108
_symmetry_Int_Tables_number   1
_chemical_formula_structural   Ti8CuBi4Os
_chemical_formula_sum   'Ti8 Cu1 Bi4 Os1'
_cell_volume   283.15287455
_cell_formula_units_Z   1
loop_
 _symmetry_equiv_pos_site_id
 _symmetry_equiv_pos_as_xyz
  1  'x, y, z'
loop_
 _atom_site_type_symbol
 _atom_site_label
 _atom_site_symmetry_multiplicity
 _atom_site_fract_x
 _atom_site_fract_y
 _atom_site_fract_z
 _atom_site_occupancy
  Ti  Ti0  1  0.582962  0.699265  0.283158  1
  Ti  Ti1  1  0.917038  0.200196  0.116304  1
  Ti  Ti2  1  0.299804  0.582962  0.883696  1
  Ti  Ti3  1  0.800735  0.917038  0.716842  1
  Ti  Ti4  1  0.699265  0.416108  0.116304  1
  Ti  Ti5  1  0.083892  0.800735  0.883696  1
  Ti  Ti6  1  0.416108  0.299804  0.716842  1
  Ti  Ti7  1  0.200196  0.083892  0.283158  1
  Cu  Cu8  1  0.750000  0.750000  0.000000  1
  Bi  Bi9  1  0.359867  0.859867  0.219735  1
  Bi  Bi10  1  0.140133  0.359867  0.500000  1
  Bi  Bi11  1  0.640133  0.140133  0.780265  1
  Bi  Bi12  1  0.859867  0.640133  0.500000  1
  Os  Os13  1  0.250000  0.250000  0.000000  1
