# generated using pymatgen
data_Cs2Ge3PbO9
_symmetry_space_group_name_H-M   'P 1'
_cell_length_a   7.52560200
_cell_length_b   7.52560156
_cell_length_c   10.85141000
_cell_angle_alpha   90.00000000
_cell_angle_beta   90.00000000
_cell_angle_gamma   120.00000194
_symmetry_Int_Tables_number   1
_chemical_formula_structural   Cs2Ge3PbO9
_chemical_formula_sum   'Cs4 Ge6 Pb2 O18'
_cell_volume   532.22989302
_cell_formula_units_Z   2
loop_
 _symmetry_equiv_pos_site_id
 _symmetry_equiv_pos_as_xyz
  1  'x, y, z'
loop_
 _atom_site_type_symbol
 _atom_site_label
 _atom_site_symmetry_multiplicity
 _atom_site_fract_x
 _atom_site_fract_y
 _atom_site_fract_z
 _atom_site_occupancy
  Cs  Cs0  1  0.333333  0.666667  0.060596  1
  Cs  Cs1  1  0.666667  0.333333  0.560596  1
  Cs  Cs2  1  0.666667  0.333333  0.939404  1
  Cs  Cs3  1  0.333333  0.666667  0.439404  1
  Ge  Ge4  1  0.380264  0.238518  0.250000  1
  Ge  Ge5  1  0.141746  0.380264  0.750000  1
  Ge  Ge6  1  0.238518  0.858254  0.750000  1
  Ge  Ge7  1  0.761482  0.141746  0.250000  1
  Ge  Ge8  1  0.858254  0.619736  0.250000  1
  Ge  Ge9  1  0.619736  0.761482  0.750000  1
  Pb  Pb10  1  0.000000  0.000000  0.000000  1
  Pb  Pb11  1  0.000000  0.000000  0.500000  1
  O  O12  1  0.494027  0.078213  0.250000  1
  O  O13  1  0.415814  0.494027  0.750000  1
  O  O14  1  0.078213  0.584186  0.750000  1
  O  O15  1  0.921787  0.415814  0.250000  1
  O  O16  1  0.584186  0.505973  0.250000  1
  O  O17  1  0.505973  0.921787  0.750000  1
  O  O18  1  0.258375  0.227338  0.110457  1
  O  O19  1  0.031037  0.258375  0.610457  1
  O  O20  1  0.227338  0.968963  0.610457  1
  O  O21  1  0.772662  0.031037  0.110457  1
  O  O22  1  0.968963  0.741625  0.110457  1
  O  O23  1  0.741625  0.772662  0.610457  1
  O  O24  1  0.741625  0.772662  0.889543  1
  O  O25  1  0.968963  0.741625  0.389543  1
  O  O26  1  0.772662  0.031037  0.389543  1
  O  O27  1  0.227338  0.968963  0.889543  1
  O  O28  1  0.031037  0.258375  0.889543  1
  O  O29  1  0.258375  0.227338  0.389543  1
