# generated using pymatgen
data_Th12Zn9Ag3C4
_symmetry_space_group_name_H-M   'P 1'
_cell_length_a   9.55023858
_cell_length_b   9.55023994
_cell_length_c   9.55023444
_cell_angle_alpha   59.57193327
_cell_angle_beta   59.57198929
_cell_angle_gamma   59.57196887
_symmetry_Int_Tables_number   1
_chemical_formula_structural   Th12Zn9Ag3C4
_chemical_formula_sum   'Th12 Zn9 Ag3 C4'
_cell_volume   609.93137293
_cell_formula_units_Z   1
loop_
 _symmetry_equiv_pos_site_id
 _symmetry_equiv_pos_as_xyz
  1  'x, y, z'
loop_
 _atom_site_type_symbol
 _atom_site_label
 _atom_site_symmetry_multiplicity
 _atom_site_fract_x
 _atom_site_fract_y
 _atom_site_fract_z
 _atom_site_occupancy
  Th  Th0  1  0.442900  0.442898  0.055911  1
  Th  Th1  1  0.057977  0.442829  0.057974  1
  Th  Th2  1  0.442829  0.057976  0.057976  1
  Th  Th3  1  0.057977  0.057975  0.442830  1
  Th  Th4  1  0.442899  0.055911  0.442898  1
  Th  Th5  1  0.055911  0.442899  0.442900  1
  Th  Th6  1  0.807100  0.807102  0.194089  1
  Th  Th7  1  0.192023  0.807171  0.192026  1
  Th  Th8  1  0.807171  0.192024  0.192024  1
  Th  Th9  1  0.192023  0.192025  0.807170  1
  Th  Th10  1  0.807101  0.194089  0.807102  1
  Th  Th11  1  0.194089  0.807101  0.807100  1
  Zn  Zn12  1  0.823507  0.823507  0.524514  1
  Zn  Zn13  1  0.823507  0.524513  0.823507  1
  Zn  Zn14  1  0.524515  0.823508  0.823507  1
  Zn  Zn15  1  0.826410  0.826411  0.826411  1
  Zn  Zn16  1  0.426493  0.426493  0.725486  1
  Zn  Zn17  1  0.426493  0.725487  0.426493  1
  Zn  Zn18  1  0.725485  0.426492  0.426493  1
  Zn  Zn19  1  0.423590  0.423589  0.423589  1
  Zn  Zn20  1  0.625000  0.625000  0.625000  1
  Ag  Ag21  1  0.625000  0.625000  0.125000  1
  Ag  Ag22  1  0.625000  0.125000  0.625000  1
  Ag  Ag23  1  0.125000  0.625000  0.625000  1
  C  C24  1  0.125000  0.125000  0.625000  1
  C  C25  1  0.125000  0.625000  0.125000  1
  C  C26  1  0.625000  0.125000  0.125000  1
  C  C27  1  0.125000  0.125000  0.125000  1
