# generated using pymatgen
data_Ho4V3IrF28
_symmetry_space_group_name_H-M   'P 1'
_cell_length_a   5.50754689
_cell_length_b   8.81551284
_cell_length_c   11.79956990
_cell_angle_alpha   63.38516359
_cell_angle_beta   90.22957736
_cell_angle_gamma   90.13819095
_symmetry_Int_Tables_number   1
_chemical_formula_structural   Ho4V3IrF28
_chemical_formula_sum   'Ho4 V3 Ir1 F28'
_cell_volume   512.18219743
_cell_formula_units_Z   1
loop_
 _symmetry_equiv_pos_site_id
 _symmetry_equiv_pos_as_xyz
  1  'x, y, z'
loop_
 _atom_site_type_symbol
 _atom_site_label
 _atom_site_symmetry_multiplicity
 _atom_site_fract_x
 _atom_site_fract_y
 _atom_site_fract_z
 _atom_site_occupancy
  Ho  Ho0  1  0.758823  0.808000  0.770537  1
  Ho  Ho1  1  0.261656  0.190234  0.728357  1
  Ho  Ho2  1  0.239285  0.189458  0.233676  1
  Ho  Ho3  1  0.741904  0.809194  0.269233  1
  V  V4  1  0.254200  0.727274  0.544771  1
  V  V5  1  0.245111  0.724945  0.046600  1
  V  V6  1  0.746123  0.274269  0.454975  1
  Ir  Ir7  1  0.756409  0.271315  0.955235  1
  F  F8  1  0.452410  0.706929  0.925187  1
  F  F9  1  0.955293  0.293518  0.575600  1
  F  F10  1  0.563727  0.298410  0.082576  1
  F  F11  1  0.045890  0.708712  0.423324  1
  F  F12  1  0.464366  0.284855  0.546363  1
  F  F13  1  0.962706  0.716237  0.954401  1
  F  F14  1  0.534728  0.717173  0.452741  1
  F  F15  1  0.060624  0.281764  0.044529  1
  F  F16  1  0.768064  0.516547  0.855072  1
  F  F17  1  0.264912  0.494779  0.636511  1
  F  F18  1  0.232441  0.491434  0.138313  1
  F  F19  1  0.733902  0.506549  0.363452  1
  F  F20  1  0.752282  0.026508  0.048776  1
  F  F21  1  0.256449  0.958586  0.452776  1
  F  F22  1  0.242447  0.955170  0.955288  1
  F  F23  1  0.743057  0.044106  0.546035  1
  F  F24  1  0.982242  0.735834  0.640054  1
  F  F25  1  0.458508  0.269767  0.859048  1
  F  F26  1  0.018388  0.267899  0.359073  1
  F  F27  1  0.516492  0.727359  0.145512  1
  F  F28  1  0.040483  0.744637  0.170603  1
  F  F29  1  0.539515  0.252977  0.332076  1
  F  F30  1  0.947608  0.249376  0.823904  1
  F  F31  1  0.459620  0.751019  0.667099  1
  F  F32  1  0.425041  0.977102  0.230881  1
  F  F33  1  0.920769  0.028504  0.267050  1
  F  F34  1  0.577478  0.026178  0.768369  1
  F  F35  1  0.077045  0.973383  0.732005  1
