# generated using pymatgen
data_Nd2Si2Ir3Rh
_symmetry_space_group_name_H-M   'P 1'
_cell_length_a   8.98452564
_cell_length_b   8.98452498
_cell_length_c   4.16276700
_cell_angle_alpha   90.00000000
_cell_angle_beta   90.00000000
_cell_angle_gamma   153.35419872
_symmetry_Int_Tables_number   1
_chemical_formula_structural   Nd2Si2Ir3Rh
_chemical_formula_sum   'Nd2 Si2 Ir3 Rh1'
_cell_volume   150.69865329
_cell_formula_units_Z   1
loop_
 _symmetry_equiv_pos_site_id
 _symmetry_equiv_pos_as_xyz
  1  'x, y, z'
loop_
 _atom_site_type_symbol
 _atom_site_label
 _atom_site_symmetry_multiplicity
 _atom_site_fract_x
 _atom_site_fract_y
 _atom_site_fract_z
 _atom_site_occupancy
  Nd  Nd0  1  0.099935  0.900065  0.750000  1
  Nd  Nd1  1  0.900457  0.099543  0.250000  1
  Si  Si2  1  0.321859  0.678141  0.750000  1
  Si  Si3  1  0.677883  0.322117  0.250000  1
  Ir  Ir4  1  0.542475  0.457525  0.250000  1
  Ir  Ir5  1  0.457249  0.542751  0.750000  1
  Ir  Ir6  1  0.249692  0.750308  0.250000  1
  Rh  Rh7  1  0.750451  0.249549  0.750000  1
