# generated using pymatgen
data_Ba20Si11As
_symmetry_space_group_name_H-M   'P 1'
_cell_length_a   8.44026800
_cell_length_b   8.44026800
_cell_length_c   16.86050600
_cell_angle_alpha   90.00000000
_cell_angle_beta   90.00000000
_cell_angle_gamma   90.00000000
_symmetry_Int_Tables_number   1
_chemical_formula_structural   Ba20Si11As
_chemical_formula_sum   'Ba20 Si11 As1'
_cell_volume   1201.11081564
_cell_formula_units_Z   1
loop_
 _symmetry_equiv_pos_site_id
 _symmetry_equiv_pos_as_xyz
  1  'x, y, z'
loop_
 _atom_site_type_symbol
 _atom_site_label
 _atom_site_symmetry_multiplicity
 _atom_site_fract_x
 _atom_site_fract_y
 _atom_site_fract_z
 _atom_site_occupancy
  Ba  Ba0  1  0.308305  0.672035  0.106584  1
  Ba  Ba1  1  0.172035  0.191695  0.106584  1
  Ba  Ba2  1  0.500000  0.000000  0.727915  1
  Ba  Ba3  1  0.327976  0.692299  0.393304  1
  Ba  Ba4  1  0.671789  0.692040  0.893630  1
  Ba  Ba5  1  0.192299  0.172024  0.393304  1
  Ba  Ba6  1  0.672024  0.307701  0.393304  1
  Ba  Ba7  1  0.172263  0.807791  0.606456  1
  Ba  Ba8  1  0.328211  0.307960  0.893630  1
  Ba  Ba9  1  0.192040  0.828211  0.893630  1
  Ba  Ba10  1  0.500000  0.000000  0.228606  1
  Ba  Ba11  1  0.827737  0.192209  0.606456  1
  Ba  Ba12  1  0.307791  0.327737  0.606456  1
  Ba  Ba13  1  0.807701  0.827976  0.393304  1
  Ba  Ba14  1  0.807960  0.171789  0.893630  1
  Ba  Ba15  1  0.827965  0.808305  0.106584  1
  Ba  Ba16  1  0.000000  0.500000  0.272804  1
  Ba  Ba17  1  0.000000  0.500000  0.770346  1
  Ba  Ba18  1  0.691695  0.327965  0.106584  1
  Ba  Ba19  1  0.692209  0.672263  0.606456  1
  Si  Si20  1  0.101332  0.101556  0.750754  1
  Si  Si21  1  0.398444  0.601332  0.750754  1
  Si  Si22  1  0.601514  0.601472  0.249403  1
  Si  Si23  1  0.500000  0.000000  0.015214  1
  Si  Si24  1  0.101472  0.898486  0.249403  1
  Si  Si25  1  0.601556  0.398668  0.750754  1
  Si  Si26  1  0.898668  0.898444  0.750754  1
  Si  Si27  1  0.398486  0.398528  0.249403  1
  Si  Si28  1  0.898528  0.101514  0.249403  1
  Si  Si29  1  0.500000  0.000000  0.515154  1
  Si  Si30  1  0.000000  0.500000  0.485270  1
  As  As31  1  0.000000  0.500000  0.984170  1
