# generated using pymatgen
data_Tm8Cd2NiIr
_symmetry_space_group_name_H-M   'P 1'
_cell_length_a   9.48574200
_cell_length_b   9.48574572
_cell_length_c   9.45512301
_cell_angle_alpha   60.11171231
_cell_angle_beta   60.11172906
_cell_angle_gamma   60.33864136
_symmetry_Int_Tables_number   1
_chemical_formula_structural   Tm8Cd2NiIr
_chemical_formula_sum   'Tm16 Cd4 Ni2 Ir2'
_cell_volume   604.12835079
_cell_formula_units_Z   2
loop_
 _symmetry_equiv_pos_site_id
 _symmetry_equiv_pos_as_xyz
  1  'x, y, z'
loop_
 _atom_site_type_symbol
 _atom_site_label
 _atom_site_symmetry_multiplicity
 _atom_site_fract_x
 _atom_site_fract_y
 _atom_site_fract_z
 _atom_site_occupancy
  Tm  Tm0  1  0.596992  0.596992  0.602663  1
  Tm  Tm1  1  0.596961  0.596961  0.203371  1
  Tm  Tm2  1  0.595811  0.204994  0.599559  1
  Tm  Tm3  1  0.204994  0.595811  0.599559  1
  Tm  Tm4  1  0.062978  0.439946  0.438183  1
  Tm  Tm5  1  0.439955  0.062954  0.058914  1
  Tm  Tm6  1  0.439945  0.062978  0.438183  1
  Tm  Tm7  1  0.062954  0.439955  0.058914  1
  Tm  Tm8  1  0.439011  0.439011  0.061029  1
  Tm  Tm9  1  0.060929  0.060929  0.439079  1
  Tm  Tm10  1  0.186341  0.814861  0.811621  1
  Tm  Tm11  1  0.814873  0.186335  0.187174  1
  Tm  Tm12  1  0.814861  0.186341  0.811621  1
  Tm  Tm13  1  0.186335  0.814873  0.187175  1
  Tm  Tm14  1  0.811176  0.811176  0.188824  1
  Tm  Tm15  1  0.185233  0.185233  0.814770  1
  Cd  Cd16  1  0.831758  0.831758  0.830951  1
  Cd  Cd17  1  0.831758  0.831758  0.505539  1
  Cd  Cd18  1  0.831902  0.505761  0.831172  1
  Cd  Cd19  1  0.505761  0.831902  0.831172  1
  Ni  Ni20  1  0.391755  0.391754  0.391755  1
  Ni  Ni21  1  0.391758  0.391759  0.824729  1
  Ir  Ir22  1  0.392266  0.823691  0.392022  1
  Ir  Ir23  1  0.823691  0.392266  0.392022  1
