# generated using pymatgen
data_SmEr2PdRh2Pb3
_symmetry_space_group_name_H-M   'P 1'
_cell_length_a   7.92491857
_cell_length_b   7.92823135
_cell_length_c   3.72341700
_cell_angle_alpha   90.00000000
_cell_angle_beta   90.00000000
_cell_angle_gamma   120.22737474
_symmetry_Int_Tables_number   1
_chemical_formula_structural   SmEr2PdRh2Pb3
_chemical_formula_sum   'Sm1 Er2 Pd1 Rh2 Pb3'
_cell_volume   202.13607076
_cell_formula_units_Z   1
loop_
 _symmetry_equiv_pos_site_id
 _symmetry_equiv_pos_as_xyz
  1  'x, y, z'
loop_
 _atom_site_type_symbol
 _atom_site_label
 _atom_site_symmetry_multiplicity
 _atom_site_fract_x
 _atom_site_fract_y
 _atom_site_fract_z
 _atom_site_occupancy
  Sm  Sm0  1  0.405598  0.391874  0.500000  1
  Er  Er1  1  0.610540  0.015317  0.500000  1
  Er  Er2  1  0.983200  0.593372  0.500000  1
  Pd  Pd3  1  0.332606  0.670231  0.000000  1
  Rh  Rh4  1  0.670848  0.331763  0.000000  1
  Rh  Rh5  1  0.998193  0.998760  0.500000  1
  Pb  Pb6  1  0.729822  0.735766  0.000000  1
  Pb  Pb7  1  0.264893  0.991608  0.000000  1
  Pb  Pb8  1  0.004300  0.271309  0.000000  1
