# generated using pymatgen
data_NaSbCl18
_symmetry_space_group_name_H-M   'P 1'
_cell_length_a   9.04480768
_cell_length_b   9.02758660
_cell_length_c   9.03338125
_cell_angle_alpha   86.43008369
_cell_angle_beta   86.42103665
_cell_angle_gamma   86.57082337
_symmetry_Int_Tables_number   1
_chemical_formula_structural   NaSbCl18
_chemical_formula_sum   'Na1 Sb1 Cl18'
_cell_volume   733.57473099
_cell_formula_units_Z   1
loop_
 _symmetry_equiv_pos_site_id
 _symmetry_equiv_pos_as_xyz
  1  'x, y, z'
loop_
 _atom_site_type_symbol
 _atom_site_label
 _atom_site_symmetry_multiplicity
 _atom_site_fract_x
 _atom_site_fract_y
 _atom_site_fract_z
 _atom_site_occupancy
  Na  Na0  1  0.000000  0.000000  0.000000  1
  Sb  Sb1  1  0.500000  0.500000  0.500000  1
  Cl  Cl2  1  0.766646  0.468244  0.513902  1
  Cl  Cl3  1  0.515606  0.767161  0.468016  1
  Cl  Cl4  1  0.469286  0.515381  0.766942  1
  Cl  Cl5  1  0.233354  0.531756  0.486098  1
  Cl  Cl6  1  0.484394  0.232839  0.531984  1
  Cl  Cl7  1  0.530714  0.484619  0.233058  1
  Cl  Cl8  1  0.905652  0.376261  0.781616  1
  Cl  Cl9  1  0.783400  0.906757  0.375783  1
  Cl  Cl10  1  0.375867  0.783125  0.905884  1
  Cl  Cl11  1  0.094348  0.623739  0.218384  1
  Cl  Cl12  1  0.216600  0.093243  0.624217  1
  Cl  Cl13  1  0.624133  0.216875  0.094116  1
  Cl  Cl14  1  0.042411  0.966130  0.686570  1
  Cl  Cl15  1  0.686714  0.042433  0.967682  1
  Cl  Cl16  1  0.967535  0.686035  0.044555  1
  Cl  Cl17  1  0.957589  0.033870  0.313430  1
  Cl  Cl18  1  0.313286  0.957567  0.032318  1
  Cl  Cl19  1  0.032465  0.313965  0.955445  1
