# generated using pymatgen
data_Tm10GaSb5
_symmetry_space_group_name_H-M   'P 1'
_cell_length_a   8.77664900
_cell_length_b   8.77961209
_cell_length_c   6.29502000
_cell_angle_alpha   90.00000000
_cell_angle_beta   90.00000000
_cell_angle_gamma   119.98884008
_symmetry_Int_Tables_number   1
_chemical_formula_structural   Tm10GaSb5
_chemical_formula_sum   'Tm10 Ga1 Sb5'
_cell_volume   420.12703755
_cell_formula_units_Z   1
loop_
 _symmetry_equiv_pos_site_id
 _symmetry_equiv_pos_as_xyz
  1  'x, y, z'
loop_
 _atom_site_type_symbol
 _atom_site_label
 _atom_site_symmetry_multiplicity
 _atom_site_fract_x
 _atom_site_fract_y
 _atom_site_fract_z
 _atom_site_occupancy
  Tm  Tm0  1  0.340815  0.675907  0.001917  1
  Tm  Tm1  1  0.664908  0.324093  0.498083  1
  Tm  Tm2  1  0.664908  0.324093  0.001917  1
  Tm  Tm3  1  0.340815  0.675907  0.498083  1
  Tm  Tm4  1  0.248183  0.000000  0.250000  1
  Tm  Tm5  1  0.756701  0.000000  0.750000  1
  Tm  Tm6  1  0.988516  0.234434  0.250000  1
  Tm  Tm7  1  0.754082  0.765566  0.250000  1
  Tm  Tm8  1  0.243149  0.242312  0.750000  1
  Tm  Tm9  1  0.000837  0.757688  0.750000  1
  Ga  Ga10  1  0.605675  0.000000  0.250000  1
  Sb  Sb11  1  0.391554  0.000000  0.750000  1
  Sb  Sb12  1  0.997925  0.609494  0.250000  1
  Sb  Sb13  1  0.388430  0.390506  0.250000  1
  Sb  Sb14  1  0.609959  0.606415  0.750000  1
  Sb  Sb15  1  0.003544  0.393585  0.750000  1
