# generated using pymatgen
data_Tb6Dy10In4OsRh3
_symmetry_space_group_name_H-M   'P 1'
_cell_length_a   9.69643095
_cell_length_b   9.69644728
_cell_length_c   9.69015973
_cell_angle_alpha   59.71073221
_cell_angle_beta   59.72256098
_cell_angle_gamma   59.72010483
_symmetry_Int_Tables_number   1
_chemical_formula_structural   Tb6Dy10In4OsRh3
_chemical_formula_sum   'Tb6 Dy10 In4 Os1 Rh3'
_cell_volume   640.10014707
_cell_formula_units_Z   1
loop_
 _symmetry_equiv_pos_site_id
 _symmetry_equiv_pos_as_xyz
  1  'x, y, z'
loop_
 _atom_site_type_symbol
 _atom_site_label
 _atom_site_symmetry_multiplicity
 _atom_site_fract_x
 _atom_site_fract_y
 _atom_site_fract_z
 _atom_site_occupancy
  Tb  Tb0  1  0.688558  0.310890  0.310591  1
  Tb  Tb1  1  0.690798  0.690801  0.312365  1
  Tb  Tb2  1  0.310735  0.688454  0.310889  1
  Tb  Tb3  1  0.936952  0.936238  0.563915  1
  Tb  Tb4  1  0.149681  0.149974  0.547754  1
  Tb  Tb5  1  0.558476  0.944526  0.559280  1
  Dy  Dy6  1  0.151541  0.151443  0.151180  1
  Dy  Dy7  1  0.310526  0.311007  0.688846  1
  Dy  Dy8  1  0.945001  0.557991  0.559118  1
  Dy  Dy9  1  0.559006  0.558708  0.944426  1
  Dy  Dy10  1  0.562946  0.936990  0.937437  1
  Dy  Dy11  1  0.937216  0.563098  0.936904  1
  Dy  Dy12  1  0.150427  0.547160  0.149799  1
  Dy  Dy13  1  0.312484  0.690188  0.690741  1
  Dy  Dy14  1  0.690098  0.312612  0.690635  1
  Dy  Dy15  1  0.547172  0.150490  0.149552  1
  In  In16  1  0.918014  0.917719  0.247776  1
  In  In17  1  0.248078  0.917640  0.918186  1
  In  In18  1  0.917679  0.248256  0.917936  1
  In  In19  1  0.917201  0.917450  0.917373  1
  Os  Os20  1  0.357381  0.357732  0.357182  1
  Rh  Rh21  1  0.924253  0.358336  0.357143  1
  Rh  Rh22  1  0.357763  0.357960  0.923950  1
  Rh  Rh23  1  0.358015  0.924337  0.357020  1
