# generated using pymatgen
data_DyEr3Ru7W
_symmetry_space_group_name_H-M   'P 1'
_cell_length_a   5.47983200
_cell_length_b   5.18114816
_cell_length_c   9.00809703
_cell_angle_alpha   89.99162485
_cell_angle_beta   90.00000000
_cell_angle_gamma   121.92602516
_symmetry_Int_Tables_number   1
_chemical_formula_structural   DyEr3Ru7W
_chemical_formula_sum   'Dy1 Er3 Ru7 W1'
_cell_volume   217.06842849
_cell_formula_units_Z   1
loop_
 _symmetry_equiv_pos_site_id
 _symmetry_equiv_pos_as_xyz
  1  'x, y, z'
loop_
 _atom_site_type_symbol
 _atom_site_label
 _atom_site_symmetry_multiplicity
 _atom_site_fract_x
 _atom_site_fract_y
 _atom_site_fract_z
 _atom_site_occupancy
  Dy  Dy0  1  0.335063  0.670128  0.431951  1
  Er  Er1  1  0.673127  0.346253  0.563557  1
  Er  Er2  1  0.673083  0.346164  0.936785  1
  Er  Er3  1  0.334635  0.669272  0.068120  1
  Ru  Ru4  1  0.170205  0.818394  0.750492  1
  Ru  Ru5  1  0.333209  0.164646  0.249290  1
  Ru  Ru6  1  0.823253  0.646505  0.249435  1
  Ru  Ru7  1  0.648188  0.818394  0.750492  1
  Ru  Ru8  1  0.009456  0.018912  0.001599  1
  Ru  Ru9  1  0.831437  0.164646  0.249290  1
  Ru  Ru10  1  0.009233  0.018465  0.498507  1
  W  W11  1  0.159111  0.318222  0.750481  1
