# generated using pymatgen
data_Pu2Ni2B6Ir
_symmetry_space_group_name_H-M   'P 1'
_cell_length_a   5.89477382
_cell_length_b   5.89477469
_cell_length_c   3.39236800
_cell_angle_alpha   90.00000000
_cell_angle_beta   90.00000000
_cell_angle_gamma   95.39912091
_symmetry_Int_Tables_number   1
_chemical_formula_structural   Pu2Ni2B6Ir
_chemical_formula_sum   'Pu2 Ni2 B6 Ir1'
_cell_volume   117.35625426
_cell_formula_units_Z   1
loop_
 _symmetry_equiv_pos_site_id
 _symmetry_equiv_pos_as_xyz
  1  'x, y, z'
loop_
 _atom_site_type_symbol
 _atom_site_label
 _atom_site_symmetry_multiplicity
 _atom_site_fract_x
 _atom_site_fract_y
 _atom_site_fract_z
 _atom_site_occupancy
  Pu  Pu0  1  0.275930  0.724070  0.000000  1
  Pu  Pu1  1  0.724070  0.275929  0.000000  1
  Ni  Ni2  1  0.235221  0.235221  0.000000  1
  Ni  Ni3  1  0.764779  0.764779  0.000000  1
  B  B4  1  0.608071  0.608071  0.500000  1
  B  B5  1  0.391929  0.391929  0.500000  1
  B  B6  1  0.610977  0.913248  0.500000  1
  B  B7  1  0.389023  0.086752  0.500000  1
  B  B8  1  0.913248  0.610977  0.500000  1
  B  B9  1  0.086752  0.389023  0.500000  1
  Ir  Ir10  1  0.000000  0.000000  0.500000  1
