# generated using pymatgen
data_Na3AgS13
_symmetry_space_group_name_H-M   'P 1'
_cell_length_a   4.40161400
_cell_length_b   13.19519299
_cell_length_c   14.31565150
_cell_angle_alpha   87.72669991
_cell_angle_beta   90.00000000
_cell_angle_gamma   90.00000000
_symmetry_Int_Tables_number   1
_chemical_formula_structural   Na3AgS13
_chemical_formula_sum   'Na6 Ag2 S26'
_cell_volume   830.80076700
_cell_formula_units_Z   2
loop_
 _symmetry_equiv_pos_site_id
 _symmetry_equiv_pos_as_xyz
  1  'x, y, z'
loop_
 _atom_site_type_symbol
 _atom_site_label
 _atom_site_symmetry_multiplicity
 _atom_site_fract_x
 _atom_site_fract_y
 _atom_site_fract_z
 _atom_site_occupancy
  Na  Na0  1  0.168783  0.192048  0.725247  1
  Na  Na1  1  0.168783  0.307952  0.274753  1
  Na  Na2  1  0.125865  0.250000  0.000000  1
  Na  Na3  1  0.874135  0.750000  0.000000  1
  Na  Na4  1  0.831217  0.807952  0.274753  1
  Na  Na5  1  0.831217  0.692048  0.725247  1
  Ag  Ag6  1  0.000000  0.500000  0.500000  1
  Ag  Ag7  1  0.000000  0.000000  0.500000  1
  S  S8  1  0.295758  0.558788  0.633281  1
  S  S9  1  0.668421  0.552413  0.263592  1
  S  S10  1  0.331579  0.052413  0.263592  1
  S  S11  1  0.331579  0.447587  0.736408  1
  S  S12  1  0.945814  0.506587  0.154100  1
  S  S13  1  0.945814  0.993413  0.845900  1
  S  S14  1  0.054186  0.493413  0.845900  1
  S  S15  1  0.054186  0.006587  0.154100  1
  S  S16  1  0.681050  0.413774  0.074592  1
  S  S17  1  0.668421  0.947587  0.736408  1
  S  S18  1  0.318950  0.586226  0.925408  1
  S  S19  1  0.318950  0.913774  0.074592  1
  S  S20  1  0.647510  0.271815  0.140704  1
  S  S21  1  0.647510  0.228185  0.859296  1
  S  S22  1  0.352490  0.728185  0.859296  1
  S  S23  1  0.352490  0.771815  0.140704  1
  S  S24  1  0.098358  0.662018  0.417423  1
  S  S25  1  0.098358  0.837982  0.582577  1
  S  S26  1  0.901642  0.337982  0.582577  1
  S  S27  1  0.901642  0.162018  0.417423  1
  S  S28  1  0.637102  0.250000  0.500000  1
  S  S29  1  0.362898  0.750000  0.500000  1
  S  S30  1  0.704242  0.441212  0.366719  1
  S  S31  1  0.704242  0.058788  0.633281  1
  S  S32  1  0.681050  0.086226  0.925408  1
  S  S33  1  0.295758  0.941212  0.366719  1
