# generated using pymatgen
data_DyHo4FeSb2
_symmetry_space_group_name_H-M   'P 1'
_cell_length_a   7.83468800
_cell_length_b   8.76975600
_cell_length_c   12.14794900
_cell_angle_alpha   90.00000000
_cell_angle_beta   90.00000000
_cell_angle_gamma   90.00000000
_symmetry_Int_Tables_number   1
_chemical_formula_structural   DyHo4FeSb2
_chemical_formula_sum   'Dy4 Ho16 Fe4 Sb8'
_cell_volume   834.66494974
_cell_formula_units_Z   4
loop_
 _symmetry_equiv_pos_site_id
 _symmetry_equiv_pos_as_xyz
  1  'x, y, z'
loop_
 _atom_site_type_symbol
 _atom_site_label
 _atom_site_symmetry_multiplicity
 _atom_site_fract_x
 _atom_site_fract_y
 _atom_site_fract_z
 _atom_site_occupancy
  Dy  Dy0  1  0.622499  0.750000  0.307435  1
  Dy  Dy1  1  0.877501  0.750000  0.807435  1
  Dy  Dy2  1  0.377501  0.250000  0.692565  1
  Dy  Dy3  1  0.122499  0.250000  0.192565  1
  Ho  Ho4  1  0.155370  0.750000  0.204467  1
  Ho  Ho5  1  0.344630  0.750000  0.704467  1
  Ho  Ho6  1  0.844630  0.250000  0.795533  1
  Ho  Ho7  1  0.655370  0.250000  0.295533  1
  Ho  Ho8  1  0.449561  0.750000  0.996490  1
  Ho  Ho9  1  0.050439  0.750000  0.496490  1
  Ho  Ho10  1  0.550439  0.250000  0.003510  1
  Ho  Ho11  1  0.949561  0.250000  0.503510  1
  Ho  Ho12  1  0.823646  0.535217  0.064357  1
  Ho  Ho13  1  0.676354  0.964783  0.564357  1
  Ho  Ho14  1  0.176354  0.035217  0.935643  1
  Ho  Ho15  1  0.323646  0.464783  0.435643  1
  Ho  Ho16  1  0.176354  0.464783  0.935643  1
  Ho  Ho17  1  0.323646  0.035217  0.435643  1
  Ho  Ho18  1  0.823646  0.964783  0.064357  1
  Ho  Ho19  1  0.676354  0.535217  0.564357  1
  Fe  Fe20  1  0.429264  0.750000  0.489660  1
  Fe  Fe21  1  0.070736  0.750000  0.989660  1
  Fe  Fe22  1  0.570736  0.250000  0.510340  1
  Fe  Fe23  1  0.929264  0.250000  0.010340  1
  Sb  Sb24  1  0.929303  0.507562  0.328101  1
  Sb  Sb25  1  0.570697  0.992438  0.828101  1
  Sb  Sb26  1  0.070697  0.007562  0.671899  1
  Sb  Sb27  1  0.429303  0.492438  0.171899  1
  Sb  Sb28  1  0.070697  0.492438  0.671899  1
  Sb  Sb29  1  0.429303  0.007562  0.171899  1
  Sb  Sb30  1  0.929303  0.992438  0.328101  1
  Sb  Sb31  1  0.570697  0.507562  0.828101  1
