# generated using pymatgen
data_Li2LuThSi2Ge
_symmetry_space_group_name_H-M   'P 1'
_cell_length_a   9.26280979
_cell_length_b   9.26281010
_cell_length_c   6.80141100
_cell_angle_alpha   90.00000000
_cell_angle_beta   90.00000000
_cell_angle_gamma   152.94623533
_symmetry_Int_Tables_number   1
_chemical_formula_structural   Li2LuThSi2Ge
_chemical_formula_sum   'Li4 Lu2 Th2 Si4 Ge2'
_cell_volume   265.41788589
_cell_formula_units_Z   2
loop_
 _symmetry_equiv_pos_site_id
 _symmetry_equiv_pos_as_xyz
  1  'x, y, z'
loop_
 _atom_site_type_symbol
 _atom_site_label
 _atom_site_symmetry_multiplicity
 _atom_site_fract_x
 _atom_site_fract_y
 _atom_site_fract_z
 _atom_site_occupancy
  Li  Li0  1  0.809514  0.190486  0.560913  1
  Li  Li1  1  0.190486  0.809514  0.439087  1
  Li  Li2  1  0.190486  0.809514  0.060913  1
  Li  Li3  1  0.809514  0.190486  0.939087  1
  Lu  Lu4  1  0.347540  0.652460  0.250000  1
  Lu  Lu5  1  0.652460  0.347540  0.750000  1
  Th  Th6  1  0.551641  0.448359  0.250000  1
  Th  Th7  1  0.448359  0.551641  0.750000  1
  Si  Si8  1  0.939262  0.060738  0.070921  1
  Si  Si9  1  0.060738  0.939262  0.929079  1
  Si  Si10  1  0.060738  0.939262  0.570921  1
  Si  Si11  1  0.939262  0.060738  0.429079  1
  Ge  Ge12  1  0.723708  0.276292  0.250000  1
  Ge  Ge13  1  0.276292  0.723708  0.750000  1
