# generated using pymatgen
data_YEr3(Si2Rh)2
_symmetry_space_group_name_H-M   'P 1'
_cell_length_a   5.66828499
_cell_length_b   5.66828513
_cell_length_c   10.02078776
_cell_angle_alpha   63.67209832
_cell_angle_beta   63.67209856
_cell_angle_gamma   43.38890574
_symmetry_Int_Tables_number   1
_chemical_formula_structural   YEr3(Si2Rh)2
_chemical_formula_sum   'Y1 Er3 Si4 Rh2'
_cell_volume   194.34994421
_cell_formula_units_Z   1
loop_
 _symmetry_equiv_pos_site_id
 _symmetry_equiv_pos_as_xyz
  1  'x, y, z'
loop_
 _atom_site_type_symbol
 _atom_site_label
 _atom_site_symmetry_multiplicity
 _atom_site_fract_x
 _atom_site_fract_y
 _atom_site_fract_z
 _atom_site_occupancy
  Y  Y0  1  0.814619  0.814619  0.108555  1
  Er  Er1  1  0.001282  0.001282  0.325450  1
  Er  Er2  1  0.185134  0.185134  0.890173  1
  Er  Er3  1  0.998246  0.998246  0.674923  1
  Si  Si4  1  0.361084  0.361084  0.565541  1
  Si  Si5  1  0.488934  0.488934  0.878453  1
  Si  Si6  1  0.638556  0.638556  0.435305  1
  Si  Si7  1  0.512284  0.512284  0.120411  1
  Rh  Rh8  1  0.725870  0.725870  0.628255  1
  Rh  Rh9  1  0.273990  0.273990  0.372933  1
