# generated using pymatgen
data_Gd6Ga4Tc12O
_symmetry_space_group_name_H-M   'P 1'
_cell_length_a   8.03450795
_cell_length_b   8.04716037
_cell_length_c   8.09062800
_cell_angle_alpha   109.06530657
_cell_angle_beta   109.37340249
_cell_angle_gamma   109.99514713
_symmetry_Int_Tables_number   1
_chemical_formula_structural   Gd6Ga4Tc12O
_chemical_formula_sum   'Gd6 Ga4 Tc12 O1'
_cell_volume   402.56101407
_cell_formula_units_Z   1
loop_
 _symmetry_equiv_pos_site_id
 _symmetry_equiv_pos_as_xyz
  1  'x, y, z'
loop_
 _atom_site_type_symbol
 _atom_site_label
 _atom_site_symmetry_multiplicity
 _atom_site_fract_x
 _atom_site_fract_y
 _atom_site_fract_z
 _atom_site_occupancy
  Gd  Gd0  1  0.266540  0.005288  0.262065  1
  Gd  Gd1  1  0.998155  0.261371  0.258184  1
  Gd  Gd2  1  0.999634  0.734996  0.733855  1
  Gd  Gd3  1  0.268884  0.269368  0.996412  1
  Gd  Gd4  1  0.737201  0.734987  0.997965  1
  Gd  Gd5  1  0.736451  0.996854  0.731416  1
  Ga  Ga6  1  0.346689  0.997409  0.653057  1
  Ga  Ga7  1  0.677253  0.343557  0.344810  1
  Ga  Ga8  1  0.004529  0.345163  0.661873  1
  Ga  Ga9  1  0.651984  0.657417  0.315373  1
  Tc  Tc10  1  0.998248  0.997607  0.472208  1
  Tc  Tc11  1  0.516748  0.999936  0.002139  1
  Tc  Tc12  1  0.000491  0.507814  0.001314  1
  Tc  Tc13  1  0.488185  0.501330  0.509089  1
  Tc  Tc14  1  0.339844  0.656036  0.009609  1
  Tc  Tc15  1  0.344176  0.689755  0.352673  1
  Tc  Tc16  1  0.658380  0.311491  0.660959  1
  Tc  Tc17  1  0.336549  0.334308  0.684756  1
  Tc  Tc18  1  0.309246  0.656580  0.665270  1
  Tc  Tc19  1  0.657155  0.335899  0.001711  1
  Tc  Tc20  1  0.998337  0.657796  0.344544  1
  Tc  Tc21  1  0.662069  0.003892  0.346614  1
  O  O22  1  0.003252  0.001146  0.994105  1
