# generated using pymatgen
data_Li2TbYb2AlSi3
_symmetry_space_group_name_H-M   'P 1'
_cell_length_a   7.02060400
_cell_length_b   7.12360588
_cell_length_c   4.26419600
_cell_angle_alpha   90.00000000
_cell_angle_beta   90.00000000
_cell_angle_gamma   120.79127747
_symmetry_Int_Tables_number   1
_chemical_formula_structural   Li2TbYb2AlSi3
_chemical_formula_sum   'Li2 Tb1 Yb2 Al1 Si3'
_cell_volume   183.19930146
_cell_formula_units_Z   1
loop_
 _symmetry_equiv_pos_site_id
 _symmetry_equiv_pos_as_xyz
  1  'x, y, z'
loop_
 _atom_site_type_symbol
 _atom_site_label
 _atom_site_symmetry_multiplicity
 _atom_site_fract_x
 _atom_site_fract_y
 _atom_site_fract_z
 _atom_site_occupancy
  Li  Li0  1  0.240198  0.997768  0.500000  1
  Li  Li1  1  0.997038  0.236247  0.500000  1
  Tb  Tb2  1  0.008165  0.579879  0.000000  1
  Yb  Yb3  1  0.420449  0.421661  0.000000  1
  Yb  Yb4  1  0.573132  0.008275  0.000000  1
  Al  Al5  1  0.754608  0.754370  0.500000  1
  Si  Si6  1  0.340557  0.669511  0.500000  1
  Si  Si7  1  0.681407  0.354992  0.500000  1
  Si  Si8  1  0.984446  0.977297  0.000000  1
