# generated using pymatgen
data_La3IrCl3
_symmetry_space_group_name_H-M   'P 1'
_cell_length_a   10.38678623
_cell_length_b   10.38678585
_cell_length_c   10.38678600
_cell_angle_alpha   109.47122093
_cell_angle_beta   109.47122018
_cell_angle_gamma   109.47122183
_symmetry_Int_Tables_number   1
_chemical_formula_structural   La3IrCl3
_chemical_formula_sum   'La12 Ir4 Cl12'
_cell_volume   862.62424195
_cell_formula_units_Z   4
loop_
 _symmetry_equiv_pos_site_id
 _symmetry_equiv_pos_as_xyz
  1  'x, y, z'
loop_
 _atom_site_type_symbol
 _atom_site_label
 _atom_site_symmetry_multiplicity
 _atom_site_fract_x
 _atom_site_fract_y
 _atom_site_fract_z
 _atom_site_occupancy
  La  La0  1  0.478206  0.489103  0.239103  1
  La  La1  1  0.750000  0.239103  0.260897  1
  La  La2  1  0.750000  0.010897  0.489103  1
  La  La3  1  0.239103  0.478206  0.489103  1
  La  La4  1  0.260897  0.750000  0.239103  1
  La  La5  1  0.021794  0.260897  0.010897  1
  La  La6  1  0.010897  0.021794  0.260897  1
  La  La7  1  0.489103  0.750000  0.010897  1
  La  La8  1  0.489103  0.239103  0.478206  1
  La  La9  1  0.010897  0.489103  0.750000  1
  La  La10  1  0.260897  0.010897  0.021794  1
  La  La11  1  0.239103  0.260897  0.750000  1
  Ir  Ir12  1  0.250000  0.250000  0.250000  1
  Ir  Ir13  1  0.500000  0.000000  0.250000  1
  Ir  Ir14  1  0.000000  0.250000  0.500000  1
  Ir  Ir15  1  0.250000  0.500000  0.000000  1
  Cl  Cl16  1  0.250000  0.751657  0.748343  1
  Cl  Cl17  1  0.503314  0.501657  0.751657  1
  Cl  Cl18  1  0.996686  0.748343  0.998343  1
  Cl  Cl19  1  0.748343  0.250000  0.751657  1
  Cl  Cl20  1  0.998343  0.996686  0.748343  1
  Cl  Cl21  1  0.250000  0.998343  0.501657  1
  Cl  Cl22  1  0.751657  0.503314  0.501657  1
  Cl  Cl23  1  0.501657  0.250000  0.998343  1
  Cl  Cl24  1  0.751657  0.748343  0.250000  1
  Cl  Cl25  1  0.748343  0.998343  0.996686  1
  Cl  Cl26  1  0.998343  0.501657  0.250000  1
  Cl  Cl27  1  0.501657  0.751657  0.503314  1
