# generated using pymatgen
data_Er3ZnIn3RhAu
_symmetry_space_group_name_H-M   'P 1'
_cell_length_a   7.75215800
_cell_length_b   7.75215857
_cell_length_c   3.79829800
_cell_angle_alpha   90.00000000
_cell_angle_beta   90.00000000
_cell_angle_gamma   119.99998902
_symmetry_Int_Tables_number   1
_chemical_formula_structural   Er3ZnIn3RhAu
_chemical_formula_sum   'Er3 Zn1 In3 Rh1 Au1'
_cell_volume   197.68102212
_cell_formula_units_Z   1
loop_
 _symmetry_equiv_pos_site_id
 _symmetry_equiv_pos_as_xyz
  1  'x, y, z'
loop_
 _atom_site_type_symbol
 _atom_site_label
 _atom_site_symmetry_multiplicity
 _atom_site_fract_x
 _atom_site_fract_y
 _atom_site_fract_z
 _atom_site_occupancy
  Er  Er0  1  0.018501  0.603925  0.500000  1
  Er  Er1  1  0.396075  0.414576  0.500000  1
  Er  Er2  1  0.585424  0.981499  0.500000  1
  Zn  Zn3  1  0.000000  0.000000  0.500000  1
  In  In4  1  0.259914  0.997961  0.000000  1
  In  In5  1  0.738046  0.740086  0.000000  1
  In  In6  1  0.002039  0.261954  0.000000  1
  Rh  Rh7  1  0.333333  0.666667  0.000000  1
  Au  Au8  1  0.666667  0.333333  0.000000  1
