# generated using pymatgen
data_CaI35
_symmetry_space_group_name_H-M   'P 1'
_cell_length_a   17.58017498
_cell_length_b   12.54030950
_cell_length_c   11.87107100
_cell_angle_alpha   88.81408644
_cell_angle_beta   66.02770740
_cell_angle_gamma   92.31545562
_symmetry_Int_Tables_number   1
_chemical_formula_structural   CaI35
_chemical_formula_sum   'Ca1 I35'
_cell_volume   2387.43274716
_cell_formula_units_Z   1
loop_
 _symmetry_equiv_pos_site_id
 _symmetry_equiv_pos_as_xyz
  1  'x, y, z'
loop_
 _atom_site_type_symbol
 _atom_site_label
 _atom_site_symmetry_multiplicity
 _atom_site_fract_x
 _atom_site_fract_y
 _atom_site_fract_z
 _atom_site_occupancy
  Ca  Ca0  1  0.236172  0.422294  0.460282  1
  I  I1  1  0.526181  0.299074  0.505798  1
  I  I2  1  0.755864  0.590603  0.572187  1
  I  I3  1  0.482293  0.724289  0.760527  1
  I  I4  1  0.069908  0.885357  0.822817  1
  I  I5  1  0.889572  0.142604  0.006926  1
  I  I6  1  0.654905  0.316718  0.263936  1
  I  I7  1  0.603303  0.349207  0.843532  1
  I  I8  1  0.343779  0.817771  0.712930  1
  I  I9  1  0.348745  0.556667  0.215439  1
  I  I10  1  0.645053  0.136753  0.815580  1
  I  I11  1  0.903520  0.550865  0.360505  1
  I  I12  1  0.067599  0.917972  0.582268  1
  I  I13  1  0.877368  0.097447  0.264500  1
  I  I14  1  0.893163  0.195388  0.771051  1
  I  I15  1  0.653823  0.044812  0.264487  1
  I  I16  1  0.045905  0.834423  0.081143  1
  I  I17  1  0.356425  0.041464  0.738769  1
  I  I18  1  0.886610  0.319326  0.318273  1
  I  I19  1  0.877965  0.913174  0.691835  1
  I  I20  1  0.913617  0.655528  0.784960  1
  I  I21  1  0.331635  0.044389  0.227560  1
  I  I22  1  0.341242  0.302283  0.212729  1
  I  I23  1  0.608025  0.618079  0.810778  1
  I  I24  1  0.074579  0.373537  0.439257  1
  I  I25  1  0.702061  0.901126  0.807425  1
  I  I26  1  0.883921  0.434981  0.791536  1
  I  I27  1  0.499624  0.038965  0.246782  1
  I  I28  1  0.151789  0.217486  0.591337  1
  I  I29  1  0.682879  0.781477  0.252768  1
  I  I30  1  0.864674  0.809580  0.169900  1
  I  I31  1  0.387787  0.280419  0.761376  1
  I  I32  1  0.278047  0.444555  0.712632  1
  I  I33  1  0.669217  0.551291  0.248409  1
  I  I34  1  0.172976  0.593117  0.667060  1
  I  I35  1  0.319776  0.796979  0.222710  1
