# generated using pymatgen
data_NdSm3(Pb2O7)2
_symmetry_space_group_name_H-M   'P 1'
_cell_length_a   7.65446901
_cell_length_b   7.65446786
_cell_length_c   7.65446900
_cell_angle_alpha   59.87360636
_cell_angle_beta   59.87361134
_cell_angle_gamma   59.87360451
_symmetry_Int_Tables_number   1
_chemical_formula_structural   NdSm3(Pb2O7)2
_chemical_formula_sum   'Nd1 Sm3 Pb4 O14'
_cell_volume   316.21526976
_cell_formula_units_Z   1
loop_
 _symmetry_equiv_pos_site_id
 _symmetry_equiv_pos_as_xyz
  1  'x, y, z'
loop_
 _atom_site_type_symbol
 _atom_site_label
 _atom_site_symmetry_multiplicity
 _atom_site_fract_x
 _atom_site_fract_y
 _atom_site_fract_z
 _atom_site_occupancy
  Nd  Nd0  1  0.625000  0.625000  0.625000  1
  Sm  Sm1  1  0.625000  0.625000  0.125000  1
  Sm  Sm2  1  0.625000  0.125000  0.625000  1
  Sm  Sm3  1  0.125000  0.625000  0.625000  1
  Pb  Pb4  1  0.125000  0.125000  0.125000  1
  Pb  Pb5  1  0.625000  0.125000  0.125000  1
  Pb  Pb6  1  0.125000  0.625000  0.125000  1
  Pb  Pb7  1  0.125000  0.125000  0.625000  1
  O  O8  1  0.030554  0.470716  0.470716  1
  O  O9  1  0.779284  0.779284  0.219446  1
  O  O10  1  0.778743  0.220940  0.220940  1
  O  O11  1  0.470716  0.030554  0.470716  1
  O  O12  1  0.751011  0.751011  0.751011  1
  O  O13  1  0.029060  0.029060  0.471257  1
  O  O14  1  0.029060  0.471257  0.029060  1
  O  O15  1  0.220940  0.778743  0.220940  1
  O  O16  1  0.220940  0.220940  0.778743  1
  O  O17  1  0.779284  0.219446  0.779284  1
  O  O18  1  0.498989  0.498989  0.498989  1
  O  O19  1  0.471257  0.029060  0.029060  1
  O  O20  1  0.470716  0.470716  0.030554  1
  O  O21  1  0.219446  0.779284  0.779284  1
