# generated using pymatgen
data_TbDy2Er3FeBi2
_symmetry_space_group_name_H-M   'P 1'
_cell_length_a   8.30242300
_cell_length_b   8.30180768
_cell_length_c   4.16394900
_cell_angle_alpha   90.00000000
_cell_angle_beta   90.00000000
_cell_angle_gamma   120.00244788
_symmetry_Int_Tables_number   1
_chemical_formula_structural   TbDy2Er3FeBi2
_chemical_formula_sum   'Tb1 Dy2 Er3 Fe1 Bi2'
_cell_volume   248.54374908
_cell_formula_units_Z   1
loop_
 _symmetry_equiv_pos_site_id
 _symmetry_equiv_pos_as_xyz
  1  'x, y, z'
loop_
 _atom_site_type_symbol
 _atom_site_label
 _atom_site_symmetry_multiplicity
 _atom_site_fract_x
 _atom_site_fract_y
 _atom_site_fract_z
 _atom_site_occupancy
  Tb  Tb0  1  0.607353  0.000000  0.000000  1
  Dy  Dy1  1  0.999984  0.607400  0.000000  1
  Dy  Dy2  1  0.392584  0.392600  0.000000  1
  Er  Er3  1  0.229236  0.000000  0.500000  1
  Er  Er4  1  0.000072  0.229281  0.500000  1
  Er  Er5  1  0.770791  0.770719  0.500000  1
  Fe  Fe6  1  0.000098  0.000000  0.000000  1
  Bi  Bi7  1  0.333216  0.666550  0.500000  1
  Bi  Bi8  1  0.666667  0.333450  0.500000  1
