# generated using pymatgen
data_ErTm15(C2Br3)4
_symmetry_space_group_name_H-M   'P 1'
_cell_length_a   3.64226700
_cell_length_b   10.56244502
_cell_length_c   20.22034504
_cell_angle_alpha   90.00698716
_cell_angle_beta   90.00000000
_cell_angle_gamma   90.00000000
_symmetry_Int_Tables_number   1
_chemical_formula_structural   ErTm15(C2Br3)4
_chemical_formula_sum   'Er1 Tm15 C8 Br12'
_cell_volume   777.90184081
_cell_formula_units_Z   1
loop_
 _symmetry_equiv_pos_site_id
 _symmetry_equiv_pos_as_xyz
  1  'x, y, z'
loop_
 _atom_site_type_symbol
 _atom_site_label
 _atom_site_symmetry_multiplicity
 _atom_site_fract_x
 _atom_site_fract_y
 _atom_site_fract_z
 _atom_site_occupancy
  Er  Er0  1  0.250000  0.866306  0.581317  1
  Tm  Tm1  1  0.750000  0.133867  0.418255  1
  Tm  Tm2  1  0.750000  0.633844  0.081762  1
  Tm  Tm3  1  0.250000  0.366159  0.918210  1
  Tm  Tm4  1  0.250000  0.865466  0.743919  1
  Tm  Tm5  1  0.750000  0.134510  0.256168  1
  Tm  Tm6  1  0.750000  0.634549  0.243834  1
  Tm  Tm7  1  0.250000  0.365465  0.756147  1
  Tm  Tm8  1  0.250000  0.867315  0.169717  1
  Tm  Tm9  1  0.750000  0.132626  0.830259  1
  Tm  Tm10  1  0.750000  0.632673  0.669760  1
  Tm  Tm11  1  0.250000  0.367332  0.330293  1
  Tm  Tm12  1  0.250000  0.901104  0.327410  1
  Tm  Tm13  1  0.750000  0.098882  0.672638  1
  Tm  Tm14  1  0.750000  0.598922  0.827398  1
  Tm  Tm15  1  0.250000  0.401132  0.172585  1
  C  C16  1  0.250000  0.614717  0.750262  1
  C  C17  1  0.750000  0.385139  0.249795  1
  C  C18  1  0.750000  0.885190  0.250213  1
  C  C19  1  0.250000  0.114934  0.749826  1
  C  C20  1  0.250000  0.633019  0.156676  1
  C  C21  1  0.750000  0.366988  0.843318  1
  C  C22  1  0.750000  0.866958  0.657124  1
  C  C23  1  0.250000  0.133035  0.343333  1
  Br  Br24  1  0.250000  0.611833  0.556157  1
  Br  Br25  1  0.750000  0.387420  0.443949  1
  Br  Br26  1  0.750000  0.887446  0.056034  1
  Br  Br27  1  0.250000  0.112534  0.943863  1
  Br  Br28  1  0.250000  0.627459  0.953253  1
  Br  Br29  1  0.750000  0.372547  0.046691  1
  Br  Br30  1  0.750000  0.872580  0.453080  1
  Br  Br31  1  0.250000  0.128066  0.546709  1
  Br  Br32  1  0.250000  0.636409  0.356384  1
  Br  Br33  1  0.750000  0.363570  0.643685  1
  Br  Br34  1  0.750000  0.863597  0.856366  1
  Br  Br35  1  0.250000  0.136406  0.143607  1
