# generated using pymatgen
data_LiLa8Pr8Cd3Ir4
_symmetry_space_group_name_H-M   'P 1'
_cell_length_a   10.09239506
_cell_length_b   10.09239436
_cell_length_c   10.14090376
_cell_angle_alpha   59.66963961
_cell_angle_beta   59.66964174
_cell_angle_gamma   60.30434999
_symmetry_Int_Tables_number   1
_chemical_formula_structural   LiLa8Pr8Cd3Ir4
_chemical_formula_sum   'Li1 La8 Pr8 Cd3 Ir4'
_cell_volume   728.35345903
_cell_formula_units_Z   1
loop_
 _symmetry_equiv_pos_site_id
 _symmetry_equiv_pos_as_xyz
  1  'x, y, z'
loop_
 _atom_site_type_symbol
 _atom_site_label
 _atom_site_symmetry_multiplicity
 _atom_site_fract_x
 _atom_site_fract_y
 _atom_site_fract_z
 _atom_site_occupancy
  Li  Li0  1  0.571476  0.571476  0.569531  1
  La  La1  1  0.345977  0.345977  0.348539  1
  La  La2  1  0.345717  0.345717  0.960473  1
  La  La3  1  0.348324  0.961193  0.345310  1
  La  La4  1  0.961193  0.348324  0.345310  1
  La  La5  1  0.810086  0.190706  0.191147  1
  La  La6  1  0.187044  0.811950  0.812539  1
  La  La7  1  0.190706  0.810086  0.191147  1
  La  La8  1  0.811950  0.187044  0.812539  1
  Pr  Pr9  1  0.194379  0.194379  0.807126  1
  Pr  Pr10  1  0.808216  0.808216  0.190728  1
  Pr  Pr11  1  0.936326  0.564088  0.563994  1
  Pr  Pr12  1  0.563259  0.936191  0.936314  1
  Pr  Pr13  1  0.564088  0.936326  0.563994  1
  Pr  Pr14  1  0.936191  0.563259  0.936314  1
  Pr  Pr15  1  0.562777  0.562777  0.937664  1
  Pr  Pr16  1  0.937706  0.937706  0.562777  1
  Cd  Cd17  1  0.582037  0.582037  0.258266  1
  Cd  Cd18  1  0.580504  0.257610  0.582073  1
  Cd  Cd19  1  0.257610  0.580504  0.582073  1
  Ir  Ir20  1  0.139132  0.139132  0.146501  1
  Ir  Ir21  1  0.139200  0.139200  0.578265  1
  Ir  Ir22  1  0.148036  0.578062  0.138686  1
  Ir  Ir23  1  0.578062  0.148036  0.138686  1
