# generated using pymatgen
data_Y6HoFeI12
_symmetry_space_group_name_H-M   'P 1'
_cell_length_a   9.79871661
_cell_length_b   9.75163990
_cell_length_c   9.78807746
_cell_angle_alpha   106.94298427
_cell_angle_beta   107.00690318
_cell_angle_gamma   107.06907353
_symmetry_Int_Tables_number   1
_chemical_formula_structural   Y6HoFeI12
_chemical_formula_sum   'Y6 Ho1 Fe1 I12'
_cell_volume   778.77974211
_cell_formula_units_Z   1
loop_
 _symmetry_equiv_pos_site_id
 _symmetry_equiv_pos_as_xyz
  1  'x, y, z'
loop_
 _atom_site_type_symbol
 _atom_site_label
 _atom_site_symmetry_multiplicity
 _atom_site_fract_x
 _atom_site_fract_y
 _atom_site_fract_z
 _atom_site_occupancy
  Y  Y0  1  0.979292  0.906817  0.707306  1
  Y  Y1  1  0.498604  0.500548  0.499857  1
  Y  Y2  1  0.088931  0.279236  0.020921  1
  Y  Y3  1  0.293899  0.021124  0.094076  1
  Y  Y4  1  0.911755  0.720931  0.979126  1
  Y  Y5  1  0.023267  0.092956  0.293493  1
  Ho  Ho6  1  0.711259  0.978835  0.906695  1
  Fe  Fe7  1  0.001285  0.999946  0.000343  1
  I  I8  1  0.071728  0.225447  0.679903  1
  I  I9  1  0.386513  0.161630  0.464320  1
  I  I10  1  0.613979  0.840355  0.538634  1
  I  I11  1  0.221737  0.679160  0.070788  1
  I  I12  1  0.775557  0.317221  0.928613  1
  I  I13  1  0.677904  0.070781  0.222334  1
  I  I14  1  0.540278  0.618322  0.841062  1
  I  I15  1  0.838021  0.537962  0.615589  1
  I  I16  1  0.925847  0.773754  0.319033  1
  I  I17  1  0.322186  0.928719  0.775066  1
  I  I18  1  0.459182  0.385007  0.159212  1
  I  I19  1  0.158778  0.461248  0.383630  1
