# generated using pymatgen
data_DyPaS6
_symmetry_space_group_name_H-M   'P 1'
_cell_length_a   9.87569152
_cell_length_b   9.87569072
_cell_length_c   3.99740200
_cell_angle_alpha   90.00000000
_cell_angle_beta   90.00000000
_cell_angle_gamma   148.24121376
_symmetry_Int_Tables_number   1
_chemical_formula_structural   DyPaS6
_chemical_formula_sum   'Dy1 Pa1 S6'
_cell_volume   205.20255343
_cell_formula_units_Z   1
loop_
 _symmetry_equiv_pos_site_id
 _symmetry_equiv_pos_as_xyz
  1  'x, y, z'
loop_
 _atom_site_type_symbol
 _atom_site_label
 _atom_site_symmetry_multiplicity
 _atom_site_fract_x
 _atom_site_fract_y
 _atom_site_fract_z
 _atom_site_occupancy
  Dy  Dy0  1  0.675942  0.324058  0.749999  1
  Pa  Pa1  1  0.317364  0.682636  0.249999  1
  S  S2  1  0.785981  0.214019  0.249999  1
  S  S3  1  0.400388  0.210682  0.249999  1
  S  S4  1  0.789317  0.599612  0.249999  1
  S  S5  1  0.211962  0.405540  0.749999  1
  S  S6  1  0.594460  0.788037  0.749999  1
  S  S7  1  0.224586  0.775414  0.749999  1
