# generated using pymatgen
data_Tb3Pr2Bi3C
_symmetry_space_group_name_H-M   'P 1'
_cell_length_a   9.41472200
_cell_length_b   9.41472200
_cell_length_c   6.58916200
_cell_angle_alpha   90.00000000
_cell_angle_beta   90.00000000
_cell_angle_gamma   119.99999297
_symmetry_Int_Tables_number   1
_chemical_formula_structural   Tb3Pr2Bi3C
_chemical_formula_sum   'Tb6 Pr4 Bi6 C2'
_cell_volume   505.79653386
_cell_formula_units_Z   2
loop_
 _symmetry_equiv_pos_site_id
 _symmetry_equiv_pos_as_xyz
  1  'x, y, z'
loop_
 _atom_site_type_symbol
 _atom_site_label
 _atom_site_symmetry_multiplicity
 _atom_site_fract_x
 _atom_site_fract_y
 _atom_site_fract_z
 _atom_site_occupancy
  Tb  Tb0  1  0.796141  0.796141  0.750000  1
  Tb  Tb1  1  0.203859  0.000000  0.750000  1
  Tb  Tb2  1  0.000000  0.203859  0.750000  1
  Tb  Tb3  1  0.203859  0.203859  0.250000  1
  Tb  Tb4  1  0.796141  0.000000  0.250000  1
  Tb  Tb5  1  0.000000  0.796141  0.250000  1
  Pr  Pr6  1  0.666667  0.333333  0.000000  1
  Pr  Pr7  1  0.333333  0.666667  0.000000  1
  Pr  Pr8  1  0.333333  0.666667  0.500000  1
  Pr  Pr9  1  0.666667  0.333333  0.500000  1
  Bi  Bi10  1  0.393988  0.393988  0.750000  1
  Bi  Bi11  1  0.606012  0.000000  0.750000  1
  Bi  Bi12  1  0.000000  0.606012  0.750000  1
  Bi  Bi13  1  0.606012  0.606012  0.250000  1
  Bi  Bi14  1  0.393988  0.000000  0.250000  1
  Bi  Bi15  1  0.000000  0.393988  0.250000  1
  C  C16  1  0.000000  0.000000  0.000000  1
  C  C17  1  0.000000  0.000000  0.500000  1
