# generated using pymatgen
data_HfZr5Ga7Cu16
_symmetry_space_group_name_H-M   'P 1'
_cell_length_a   8.43936052
_cell_length_b   8.43936012
_cell_length_c   8.43190708
_cell_angle_alpha   60.01614072
_cell_angle_beta   60.01614079
_cell_angle_gamma   59.98974176
_symmetry_Int_Tables_number   1
_chemical_formula_structural   HfZr5Ga7Cu16
_chemical_formula_sum   'Hf1 Zr5 Ga7 Cu16'
_cell_volume   424.71938856
_cell_formula_units_Z   1
loop_
 _symmetry_equiv_pos_site_id
 _symmetry_equiv_pos_as_xyz
  1  'x, y, z'
loop_
 _atom_site_type_symbol
 _atom_site_label
 _atom_site_symmetry_multiplicity
 _atom_site_fract_x
 _atom_site_fract_y
 _atom_site_fract_z
 _atom_site_occupancy
  Hf  Hf0  1  0.704602  0.704602  0.295398  1
  Zr  Zr1  1  0.296432  0.704081  0.295899  1
  Zr  Zr2  1  0.704081  0.296432  0.295899  1
  Zr  Zr3  1  0.294749  0.294749  0.705250  1
  Zr  Zr4  1  0.704078  0.296428  0.703589  1
  Zr  Zr5  1  0.296428  0.704078  0.703589  1
  Ga  Ga6  1  0.000684  0.000684  0.999304  1
  Ga  Ga7  1  0.000217  0.000217  0.499778  1
  Ga  Ga8  1  0.500346  0.000640  0.499652  1
  Ga  Ga9  1  0.000640  0.500346  0.499652  1
  Ga  Ga10  1  0.500206  0.500206  0.999782  1
  Ga  Ga11  1  0.000636  0.500359  0.999349  1
  Ga  Ga12  1  0.500359  0.000636  0.999349  1
  Cu  Cu13  1  0.879892  0.879892  0.357386  1
  Cu  Cu14  1  0.880369  0.358251  0.880715  1
  Cu  Cu15  1  0.358251  0.880369  0.880715  1
  Cu  Cu16  1  0.879887  0.879887  0.882841  1
  Cu  Cu17  1  0.119306  0.119306  0.641720  1
  Cu  Cu18  1  0.117108  0.642676  0.120102  1
  Cu  Cu19  1  0.642676  0.117108  0.120102  1
  Cu  Cu20  1  0.119282  0.119282  0.119688  1
  Cu  Cu21  1  0.670209  0.670209  0.991453  1
  Cu  Cu22  1  0.670582  0.988961  0.670207  1
  Cu  Cu23  1  0.988961  0.670582  0.670207  1
  Cu  Cu24  1  0.670195  0.670195  0.668122  1
  Cu  Cu25  1  0.329748  0.329748  0.011044  1
  Cu  Cu26  1  0.331816  0.008514  0.329872  1
  Cu  Cu27  1  0.008514  0.331816  0.329872  1
  Cu  Cu28  1  0.329747  0.329747  0.329465  1
