# generated using pymatgen
data_Tm2Fe3Co9As7
_symmetry_space_group_name_H-M   'P 1'
_cell_length_a   3.73889000
_cell_length_b   9.32627072
_cell_length_c   9.32627100
_cell_angle_alpha   120.00000453
_cell_angle_beta   90.00000000
_cell_angle_gamma   90.00000000
_symmetry_Int_Tables_number   1
_chemical_formula_structural   Tm2Fe3Co9As7
_chemical_formula_sum   'Tm2 Fe3 Co9 As7'
_cell_volume   281.63676615
_cell_formula_units_Z   1
loop_
 _symmetry_equiv_pos_site_id
 _symmetry_equiv_pos_as_xyz
  1  'x, y, z'
loop_
 _atom_site_type_symbol
 _atom_site_label
 _atom_site_symmetry_multiplicity
 _atom_site_fract_x
 _atom_site_fract_y
 _atom_site_fract_z
 _atom_site_occupancy
  Tm  Tm0  1  0.000000  0.666667  0.333333  1
  Tm  Tm1  1  0.500000  0.333333  0.666667  1
  Fe  Fe2  1  0.500000  0.783226  0.903833  1
  Fe  Fe3  1  0.500000  0.120606  0.216774  1
  Fe  Fe4  1  0.500000  0.096167  0.879394  1
  Co  Co5  1  0.000000  0.567592  0.941526  1
  Co  Co6  1  0.000000  0.373934  0.432408  1
  Co  Co7  1  0.000000  0.058474  0.626066  1
  Co  Co8  1  0.000000  0.879758  0.157423  1
  Co  Co9  1  0.000000  0.277664  0.120242  1
  Co  Co10  1  0.000000  0.842577  0.722336  1
  Co  Co11  1  0.500000  0.949564  0.382120  1
  Co  Co12  1  0.500000  0.432556  0.050436  1
  Co  Co13  1  0.500000  0.617880  0.567444  1
  As  As14  1  0.000000  0.000000  0.000000  1
  As  As15  1  0.500000  0.708394  0.114551  1
  As  As16  1  0.500000  0.406157  0.291606  1
  As  As17  1  0.500000  0.885449  0.593843  1
  As  As18  1  0.000000  0.588802  0.705825  1
  As  As19  1  0.000000  0.117023  0.411198  1
  As  As20  1  0.000000  0.294175  0.882977  1
