# generated using pymatgen
data_Hf3Ti3Sn2Ge
_symmetry_space_group_name_H-M   'P 1'
_cell_length_a   7.34929300
_cell_length_b   7.34929324
_cell_length_c   3.79512400
_cell_angle_alpha   90.00000000
_cell_angle_beta   90.00000000
_cell_angle_gamma   119.99999443
_symmetry_Int_Tables_number   1
_chemical_formula_structural   Hf3Ti3Sn2Ge
_chemical_formula_sum   'Hf3 Ti3 Sn2 Ge1'
_cell_volume   177.52019431
_cell_formula_units_Z   1
loop_
 _symmetry_equiv_pos_site_id
 _symmetry_equiv_pos_as_xyz
  1  'x, y, z'
loop_
 _atom_site_type_symbol
 _atom_site_label
 _atom_site_symmetry_multiplicity
 _atom_site_fract_x
 _atom_site_fract_y
 _atom_site_fract_z
 _atom_site_occupancy
  Hf  Hf0  1  0.390673  0.000000  0.500001  1
  Hf  Hf1  1  0.000000  0.390672  0.500001  1
  Hf  Hf2  1  0.609327  0.609327  0.500001  1
  Ti  Ti3  1  0.760282  0.000000  0.000000  1
  Ti  Ti4  1  0.239718  0.239719  0.000000  1
  Ti  Ti5  1  0.000000  0.760281  0.000000  1
  Sn  Sn6  1  0.666667  0.333333  0.000000  1
  Sn  Sn7  1  0.333333  0.666666  0.000000  1
  Ge  Ge8  1  0.000000  0.000000  0.500001  1
