# generated using pymatgen
data_Zr6In3Sn3(IrRh2)2
_symmetry_space_group_name_H-M   'P 1'
_cell_length_a   7.55098200
_cell_length_b   7.55338776
_cell_length_c   7.05181803
_cell_angle_alpha   90.00810175
_cell_angle_beta   90.00000000
_cell_angle_gamma   119.98946464
_symmetry_Int_Tables_number   1
_chemical_formula_structural   Zr6In3Sn3(IrRh2)2
_chemical_formula_sum   'Zr6 In3 Sn3 Ir2 Rh4'
_cell_volume   348.35578990
_cell_formula_units_Z   1
loop_
 _symmetry_equiv_pos_site_id
 _symmetry_equiv_pos_as_xyz
  1  'x, y, z'
loop_
 _atom_site_type_symbol
 _atom_site_label
 _atom_site_symmetry_multiplicity
 _atom_site_fract_x
 _atom_site_fract_y
 _atom_site_fract_z
 _atom_site_occupancy
  Zr  Zr0  1  0.600898  0.997499  0.746519  1
  Zr  Zr1  1  0.397162  0.399598  0.747323  1
  Zr  Zr2  1  0.002522  0.602871  0.746657  1
  Zr  Zr3  1  0.603398  0.002501  0.253481  1
  Zr  Zr4  1  0.399652  0.397129  0.253343  1
  Zr  Zr5  1  0.997563  0.600402  0.252677  1
  In  In6  1  0.278553  0.000000  0.000000  1
  In  In7  1  0.733527  0.734677  0.500030  1
  In  In8  1  0.998850  0.265323  0.499970  1
  Sn  Sn9  1  0.001223  0.274478  0.999962  1
  Sn  Sn10  1  0.726745  0.725522  0.000038  1
  Sn  Sn11  1  0.260161  0.000000  0.500000  1
  Ir  Ir12  1  0.660880  0.329531  0.504369  1
  Ir  Ir13  1  0.331347  0.670469  0.495631  1
  Rh  Rh14  1  0.671893  0.336722  0.993913  1
  Rh  Rh15  1  0.335170  0.663278  0.006087  1
  Rh  Rh16  1  0.000224  0.999995  0.761700  1
  Rh  Rh17  1  0.000229  0.000005  0.238300  1
