# generated using pymatgen
data_Er3ZnHg4Rh
_symmetry_space_group_name_H-M   'P 1'
_cell_length_a   7.90044200
_cell_length_b   7.90044196
_cell_length_c   3.65118000
_cell_angle_alpha   90.00000000
_cell_angle_beta   90.00000000
_cell_angle_gamma   119.99999181
_symmetry_Int_Tables_number   1
_chemical_formula_structural   Er3ZnHg4Rh
_chemical_formula_sum   'Er3 Zn1 Hg4 Rh1'
_cell_volume   197.36343136
_cell_formula_units_Z   1
loop_
 _symmetry_equiv_pos_site_id
 _symmetry_equiv_pos_as_xyz
  1  'x, y, z'
loop_
 _atom_site_type_symbol
 _atom_site_label
 _atom_site_symmetry_multiplicity
 _atom_site_fract_x
 _atom_site_fract_y
 _atom_site_fract_z
 _atom_site_occupancy
  Er  Er0  1  0.700396  0.945516  0.500000  1
  Er  Er1  1  0.245120  0.299604  0.500000  1
  Er  Er2  1  0.054484  0.754880  0.500000  1
  Zn  Zn3  1  0.666667  0.333333  0.500000  1
  Hg  Hg4  1  0.929783  0.329739  0.000000  1
  Hg  Hg5  1  0.399957  0.070217  0.000000  1
  Hg  Hg6  1  0.670261  0.600043  0.000000  1
  Hg  Hg7  1  0.333333  0.666667  0.000000  1
  Rh  Rh8  1  0.000000  0.000000  0.000000  1
