# generated using pymatgen
data_Sr4YNp3O12
_symmetry_space_group_name_H-M   'P 1'
_cell_length_a   6.00428515
_cell_length_b   6.14236047
_cell_length_c   8.56120277
_cell_angle_alpha   89.82133888
_cell_angle_beta   90.04489325
_cell_angle_gamma   89.97246388
_symmetry_Int_Tables_number   1
_chemical_formula_structural   Sr4YNp3O12
_chemical_formula_sum   'Sr4 Y1 Np3 O12'
_cell_volume   315.73963093
_cell_formula_units_Z   1
loop_
 _symmetry_equiv_pos_site_id
 _symmetry_equiv_pos_as_xyz
  1  'x, y, z'
loop_
 _atom_site_type_symbol
 _atom_site_label
 _atom_site_symmetry_multiplicity
 _atom_site_fract_x
 _atom_site_fract_y
 _atom_site_fract_z
 _atom_site_occupancy
  Sr  Sr0  1  0.988892  0.041674  0.253871  1
  Sr  Sr1  1  0.485562  0.455286  0.746426  1
  Sr  Sr2  1  0.514438  0.544714  0.253574  1
  Sr  Sr3  1  0.011108  0.958326  0.746129  1
  Y  Y4  1  0.500000  0.000000  0.500000  1
  Np  Np5  1  0.500000  0.000000  0.000000  1
  Np  Np6  1  0.000000  0.500000  0.000000  1
  Np  Np7  1  0.000000  0.500000  0.500000  1
  O  O8  1  0.199224  0.213864  0.553457  1
  O  O9  1  0.714403  0.299057  0.448337  1
  O  O10  1  0.289291  0.704107  0.943223  1
  O  O11  1  0.791891  0.794427  0.055326  1
  O  O12  1  0.800776  0.786136  0.446543  1
  O  O13  1  0.285597  0.700943  0.551663  1
  O  O14  1  0.710709  0.295893  0.056777  1
  O  O15  1  0.208109  0.205573  0.944674  1
  O  O16  1  0.101993  0.463301  0.245226  1
  O  O17  1  0.598764  0.036708  0.758106  1
  O  O18  1  0.401236  0.963292  0.241894  1
  O  O19  1  0.898007  0.536699  0.754774  1
