# generated using pymatgen
data_ErLuCo4(SiC)2
_symmetry_space_group_name_H-M   'P 1'
_cell_length_a   5.55030885
_cell_length_b   5.55030882
_cell_length_c   6.67511000
_cell_angle_alpha   90.00000000
_cell_angle_beta   90.00000000
_cell_angle_gamma   141.47715513
_symmetry_Int_Tables_number   1
_chemical_formula_structural   ErLuCo4(SiC)2
_chemical_formula_sum   'Er1 Lu1 Co4 Si2 C2'
_cell_volume   128.07368232
_cell_formula_units_Z   1
loop_
 _symmetry_equiv_pos_site_id
 _symmetry_equiv_pos_as_xyz
  1  'x, y, z'
loop_
 _atom_site_type_symbol
 _atom_site_label
 _atom_site_symmetry_multiplicity
 _atom_site_fract_x
 _atom_site_fract_y
 _atom_site_fract_z
 _atom_site_occupancy
  Er  Er0  1  0.450058  0.549942  0.750000  1
  Lu  Lu1  1  0.549821  0.450179  0.250000  1
  Co  Co2  1  0.836260  0.163740  0.056484  1
  Co  Co3  1  0.163676  0.836324  0.945058  1
  Co  Co4  1  0.163676  0.836324  0.554942  1
  Co  Co5  1  0.836260  0.163740  0.443516  1
  Si  Si6  1  0.271045  0.728955  0.250000  1
  Si  Si7  1  0.728732  0.271268  0.750000  1
  C  C8  1  0.000237  0.999763  0.002441  1
  C  C9  1  0.000237  0.999763  0.497559  1
