# generated using pymatgen
data_Ho5Tm3(PS)8
_symmetry_space_group_name_H-M   'P 1'
_cell_length_a   5.30011400
_cell_length_b   5.35558992
_cell_length_c   16.69576000
_cell_angle_alpha   89.92233022
_cell_angle_beta   90.00000000
_cell_angle_gamma   90.00000000
_symmetry_Int_Tables_number   1
_chemical_formula_structural   Ho5Tm3(PS)8
_chemical_formula_sum   'Ho5 Tm3 P8 S8'
_cell_volume   473.91267102
_cell_formula_units_Z   1
loop_
 _symmetry_equiv_pos_site_id
 _symmetry_equiv_pos_as_xyz
  1  'x, y, z'
loop_
 _atom_site_type_symbol
 _atom_site_label
 _atom_site_symmetry_multiplicity
 _atom_site_fract_x
 _atom_site_fract_y
 _atom_site_fract_z
 _atom_site_occupancy
  Ho  Ho0  1  0.250000  0.484236  0.361858  1
  Ho  Ho1  1  0.250000  0.984565  0.137628  1
  Ho  Ho2  1  0.750000  0.515910  0.637900  1
  Ho  Ho3  1  0.750000  0.015551  0.862899  1
  Ho  Ho4  1  0.250000  0.014430  0.645828  1
  Tm  Tm5  1  0.250000  0.513862  0.854201  1
  Tm  Tm6  1  0.750000  0.985931  0.353311  1
  Tm  Tm7  1  0.750000  0.486263  0.146178  1
  P  P8  1  0.034641  0.294032  0.997342  1
  P  P9  1  0.465628  0.793286  0.502029  1
  P  P10  1  0.534662  0.706057  0.003078  1
  P  P11  1  0.965200  0.205679  0.496543  1
  P  P12  1  0.965338  0.706057  0.003078  1
  P  P13  1  0.534800  0.205679  0.496543  1
  P  P14  1  0.465359  0.294032  0.997342  1
  P  P15  1  0.034372  0.793286  0.502029  1
  S  S16  1  0.250000  0.485064  0.188369  1
  S  S17  1  0.250000  0.985007  0.311319  1
  S  S18  1  0.750000  0.515045  0.811792  1
  S  S19  1  0.750000  0.015271  0.688978  1
  S  S20  1  0.250000  0.010453  0.816503  1
  S  S21  1  0.250000  0.511295  0.685534  1
  S  S22  1  0.750000  0.989569  0.184868  1
  S  S23  1  0.750000  0.489440  0.314852  1
