# generated using pymatgen
data_Ta5Nb11(Ni2N)4
_symmetry_space_group_name_H-M   'P 1'
_cell_length_a   8.23756923
_cell_length_b   8.24536540
_cell_length_c   8.24536531
_cell_angle_alpha   60.03627590
_cell_angle_beta   60.03126707
_cell_angle_gamma   60.03127609
_symmetry_Int_Tables_number   1
_chemical_formula_structural   Ta5Nb11(Ni2N)4
_chemical_formula_sum   'Ta5 Nb11 Ni8 N4'
_cell_volume   396.30362027
_cell_formula_units_Z   1
loop_
 _symmetry_equiv_pos_site_id
 _symmetry_equiv_pos_as_xyz
  1  'x, y, z'
loop_
 _atom_site_type_symbol
 _atom_site_label
 _atom_site_symmetry_multiplicity
 _atom_site_fract_x
 _atom_site_fract_y
 _atom_site_fract_z
 _atom_site_occupancy
  Ta  Ta0  1  0.125102  0.625522  0.625522  1
  Ta  Ta1  1  0.625364  0.125088  0.624183  1
  Ta  Ta2  1  0.625364  0.624183  0.125088  1
  Ta  Ta3  1  0.623854  0.625522  0.625522  1
  Ta  Ta4  1  0.433168  0.066832  0.066832  1
  Nb  Nb5  1  0.817302  0.816431  0.183067  1
  Nb  Nb6  1  0.183200  0.183067  0.816431  1
  Nb  Nb7  1  0.817302  0.183067  0.816431  1
  Nb  Nb8  1  0.183200  0.816431  0.183067  1
  Nb  Nb9  1  0.183283  0.816717  0.816717  1
  Nb  Nb10  1  0.818284  0.181716  0.181716  1
  Nb  Nb11  1  0.432814  0.433133  0.067492  1
  Nb  Nb12  1  0.066561  0.067492  0.433133  1
  Nb  Nb13  1  0.432814  0.067492  0.433133  1
  Nb  Nb14  1  0.066561  0.433133  0.067492  1
  Nb  Nb15  1  0.066714  0.433286  0.433286  1
  Ni  Ni16  1  0.737749  0.421207  0.421207  1
  Ni  Ni17  1  0.420470  0.740863  0.418196  1
  Ni  Ni18  1  0.420470  0.418196  0.740863  1
  Ni  Ni19  1  0.419838  0.421207  0.421207  1
  Ni  Ni20  1  0.511650  0.830056  0.830056  1
  Ni  Ni21  1  0.829600  0.511635  0.829166  1
  Ni  Ni22  1  0.829600  0.829166  0.511635  1
  Ni  Ni23  1  0.828237  0.830056  0.830056  1
  N  N24  1  0.623197  0.124487  0.124487  1
  N  N25  1  0.125238  0.624685  0.124839  1
  N  N26  1  0.125238  0.124839  0.624685  1
  N  N27  1  0.127828  0.124487  0.124487  1
