# generated using pymatgen
data_Tb19Ho(SiBi2)4
_symmetry_space_group_name_H-M   'P 1'
_cell_length_a   12.14445089
_cell_length_b   9.21331600
_cell_length_c   8.09052959
_cell_angle_alpha   90.00000000
_cell_angle_beta   89.95614606
_cell_angle_gamma   90.00000000
_symmetry_Int_Tables_number   1
_chemical_formula_structural   Tb19Ho(SiBi2)4
_chemical_formula_sum   'Tb19 Ho1 Si4 Bi8'
_cell_volume   905.25446054
_cell_formula_units_Z   1
loop_
 _symmetry_equiv_pos_site_id
 _symmetry_equiv_pos_as_xyz
  1  'x, y, z'
loop_
 _atom_site_type_symbol
 _atom_site_label
 _atom_site_symmetry_multiplicity
 _atom_site_fract_x
 _atom_site_fract_y
 _atom_site_fract_z
 _atom_site_occupancy
  Tb  Tb0  1  0.063391  0.551895  0.819827  1
  Tb  Tb1  1  0.563402  0.948150  0.679947  1
  Tb  Tb2  1  0.936644  0.051659  0.180133  1
  Tb  Tb3  1  0.436582  0.448196  0.320037  1
  Tb  Tb4  1  0.936644  0.448341  0.180133  1
  Tb  Tb5  1  0.436582  0.051804  0.320037  1
  Tb  Tb6  1  0.063391  0.948105  0.819827  1
  Tb  Tb7  1  0.563402  0.551850  0.679947  1
  Tb  Tb8  1  0.501056  0.750000  0.040035  1
  Tb  Tb9  1  0.998945  0.250000  0.540068  1
  Tb  Tb10  1  0.498946  0.250000  0.959913  1
  Tb  Tb11  1  0.211450  0.750000  0.165149  1
  Tb  Tb12  1  0.711672  0.750000  0.334991  1
  Tb  Tb13  1  0.788450  0.250000  0.834994  1
  Tb  Tb14  1  0.288390  0.250000  0.665096  1
  Tb  Tb15  1  0.295249  0.750000  0.635345  1
  Tb  Tb16  1  0.795435  0.750000  0.864501  1
  Tb  Tb17  1  0.704638  0.250000  0.364568  1
  Tb  Tb18  1  0.204600  0.250000  0.135387  1
  Ho  Ho19  1  0.001082  0.750000  0.459595  1
  Si  Si20  1  0.479829  0.750000  0.414230  1
  Si  Si21  1  0.979901  0.750000  0.086579  1
  Si  Si22  1  0.520182  0.250000  0.585834  1
  Si  Si23  1  0.020123  0.250000  0.914227  1
  Bi  Bi24  1  0.325760  0.510933  0.931877  1
  Bi  Bi25  1  0.826080  0.988710  0.567905  1
  Bi  Bi26  1  0.674233  0.010932  0.068132  1
  Bi  Bi27  1  0.173935  0.489426  0.431883  1
  Bi  Bi28  1  0.674233  0.489068  0.068132  1
  Bi  Bi29  1  0.173935  0.010574  0.431883  1
  Bi  Bi30  1  0.325760  0.989067  0.931877  1
  Bi  Bi31  1  0.826080  0.511290  0.567905  1
