# generated using pymatgen
data_Lu3AlPd8
_symmetry_space_group_name_H-M   'P 1'
_cell_length_a   17.13216600
_cell_length_b   4.15239200
_cell_length_c   5.74231100
_cell_angle_alpha   90.00000000
_cell_angle_beta   90.00000000
_cell_angle_gamma   90.00000000
_symmetry_Int_Tables_number   1
_chemical_formula_structural   Lu3AlPd8
_chemical_formula_sum   'Lu6 Al2 Pd16'
_cell_volume   408.50495561
_cell_formula_units_Z   2
loop_
 _symmetry_equiv_pos_site_id
 _symmetry_equiv_pos_as_xyz
  1  'x, y, z'
loop_
 _atom_site_type_symbol
 _atom_site_label
 _atom_site_symmetry_multiplicity
 _atom_site_fract_x
 _atom_site_fract_y
 _atom_site_fract_z
 _atom_site_occupancy
  Lu  Lu0  1  0.090967  0.000000  0.306144  1
  Lu  Lu1  1  0.409033  0.000000  0.306144  1
  Lu  Lu2  1  0.590967  0.000000  0.693856  1
  Lu  Lu3  1  0.909032  0.000000  0.693856  1
  Lu  Lu4  1  0.250000  0.000000  0.794868  1
  Lu  Lu5  1  0.750000  0.000000  0.205133  1
  Al  Al6  1  0.000000  0.499999  0.000000  1
  Al  Al7  1  0.500000  0.499999  0.000000  1
  Pd  Pd8  1  0.250000  0.000000  0.291364  1
  Pd  Pd9  1  0.750000  0.000000  0.708637  1
  Pd  Pd10  1  0.166371  0.499999  0.551179  1
  Pd  Pd11  1  0.333629  0.499999  0.551179  1
  Pd  Pd12  1  0.666370  0.499999  0.448820  1
  Pd  Pd13  1  0.833630  0.499999  0.448820  1
  Pd  Pd14  1  0.162596  0.499999  0.045262  1
  Pd  Pd15  1  0.337405  0.499999  0.045262  1
  Pd  Pd16  1  0.662596  0.499999  0.954737  1
  Pd  Pd17  1  0.837405  0.499999  0.954737  1
  Pd  Pd18  1  0.000000  0.499999  0.499999  1
  Pd  Pd19  1  0.500000  0.499999  0.499999  1
  Pd  Pd20  1  0.072274  0.000000  0.806137  1
  Pd  Pd21  1  0.427726  0.000000  0.806137  1
  Pd  Pd22  1  0.572273  0.000000  0.193863  1
  Pd  Pd23  1  0.927726  0.000000  0.193863  1
