# generated using pymatgen
data_NdTm2Co7(P3Rh)2
_symmetry_space_group_name_H-M   'P 1'
_cell_length_a   3.72985000
_cell_length_b   10.63962700
_cell_length_c   12.40547100
_cell_angle_alpha   90.00000000
_cell_angle_beta   90.00000000
_cell_angle_gamma   90.00000000
_symmetry_Int_Tables_number   1
_chemical_formula_structural   NdTm2Co7(P3Rh)2
_chemical_formula_sum   'Nd2 Tm4 Co14 P12 Rh4'
_cell_volume   492.30135063
_cell_formula_units_Z   2
loop_
 _symmetry_equiv_pos_site_id
 _symmetry_equiv_pos_as_xyz
  1  'x, y, z'
loop_
 _atom_site_type_symbol
 _atom_site_label
 _atom_site_symmetry_multiplicity
 _atom_site_fract_x
 _atom_site_fract_y
 _atom_site_fract_z
 _atom_site_occupancy
  Nd  Nd0  1  0.000000  0.500000  0.521832  1
  Nd  Nd1  1  0.500000  0.000000  0.478168  1
  Tm  Tm2  1  0.500000  0.814412  0.204965  1
  Tm  Tm3  1  0.500000  0.185588  0.204965  1
  Tm  Tm4  1  0.000000  0.685588  0.795035  1
  Tm  Tm5  1  0.000000  0.314412  0.795035  1
  Co  Co6  1  0.000000  0.500000  0.989167  1
  Co  Co7  1  0.500000  0.000000  0.010833  1
  Co  Co8  1  0.500000  0.331509  0.993967  1
  Co  Co9  1  0.500000  0.668491  0.993967  1
  Co  Co10  1  0.000000  0.168491  0.006033  1
  Co  Co11  1  0.000000  0.831509  0.006033  1
  Co  Co12  1  0.500000  0.299697  0.427379  1
  Co  Co13  1  0.500000  0.700303  0.427379  1
  Co  Co14  1  0.000000  0.200303  0.572621  1
  Co  Co15  1  0.000000  0.799697  0.572621  1
  Co  Co16  1  0.500000  0.879901  0.713116  1
  Co  Co17  1  0.500000  0.120099  0.713116  1
  Co  Co18  1  0.000000  0.620099  0.286884  1
  Co  Co19  1  0.000000  0.379901  0.286884  1
  P  P20  1  0.500000  0.500000  0.891845  1
  P  P21  1  0.000000  0.000000  0.108155  1
  P  P22  1  0.500000  0.500000  0.345873  1
  P  P23  1  0.000000  0.000000  0.654127  1
  P  P24  1  0.500000  0.300361  0.615267  1
  P  P25  1  0.500000  0.699639  0.615267  1
  P  P26  1  0.000000  0.199639  0.384733  1
  P  P27  1  0.000000  0.800361  0.384733  1
  P  P28  1  0.500000  0.843288  0.894467  1
  P  P29  1  0.500000  0.156712  0.894467  1
  P  P30  1  0.000000  0.656712  0.105533  1
  P  P31  1  0.000000  0.343288  0.105533  1
  Rh  Rh32  1  0.500000  0.500000  0.157958  1
  Rh  Rh33  1  0.000000  0.000000  0.842042  1
  Rh  Rh34  1  0.500000  0.500000  0.708886  1
  Rh  Rh35  1  0.000000  0.000000  0.291114  1
