# generated using pymatgen
data_SmPa5I24
_symmetry_space_group_name_H-M   'P 1'
_cell_length_a   9.24042100
_cell_length_b   9.27324287
_cell_length_c   19.44287980
_cell_angle_alpha   76.75407650
_cell_angle_beta   90.00000000
_cell_angle_gamma   90.00000000
_symmetry_Int_Tables_number   1
_chemical_formula_structural   SmPa5I24
_chemical_formula_sum   'Sm1 Pa5 I24'
_cell_volume   1621.71056555
_cell_formula_units_Z   1
loop_
 _symmetry_equiv_pos_site_id
 _symmetry_equiv_pos_as_xyz
  1  'x, y, z'
loop_
 _atom_site_type_symbol
 _atom_site_label
 _atom_site_symmetry_multiplicity
 _atom_site_fract_x
 _atom_site_fract_y
 _atom_site_fract_z
 _atom_site_occupancy
  Sm  Sm0  1  0.395930  0.000000  0.250000  1
  Pa  Pa1  1  0.879601  0.828746  0.582218  1
  Pa  Pa2  1  0.118742  0.173305  0.415956  1
  Pa  Pa3  1  0.629735  0.000000  0.750000  1
  Pa  Pa4  1  0.879601  0.171254  0.917782  1
  Pa  Pa5  1  0.118742  0.826695  0.084044  1
  I  I6  1  0.106320  0.392383  0.907091  1
  I  I7  1  0.593430  0.752303  0.261244  1
  I  I8  1  0.115574  0.071763  0.579180  1
  I  I9  1  0.350928  0.374568  0.427880  1
  I  I10  1  0.118671  0.774885  0.241505  1
  I  I11  1  0.118671  0.225115  0.258495  1
  I  I12  1  0.115574  0.928237  0.920820  1
  I  I13  1  0.416127  0.234197  0.740179  1
  I  I14  1  0.893393  0.607512  0.089316  1
  I  I15  1  0.878064  0.228660  0.754939  1
  I  I16  1  0.416127  0.765803  0.759821  1
  I  I17  1  0.893393  0.392488  0.410684  1
  I  I18  1  0.593430  0.247697  0.238756  1
  I  I19  1  0.653297  0.078202  0.587534  1
  I  I20  1  0.338443  0.924596  0.415503  1
  I  I21  1  0.878064  0.771340  0.745061  1
  I  I22  1  0.106320  0.607617  0.592909  1
  I  I23  1  0.646347  0.374665  0.928415  1
  I  I24  1  0.338443  0.075404  0.084497  1
  I  I25  1  0.878230  0.067604  0.079308  1
  I  I26  1  0.646347  0.625335  0.571585  1
  I  I27  1  0.653297  0.921798  0.912466  1
  I  I28  1  0.350928  0.625432  0.072120  1
  I  I29  1  0.878230  0.932396  0.420692  1
