# generated using pymatgen
data_KCuPS3
_symmetry_space_group_name_H-M   'P 1'
_cell_length_a   11.81567900
_cell_length_b   6.20186940
_cell_length_c   9.24107665
_cell_angle_alpha   60.44955550
_cell_angle_beta   90.00000000
_cell_angle_gamma   90.00000000
_symmetry_Int_Tables_number   1
_chemical_formula_structural   KCuPS3
_chemical_formula_sum   'K4 Cu4 P4 S12'
_cell_volume   589.09331782
_cell_formula_units_Z   4
loop_
 _symmetry_equiv_pos_site_id
 _symmetry_equiv_pos_as_xyz
  1  'x, y, z'
loop_
 _atom_site_type_symbol
 _atom_site_label
 _atom_site_symmetry_multiplicity
 _atom_site_fract_x
 _atom_site_fract_y
 _atom_site_fract_z
 _atom_site_occupancy
  K  K0  1  0.180213  0.262828  0.487904  1
  K  K1  1  0.680213  0.737172  0.012096  1
  K  K2  1  0.819787  0.737172  0.512096  1
  K  K3  1  0.319787  0.262828  0.987904  1
  Cu  Cu4  1  0.059094  0.679635  0.865681  1
  Cu  Cu5  1  0.559094  0.320365  0.634319  1
  Cu  Cu6  1  0.940906  0.320365  0.134319  1
  Cu  Cu7  1  0.440906  0.679635  0.365681  1
  P  P8  1  0.459053  0.848910  0.618171  1
  P  P9  1  0.959053  0.151090  0.881829  1
  P  P10  1  0.540947  0.151090  0.381829  1
  P  P11  1  0.040947  0.848910  0.118171  1
  S  S12  1  0.321749  0.738400  0.537780  1
  S  S13  1  0.821749  0.261600  0.962220  1
  S  S14  1  0.678251  0.261600  0.462220  1
  S  S15  1  0.178251  0.738400  0.037780  1
  S  S16  1  0.422205  0.023490  0.750378  1
  S  S17  1  0.922205  0.976510  0.749622  1
  S  S18  1  0.577795  0.976510  0.249622  1
  S  S19  1  0.077795  0.023490  0.250378  1
  S  S20  1  0.576330  0.572912  0.743607  1
  S  S21  1  0.076330  0.427088  0.756393  1
  S  S22  1  0.423670  0.427088  0.256393  1
  S  S23  1  0.923670  0.572912  0.243607  1
