# generated using pymatgen
data_Y3Mg3Ag2Ir
_symmetry_space_group_name_H-M   'P 1'
_cell_length_a   7.79364200
_cell_length_b   7.79364117
_cell_length_c   3.92363400
_cell_angle_alpha   90.00000000
_cell_angle_beta   90.00000000
_cell_angle_gamma   120.00000353
_symmetry_Int_Tables_number   1
_chemical_formula_structural   Y3Mg3Ag2Ir
_chemical_formula_sum   'Y3 Mg3 Ag2 Ir1'
_cell_volume   206.39537655
_cell_formula_units_Z   1
loop_
 _symmetry_equiv_pos_site_id
 _symmetry_equiv_pos_as_xyz
  1  'x, y, z'
loop_
 _atom_site_type_symbol
 _atom_site_label
 _atom_site_symmetry_multiplicity
 _atom_site_fract_x
 _atom_site_fract_y
 _atom_site_fract_z
 _atom_site_occupancy
  Y  Y0  1  0.429931  0.400434  0.500000  1
  Y  Y1  1  0.970503  0.570069  0.500000  1
  Y  Y2  1  0.599566  0.029497  0.500000  1
  Mg  Mg3  1  0.747744  0.744986  0.000000  1
  Mg  Mg4  1  0.255014  0.002759  0.000000  1
  Mg  Mg5  1  0.997241  0.252256  0.000000  1
  Ag  Ag6  1  0.333333  0.666667  0.000000  1
  Ag  Ag7  1  0.000000  0.000000  0.500000  1
  Ir  Ir8  1  0.666667  0.333333  0.000000  1
