# generated using pymatgen
data_ErTm7Sc3Si16W9
_symmetry_space_group_name_H-M   'P 1'
_cell_length_a   6.74394751
_cell_length_b   6.96083097
_cell_length_c   13.21558885
_cell_angle_alpha   89.87741009
_cell_angle_beta   89.77356191
_cell_angle_gamma   89.70754618
_symmetry_Int_Tables_number   1
_chemical_formula_structural   ErTm7Sc3Si16W9
_chemical_formula_sum   'Er1 Tm7 Sc3 Si16 W9'
_cell_volume   620.37139383
_cell_formula_units_Z   1
loop_
 _symmetry_equiv_pos_site_id
 _symmetry_equiv_pos_as_xyz
  1  'x, y, z'
loop_
 _atom_site_type_symbol
 _atom_site_label
 _atom_site_symmetry_multiplicity
 _atom_site_fract_x
 _atom_site_fract_y
 _atom_site_fract_z
 _atom_site_occupancy
  Er  Er0  1  0.002055  0.169239  0.099105  1
  Tm  Tm1  1  0.994628  0.827781  0.898188  1
  Tm  Tm2  1  0.497494  0.673766  0.902636  1
  Tm  Tm3  1  0.001371  0.825097  0.591119  1
  Tm  Tm4  1  0.504357  0.329055  0.101085  1
  Tm  Tm5  1  0.998611  0.171472  0.408091  1
  Tm  Tm6  1  0.498073  0.327681  0.407363  1
  Tm  Tm7  1  0.499952  0.672074  0.590717  1
  Sc  Sc8  1  0.330810  0.165469  0.872985  1
  Sc  Sc9  1  0.827939  0.326952  0.871923  1
  Sc  Sc10  1  0.167713  0.671963  0.126529  1
  Si  Si11  1  0.032755  0.121694  0.741727  1
  Si  Si12  1  0.967284  0.879877  0.256239  1
  Si  Si13  1  0.467784  0.626262  0.256229  1
  Si  Si14  1  0.531123  0.377167  0.742336  1
  Si  Si15  1  0.295711  0.862854  0.745432  1
  Si  Si16  1  0.702620  0.134420  0.254156  1
  Si  Si17  1  0.203013  0.367184  0.252143  1
  Si  Si18  1  0.793323  0.633249  0.745898  1
  Si  Si19  1  0.165221  0.456554  0.542155  1
  Si  Si20  1  0.834297  0.542567  0.455922  1
  Si  Si21  1  0.336813  0.956676  0.455412  1
  Si  Si22  1  0.826697  0.544479  0.045152  1
  Si  Si23  1  0.666074  0.041646  0.542354  1
  Si  Si24  1  0.160548  0.466738  0.954111  1
  Si  Si25  1  0.668119  0.035698  0.966638  1
  Si  Si26  1  0.353071  0.965815  0.050606  1
  W  W27  1  0.156828  0.491161  0.742336  1
  W  W28  1  0.838992  0.508414  0.255357  1
  W  W29  1  0.340544  0.993502  0.255439  1
  W  W30  1  0.658752  0.004189  0.742227  1
  W  W31  1  0.335391  0.163212  0.619662  1
  W  W32  1  0.669751  0.837487  0.377640  1
  W  W33  1  0.163186  0.664052  0.376970  1
  W  W34  1  0.675633  0.830587  0.135117  1
  W  W35  1  0.833468  0.333966  0.619001  1
