# generated using pymatgen
data_Tb16MgIn3Ni4
_symmetry_space_group_name_H-M   'P 1'
_cell_length_a   9.66182191
_cell_length_b   9.63796199
_cell_length_c   9.63796200
_cell_angle_alpha   59.99999997
_cell_angle_beta   60.08165699
_cell_angle_gamma   60.08165815
_symmetry_Int_Tables_number   1
_chemical_formula_structural   Tb16MgIn3Ni4
_chemical_formula_sum   'Tb16 Mg1 In3 Ni4'
_cell_volume   635.40317069
_cell_formula_units_Z   1
loop_
 _symmetry_equiv_pos_site_id
 _symmetry_equiv_pos_as_xyz
  1  'x, y, z'
loop_
 _atom_site_type_symbol
 _atom_site_label
 _atom_site_symmetry_multiplicity
 _atom_site_fract_x
 _atom_site_fract_y
 _atom_site_fract_z
 _atom_site_occupancy
  Tb  Tb0  1  0.184815  0.814731  0.814731  1
  Tb  Tb1  1  0.814385  0.186125  0.186125  1
  Tb  Tb2  1  0.814385  0.186125  0.813364  1
  Tb  Tb3  1  0.184815  0.814731  0.185722  1
  Tb  Tb4  1  0.814385  0.813364  0.186125  1
  Tb  Tb5  1  0.184815  0.185722  0.814731  1
  Tb  Tb6  1  0.060043  0.439626  0.439626  1
  Tb  Tb7  1  0.436600  0.062881  0.062881  1
  Tb  Tb8  1  0.436600  0.062881  0.437637  1
  Tb  Tb9  1  0.060043  0.439626  0.060705  1
  Tb  Tb10  1  0.436600  0.437637  0.062881  1
  Tb  Tb11  1  0.060043  0.060705  0.439626  1
  Tb  Tb12  1  0.598252  0.596162  0.596162  1
  Tb  Tb13  1  0.598252  0.596162  0.209424  1
  Tb  Tb14  1  0.598252  0.209424  0.596162  1
  Tb  Tb15  1  0.206834  0.597722  0.597722  1
  Mg  Mg16  1  0.517585  0.827472  0.827472  1
  In  In17  1  0.831321  0.832149  0.832149  1
  In  In18  1  0.831321  0.832149  0.504381  1
  In  In19  1  0.831321  0.504381  0.832149  1
  Ni  Ni20  1  0.391446  0.391838  0.391838  1
  Ni  Ni21  1  0.391446  0.391838  0.824880  1
  Ni  Ni22  1  0.391446  0.824880  0.391838  1
  Ni  Ni23  1  0.824996  0.391668  0.391668  1
