# generated using pymatgen
data_Lu12InFe2PdRu
_symmetry_space_group_name_H-M   'P 1'
_cell_length_a   8.09888546
_cell_length_b   8.10047421
_cell_length_c   8.09888547
_cell_angle_alpha   106.82443820
_cell_angle_beta   111.00245576
_cell_angle_gamma   110.61129007
_symmetry_Int_Tables_number   1
_chemical_formula_structural   Lu12InFe2PdRu
_chemical_formula_sum   'Lu12 In1 Fe2 Pd1 Ru1'
_cell_volume   408.39887889
_cell_formula_units_Z   1
loop_
 _symmetry_equiv_pos_site_id
 _symmetry_equiv_pos_as_xyz
  1  'x, y, z'
loop_
 _atom_site_type_symbol
 _atom_site_label
 _atom_site_symmetry_multiplicity
 _atom_site_fract_x
 _atom_site_fract_y
 _atom_site_fract_z
 _atom_site_occupancy
  Lu  Lu0  1  0.309421  0.309018  0.618552  1
  Lu  Lu1  1  0.690579  0.690982  0.381448  1
  Lu  Lu2  1  0.690465  0.309018  0.999596  1
  Lu  Lu3  1  0.309535  0.690982  0.000404  1
  Lu  Lu4  1  0.190728  0.415239  0.224510  1
  Lu  Lu5  1  0.809272  0.584761  0.775490  1
  Lu  Lu6  1  0.190791  0.966143  0.775352  1
  Lu  Lu7  1  0.927834  0.192815  0.734964  1
  Lu  Lu8  1  0.809209  0.033857  0.224648  1
  Lu  Lu9  1  0.072166  0.807185  0.265036  1
  Lu  Lu10  1  0.457852  0.192815  0.264979  1
  Lu  Lu11  1  0.542148  0.807185  0.735021  1
  In  In12  1  0.000000  0.500000  0.500000  1
  Fe  Fe13  1  0.381375  0.381084  0.999709  1
  Fe  Fe14  1  0.618625  0.618916  0.000291  1
  Pd  Pd15  1  0.500000  0.000000  0.500000  1
  Ru  Ru16  1  0.000000  0.000000  0.000000  1
