# generated using pymatgen
data_BiSb3(WO4)4
_symmetry_space_group_name_H-M   'P 1'
_cell_length_a   5.03917500
_cell_length_b   5.62684539
_cell_length_c   12.12959075
_cell_angle_alpha   90.75714855
_cell_angle_beta   90.00000000
_cell_angle_gamma   90.00000000
_symmetry_Int_Tables_number   1
_chemical_formula_structural   BiSb3(WO4)4
_chemical_formula_sum   'Bi1 Sb3 W4 O16'
_cell_volume   343.90037510
_cell_formula_units_Z   1
loop_
 _symmetry_equiv_pos_site_id
 _symmetry_equiv_pos_as_xyz
  1  'x, y, z'
loop_
 _atom_site_type_symbol
 _atom_site_label
 _atom_site_symmetry_multiplicity
 _atom_site_fract_x
 _atom_site_fract_y
 _atom_site_fract_z
 _atom_site_occupancy
  Bi  Bi0  1  0.726415  0.250000  0.000000  1
  Sb  Sb1  1  0.187818  0.750000  0.500000  1
  Sb  Sb2  1  0.310977  0.750000  0.000000  1
  Sb  Sb3  1  0.811033  0.250000  0.500000  1
  W  W4  1  0.746213  0.892750  0.249707  1
  W  W5  1  0.746213  0.607250  0.750293  1
  W  W6  1  0.250897  0.105455  0.751322  1
  W  W7  1  0.250897  0.394545  0.248678  1
  O  O8  1  0.085739  0.080235  0.593797  1
  O  O9  1  0.085739  0.419765  0.406203  1
  O  O10  1  0.411607  0.072352  0.905280  1
  O  O11  1  0.411607  0.427648  0.094720  1
  O  O12  1  0.912685  0.921634  0.406266  1
  O  O13  1  0.912685  0.578366  0.593734  1
  O  O14  1  0.589548  0.913778  0.093992  1
  O  O15  1  0.589548  0.586222  0.906008  1
  O  O16  1  0.506415  0.138830  0.297919  1
  O  O17  1  0.506415  0.361170  0.702081  1
  O  O18  1  0.997106  0.161351  0.197406  1
  O  O19  1  0.997106  0.338649  0.802594  1
  O  O20  1  0.487101  0.860136  0.699181  1
  O  O21  1  0.487101  0.639864  0.300819  1
  O  O22  1  0.994566  0.841851  0.797687  1
  O  O23  1  0.994566  0.658149  0.202313  1
