# generated using pymatgen
data_Th2As2O9
_symmetry_space_group_name_H-M   'P 1'
_cell_length_a   6.07517531
_cell_length_b   6.07517544
_cell_length_c   13.38649600
_cell_angle_alpha   90.00000000
_cell_angle_beta   90.00000000
_cell_angle_gamma   104.55619828
_symmetry_Int_Tables_number   1
_chemical_formula_structural   Th2As2O9
_chemical_formula_sum   'Th4 As4 O18'
_cell_volume   478.20680901
_cell_formula_units_Z   2
loop_
 _symmetry_equiv_pos_site_id
 _symmetry_equiv_pos_as_xyz
  1  'x, y, z'
loop_
 _atom_site_type_symbol
 _atom_site_label
 _atom_site_symmetry_multiplicity
 _atom_site_fract_x
 _atom_site_fract_y
 _atom_site_fract_z
 _atom_site_occupancy
  Th  Th0  1  0.296641  0.703359  0.566847  1
  Th  Th1  1  0.703359  0.296641  0.433153  1
  Th  Th2  1  0.203359  0.796641  0.066847  1
  Th  Th3  1  0.796641  0.203359  0.933153  1
  As  As4  1  0.394094  0.605906  0.856148  1
  As  As5  1  0.105906  0.894094  0.356148  1
  As  As6  1  0.605906  0.394094  0.143852  1
  As  As7  1  0.894094  0.105906  0.643852  1
  O  O8  1  0.068209  0.931791  0.622356  1
  O  O9  1  0.986206  0.363432  0.581323  1
  O  O10  1  0.139029  0.860971  0.231837  1
  O  O11  1  0.486206  0.863432  0.918677  1
  O  O12  1  0.636568  0.013794  0.581323  1
  O  O13  1  0.431791  0.568209  0.122356  1
  O  O14  1  0.863432  0.486206  0.081323  1
  O  O15  1  0.639029  0.360971  0.268163  1
  O  O16  1  0.931791  0.068209  0.377644  1
  O  O17  1  0.363432  0.986206  0.418677  1
  O  O18  1  0.360971  0.639029  0.731837  1
  O  O19  1  0.513794  0.136568  0.081323  1
  O  O20  1  0.568209  0.431791  0.877644  1
  O  O21  1  0.500000  0.500000  0.500000  1
  O  O22  1  0.860971  0.139029  0.768163  1
  O  O23  1  0.136568  0.513794  0.918677  1
  O  O24  1  0.013794  0.636568  0.418677  1
  O  O25  1  0.000000  0.000000  0.000000  1
