# generated using pymatgen
data_DyHoPPt8
_symmetry_space_group_name_H-M   'P 1'
_cell_length_a   4.06165800
_cell_length_b   4.06165800
_cell_length_c   11.30281800
_cell_angle_alpha   90.00000000
_cell_angle_beta   90.00000000
_cell_angle_gamma   90.00000000
_symmetry_Int_Tables_number   1
_chemical_formula_structural   DyHoPPt8
_chemical_formula_sum   'Dy1 Ho1 P1 Pt8'
_cell_volume   186.46333124
_cell_formula_units_Z   1
loop_
 _symmetry_equiv_pos_site_id
 _symmetry_equiv_pos_as_xyz
  1  'x, y, z'
loop_
 _atom_site_type_symbol
 _atom_site_label
 _atom_site_symmetry_multiplicity
 _atom_site_fract_x
 _atom_site_fract_y
 _atom_site_fract_z
 _atom_site_occupancy
  Dy  Dy0  1  0.500000  0.500000  0.816097  1
  Ho  Ho1  1  0.500000  0.500000  0.183922  1
  P  P2  1  0.000000  0.000000  0.499916  1
  Pt  Pt3  1  0.500000  0.000000  0.000353  1
  Pt  Pt4  1  0.000000  0.500000  0.000353  1
  Pt  Pt5  1  0.500000  0.000000  0.626808  1
  Pt  Pt6  1  0.000000  0.500000  0.626808  1
  Pt  Pt7  1  0.500000  0.000000  0.372840  1
  Pt  Pt8  1  0.000000  0.500000  0.372840  1
  Pt  Pt9  1  0.000000  0.000000  0.815469  1
  Pt  Pt10  1  0.000000  0.000000  0.184595  1
