# generated using pymatgen
data_NdLu4(In2Au)2
_symmetry_space_group_name_H-M   'P 1'
_cell_length_a   3.62672900
_cell_length_b   8.19127000
_cell_length_c   18.31999000
_cell_angle_alpha   90.00000000
_cell_angle_beta   90.00000000
_cell_angle_gamma   90.00000000
_symmetry_Int_Tables_number   1
_chemical_formula_structural   NdLu4(In2Au)2
_chemical_formula_sum   'Nd2 Lu8 In8 Au4'
_cell_volume   544.24140440
_cell_formula_units_Z   2
loop_
 _symmetry_equiv_pos_site_id
 _symmetry_equiv_pos_as_xyz
  1  'x, y, z'
loop_
 _atom_site_type_symbol
 _atom_site_label
 _atom_site_symmetry_multiplicity
 _atom_site_fract_x
 _atom_site_fract_y
 _atom_site_fract_z
 _atom_site_occupancy
  Nd  Nd0  1  0.000000  0.500000  0.500000  1
  Nd  Nd1  1  0.000000  0.000000  0.000000  1
  Lu  Lu2  1  0.000000  0.739533  0.282699  1
  Lu  Lu3  1  0.000000  0.260467  0.717301  1
  Lu  Lu4  1  0.000000  0.760467  0.782699  1
  Lu  Lu5  1  0.000000  0.239533  0.217301  1
  Lu  Lu6  1  0.000000  0.623498  0.081834  1
  Lu  Lu7  1  0.000000  0.376502  0.918166  1
  Lu  Lu8  1  0.000000  0.876502  0.581834  1
  Lu  Lu9  1  0.000000  0.123498  0.418166  1
  In  In10  1  0.500000  0.698933  0.933787  1
  In  In11  1  0.500000  0.301067  0.066213  1
  In  In12  1  0.500000  0.801067  0.433787  1
  In  In13  1  0.500000  0.198933  0.566213  1
  In  In14  1  0.500000  0.581385  0.650236  1
  In  In15  1  0.500000  0.418615  0.349764  1
  In  In16  1  0.500000  0.918615  0.150236  1
  In  In17  1  0.500000  0.081385  0.849764  1
  Au  Au18  1  0.500000  0.528663  0.196970  1
  Au  Au19  1  0.500000  0.471337  0.803030  1
  Au  Au20  1  0.500000  0.971337  0.696970  1
  Au  Au21  1  0.500000  0.028663  0.303030  1
