# generated using pymatgen
data_Tb3TlIn2IrPd2
_symmetry_space_group_name_H-M   'P 1'
_cell_length_a   7.80630678
_cell_length_b   7.81372104
_cell_length_c   3.82106600
_cell_angle_alpha   90.00000000
_cell_angle_beta   90.00000000
_cell_angle_gamma   120.16787579
_symmetry_Int_Tables_number   1
_chemical_formula_structural   Tb3TlIn2IrPd2
_chemical_formula_sum   'Tb3 Tl1 In2 Ir1 Pd2'
_cell_volume   201.50300837
_cell_formula_units_Z   1
loop_
 _symmetry_equiv_pos_site_id
 _symmetry_equiv_pos_as_xyz
  1  'x, y, z'
loop_
 _atom_site_type_symbol
 _atom_site_label
 _atom_site_symmetry_multiplicity
 _atom_site_fract_x
 _atom_site_fract_y
 _atom_site_fract_z
 _atom_site_occupancy
  Tb  Tb0  1  0.415745  0.396828  0.000000  1
  Tb  Tb1  1  0.601013  0.017504  0.000000  1
  Tb  Tb2  1  0.980332  0.582944  0.000000  1
  Tl  Tl3  1  0.007134  0.267917  0.500000  1
  In  In4  1  0.734906  0.739683  0.500000  1
  In  In5  1  0.259747  0.993340  0.500000  1
  Ir  Ir6  1  0.661201  0.334988  0.500000  1
  Pd  Pd7  1  0.000124  0.992025  0.000000  1
  Pd  Pd8  1  0.339798  0.674770  0.500000  1
