# generated using pymatgen
data_DyErTh2(Al3Ir)6
_symmetry_space_group_name_H-M   'P 1'
_cell_length_a   7.61188634
_cell_length_b   7.61505137
_cell_length_c   9.47517800
_cell_angle_alpha   90.00000000
_cell_angle_beta   90.00000000
_cell_angle_gamma   119.50256014
_symmetry_Int_Tables_number   1
_chemical_formula_structural   DyErTh2(Al3Ir)6
_chemical_formula_sum   'Dy1 Er1 Th2 Al18 Ir6'
_cell_volume   478.01145657
_cell_formula_units_Z   1
loop_
 _symmetry_equiv_pos_site_id
 _symmetry_equiv_pos_as_xyz
  1  'x, y, z'
loop_
 _atom_site_type_symbol
 _atom_site_label
 _atom_site_symmetry_multiplicity
 _atom_site_fract_x
 _atom_site_fract_y
 _atom_site_fract_z
 _atom_site_occupancy
  Dy  Dy0  1  0.327718  0.005802  0.750000  1
  Er  Er1  1  0.004667  0.327443  0.750000  1
  Th  Th2  1  0.995062  0.671690  0.250000  1
  Th  Th3  1  0.671760  0.994223  0.250000  1
  Al  Al4  1  0.135381  0.135287  0.250000  1
  Al  Al5  1  0.873146  0.873713  0.750000  1
  Al  Al6  1  0.005228  0.335411  0.068863  1
  Al  Al7  1  0.000543  0.663869  0.916983  1
  Al  Al8  1  0.000543  0.663869  0.583017  1
  Al  Al9  1  0.335785  0.005941  0.431146  1
  Al  Al10  1  0.005228  0.335411  0.431137  1
  Al  Al11  1  0.664438  0.000555  0.582917  1
  Al  Al12  1  0.664438  0.000555  0.917083  1
  Al  Al13  1  0.335785  0.005941  0.068854  1
  Al  Al14  1  0.331562  0.332514  0.558909  1
  Al  Al15  1  0.663171  0.662883  0.458824  1
  Al  Al16  1  0.663171  0.662883  0.041176  1
  Al  Al17  1  0.331562  0.332514  0.941091  1
  Al  Al18  1  0.340721  0.542949  0.250000  1
  Al  Al19  1  0.658689  0.447619  0.750000  1
  Al  Al20  1  0.544465  0.340331  0.250000  1
  Al  Al21  1  0.446203  0.657885  0.750000  1
  Ir  Ir22  1  0.673402  0.328279  0.000820  1
  Ir  Ir23  1  0.328233  0.673258  0.001196  1
  Ir  Ir24  1  0.328233  0.673258  0.498804  1
  Ir  Ir25  1  0.673402  0.328279  0.499180  1
  Ir  Ir26  1  0.998729  0.998817  0.001335  1
  Ir  Ir27  1  0.998729  0.998817  0.498665  1
