# generated using pymatgen
data_DyY3Zn2(Co2B)6
_symmetry_space_group_name_H-M   'P 1'
_cell_length_a   5.09499700
_cell_length_b   5.09750184
_cell_length_c   12.64221300
_cell_angle_alpha   90.00000000
_cell_angle_beta   89.99997751
_cell_angle_gamma   119.94171852
_symmetry_Int_Tables_number   1
_chemical_formula_structural   DyY3Zn2(Co2B)6
_chemical_formula_sum   'Dy1 Y3 Zn2 Co12 B6'
_cell_volume   284.51804334
_cell_formula_units_Z   1
loop_
 _symmetry_equiv_pos_site_id
 _symmetry_equiv_pos_as_xyz
  1  'x, y, z'
loop_
 _atom_site_type_symbol
 _atom_site_label
 _atom_site_symmetry_multiplicity
 _atom_site_fract_x
 _atom_site_fract_y
 _atom_site_fract_z
 _atom_site_occupancy
  Dy  Dy0  1  0.000000  0.000000  0.739324  1
  Y  Y1  1  0.000000  0.000000  0.260714  1
  Y  Y2  1  0.000000  0.000000  0.500108  1
  Y  Y3  1  0.000000  0.000000  0.999945  1
  Zn  Zn4  1  0.333365  0.666673  0.999966  1
  Zn  Zn5  1  0.666635  0.333327  0.999966  1
  Co  Co6  1  0.500000  0.000001  0.613722  1
  Co  Co7  1  0.500000  0.000000  0.838138  1
  Co  Co8  1  0.500000  0.500000  0.838187  1
  Co  Co9  1  0.500000  0.500000  0.386345  1
  Co  Co10  1  0.000000  0.500000  0.613687  1
  Co  Co11  1  0.000000  0.500000  0.161801  1
  Co  Co12  1  0.000000  0.500000  0.838149  1
  Co  Co13  1  0.500000  0.500000  0.161765  1
  Co  Co14  1  0.500000  0.000000  0.386362  1
  Co  Co15  1  0.500000  0.000000  0.161769  1
  Co  Co16  1  0.500000  0.500000  0.613717  1
  Co  Co17  1  0.000000  0.500000  0.386364  1
  B  B18  1  0.666726  0.333520  0.730315  1
  B  B19  1  0.333274  0.666480  0.730315  1
  B  B20  1  0.333436  0.666578  0.269639  1
  B  B21  1  0.666613  0.333396  0.500032  1
  B  B22  1  0.666563  0.333422  0.269639  1
  B  B23  1  0.333387  0.666603  0.500032  1
