# generated using pymatgen
data_Y2B4Ru3Rh
_symmetry_space_group_name_H-M   'P 1'
_cell_length_a   6.69239898
_cell_length_b   5.92059154
_cell_length_c   5.53918030
_cell_angle_alpha   71.37508378
_cell_angle_beta   56.96559545
_cell_angle_gamma   52.09093052
_symmetry_Int_Tables_number   1
_chemical_formula_structural   Y2B4Ru3Rh
_chemical_formula_sum   'Y2 B4 Ru3 Rh1'
_cell_volume   145.13219745
_cell_formula_units_Z   1
loop_
 _symmetry_equiv_pos_site_id
 _symmetry_equiv_pos_as_xyz
  1  'x, y, z'
loop_
 _atom_site_type_symbol
 _atom_site_label
 _atom_site_symmetry_multiplicity
 _atom_site_fract_x
 _atom_site_fract_y
 _atom_site_fract_z
 _atom_site_occupancy
  Y  Y0  1  0.501838  0.501838  0.498162  1
  Y  Y1  1  0.750558  0.750557  0.749442  1
  B  B2  1  0.065897  0.436029  0.067053  1
  B  B3  1  0.184628  0.809811  0.194991  1
  B  B4  1  0.436031  0.065896  0.431019  1
  B  B5  1  0.809811  0.184628  0.810570  1
  Ru  Ru6  1  0.387300  0.387298  0.112700  1
  Ru  Ru7  1  0.863886  0.863886  0.136114  1
  Ru  Ru8  1  0.112806  0.112804  0.387194  1
  Rh  Rh9  1  0.137252  0.137252  0.862748  1
