# generated using pymatgen
data_Ti2Mn3Be
_symmetry_space_group_name_H-M   'P 1'
_cell_length_a   4.65589100
_cell_length_b   4.65588999
_cell_length_c   7.74940500
_cell_angle_alpha   90.00000000
_cell_angle_beta   90.00000000
_cell_angle_gamma   120.00000011
_symmetry_Int_Tables_number   1
_chemical_formula_structural   Ti2Mn3Be
_chemical_formula_sum   'Ti4 Mn6 Be2'
_cell_volume   145.48040587
_cell_formula_units_Z   2
loop_
 _symmetry_equiv_pos_site_id
 _symmetry_equiv_pos_as_xyz
  1  'x, y, z'
loop_
 _atom_site_type_symbol
 _atom_site_label
 _atom_site_symmetry_multiplicity
 _atom_site_fract_x
 _atom_site_fract_y
 _atom_site_fract_z
 _atom_site_occupancy
  Ti  Ti0  1  0.333333  0.666667  0.435849  1
  Ti  Ti1  1  0.666667  0.333333  0.935849  1
  Ti  Ti2  1  0.666667  0.333333  0.564151  1
  Ti  Ti3  1  0.333333  0.666667  0.064151  1
  Mn  Mn4  1  0.663705  0.831852  0.750000  1
  Mn  Mn5  1  0.336295  0.168148  0.250000  1
  Mn  Mn6  1  0.831852  0.168148  0.250000  1
  Mn  Mn7  1  0.168148  0.336295  0.750000  1
  Mn  Mn8  1  0.168148  0.831852  0.750000  1
  Mn  Mn9  1  0.831852  0.663705  0.250000  1
  Be  Be10  1  0.000000  0.000000  0.500000  1
  Be  Be11  1  0.000000  0.000000  0.000000  1
