# generated using pymatgen
data_Th3Al12(TcPd)2
_symmetry_space_group_name_H-M   'P 1'
_cell_length_a   8.94427800
_cell_length_b   9.02372094
_cell_length_c   9.72658700
_cell_angle_alpha   90.00000000
_cell_angle_beta   90.00000000
_cell_angle_gamma   119.70920510
_symmetry_Int_Tables_number   1
_chemical_formula_structural   Th3Al12(TcPd)2
_chemical_formula_sum   'Th6 Al24 Tc4 Pd4'
_cell_volume   681.84741382
_cell_formula_units_Z   2
loop_
 _symmetry_equiv_pos_site_id
 _symmetry_equiv_pos_as_xyz
  1  'x, y, z'
loop_
 _atom_site_type_symbol
 _atom_site_label
 _atom_site_symmetry_multiplicity
 _atom_site_fract_x
 _atom_site_fract_y
 _atom_site_fract_z
 _atom_site_occupancy
  Th  Th0  1  0.191325  0.382649  0.250000  1
  Th  Th1  1  0.808675  0.617351  0.750000  1
  Th  Th2  1  0.611631  0.814371  0.250000  1
  Th  Th3  1  0.388369  0.185629  0.750000  1
  Th  Th4  1  0.202742  0.814371  0.250000  1
  Th  Th5  1  0.797258  0.185629  0.750000  1
  Al  Al6  1  0.335054  0.670110  0.014997  1
  Al  Al7  1  0.664946  0.329890  0.985003  1
  Al  Al8  1  0.664946  0.329890  0.514997  1
  Al  Al9  1  0.335054  0.670110  0.485003  1
  Al  Al10  1  0.159619  0.319238  0.577765  1
  Al  Al11  1  0.840381  0.680762  0.422235  1
  Al  Al12  1  0.675621  0.841431  0.578176  1
  Al  Al13  1  0.840381  0.680762  0.077765  1
  Al  Al14  1  0.324379  0.158569  0.421824  1
  Al  Al15  1  0.159619  0.319238  0.922235  1
  Al  Al16  1  0.165810  0.841431  0.578176  1
  Al  Al17  1  0.324379  0.158569  0.078176  1
  Al  Al18  1  0.834190  0.158569  0.421824  1
  Al  Al19  1  0.675621  0.841431  0.921824  1
  Al  Al20  1  0.834190  0.158569  0.078176  1
  Al  Al21  1  0.165810  0.841431  0.921824  1
  Al  Al22  1  0.567177  0.134353  0.250000  1
  Al  Al23  1  0.432823  0.865647  0.750000  1
  Al  Al24  1  0.873870  0.439406  0.250000  1
  Al  Al25  1  0.126130  0.560594  0.750000  1
  Al  Al26  1  0.565535  0.439406  0.250000  1
  Al  Al27  1  0.434465  0.560594  0.750000  1
  Al  Al28  1  0.000212  0.000423  0.250000  1
  Al  Al29  1  0.999788  0.999577  0.750000  1
  Tc  Tc30  1  0.500000  0.000000  0.000000  1
  Tc  Tc31  1  0.500000  0.000000  0.500000  1
  Tc  Tc32  1  0.000000  0.000000  0.000000  1
  Tc  Tc33  1  0.000000  0.000000  0.500000  1
  Pd  Pd34  1  0.000000  0.500000  0.000000  1
  Pd  Pd35  1  0.500000  0.500000  0.000000  1
  Pd  Pd36  1  0.000000  0.500000  0.500000  1
  Pd  Pd37  1  0.500000  0.500000  0.500000  1
