# generated using pymatgen
data_Nb12Zn5Ga7N4
_symmetry_space_group_name_H-M   'P 1'
_cell_length_a   8.29671814
_cell_length_b   8.29671803
_cell_length_c   8.29671873
_cell_angle_alpha   60.03919609
_cell_angle_beta   60.03919499
_cell_angle_gamma   60.03919629
_symmetry_Int_Tables_number   1
_chemical_formula_structural   Nb12Zn5Ga7N4
_chemical_formula_sum   'Nb12 Zn5 Ga7 N4'
_cell_volume   404.19386024
_cell_formula_units_Z   1
loop_
 _symmetry_equiv_pos_site_id
 _symmetry_equiv_pos_as_xyz
  1  'x, y, z'
loop_
 _atom_site_type_symbol
 _atom_site_label
 _atom_site_symmetry_multiplicity
 _atom_site_fract_x
 _atom_site_fract_y
 _atom_site_fract_z
 _atom_site_occupancy
  Nb  Nb0  1  0.438624  0.438624  0.061932  1
  Nb  Nb1  1  0.060865  0.439127  0.060865  1
  Nb  Nb2  1  0.439127  0.060865  0.060865  1
  Nb  Nb3  1  0.060865  0.060865  0.439127  1
  Nb  Nb4  1  0.438624  0.061932  0.438624  1
  Nb  Nb5  1  0.061932  0.438624  0.438624  1
  Nb  Nb6  1  0.811043  0.811043  0.189085  1
  Nb  Nb7  1  0.188573  0.812265  0.188573  1
  Nb  Nb8  1  0.812265  0.188573  0.188573  1
  Nb  Nb9  1  0.188573  0.188573  0.812265  1
  Nb  Nb10  1  0.811043  0.189085  0.811043  1
  Nb  Nb11  1  0.189085  0.811043  0.811043  1
  Zn  Zn12  1  0.414858  0.414858  0.414858  1
  Zn  Zn13  1  0.623008  0.623008  0.126447  1
  Zn  Zn14  1  0.623008  0.126447  0.623008  1
  Zn  Zn15  1  0.126447  0.623008  0.623008  1
  Zn  Zn16  1  0.624956  0.624956  0.624956  1
  Ga  Ga17  1  0.837895  0.837895  0.486925  1
  Ga  Ga18  1  0.837895  0.486925  0.837895  1
  Ga  Ga19  1  0.486925  0.837895  0.837895  1
  Ga  Ga20  1  0.837597  0.837597  0.837597  1
  Ga  Ga21  1  0.412061  0.412061  0.761866  1
  Ga  Ga22  1  0.412061  0.761866  0.412061  1
  Ga  Ga23  1  0.761866  0.412061  0.412061  1
  N  N24  1  0.125238  0.125238  0.624857  1
  N  N25  1  0.125238  0.624857  0.125238  1
  N  N26  1  0.624857  0.125238  0.125238  1
  N  N27  1  0.125472  0.125472  0.125472  1
