# generated using pymatgen
data_EuHgPd4
_symmetry_space_group_name_H-M   'P 1'
_cell_length_a   5.42356829
_cell_length_b   5.42356816
_cell_length_c   5.42356800
_cell_angle_alpha   60.00000096
_cell_angle_beta   60.00000176
_cell_angle_gamma   60.00000390
_symmetry_Int_Tables_number   1
_chemical_formula_structural   EuHgPd4
_chemical_formula_sum   'Eu1 Hg1 Pd4'
_cell_volume   112.80811142
_cell_formula_units_Z   1
loop_
 _symmetry_equiv_pos_site_id
 _symmetry_equiv_pos_as_xyz
  1  'x, y, z'
loop_
 _atom_site_type_symbol
 _atom_site_label
 _atom_site_symmetry_multiplicity
 _atom_site_fract_x
 _atom_site_fract_y
 _atom_site_fract_z
 _atom_site_occupancy
  Eu  Eu0  1  0.500000  0.500000  0.500000  1
  Hg  Hg1  1  0.750000  0.750000  0.750000  1
  Pd  Pd2  1  0.124699  0.124699  0.625904  1
  Pd  Pd3  1  0.124699  0.625904  0.124699  1
  Pd  Pd4  1  0.124699  0.124699  0.124699  1
  Pd  Pd5  1  0.625904  0.124699  0.124699  1
