# generated using pymatgen
data_Dy3Zr(Ga3Ir)6
_symmetry_space_group_name_H-M   'P 1'
_cell_length_a   7.54713300
_cell_length_b   7.53731618
_cell_length_c   9.43448100
_cell_angle_alpha   90.00000000
_cell_angle_beta   90.00000000
_cell_angle_gamma   119.63158287
_symmetry_Int_Tables_number   1
_chemical_formula_structural   Dy3Zr(Ga3Ir)6
_chemical_formula_sum   'Dy3 Zr1 Ga18 Ir6'
_cell_volume   466.49578422
_cell_formula_units_Z   1
loop_
 _symmetry_equiv_pos_site_id
 _symmetry_equiv_pos_as_xyz
  1  'x, y, z'
loop_
 _atom_site_type_symbol
 _atom_site_label
 _atom_site_symmetry_multiplicity
 _atom_site_fract_x
 _atom_site_fract_y
 _atom_site_fract_z
 _atom_site_occupancy
  Dy  Dy0  1  0.003461  0.327993  0.750000  1
  Dy  Dy1  1  0.671358  0.997712  0.250000  1
  Dy  Dy2  1  0.328806  0.003616  0.750000  1
  Zr  Zr3  1  0.998051  0.671958  0.250000  1
  Ga  Ga4  1  0.126825  0.126625  0.250000  1
  Ga  Ga5  1  0.869785  0.868385  0.750000  1
  Ga  Ga6  1  0.999023  0.338513  0.083996  1
  Ga  Ga7  1  0.000791  0.664524  0.921796  1
  Ga  Ga8  1  0.000791  0.664524  0.578204  1
  Ga  Ga9  1  0.332459  0.996884  0.415878  1
  Ga  Ga10  1  0.999023  0.338513  0.416004  1
  Ga  Ga11  1  0.664364  0.999860  0.581061  1
  Ga  Ga12  1  0.664364  0.999860  0.918939  1
  Ga  Ga13  1  0.332459  0.996884  0.084122  1
  Ga  Ga14  1  0.332265  0.332263  0.563095  1
  Ga  Ga15  1  0.670721  0.668632  0.431714  1
  Ga  Ga16  1  0.670721  0.668632  0.068286  1
  Ga  Ga17  1  0.332265  0.332263  0.936905  1
  Ga  Ga18  1  0.339237  0.548599  0.250000  1
  Ga  Ga19  1  0.659765  0.452799  0.750000  1
  Ga  Ga20  1  0.552368  0.342530  0.250000  1
  Ga  Ga21  1  0.451025  0.658156  0.750000  1
  Ir  Ir22  1  0.672242  0.328568  0.001042  1
  Ir  Ir23  1  0.327837  0.672130  0.001714  1
  Ir  Ir24  1  0.327837  0.672130  0.498286  1
  Ir  Ir25  1  0.672242  0.328568  0.498958  1
  Ir  Ir26  1  0.999959  0.999438  0.001220  1
  Ir  Ir27  1  0.999959  0.999438  0.498780  1
