# generated using pymatgen
data_Nd5TiIrO12
_symmetry_space_group_name_H-M   'P 1'
_cell_length_a   7.05128801
_cell_length_b   7.05128761
_cell_length_c   7.68200194
_cell_angle_alpha   74.23572386
_cell_angle_beta   74.23572385
_cell_angle_gamma   50.41927339
_symmetry_Int_Tables_number   1
_chemical_formula_structural   Nd5TiIrO12
_chemical_formula_sum   'Nd5 Ti1 Ir1 O12'
_cell_volume   280.79718927
_cell_formula_units_Z   1
loop_
 _symmetry_equiv_pos_site_id
 _symmetry_equiv_pos_as_xyz
  1  'x, y, z'
loop_
 _atom_site_type_symbol
 _atom_site_label
 _atom_site_symmetry_multiplicity
 _atom_site_fract_x
 _atom_site_fract_y
 _atom_site_fract_z
 _atom_site_occupancy
  Nd  Nd0  1  0.311051  0.302506  0.357547  1
  Nd  Nd1  1  0.697494  0.688949  0.642453  1
  Nd  Nd2  1  0.686839  0.694682  0.168057  1
  Nd  Nd3  1  0.305318  0.313161  0.831943  1
  Nd  Nd4  1  0.002436  0.997564  0.500000  1
  Ti  Ti5  1  0.781237  0.218763  0.000000  1
  Ir  Ir6  1  0.242687  0.757313  0.000000  1
  O  O7  1  0.096399  0.595340  0.575923  1
  O  O8  1  0.997177  0.001349  0.185229  1
  O  O9  1  0.404660  0.903601  0.424077  1
  O  O10  1  0.497518  0.503130  0.172531  1
  O  O11  1  0.094258  0.588826  0.079538  1
  O  O12  1  0.905021  0.405945  0.420499  1
  O  O13  1  0.998651  0.002823  0.814771  1
  O  O14  1  0.594055  0.094978  0.579501  1
  O  O15  1  0.496870  0.502482  0.827469  1
  O  O16  1  0.579678  0.102523  0.077993  1
  O  O17  1  0.411174  0.905742  0.920462  1
  O  O18  1  0.897477  0.420322  0.922007  1
