# generated using pymatgen
data_Ho6Co11P12Ir4Rh3
_symmetry_space_group_name_H-M   'P 1'
_cell_length_a   3.77358700
_cell_length_b   10.82565944
_cell_length_c   12.50794896
_cell_angle_alpha   90.04626391
_cell_angle_beta   90.00000000
_cell_angle_gamma   90.00000000
_symmetry_Int_Tables_number   1
_chemical_formula_structural   Ho6Co11P12Ir4Rh3
_chemical_formula_sum   'Ho6 Co11 P12 Ir4 Rh3'
_cell_volume   510.96915751
_cell_formula_units_Z   1
loop_
 _symmetry_equiv_pos_site_id
 _symmetry_equiv_pos_as_xyz
  1  'x, y, z'
loop_
 _atom_site_type_symbol
 _atom_site_label
 _atom_site_symmetry_multiplicity
 _atom_site_fract_x
 _atom_site_fract_y
 _atom_site_fract_z
 _atom_site_occupancy
  Ho  Ho0  1  0.000000  0.501125  0.522336  1
  Ho  Ho1  1  0.500000  0.995433  0.481926  1
  Ho  Ho2  1  0.500000  0.814372  0.200693  1
  Ho  Ho3  1  0.500000  0.185202  0.198274  1
  Ho  Ho4  1  0.000000  0.687090  0.797923  1
  Ho  Ho5  1  0.000000  0.315432  0.801929  1
  Co  Co6  1  0.000000  0.500671  0.990148  1
  Co  Co7  1  0.500000  0.999715  0.009904  1
  Co  Co8  1  0.000000  0.796868  0.571034  1
  Co  Co9  1  0.500000  0.879959  0.711959  1
  Co  Co10  1  0.500000  0.120671  0.715502  1
  Co  Co11  1  0.000000  0.620065  0.285383  1
  Co  Co12  1  0.000000  0.379355  0.284191  1
  Co  Co13  1  0.500000  0.333317  0.994082  1
  Co  Co14  1  0.500000  0.668006  0.994281  1
  Co  Co15  1  0.000000  0.167527  0.005536  1
  Co  Co16  1  0.000000  0.832068  0.005106  1
  P  P17  1  0.500000  0.308354  0.625277  1
  P  P18  1  0.500000  0.698002  0.621882  1
  P  P19  1  0.000000  0.190626  0.376059  1
  P  P20  1  0.000000  0.812015  0.382629  1
  P  P21  1  0.500000  0.501123  0.892334  1
  P  P22  1  0.000000  0.999465  0.106540  1
  P  P23  1  0.500000  0.843974  0.895742  1
  P  P24  1  0.500000  0.156024  0.896488  1
  P  P25  1  0.000000  0.656768  0.103374  1
  P  P26  1  0.000000  0.343866  0.102550  1
  P  P27  1  0.500000  0.500350  0.344795  1
  P  P28  1  0.000000  0.991012  0.653769  1
  Ir  Ir29  1  0.500000  0.701296  0.428622  1
  Ir  Ir30  1  0.500000  0.500656  0.159547  1
  Ir  Ir31  1  0.500000  0.502316  0.706531  1
  Ir  Ir32  1  0.000000  0.999533  0.292455  1
  Rh  Rh33  1  0.500000  0.298931  0.427414  1
  Rh  Rh34  1  0.000000  0.198147  0.573207  1
  Rh  Rh35  1  0.000000  0.000663  0.840579  1
