# generated using pymatgen
data_Hf18Re8IrOs
_symmetry_space_group_name_H-M   'P 1'
_cell_length_a   8.56433800
_cell_length_b   8.63689641
_cell_length_c   8.63689600
_cell_angle_alpha   120.00141569
_cell_angle_beta   90.00000000
_cell_angle_gamma   90.00000000
_symmetry_Int_Tables_number   1
_chemical_formula_structural   Hf18Re8IrOs
_chemical_formula_sum   'Hf18 Re8 Ir1 Os1'
_cell_volume   553.26555902
_cell_formula_units_Z   1
loop_
 _symmetry_equiv_pos_site_id
 _symmetry_equiv_pos_as_xyz
  1  'x, y, z'
loop_
 _atom_site_type_symbol
 _atom_site_label
 _atom_site_symmetry_multiplicity
 _atom_site_fract_x
 _atom_site_fract_y
 _atom_site_fract_z
 _atom_site_occupancy
  Hf  Hf0  1  0.554678  0.803659  0.607329  1
  Hf  Hf1  1  0.554641  0.803666  0.196334  1
  Hf  Hf2  1  0.554678  0.392671  0.196341  1
  Hf  Hf3  1  0.445417  0.195360  0.390724  1
  Hf  Hf4  1  0.445431  0.195362  0.804638  1
  Hf  Hf5  1  0.445417  0.609276  0.804640  1
  Hf  Hf6  1  0.054583  0.195360  0.390724  1
  Hf  Hf7  1  0.054569  0.195362  0.804638  1
  Hf  Hf8  1  0.054583  0.609276  0.804640  1
  Hf  Hf9  1  0.945322  0.803659  0.607329  1
  Hf  Hf10  1  0.945359  0.803666  0.196334  1
  Hf  Hf11  1  0.945322  0.392671  0.196341  1
  Hf  Hf12  1  0.750000  0.458788  0.917536  1
  Hf  Hf13  1  0.750000  0.458754  0.541246  1
  Hf  Hf14  1  0.750000  0.082464  0.541212  1
  Hf  Hf15  1  0.250000  0.541582  0.083185  1
  Hf  Hf16  1  0.250000  0.541586  0.458414  1
  Hf  Hf17  1  0.250000  0.916815  0.458418  1
  Re  Re18  1  0.750000  0.110224  0.220436  1
  Re  Re19  1  0.750000  0.110213  0.889787  1
  Re  Re20  1  0.750000  0.779564  0.889776  1
  Re  Re21  1  0.250000  0.889657  0.779313  1
  Re  Re22  1  0.250000  0.889646  0.110354  1
  Re  Re23  1  0.250000  0.220687  0.110343  1
  Re  Re24  1  0.500075  0.000019  0.999981  1
  Re  Re25  1  0.999925  0.000019  0.999981  1
  Ir  Ir26  1  0.250000  0.333322  0.666678  1
  Os  Os27  1  0.750000  0.666673  0.333327  1
