# generated using pymatgen
data_Hf4Si4IrRhAu2
_symmetry_space_group_name_H-M   'P 1'
_cell_length_a   3.94284100
_cell_length_b   6.64413587
_cell_length_c   7.61689604
_cell_angle_alpha   88.49831683
_cell_angle_beta   90.00000000
_cell_angle_gamma   90.00000000
_symmetry_Int_Tables_number   1
_chemical_formula_structural   Hf4Si4IrRhAu2
_chemical_formula_sum   'Hf4 Si4 Ir1 Rh1 Au2'
_cell_volume   199.46955367
_cell_formula_units_Z   1
loop_
 _symmetry_equiv_pos_site_id
 _symmetry_equiv_pos_as_xyz
  1  'x, y, z'
loop_
 _atom_site_type_symbol
 _atom_site_label
 _atom_site_symmetry_multiplicity
 _atom_site_fract_x
 _atom_site_fract_y
 _atom_site_fract_z
 _atom_site_occupancy
  Hf  Hf0  1  0.250000  0.522387  0.186558  1
  Hf  Hf1  1  0.750000  0.477947  0.813823  1
  Hf  Hf2  1  0.250000  0.024629  0.329411  1
  Hf  Hf3  1  0.750000  0.975444  0.670361  1
  Si  Si4  1  0.250000  0.750303  0.863771  1
  Si  Si5  1  0.750000  0.249409  0.135534  1
  Si  Si6  1  0.250000  0.269424  0.608018  1
  Si  Si7  1  0.750000  0.729904  0.391924  1
  Ir  Ir8  1  0.750000  0.358788  0.438998  1
  Rh  Rh9  1  0.250000  0.641078  0.561380  1
  Au  Au10  1  0.750000  0.847506  0.066875  1
  Au  Au11  1  0.250000  0.153181  0.933347  1
