# generated using pymatgen
data_Pr10SnBi5P
_symmetry_space_group_name_H-M   'P 1'
_cell_length_a   6.50009270
_cell_length_b   9.59257766
_cell_length_c   9.57386600
_cell_angle_alpha   119.93540471
_cell_angle_beta   89.94775580
_cell_angle_gamma   90.02598148
_symmetry_Int_Tables_number   1
_chemical_formula_structural   Pr10SnBi5P
_chemical_formula_sum   'Pr10 Sn1 Bi5 P1'
_cell_volume   517.31489922
_cell_formula_units_Z   1
loop_
 _symmetry_equiv_pos_site_id
 _symmetry_equiv_pos_as_xyz
  1  'x, y, z'
loop_
 _atom_site_type_symbol
 _atom_site_label
 _atom_site_symmetry_multiplicity
 _atom_site_fract_x
 _atom_site_fract_y
 _atom_site_fract_z
 _atom_site_occupancy
  Pr  Pr0  1  0.499349  0.330571  0.664593  1
  Pr  Pr1  1  0.499340  0.669441  0.334023  1
  Pr  Pr2  1  0.001098  0.669588  0.333773  1
  Pr  Pr3  1  0.001066  0.330420  0.664198  1
  Pr  Pr4  1  0.747821  0.247983  0.999373  1
  Pr  Pr5  1  0.747819  0.751994  0.751390  1
  Pr  Pr6  1  0.748042  0.999999  0.247536  1
  Pr  Pr7  1  0.251596  0.755868  0.005323  1
  Pr  Pr8  1  0.251603  0.244113  0.249443  1
  Pr  Pr9  1  0.252016  0.000004  0.750311  1
  Sn  Sn10  1  0.249960  0.000036  0.390726  1
  Bi  Bi11  1  0.749655  0.611001  0.999136  1
  Bi  Bi12  1  0.749640  0.388972  0.388145  1
  Bi  Bi13  1  0.751008  0.000010  0.610236  1
  Bi  Bi14  1  0.249732  0.388435  0.000837  1
  Bi  Bi15  1  0.249731  0.611562  0.612404  1
  P  P16  1  0.500525  0.000007  0.998553  1
