# generated using pymatgen
data_Y3InCoSn2IrAu
_symmetry_space_group_name_H-M   'P 1'
_cell_length_a   7.76357500
_cell_length_b   7.76357560
_cell_length_c   3.73253100
_cell_angle_alpha   90.00000000
_cell_angle_beta   90.00000000
_cell_angle_gamma   120.00001023
_symmetry_Int_Tables_number   1
_chemical_formula_structural   Y3InCoSn2IrAu
_chemical_formula_sum   'Y3 In1 Co1 Sn2 Ir1 Au1'
_cell_volume   194.83077118
_cell_formula_units_Z   1
loop_
 _symmetry_equiv_pos_site_id
 _symmetry_equiv_pos_as_xyz
  1  'x, y, z'
loop_
 _atom_site_type_symbol
 _atom_site_label
 _atom_site_symmetry_multiplicity
 _atom_site_fract_x
 _atom_site_fract_y
 _atom_site_fract_z
 _atom_site_occupancy
  Y  Y0  1  0.982208  0.587932  0.500000  1
  Y  Y1  1  0.603861  0.015127  0.500000  1
  Y  Y2  1  0.412346  0.396298  0.500000  1
  In  In3  1  0.748332  0.746793  0.000000  1
  Co  Co4  1  0.009650  0.010612  0.500000  1
  Sn  Sn5  1  0.996969  0.247399  0.000000  1
  Sn  Sn6  1  0.247740  0.998415  0.000000  1
  Ir  Ir7  1  0.666122  0.331116  0.000000  1
  Au  Au8  1  0.332774  0.666307  0.000000  1
