# generated using pymatgen
data_La9Ce(Sn5Rh2)4
_symmetry_space_group_name_H-M   'P 1'
_cell_length_a   14.30884600
_cell_length_b   14.30884600
_cell_length_c   4.68600300
_cell_angle_alpha   90.00000000
_cell_angle_beta   90.00000000
_cell_angle_gamma   90.00000000
_symmetry_Int_Tables_number   1
_chemical_formula_structural   La9Ce(Sn5Rh2)4
_chemical_formula_sum   'La9 Ce1 Sn20 Rh8'
_cell_volume   959.42665830
_cell_formula_units_Z   1
loop_
 _symmetry_equiv_pos_site_id
 _symmetry_equiv_pos_as_xyz
  1  'x, y, z'
loop_
 _atom_site_type_symbol
 _atom_site_label
 _atom_site_symmetry_multiplicity
 _atom_site_fract_x
 _atom_site_fract_y
 _atom_site_fract_z
 _atom_site_occupancy
  La  La0  1  0.500000  0.500000  0.000000  1
  La  La1  1  0.679000  0.179028  0.500000  1
  La  La2  1  0.321000  0.820972  0.500000  1
  La  La3  1  0.179028  0.321000  0.500000  1
  La  La4  1  0.820972  0.679000  0.500000  1
  La  La5  1  0.889543  0.389547  0.500000  1
  La  La6  1  0.110457  0.610453  0.500000  1
  La  La7  1  0.389547  0.110457  0.500000  1
  La  La8  1  0.610453  0.889543  0.500000  1
  Ce  Ce9  1  0.000000  0.000000  0.000000  1
  Sn  Sn10  1  0.570130  0.069151  0.000000  1
  Sn  Sn11  1  0.429870  0.930849  0.000000  1
  Sn  Sn12  1  0.069151  0.429870  0.000000  1
  Sn  Sn13  1  0.930849  0.570130  0.000000  1
  Sn  Sn14  1  0.651324  0.698839  0.000000  1
  Sn  Sn15  1  0.348676  0.301161  0.000000  1
  Sn  Sn16  1  0.150818  0.801453  0.000000  1
  Sn  Sn17  1  0.849182  0.198547  0.000000  1
  Sn  Sn18  1  0.301161  0.651324  0.000000  1
  Sn  Sn19  1  0.698839  0.348676  0.000000  1
  Sn  Sn20  1  0.198547  0.150818  0.000000  1
  Sn  Sn21  1  0.801453  0.849182  0.000000  1
  Sn  Sn22  1  0.664479  0.502343  0.500000  1
  Sn  Sn23  1  0.335521  0.497657  0.500000  1
  Sn  Sn24  1  0.161943  0.996763  0.500000  1
  Sn  Sn25  1  0.838057  0.003237  0.500000  1
  Sn  Sn26  1  0.497657  0.664479  0.500000  1
  Sn  Sn27  1  0.502343  0.335521  0.500000  1
  Sn  Sn28  1  0.003237  0.161943  0.500000  1
  Sn  Sn29  1  0.996763  0.838057  0.500000  1
  Rh  Rh30  1  0.745955  0.530194  0.000000  1
  Rh  Rh31  1  0.254045  0.469806  0.000000  1
  Rh  Rh32  1  0.243629  0.969521  0.000000  1
  Rh  Rh33  1  0.756371  0.030479  0.000000  1
  Rh  Rh34  1  0.469806  0.745955  0.000000  1
  Rh  Rh35  1  0.530194  0.254045  0.000000  1
  Rh  Rh36  1  0.030479  0.243629  0.000000  1
  Rh  Rh37  1  0.969521  0.756371  0.000000  1
