# generated using pymatgen
data_Pa4Zn4PtRh3
_symmetry_space_group_name_H-M   'P 1'
_cell_length_a   3.87355300
_cell_length_b   7.35397300
_cell_length_c   16.28816900
_cell_angle_alpha   90.00000000
_cell_angle_beta   90.00000000
_cell_angle_gamma   90.00000000
_symmetry_Int_Tables_number   1
_chemical_formula_structural   Pa4Zn4PtRh3
_chemical_formula_sum   'Pa8 Zn8 Pt2 Rh6'
_cell_volume   463.98485015
_cell_formula_units_Z   2
loop_
 _symmetry_equiv_pos_site_id
 _symmetry_equiv_pos_as_xyz
  1  'x, y, z'
loop_
 _atom_site_type_symbol
 _atom_site_label
 _atom_site_symmetry_multiplicity
 _atom_site_fract_x
 _atom_site_fract_y
 _atom_site_fract_z
 _atom_site_occupancy
  Pa  Pa0  1  0.750000  0.335857  0.443557  1
  Pa  Pa1  1  0.250000  0.053247  0.713316  1
  Pa  Pa2  1  0.250000  0.562999  0.784248  1
  Pa  Pa3  1  0.250000  0.666524  0.558801  1
  Pa  Pa4  1  0.750000  0.833476  0.058801  1
  Pa  Pa5  1  0.250000  0.164143  0.943557  1
  Pa  Pa6  1  0.750000  0.446753  0.213316  1
  Pa  Pa7  1  0.750000  0.937001  0.284248  1
  Zn  Zn8  1  0.250000  0.110818  0.154205  1
  Zn  Zn9  1  0.250000  0.996040  0.440000  1
  Zn  Zn10  1  0.750000  0.885970  0.845117  1
  Zn  Zn11  1  0.750000  0.002158  0.559886  1
  Zn  Zn12  1  0.250000  0.497842  0.059886  1
  Zn  Zn13  1  0.750000  0.389182  0.654205  1
  Zn  Zn14  1  0.750000  0.503960  0.940000  1
  Zn  Zn15  1  0.250000  0.614030  0.345117  1
  Pt  Pt16  1  0.750000  0.258973  0.813628  1
  Pt  Pt17  1  0.250000  0.241027  0.313628  1
  Rh  Rh18  1  0.250000  0.761583  0.940153  1
  Rh  Rh19  1  0.250000  0.259427  0.560807  1
  Rh  Rh20  1  0.250000  0.741695  0.186282  1
  Rh  Rh21  1  0.750000  0.738417  0.440153  1
  Rh  Rh22  1  0.750000  0.240573  0.060807  1
  Rh  Rh23  1  0.750000  0.758305  0.686282  1
