# generated using pymatgen
data_Ba12Sc2AlGaAs12
_symmetry_space_group_name_H-M   'P 1'
_cell_length_a   10.72501318
_cell_length_b   10.72502692
_cell_length_c   13.51015611
_cell_angle_alpha   89.99551484
_cell_angle_beta   89.99510622
_cell_angle_gamma   141.59517316
_symmetry_Int_Tables_number   1
_chemical_formula_structural   Ba12Sc2AlGaAs12
_chemical_formula_sum   'Ba12 Sc2 Al1 Ga1 As12'
_cell_volume   965.37861441
_cell_formula_units_Z   1
loop_
 _symmetry_equiv_pos_site_id
 _symmetry_equiv_pos_as_xyz
  1  'x, y, z'
loop_
 _atom_site_type_symbol
 _atom_site_label
 _atom_site_symmetry_multiplicity
 _atom_site_fract_x
 _atom_site_fract_y
 _atom_site_fract_z
 _atom_site_occupancy
  Ba  Ba0  1  0.835631  0.839763  0.344942  1
  Ba  Ba1  1  0.160244  0.164374  0.655058  1
  Ba  Ba2  1  0.662210  0.667367  0.845147  1
  Ba  Ba3  1  0.332628  0.337788  0.154853  1
  Ba  Ba4  1  0.858411  0.498642  0.132842  1
  Ba  Ba5  1  0.501356  0.141584  0.867155  1
  Ba  Ba6  1  0.001835  0.641249  0.633024  1
  Ba  Ba7  1  0.358748  0.998164  0.366977  1
  Ba  Ba8  1  0.133205  0.483205  0.871563  1
  Ba  Ba9  1  0.516792  0.866782  0.128436  1
  Ba  Ba10  1  0.012574  0.364106  0.371075  1
  Ba  Ba11  1  0.635889  0.987420  0.628921  1
  Sc  Sc12  1  0.082146  0.917845  0.000001  1
  Sc  Sc13  1  0.582001  0.418070  0.500003  1
  Al  Al14  1  0.417759  0.582239  0.500000  1
  Ga  Ga15  1  0.917570  0.082430  0.999998  1
  As  As16  1  0.785125  0.792402  0.098486  1
  As  As17  1  0.207597  0.214876  0.901513  1
  As  As18  1  0.704639  0.713715  0.597799  1
  As  As19  1  0.286281  0.295359  0.402200  1
  As  As20  1  0.037989  0.349975  0.118051  1
  As  As21  1  0.650021  0.962006  0.881950  1
  As  As22  1  0.153395  0.463864  0.616686  1
  As  As23  1  0.536133  0.846603  0.383317  1
  As  As24  1  0.956933  0.641938  0.879832  1
  As  As25  1  0.358062  0.043067  0.120170  1
  As  As26  1  0.858129  0.543301  0.379742  1
  As  As27  1  0.456694  0.141867  0.620258  1
