# generated using pymatgen
data_AgAu(BrO3)4
_symmetry_space_group_name_H-M   'P 1'
_cell_length_a   6.04498300
_cell_length_b   8.20067105
_cell_length_c   14.04204751
_cell_angle_alpha   70.97117576
_cell_angle_beta   90.00000000
_cell_angle_gamma   90.00000000
_symmetry_Int_Tables_number   1
_chemical_formula_structural   AgAu(BrO3)4
_chemical_formula_sum   'Ag2 Au2 Br8 O24'
_cell_volume   658.06635470
_cell_formula_units_Z   2
loop_
 _symmetry_equiv_pos_site_id
 _symmetry_equiv_pos_as_xyz
  1  'x, y, z'
loop_
 _atom_site_type_symbol
 _atom_site_label
 _atom_site_symmetry_multiplicity
 _atom_site_fract_x
 _atom_site_fract_y
 _atom_site_fract_z
 _atom_site_occupancy
  Ag  Ag0  1  0.923454  0.089506  0.955798  1
  Ag  Ag1  1  0.076546  0.089506  0.455798  1
  Au  Au2  1  0.745457  0.490378  0.006288  1
  Au  Au3  1  0.254543  0.490378  0.506288  1
  Br  Br4  1  0.459657  0.293484  0.861093  1
  Br  Br5  1  0.982521  0.716425  0.625437  1
  Br  Br6  1  0.017479  0.716425  0.125437  1
  Br  Br7  1  0.540343  0.293484  0.361093  1
  Br  Br8  1  0.083218  0.211460  0.177120  1
  Br  Br9  1  0.560119  0.779390  0.329374  1
  Br  Br10  1  0.439881  0.779390  0.829374  1
  Br  Br11  1  0.916782  0.211460  0.677120  1
  O  O12  1  0.720712  0.380735  0.896320  1
  O  O13  1  0.217539  0.578056  0.624785  1
  O  O14  1  0.782461  0.578056  0.124785  1
  O  O15  1  0.279288  0.380735  0.396320  1
  O  O16  1  0.586009  0.119440  0.849202  1
  O  O17  1  0.106589  0.881291  0.647384  1
  O  O18  1  0.893411  0.881291  0.147384  1
  O  O19  1  0.413991  0.119440  0.349202  1
  O  O20  1  0.928159  0.179436  0.280018  1
  O  O21  1  0.389711  0.813554  0.233028  1
  O  O22  1  0.610289  0.813554  0.733028  1
  O  O23  1  0.071841  0.179436  0.780018  1
  O  O24  1  0.224542  0.392912  0.153590  1
  O  O25  1  0.704814  0.600412  0.344511  1
  O  O26  1  0.295186  0.600412  0.844511  1
  O  O27  1  0.775458  0.392912  0.653590  1
  O  O28  1  0.310251  0.226370  0.965165  1
  O  O29  1  0.904507  0.799622  0.505332  1
  O  O30  1  0.095493  0.799622  0.005332  1
  O  O31  1  0.689749  0.226370  0.465165  1
  O  O32  1  0.878236  0.252751  0.076899  1
  O  O33  1  0.382868  0.727298  0.438512  1
  O  O34  1  0.617132  0.727298  0.938512  1
  O  O35  1  0.121764  0.252751  0.576899  1
