# generated using pymatgen
data_Cs2Sm10Co2Cl17
_symmetry_space_group_name_H-M   'P 1'
_cell_length_a   8.87058877
_cell_length_b   10.40203524
_cell_length_c   10.40218800
_cell_angle_alpha   108.14877558
_cell_angle_beta   93.38439045
_cell_angle_gamma   93.38903671
_symmetry_Int_Tables_number   1
_chemical_formula_structural   Cs2Sm10Co2Cl17
_chemical_formula_sum   'Cs2 Sm10 Co2 Cl17'
_cell_volume   907.44693211
_cell_formula_units_Z   1
loop_
 _symmetry_equiv_pos_site_id
 _symmetry_equiv_pos_as_xyz
  1  'x, y, z'
loop_
 _atom_site_type_symbol
 _atom_site_label
 _atom_site_symmetry_multiplicity
 _atom_site_fract_x
 _atom_site_fract_y
 _atom_site_fract_z
 _atom_site_occupancy
  Cs  Cs0  1  0.999400  0.819785  0.179364  1
  Cs  Cs1  1  0.999364  0.179355  0.819787  1
  Sm  Sm2  1  0.434756  0.160664  0.160675  1
  Sm  Sm3  1  0.575580  0.515715  0.196643  1
  Sm  Sm4  1  0.832745  0.288775  0.288775  1
  Sm  Sm5  1  0.302574  0.432295  0.432326  1
  Sm  Sm6  1  0.424587  0.803679  0.484364  1
  Sm  Sm7  1  0.575524  0.196617  0.515698  1
  Sm  Sm8  1  0.697690  0.567816  0.567794  1
  Sm  Sm9  1  0.167258  0.711136  0.711155  1
  Sm  Sm10  1  0.424579  0.484368  0.803682  1
  Sm  Sm11  1  0.565207  0.839472  0.839447  1
  Co  Co12  1  0.569946  0.358069  0.358068  1
  Co  Co13  1  0.430214  0.642055  0.642060  1
  Cl  Cl14  1  0.582260  0.689445  0.022349  1
  Cl  Cl15  1  0.714122  0.066594  0.066583  1
  Cl  Cl16  1  0.859282  0.449204  0.118526  1
  Cl  Cl17  1  0.130345  0.206768  0.206741  1
  Cl  Cl18  1  0.282064  0.604406  0.253379  1
  Cl  Cl19  1  0.417880  0.977849  0.310617  1
  Cl  Cl20  1  0.718146  0.746856  0.395825  1
  Cl  Cl21  1  0.859251  0.118514  0.449208  1
  Cl  Cl22  1  0.000064  0.499918  0.499967  1
  Cl  Cl23  1  0.140626  0.881202  0.550472  1
  Cl  Cl24  1  0.282047  0.253392  0.604413  1
  Cl  Cl25  1  0.582214  0.022337  0.689437  1
  Cl  Cl26  1  0.718142  0.395798  0.746841  1
  Cl  Cl27  1  0.869766  0.793471  0.793376  1
  Cl  Cl28  1  0.140626  0.550476  0.881219  1
  Cl  Cl29  1  0.285836  0.933321  0.933353  1
  Cl  Cl30  1  0.417910  0.310647  0.977857  1
