# generated using pymatgen
data_TbYb3(Ga8Pt3)3
_symmetry_space_group_name_H-M   'P 1'
_cell_length_a   7.48565166
_cell_length_b   7.58077936
_cell_length_c   13.43334039
_cell_angle_alpha   84.51502855
_cell_angle_beta   79.36547751
_cell_angle_gamma   60.54612701
_symmetry_Int_Tables_number   1
_chemical_formula_structural   TbYb3(Ga8Pt3)3
_chemical_formula_sum   'Tb1 Yb3 Ga24 Pt9'
_cell_volume   652.36529418
_cell_formula_units_Z   1
loop_
 _symmetry_equiv_pos_site_id
 _symmetry_equiv_pos_as_xyz
  1  'x, y, z'
loop_
 _atom_site_type_symbol
 _atom_site_label
 _atom_site_symmetry_multiplicity
 _atom_site_fract_x
 _atom_site_fract_y
 _atom_site_fract_z
 _atom_site_occupancy
  Tb  Tb0  1  0.398423  0.166813  0.809410  1
  Yb  Yb1  1  0.602494  0.831645  0.191802  1
  Yb  Yb2  1  0.734009  0.498682  0.808625  1
  Yb  Yb3  1  0.267409  0.500997  0.191605  1
  Ga  Ga4  1  0.687871  0.831455  0.940224  1
  Ga  Ga5  1  0.312256  0.166486  0.061568  1
  Ga  Ga6  1  0.145799  0.832476  0.559205  1
  Ga  Ga7  1  0.854394  0.166944  0.441139  1
  Ga  Ga8  1  0.477157  0.167550  0.555934  1
  Ga  Ga9  1  0.521750  0.833261  0.444196  1
  Ga  Ga10  1  0.220386  0.164914  0.323139  1
  Ga  Ga11  1  0.779923  0.833870  0.677183  1
  Ga  Ga12  1  0.437109  0.505063  0.676080  1
  Ga  Ga13  1  0.562924  0.495493  0.324554  1
  Ga  Ga14  1  0.105870  0.162088  0.675232  1
  Ga  Ga15  1  0.892946  0.838437  0.325325  1
  Ga  Ga16  1  0.359107  0.498144  0.941555  1
  Ga  Ga17  1  0.641404  0.502801  0.058766  1
  Ga  Ga18  1  0.019298  0.170147  0.944636  1
  Ga  Ga19  1  0.979471  0.831185  0.054411  1
  Ga  Ga20  1  0.187506  0.497273  0.444173  1
  Ga  Ga21  1  0.812362  0.503070  0.555798  1
  Ga  Ga22  1  0.732110  0.165819  0.181436  1
  Ga  Ga23  1  0.266331  0.835829  0.818071  1
  Ga  Ga24  1  0.063889  0.628463  0.816770  1
  Ga  Ga25  1  0.937628  0.372184  0.182082  1
  Ga  Ga26  1  0.856753  0.039612  0.816087  1
  Ga  Ga27  1  0.144370  0.958614  0.183204  1
  Pt  Pt28  1  0.115941  0.494539  0.639831  1
  Pt  Pt29  1  0.883557  0.505561  0.360167  1
  Pt  Pt30  1  0.660835  0.168772  0.998180  1
  Pt  Pt31  1  0.338774  0.831430  0.000248  1
  Pt  Pt32  1  0.541038  0.165985  0.360803  1
  Pt  Pt33  1  0.458981  0.833656  0.639606  1
  Pt  Pt34  1  0.777031  0.175242  0.636755  1
  Pt  Pt35  1  0.222016  0.825555  0.363567  1
  Pt  Pt36  1  0.000877  0.499944  0.998637  1
