# generated using pymatgen
data_Er12IrOs2Pd
_symmetry_space_group_name_H-M   'P 1'
_cell_length_a   6.38783605
_cell_length_b   7.25159132
_cell_length_c   9.02657300
_cell_angle_alpha   90.00000000
_cell_angle_beta   90.00000000
_cell_angle_gamma   90.23833877
_symmetry_Int_Tables_number   1
_chemical_formula_structural   Er12IrOs2Pd
_chemical_formula_sum   'Er12 Ir1 Os2 Pd1'
_cell_volume   418.12508472
_cell_formula_units_Z   1
loop_
 _symmetry_equiv_pos_site_id
 _symmetry_equiv_pos_as_xyz
  1  'x, y, z'
loop_
 _atom_site_type_symbol
 _atom_site_label
 _atom_site_symmetry_multiplicity
 _atom_site_fract_x
 _atom_site_fract_y
 _atom_site_fract_z
 _atom_site_occupancy
  Er  Er0  1  0.337271  0.671255  0.056767  1
  Er  Er1  1  0.176254  0.185386  0.441052  1
  Er  Er2  1  0.670644  0.322386  0.560519  1
  Er  Er3  1  0.820760  0.821306  0.934241  1
  Er  Er4  1  0.670644  0.322386  0.939481  1
  Er  Er5  1  0.820760  0.821306  0.565759  1
  Er  Er6  1  0.337271  0.671255  0.443233  1
  Er  Er7  1  0.176254  0.185386  0.058948  1
  Er  Er8  1  0.875826  0.530541  0.250000  1
  Er  Er9  1  0.618406  0.036501  0.250000  1
  Er  Er10  1  0.118449  0.466709  0.750000  1
  Er  Er11  1  0.373287  0.963619  0.750000  1
  Ir  Ir12  1  0.961927  0.113546  0.750000  1
  Os  Os13  1  0.465460  0.384930  0.250000  1
  Os  Os14  1  0.531880  0.612547  0.750000  1
  Pd  Pd15  1  0.044903  0.890941  0.250000  1
