# generated using pymatgen
data_Cs2LiScP2
_symmetry_space_group_name_H-M   'P 1'
_cell_length_a   9.46701724
_cell_length_b   9.46701691
_cell_length_c   9.46701651
_cell_angle_alpha   138.98446642
_cell_angle_beta   139.32004552
_cell_angle_gamma   59.14319756
_symmetry_Int_Tables_number   1
_chemical_formula_structural   Cs2LiScP2
_chemical_formula_sum   'Cs4 Li2 Sc2 P4'
_cell_volume   359.45015492
_cell_formula_units_Z   2
loop_
 _symmetry_equiv_pos_site_id
 _symmetry_equiv_pos_as_xyz
  1  'x, y, z'
loop_
 _atom_site_type_symbol
 _atom_site_label
 _atom_site_symmetry_multiplicity
 _atom_site_fract_x
 _atom_site_fract_y
 _atom_site_fract_z
 _atom_site_occupancy
  Cs  Cs0  1  0.105554  0.823835  0.281719  1
  Cs  Cs1  1  0.894446  0.176165  0.718281  1
  Cs  Cs2  1  0.457883  0.676165  0.781719  1
  Cs  Cs3  1  0.542117  0.323835  0.218281  1
  Li  Li4  1  0.500000  0.250000  0.750000  1
  Li  Li5  1  0.500000  0.750000  0.250000  1
  Sc  Sc6  1  0.000000  0.250000  0.250000  1
  Sc  Sc7  1  0.000000  0.750000  0.750000  1
  P  P8  1  0.690799  0.921484  0.769314  1
  P  P9  1  0.152170  0.421484  0.730686  1
  P  P10  1  0.847830  0.578516  0.269314  1
  P  P11  1  0.309201  0.078516  0.230686  1
