# generated using pymatgen
data_Eu4TaMo3O14
_symmetry_space_group_name_H-M   'P 1'
_cell_length_a   7.42584576
_cell_length_b   7.55499402
_cell_length_c   7.42584600
_cell_angle_alpha   60.56388499
_cell_angle_beta   59.99999892
_cell_angle_gamma   60.56388534
_symmetry_Int_Tables_number   1
_chemical_formula_structural   Eu4TaMo3O14
_chemical_formula_sum   'Eu4 Ta1 Mo3 O14'
_cell_volume   297.07111115
_cell_formula_units_Z   1
loop_
 _symmetry_equiv_pos_site_id
 _symmetry_equiv_pos_as_xyz
  1  'x, y, z'
loop_
 _atom_site_type_symbol
 _atom_site_label
 _atom_site_symmetry_multiplicity
 _atom_site_fract_x
 _atom_site_fract_y
 _atom_site_fract_z
 _atom_site_occupancy
  Eu  Eu0  1  0.625000  0.125000  0.125000  1
  Eu  Eu1  1  0.125000  0.625000  0.125000  1
  Eu  Eu2  1  0.125000  0.125000  0.625000  1
  Eu  Eu3  1  0.125000  0.125000  0.125000  1
  Ta  Ta4  1  0.625000  0.125000  0.625000  1
  Mo  Mo5  1  0.125000  0.625000  0.625000  1
  Mo  Mo6  1  0.625000  0.625000  0.125000  1
  Mo  Mo7  1  0.625000  0.625000  0.625000  1
  O  O8  1  0.248654  0.254038  0.248654  1
  O  O9  1  0.001346  0.995962  0.001346  1
  O  O10  1  0.699421  0.712490  0.294045  1
  O  O11  1  0.303947  0.295554  0.700250  1
  O  O12  1  0.700250  0.295554  0.700250  1
  O  O13  1  0.294045  0.712490  0.294045  1
  O  O14  1  0.294045  0.712490  0.699421  1
  O  O15  1  0.700250  0.295554  0.303947  1
  O  O16  1  0.550579  0.537510  0.955955  1
  O  O17  1  0.946053  0.954446  0.549750  1
  O  O18  1  0.549750  0.954446  0.549750  1
  O  O19  1  0.955955  0.537510  0.955955  1
  O  O20  1  0.955955  0.537510  0.550579  1
  O  O21  1  0.549750  0.954446  0.946053  1
