# generated using pymatgen
data_Hf18Re5Mo3POs
_symmetry_space_group_name_H-M   'P 1'
_cell_length_a   8.65249310
_cell_length_b   8.65249327
_cell_length_c   8.57570700
_cell_angle_alpha   90.00000000
_cell_angle_beta   90.00000000
_cell_angle_gamma   120.05774314
_symmetry_Int_Tables_number   1
_chemical_formula_structural   Hf18Re5Mo3POs
_chemical_formula_sum   'Hf18 Re5 Mo3 P1 Os1'
_cell_volume   555.68683230
_cell_formula_units_Z   1
loop_
 _symmetry_equiv_pos_site_id
 _symmetry_equiv_pos_as_xyz
  1  'x, y, z'
loop_
 _atom_site_type_symbol
 _atom_site_label
 _atom_site_symmetry_multiplicity
 _atom_site_fract_x
 _atom_site_fract_y
 _atom_site_fract_z
 _atom_site_occupancy
  Hf  Hf0  1  0.198056  0.801944  0.446528  1
  Hf  Hf1  1  0.197699  0.395496  0.447148  1
  Hf  Hf2  1  0.604504  0.802301  0.447148  1
  Hf  Hf3  1  0.803934  0.196066  0.548533  1
  Hf  Hf4  1  0.802884  0.606758  0.547527  1
  Hf  Hf5  1  0.393242  0.197116  0.547527  1
  Hf  Hf6  1  0.803934  0.196066  0.951467  1
  Hf  Hf7  1  0.802884  0.606758  0.952473  1
  Hf  Hf8  1  0.393242  0.197116  0.952473  1
  Hf  Hf9  1  0.198056  0.801944  0.053472  1
  Hf  Hf10  1  0.197699  0.395496  0.052852  1
  Hf  Hf11  1  0.604504  0.802301  0.052852  1
  Hf  Hf12  1  0.540491  0.459509  0.250000  1
  Hf  Hf13  1  0.541338  0.081762  0.250000  1
  Hf  Hf14  1  0.918238  0.458662  0.250000  1
  Hf  Hf15  1  0.460518  0.539482  0.750000  1
  Hf  Hf16  1  0.461854  0.922030  0.750000  1
  Hf  Hf17  1  0.077970  0.538146  0.750000  1
  Re  Re18  1  0.888512  0.111488  0.250000  1
  Re  Re19  1  0.888187  0.776553  0.250000  1
  Re  Re20  1  0.223447  0.111813  0.250000  1
  Re  Re21  1  0.110793  0.222569  0.750000  1
  Re  Re22  1  0.777431  0.889207  0.750000  1
  Mo  Mo23  1  0.110011  0.889989  0.750000  1
  Mo  Mo24  1  0.999850  0.000150  0.499617  1
  Mo  Mo25  1  0.999850  0.000150  0.000383  1
  P  P26  1  0.667098  0.332902  0.750000  1
  Os  Os27  1  0.333776  0.666224  0.250000  1
