# generated using pymatgen
data_Th8Sc12Sn13Sb3
_symmetry_space_group_name_H-M   'P 1'
_cell_length_a   7.92092568
_cell_length_b   7.95018427
_cell_length_c   14.98881471
_cell_angle_alpha   89.99466311
_cell_angle_beta   89.93136360
_cell_angle_gamma   90.02935535
_symmetry_Int_Tables_number   1
_chemical_formula_structural   Th8Sc12Sn13Sb3
_chemical_formula_sum   'Th8 Sc12 Sn13 Sb3'
_cell_volume   943.88710638
_cell_formula_units_Z   1
loop_
 _symmetry_equiv_pos_site_id
 _symmetry_equiv_pos_as_xyz
  1  'x, y, z'
loop_
 _atom_site_type_symbol
 _atom_site_label
 _atom_site_symmetry_multiplicity
 _atom_site_fract_x
 _atom_site_fract_y
 _atom_site_fract_z
 _atom_site_occupancy
  Th  Th0  1  0.515458  0.325140  0.906130  1
  Th  Th1  1  0.016447  0.175004  0.593909  1
  Th  Th2  1  0.483441  0.675194  0.406038  1
  Th  Th3  1  0.983428  0.825097  0.094256  1
  Th  Th4  1  0.484619  0.674991  0.093740  1
  Th  Th5  1  0.984226  0.824635  0.406338  1
  Th  Th6  1  0.515811  0.324923  0.593736  1
  Th  Th7  1  0.015699  0.174868  0.905882  1
  Sc  Sc8  1  0.351871  0.840443  0.874438  1
  Sc  Sc9  1  0.852420  0.659480  0.625593  1
  Sc  Sc10  1  0.647599  0.159111  0.374324  1
  Sc  Sc11  1  0.147845  0.340199  0.126054  1
  Sc  Sc12  1  0.648152  0.160155  0.125405  1
  Sc  Sc13  1  0.147863  0.340221  0.374611  1
  Sc  Sc14  1  0.352153  0.840242  0.625378  1
  Sc  Sc15  1  0.852163  0.659995  0.874093  1
  Sc  Sc16  1  0.183057  0.498988  0.749726  1
  Sc  Sc17  1  0.683046  0.000976  0.750611  1
  Sc  Sc18  1  0.816886  0.501442  0.249651  1
  Sc  Sc19  1  0.317035  0.998771  0.250649  1
  Sn  Sn20  1  0.188980  0.546495  0.956012  1
  Sn  Sn21  1  0.691365  0.953508  0.955153  1
  Sn  Sn22  1  0.191358  0.546546  0.544842  1
  Sn  Sn23  1  0.308740  0.046597  0.455046  1
  Sn  Sn24  1  0.811167  0.453937  0.044393  1
  Sn  Sn25  1  0.546469  0.631734  0.749847  1
  Sn  Sn26  1  0.046420  0.868131  0.749676  1
  Sn  Sn27  1  0.453693  0.368191  0.250190  1
  Sn  Sn28  1  0.953529  0.131754  0.250181  1
  Sn  Sn29  1  0.322195  0.141888  0.749950  1
  Sn  Sn30  1  0.822254  0.357969  0.749906  1
  Sn  Sn31  1  0.677646  0.858138  0.250007  1
  Sn  Sn32  1  0.177786  0.642194  0.249897  1
  Sb  Sb33  1  0.309424  0.046908  0.044430  1
  Sb  Sb34  1  0.809115  0.453019  0.455583  1
  Sb  Sb35  1  0.690640  0.953116  0.544326  1
