# generated using pymatgen
data_LiTb16Cd3Ir3Rh
_symmetry_space_group_name_H-M   'P 1'
_cell_length_a   9.68902208
_cell_length_b   9.68902218
_cell_length_c   9.68902142
_cell_angle_alpha   59.92452814
_cell_angle_beta   59.92452726
_cell_angle_gamma   59.92453010
_symmetry_Int_Tables_number   1
_chemical_formula_structural   LiTb16Cd3Ir3Rh
_chemical_formula_sum   'Li1 Tb16 Cd3 Ir3 Rh1'
_cell_volume   642.06750582
_cell_formula_units_Z   1
loop_
 _symmetry_equiv_pos_site_id
 _symmetry_equiv_pos_as_xyz
  1  'x, y, z'
loop_
 _atom_site_type_symbol
 _atom_site_label
 _atom_site_symmetry_multiplicity
 _atom_site_fract_x
 _atom_site_fract_y
 _atom_site_fract_z
 _atom_site_occupancy
  Li  Li0  1  0.821239  0.821239  0.821239  1
  Tb  Tb1  1  0.599524  0.599524  0.599524  1
  Tb  Tb2  1  0.598368  0.598368  0.206329  1
  Tb  Tb3  1  0.598368  0.206329  0.598368  1
  Tb  Tb4  1  0.206329  0.598368  0.598368  1
  Tb  Tb5  1  0.059997  0.439822  0.439822  1
  Tb  Tb6  1  0.435850  0.062789  0.062789  1
  Tb  Tb7  1  0.439822  0.059997  0.439822  1
  Tb  Tb8  1  0.062789  0.435850  0.062789  1
  Tb  Tb9  1  0.439822  0.439822  0.059997  1
  Tb  Tb10  1  0.062789  0.062789  0.435850  1
  Tb  Tb11  1  0.188703  0.811796  0.811796  1
  Tb  Tb12  1  0.814637  0.185636  0.185636  1
  Tb  Tb13  1  0.811796  0.188703  0.811796  1
  Tb  Tb14  1  0.185636  0.814637  0.185636  1
  Tb  Tb15  1  0.811796  0.811796  0.188703  1
  Tb  Tb16  1  0.185636  0.185636  0.814637  1
  Cd  Cd17  1  0.832456  0.832456  0.506665  1
  Cd  Cd18  1  0.832456  0.506665  0.832456  1
  Cd  Cd19  1  0.506665  0.832456  0.832456  1
  Ir  Ir20  1  0.394043  0.394043  0.825264  1
  Ir  Ir21  1  0.394043  0.825264  0.394043  1
  Ir  Ir22  1  0.825264  0.394043  0.394043  1
  Rh  Rh23  1  0.391975  0.391975  0.391975  1
