# generated using pymatgen
data_Ca20Si11P
_symmetry_space_group_name_H-M   'P 1'
_cell_length_a   7.62785800
_cell_length_b   7.62785800
_cell_length_c   14.69472400
_cell_angle_alpha   90.00000000
_cell_angle_beta   90.00000000
_cell_angle_gamma   90.00000000
_symmetry_Int_Tables_number   1
_chemical_formula_structural   Ca20Si11P
_chemical_formula_sum   'Ca20 Si11 P1'
_cell_volume   855.00101979
_cell_formula_units_Z   1
loop_
 _symmetry_equiv_pos_site_id
 _symmetry_equiv_pos_as_xyz
  1  'x, y, z'
loop_
 _atom_site_type_symbol
 _atom_site_label
 _atom_site_symmetry_multiplicity
 _atom_site_fract_x
 _atom_site_fract_y
 _atom_site_fract_z
 _atom_site_occupancy
  Ca  Ca0  1  0.000000  0.500000  0.247845  1
  Ca  Ca1  1  0.500000  0.000000  0.249482  1
  Ca  Ca2  1  0.500000  0.000000  0.750327  1
  Ca  Ca3  1  0.000000  0.500000  0.752330  1
  Ca  Ca4  1  0.179242  0.179232  0.109445  1
  Ca  Ca5  1  0.820758  0.820769  0.109445  1
  Ca  Ca6  1  0.679582  0.321505  0.390926  1
  Ca  Ca7  1  0.320417  0.678494  0.390926  1
  Ca  Ca8  1  0.821506  0.820418  0.390926  1
  Ca  Ca9  1  0.178495  0.179582  0.390926  1
  Ca  Ca10  1  0.679231  0.320757  0.109445  1
  Ca  Ca11  1  0.320768  0.679242  0.109445  1
  Ca  Ca12  1  0.320867  0.320663  0.890561  1
  Ca  Ca13  1  0.679132  0.679336  0.890561  1
  Ca  Ca14  1  0.821606  0.179676  0.609064  1
  Ca  Ca15  1  0.178394  0.820325  0.609064  1
  Ca  Ca16  1  0.679675  0.678394  0.609064  1
  Ca  Ca17  1  0.320324  0.321605  0.609064  1
  Ca  Ca18  1  0.820664  0.179132  0.890561  1
  Ca  Ca19  1  0.179337  0.820868  0.890561  1
  Si  Si20  1  0.385968  0.387548  0.251368  1
  Si  Si21  1  0.614032  0.612452  0.251368  1
  Si  Si22  1  0.887548  0.114031  0.251368  1
  Si  Si23  1  0.112451  0.885968  0.251368  1
  Si  Si24  1  0.112455  0.114030  0.748632  1
  Si  Si25  1  0.887544  0.885969  0.748632  1
  Si  Si26  1  0.614031  0.387544  0.748632  1
  Si  Si27  1  0.385969  0.612456  0.748632  1
  Si  Si28  1  0.000000  0.500000  0.999980  1
  Si  Si29  1  0.500000  0.000000  0.500017  1
  Si  Si30  1  0.500000  0.000000  0.000059  1
  P  P31  1  0.000000  0.500000  0.499967  1
