# generated using pymatgen
data_Tm4ZnIn2Au3
_symmetry_space_group_name_H-M   'P 1'
_cell_length_a   7.88281501
_cell_length_b   7.88281501
_cell_length_c   3.67327100
_cell_angle_alpha   90.00000000
_cell_angle_beta   90.00000000
_cell_angle_gamma   89.43442574
_symmetry_Int_Tables_number   1
_chemical_formula_structural   Tm4ZnIn2Au3
_chemical_formula_sum   'Tm4 Zn1 In2 Au3'
_cell_volume   228.24143075
_cell_formula_units_Z   1
loop_
 _symmetry_equiv_pos_site_id
 _symmetry_equiv_pos_as_xyz
  1  'x, y, z'
loop_
 _atom_site_type_symbol
 _atom_site_label
 _atom_site_symmetry_multiplicity
 _atom_site_fract_x
 _atom_site_fract_y
 _atom_site_fract_z
 _atom_site_occupancy
  Tm  Tm0  1  0.167744  0.332256  0.000000  1
  Tm  Tm1  1  0.829199  0.670801  0.000000  1
  Tm  Tm2  1  0.672057  0.168143  0.000000  1
  Tm  Tm3  1  0.331857  0.827943  0.000000  1
  Zn  Zn4  1  0.374462  0.125538  0.500000  1
  In  In5  1  0.002391  0.000577  0.500000  1
  In  In6  1  0.499423  0.497609  0.500000  1
  Au  Au7  1  0.622181  0.877819  0.500000  1
  Au  Au8  1  0.870527  0.369840  0.500000  1
  Au  Au9  1  0.130160  0.629473  0.500000  1
