# generated using pymatgen
data_TbHo3Hf5Si8Ag
_symmetry_space_group_name_H-M   'P 1'
_cell_length_a   7.29288444
_cell_length_b   7.29232113
_cell_length_c   13.16987700
_cell_angle_alpha   90.00000000
_cell_angle_beta   90.00000000
_cell_angle_gamma   89.72094382
_symmetry_Int_Tables_number   1
_chemical_formula_structural   TbHo3Hf5Si8Ag
_chemical_formula_sum   'Tb2 Ho6 Hf10 Si16 Ag2'
_cell_volume   700.39281939
_cell_formula_units_Z   2
loop_
 _symmetry_equiv_pos_site_id
 _symmetry_equiv_pos_as_xyz
  1  'x, y, z'
loop_
 _atom_site_type_symbol
 _atom_site_label
 _atom_site_symmetry_multiplicity
 _atom_site_fract_x
 _atom_site_fract_y
 _atom_site_fract_z
 _atom_site_occupancy
  Tb  Tb0  1  0.347384  0.997090  0.787802  1
  Tb  Tb1  1  0.652616  0.002910  0.287802  1
  Ho  Ho2  1  0.997408  0.347776  0.212364  1
  Ho  Ho3  1  0.002592  0.652224  0.712364  1
  Ho  Ho4  1  0.148739  0.502694  0.466103  1
  Ho  Ho5  1  0.497410  0.851165  0.033881  1
  Ho  Ho6  1  0.851261  0.497306  0.966103  1
  Ho  Ho7  1  0.502590  0.148835  0.533881  1
  Hf  Hf8  1  0.320536  0.679030  0.249966  1
  Hf  Hf9  1  0.679464  0.320970  0.749966  1
  Hf  Hf10  1  0.140025  0.998901  0.378936  1
  Hf  Hf11  1  0.859975  0.001099  0.878936  1
  Hf  Hf12  1  0.508158  0.643671  0.624929  1
  Hf  Hf13  1  0.356188  0.491883  0.875009  1
  Hf  Hf14  1  0.491842  0.356329  0.124929  1
  Hf  Hf15  1  0.643812  0.508117  0.375009  1
  Hf  Hf16  1  0.998893  0.139958  0.620951  1
  Hf  Hf17  1  0.001107  0.860042  0.120951  1
  Si  Si18  1  0.356834  0.297025  0.319404  1
  Si  Si19  1  0.643166  0.702975  0.819404  1
  Si  Si20  1  0.226234  0.865864  0.573984  1
  Si  Si21  1  0.133632  0.773049  0.926110  1
  Si  Si22  1  0.773766  0.134136  0.073984  1
  Si  Si23  1  0.866368  0.226951  0.426110  1
  Si  Si24  1  0.296608  0.357691  0.680449  1
  Si  Si25  1  0.703392  0.642309  0.180449  1
  Si  Si26  1  0.293329  0.052761  0.190691  1
  Si  Si27  1  0.706671  0.947239  0.690691  1
  Si  Si28  1  0.433586  0.789211  0.436150  1
  Si  Si29  1  0.210421  0.565864  0.063999  1
  Si  Si30  1  0.566414  0.210789  0.936150  1
  Si  Si31  1  0.789579  0.434136  0.563999  1
  Si  Si32  1  0.052234  0.294316  0.809130  1
  Si  Si33  1  0.947766  0.705684  0.309130  1
  Ag  Ag34  1  0.178326  0.178547  0.000142  1
  Ag  Ag35  1  0.821674  0.821453  0.500142  1
