# generated using pymatgen
data_SrCl8
_symmetry_space_group_name_H-M   'P 1'
_cell_length_a   4.68216090
_cell_length_b   4.55646463
_cell_length_c   20.84580335
_cell_angle_alpha   68.69250605
_cell_angle_beta   94.25639913
_cell_angle_gamma   120.91931874
_symmetry_Int_Tables_number   1
_chemical_formula_structural   SrCl8
_chemical_formula_sum   'Sr1 Cl8'
_cell_volume   351.90907365
_cell_formula_units_Z   1
loop_
 _symmetry_equiv_pos_site_id
 _symmetry_equiv_pos_as_xyz
  1  'x, y, z'
loop_
 _atom_site_type_symbol
 _atom_site_label
 _atom_site_symmetry_multiplicity
 _atom_site_fract_x
 _atom_site_fract_y
 _atom_site_fract_z
 _atom_site_occupancy
  Sr  Sr0  1  0.270765  0.058197  0.289562  1
  Cl  Cl1  1  0.903564  0.707502  0.688807  1
  Cl  Cl2  1  0.444329  0.042381  0.942667  1
  Cl  Cl3  1  0.014010  0.965859  0.979244  1
  Cl  Cl4  1  0.989016  0.403902  0.776227  1
  Cl  Cl5  1  0.104336  0.365686  0.480437  1
  Cl  Cl6  1  0.773584  0.213116  0.559691  1
  Cl  Cl7  1  0.560385  0.595479  0.356501  1
  Cl  Cl8  1  0.980083  0.521875  0.222106  1
