# generated using pymatgen
data_Ca3Tm2(Ni2Sn5)2
_symmetry_space_group_name_H-M   'P 1'
_cell_length_a   14.00314400
_cell_length_b   14.00314400
_cell_length_c   4.45668400
_cell_angle_alpha   90.00000000
_cell_angle_beta   90.00000000
_cell_angle_gamma   90.00000000
_symmetry_Int_Tables_number   1
_chemical_formula_structural   Ca3Tm2(Ni2Sn5)2
_chemical_formula_sum   'Ca6 Tm4 Ni8 Sn20'
_cell_volume   873.90243886
_cell_formula_units_Z   2
loop_
 _symmetry_equiv_pos_site_id
 _symmetry_equiv_pos_as_xyz
  1  'x, y, z'
loop_
 _atom_site_type_symbol
 _atom_site_label
 _atom_site_symmetry_multiplicity
 _atom_site_fract_x
 _atom_site_fract_y
 _atom_site_fract_z
 _atom_site_occupancy
  Ca  Ca0  1  0.000000  0.000000  0.000000  1
  Ca  Ca1  1  0.500000  0.500000  0.000000  1
  Ca  Ca2  1  0.892569  0.607431  0.500000  1
  Ca  Ca3  1  0.107431  0.392569  0.500000  1
  Ca  Ca4  1  0.392569  0.892569  0.500000  1
  Ca  Ca5  1  0.607431  0.107431  0.500000  1
  Tm  Tm6  1  0.179709  0.679709  0.500000  1
  Tm  Tm7  1  0.820291  0.320291  0.500000  1
  Tm  Tm8  1  0.679709  0.820291  0.500000  1
  Tm  Tm9  1  0.320291  0.179709  0.500000  1
  Ni  Ni10  1  0.254175  0.536855  0.000000  1
  Ni  Ni11  1  0.745825  0.463145  0.000000  1
  Ni  Ni12  1  0.754175  0.963145  0.000000  1
  Ni  Ni13  1  0.245825  0.036855  0.000000  1
  Ni  Ni14  1  0.463145  0.254175  0.000000  1
  Ni  Ni15  1  0.536855  0.745825  0.000000  1
  Ni  Ni16  1  0.036855  0.754175  0.000000  1
  Ni  Ni17  1  0.963145  0.245825  0.000000  1
  Sn  Sn18  1  0.352218  0.700361  0.000000  1
  Sn  Sn19  1  0.647782  0.299639  0.000000  1
  Sn  Sn20  1  0.852218  0.799639  0.000000  1
  Sn  Sn21  1  0.147782  0.200361  0.000000  1
  Sn  Sn22  1  0.299639  0.352218  0.000000  1
  Sn  Sn23  1  0.700361  0.647782  0.000000  1
  Sn  Sn24  1  0.200361  0.852218  0.000000  1
  Sn  Sn25  1  0.799639  0.147782  0.000000  1
  Sn  Sn26  1  0.336358  0.513870  0.500000  1
  Sn  Sn27  1  0.663642  0.486130  0.500000  1
  Sn  Sn28  1  0.836358  0.986130  0.500000  1
  Sn  Sn29  1  0.163642  0.013870  0.500000  1
  Sn  Sn30  1  0.486130  0.336358  0.500000  1
  Sn  Sn31  1  0.513870  0.663642  0.500000  1
  Sn  Sn32  1  0.013870  0.836358  0.500000  1
  Sn  Sn33  1  0.986130  0.163642  0.500000  1
  Sn  Sn34  1  0.071923  0.571923  0.000000  1
  Sn  Sn35  1  0.928077  0.428077  0.000000  1
  Sn  Sn36  1  0.571923  0.928077  0.000000  1
  Sn  Sn37  1  0.428077  0.071923  0.000000  1
