# generated using pymatgen
data_Sm2Dy5Y(WO6)4
_symmetry_space_group_name_H-M   'P 1'
_cell_length_a   5.43151400
_cell_length_b   7.74881274
_cell_length_c   11.53678605
_cell_angle_alpha   75.53813354
_cell_angle_beta   90.00000000
_cell_angle_gamma   90.00000000
_symmetry_Int_Tables_number   1
_chemical_formula_structural   Sm2Dy5Y(WO6)4
_chemical_formula_sum   'Sm2 Dy5 Y1 W4 O24'
_cell_volume   470.17241903
_cell_formula_units_Z   1
loop_
 _symmetry_equiv_pos_site_id
 _symmetry_equiv_pos_as_xyz
  1  'x, y, z'
loop_
 _atom_site_type_symbol
 _atom_site_label
 _atom_site_symmetry_multiplicity
 _atom_site_fract_x
 _atom_site_fract_y
 _atom_site_fract_z
 _atom_site_occupancy
  Sm  Sm0  1  0.684182  0.500000  0.750000  1
  Sm  Sm1  1  0.315791  0.500000  0.250000  1
  Dy  Dy2  1  0.260245  0.000000  0.250000  1
  Dy  Dy3  1  0.187605  0.797072  0.577162  1
  Dy  Dy4  1  0.812416  0.797082  0.077207  1
  Dy  Dy5  1  0.187605  0.202928  0.922838  1
  Dy  Dy6  1  0.812416  0.202918  0.422793  1
  Y  Y7  1  0.739943  0.000000  0.750000  1
  W  W8  1  0.253218  0.725238  0.885171  1
  W  W9  1  0.746787  0.725337  0.385136  1
  W  W10  1  0.253218  0.274762  0.614829  1
  W  W11  1  0.746787  0.274663  0.114864  1
  O  O12  1  0.041277  0.940096  0.895777  1
  O  O13  1  0.529164  0.848471  0.930776  1
  O  O14  1  0.959086  0.940172  0.395616  1
  O  O15  1  0.456930  0.791281  0.728046  1
  O  O16  1  0.470653  0.848606  0.430620  1
  O  O17  1  0.984469  0.714632  0.770791  1
  O  O18  1  0.542658  0.791584  0.228053  1
  O  O19  1  0.853170  0.638747  0.546742  1
  O  O20  1  0.355396  0.491836  0.887529  1
  O  O21  1  0.015660  0.714802  0.270776  1
  O  O22  1  0.355396  0.508164  0.612471  1
  O  O23  1  0.853170  0.361253  0.953258  1
  O  O24  1  0.146831  0.638744  0.046752  1
  O  O25  1  0.644599  0.491857  0.387532  1
  O  O26  1  0.984469  0.285368  0.729209  1
  O  O27  1  0.644599  0.508143  0.112468  1
  O  O28  1  0.146831  0.361256  0.453248  1
  O  O29  1  0.456930  0.208719  0.771954  1
  O  O30  1  0.015660  0.285198  0.229224  1
  O  O31  1  0.529164  0.151529  0.569224  1
  O  O32  1  0.542658  0.208416  0.271947  1
  O  O33  1  0.041277  0.059904  0.604223  1
  O  O34  1  0.470653  0.151394  0.069380  1
  O  O35  1  0.959086  0.059828  0.104384  1
