# generated using pymatgen
data_Tb4Tm3Pa(ReB6)4
_symmetry_space_group_name_H-M   'P 1'
_cell_length_a   3.68612700
_cell_length_b   9.15893690
_cell_length_c   11.53783918
_cell_angle_alpha   90.16600341
_cell_angle_beta   90.00000000
_cell_angle_gamma   90.00000000
_symmetry_Int_Tables_number   1
_chemical_formula_structural   Tb4Tm3Pa(ReB6)4
_chemical_formula_sum   'Tb4 Tm3 Pa1 Re4 B24'
_cell_volume   389.52740675
_cell_formula_units_Z   1
loop_
 _symmetry_equiv_pos_site_id
 _symmetry_equiv_pos_as_xyz
  1  'x, y, z'
loop_
 _atom_site_type_symbol
 _atom_site_label
 _atom_site_symmetry_multiplicity
 _atom_site_fract_x
 _atom_site_fract_y
 _atom_site_fract_z
 _atom_site_occupancy
  Tb  Tb0  1  0.000000  0.678966  0.587081  1
  Tb  Tb1  1  0.000000  0.822944  0.085200  1
  Tb  Tb2  1  0.000000  0.176368  0.913376  1
  Tb  Tb3  1  0.000000  0.942711  0.371967  1
  Tm  Tm4  1  0.000000  0.055730  0.629930  1
  Tm  Tm5  1  0.000000  0.443456  0.127339  1
  Tm  Tm6  1  0.000000  0.557155  0.870161  1
  Pa  Pa7  1  0.000000  0.323472  0.414239  1
  Re  Re8  1  0.000000  0.634334  0.321369  1
  Re  Re9  1  0.000000  0.361864  0.676855  1
  Re  Re10  1  0.000000  0.142418  0.181671  1
  Re  Re11  1  0.000000  0.861187  0.820763  1
  B  B12  1  0.500000  0.551981  0.431780  1
  B  B13  1  0.500000  0.445237  0.567338  1
  B  B14  1  0.500000  0.054586  0.067549  1
  B  B15  1  0.500000  0.946681  0.933062  1
  B  B16  1  0.500000  0.747734  0.418191  1
  B  B17  1  0.500000  0.250395  0.581398  1
  B  B18  1  0.500000  0.249999  0.081069  1
  B  B19  1  0.500000  0.750164  0.918548  1
  B  B20  1  0.500000  0.790287  0.265660  1
  B  B21  1  0.500000  0.208028  0.734435  1
  B  B22  1  0.500000  0.292791  0.234334  1
  B  B23  1  0.500000  0.707926  0.765979  1
  B  B24  1  0.500000  0.629828  0.184492  1
  B  B25  1  0.500000  0.370162  0.814229  1
  B  B26  1  0.500000  0.132855  0.314708  1
  B  B27  1  0.500000  0.869352  0.686108  1
  B  B28  1  0.500000  0.983573  0.212004  1
  B  B29  1  0.500000  0.017585  0.787682  1
  B  B30  1  0.500000  0.482073  0.286863  1
  B  B31  1  0.500000  0.517689  0.713251  1
  B  B32  1  0.500000  0.599707  0.027170  1
  B  B33  1  0.500000  0.400275  0.971360  1
  B  B34  1  0.500000  0.105204  0.472309  1
  B  B35  1  0.500000  0.895287  0.530528  1
