# generated using pymatgen
data_LaHg4Se2Br5
_symmetry_space_group_name_H-M   'P 1'
_cell_length_a   8.76515965
_cell_length_b   11.46138800
_cell_length_c   9.52089515
_cell_angle_alpha   90.00000000
_cell_angle_beta   114.30283150
_cell_angle_gamma   90.00000000
_symmetry_Int_Tables_number   1
_chemical_formula_structural   LaHg4Se2Br5
_chemical_formula_sum   'La2 Hg8 Se4 Br10'
_cell_volume   871.71741553
_cell_formula_units_Z   2
loop_
 _symmetry_equiv_pos_site_id
 _symmetry_equiv_pos_as_xyz
  1  'x, y, z'
loop_
 _atom_site_type_symbol
 _atom_site_label
 _atom_site_symmetry_multiplicity
 _atom_site_fract_x
 _atom_site_fract_y
 _atom_site_fract_z
 _atom_site_occupancy
  La  La0  1  0.505551  0.433275  0.512293  1
  La  La1  1  0.494449  0.933275  0.487707  1
  Hg  Hg2  1  0.924831  0.188428  0.332273  1
  Hg  Hg3  1  0.075169  0.688428  0.667727  1
  Hg  Hg4  1  0.949266  0.661088  0.364120  1
  Hg  Hg5  1  0.050734  0.161088  0.635880  1
  Hg  Hg6  1  0.497457  0.182123  0.989724  1
  Hg  Hg7  1  0.502543  0.682123  0.010276  1
  Hg  Hg8  1  0.795655  0.431904  0.019120  1
  Hg  Hg9  1  0.204345  0.931904  0.980880  1
  Se  Se10  1  0.800898  0.206756  0.029402  1
  Se  Se11  1  0.199102  0.706756  0.970598  1
  Se  Se12  1  0.191629  0.155122  0.939123  1
  Se  Se13  1  0.808371  0.655122  0.060877  1
  Br  Br14  1  0.853038  0.925448  0.684413  1
  Br  Br15  1  0.146962  0.425448  0.315587  1
  Br  Br16  1  0.862588  0.440893  0.725124  1
  Br  Br17  1  0.137412  0.940893  0.274876  1
  Br  Br18  1  0.406263  0.462046  0.772269  1
  Br  Br19  1  0.593737  0.962046  0.227731  1
  Br  Br20  1  0.593264  0.385870  0.255529  1
  Br  Br21  1  0.406736  0.885870  0.744471  1
  Br  Br22  1  0.493598  0.180647  0.575731  1
  Br  Br23  1  0.506402  0.680647  0.424269  1
