# generated using pymatgen
data_TaTlOF4
_symmetry_space_group_name_H-M   'P 1'
_cell_length_a   6.71138200
_cell_length_b   5.38621547
_cell_length_c   14.43293600
_cell_angle_alpha   84.24598528
_cell_angle_beta   90.00000000
_cell_angle_gamma   90.00000000
_symmetry_Int_Tables_number   1
_chemical_formula_structural   TaTlOF4
_chemical_formula_sum   'Ta4 Tl4 O4 F16'
_cell_volume   519.10670892
_cell_formula_units_Z   4
loop_
 _symmetry_equiv_pos_site_id
 _symmetry_equiv_pos_as_xyz
  1  'x, y, z'
loop_
 _atom_site_type_symbol
 _atom_site_label
 _atom_site_symmetry_multiplicity
 _atom_site_fract_x
 _atom_site_fract_y
 _atom_site_fract_z
 _atom_site_occupancy
  Ta  Ta0  1  0.120595  0.975214  0.913308  1
  Ta  Ta1  1  0.620595  0.024786  0.586692  1
  Ta  Ta2  1  0.879405  0.024786  0.086692  1
  Ta  Ta3  1  0.379405  0.975214  0.413308  1
  Tl  Tl4  1  0.137847  0.460121  0.653127  1
  Tl  Tl5  1  0.362153  0.460121  0.153127  1
  Tl  Tl6  1  0.637847  0.539879  0.846873  1
  Tl  Tl7  1  0.862153  0.539879  0.346873  1
  O  O8  1  0.102764  0.186355  0.015182  1
  O  O9  1  0.602764  0.813645  0.484818  1
  O  O10  1  0.397236  0.186355  0.515182  1
  O  O11  1  0.897236  0.813645  0.984818  1
  F  F12  1  0.667602  0.228654  0.026149  1
  F  F13  1  0.672052  0.823584  0.154047  1
  F  F14  1  0.327948  0.176416  0.845953  1
  F  F15  1  0.564218  0.171734  0.331057  1
  F  F16  1  0.064218  0.828266  0.168943  1
  F  F17  1  0.103933  0.719177  0.826056  1
  F  F18  1  0.396067  0.719177  0.326056  1
  F  F19  1  0.172052  0.176416  0.345953  1
  F  F20  1  0.167602  0.771346  0.473851  1
  F  F21  1  0.332398  0.771346  0.973851  1
  F  F22  1  0.896067  0.280823  0.173944  1
  F  F23  1  0.435782  0.828266  0.668943  1
  F  F24  1  0.935782  0.171734  0.831057  1
  F  F25  1  0.832398  0.228654  0.526149  1
  F  F26  1  0.603933  0.280823  0.673944  1
  F  F27  1  0.827948  0.823584  0.654047  1
