# generated using pymatgen
data_YHo5Er4(CoSb2)2
_symmetry_space_group_name_H-M   'P 1'
_cell_length_a   7.82113900
_cell_length_b   8.72492100
_cell_length_c   12.12908100
_cell_angle_alpha   90.00000000
_cell_angle_beta   90.00000000
_cell_angle_gamma   90.00000000
_symmetry_Int_Tables_number   1
_chemical_formula_structural   YHo5Er4(CoSb2)2
_chemical_formula_sum   'Y2 Ho10 Er8 Co4 Sb8'
_cell_volume   827.67417397
_cell_formula_units_Z   2
loop_
 _symmetry_equiv_pos_site_id
 _symmetry_equiv_pos_as_xyz
  1  'x, y, z'
loop_
 _atom_site_type_symbol
 _atom_site_label
 _atom_site_symmetry_multiplicity
 _atom_site_fract_x
 _atom_site_fract_y
 _atom_site_fract_z
 _atom_site_occupancy
  Y  Y0  1  0.156144  0.750000  0.204352  1
  Y  Y1  1  0.656144  0.250000  0.295648  1
  Ho  Ho2  1  0.844064  0.250000  0.796364  1
  Ho  Ho3  1  0.344064  0.750000  0.703636  1
  Ho  Ho4  1  0.453237  0.750000  0.997679  1
  Ho  Ho5  1  0.953237  0.250000  0.502321  1
  Ho  Ho6  1  0.547172  0.250000  0.001612  1
  Ho  Ho7  1  0.047172  0.750000  0.498388  1
  Ho  Ho8  1  0.623124  0.750000  0.307860  1
  Ho  Ho9  1  0.123124  0.250000  0.192140  1
  Ho  Ho10  1  0.377144  0.250000  0.692227  1
  Ho  Ho11  1  0.877144  0.750000  0.807773  1
  Er  Er12  1  0.823050  0.964125  0.065124  1
  Er  Er13  1  0.323050  0.035875  0.434876  1
  Er  Er14  1  0.176698  0.464059  0.934557  1
  Er  Er15  1  0.676698  0.535941  0.565443  1
  Er  Er16  1  0.176698  0.035941  0.934557  1
  Er  Er17  1  0.676698  0.964059  0.565443  1
  Er  Er18  1  0.823050  0.535875  0.065124  1
  Er  Er19  1  0.323050  0.464125  0.434876  1
  Co  Co20  1  0.434109  0.750000  0.490934  1
  Co  Co21  1  0.934109  0.250000  0.009066  1
  Co  Co22  1  0.565528  0.250000  0.509885  1
  Co  Co23  1  0.065528  0.750000  0.990115  1
  Sb  Sb24  1  0.930445  0.991948  0.327453  1
  Sb  Sb25  1  0.430445  0.008052  0.172547  1
  Sb  Sb26  1  0.069546  0.491926  0.672938  1
  Sb  Sb27  1  0.569546  0.508074  0.827062  1
  Sb  Sb28  1  0.069546  0.008074  0.672938  1
  Sb  Sb29  1  0.569546  0.991926  0.827062  1
  Sb  Sb30  1  0.930445  0.508052  0.327453  1
  Sb  Sb31  1  0.430445  0.491948  0.172547  1
