# generated using pymatgen
data_TmP2Rh3
_symmetry_space_group_name_H-M   'P 1'
_cell_length_a   3.90775300
_cell_length_b   11.19869500
_cell_length_c   12.69535600
_cell_angle_alpha   90.00000000
_cell_angle_beta   90.00000000
_cell_angle_gamma   90.00000000
_symmetry_Int_Tables_number   1
_chemical_formula_structural   TmP2Rh3
_chemical_formula_sum   'Tm6 P12 Rh18'
_cell_volume   555.57079208
_cell_formula_units_Z   6
loop_
 _symmetry_equiv_pos_site_id
 _symmetry_equiv_pos_as_xyz
  1  'x, y, z'
loop_
 _atom_site_type_symbol
 _atom_site_label
 _atom_site_symmetry_multiplicity
 _atom_site_fract_x
 _atom_site_fract_y
 _atom_site_fract_z
 _atom_site_occupancy
  Tm  Tm0  1  0.000000  0.500000  0.521322  1
  Tm  Tm1  1  0.500000  0.000000  0.478678  1
  Tm  Tm2  1  0.500000  0.815056  0.205593  1
  Tm  Tm3  1  0.500000  0.184944  0.205593  1
  Tm  Tm4  1  0.000000  0.684944  0.794407  1
  Tm  Tm5  1  0.000000  0.315056  0.794407  1
  P  P6  1  0.500000  0.500000  0.877166  1
  P  P7  1  0.000000  0.000000  0.122834  1
  P  P8  1  0.500000  0.500000  0.353111  1
  P  P9  1  0.000000  0.000000  0.646889  1
  P  P10  1  0.500000  0.316050  0.619360  1
  P  P11  1  0.500000  0.683950  0.619360  1
  P  P12  1  0.000000  0.183950  0.380640  1
  P  P13  1  0.000000  0.816050  0.380640  1
  P  P14  1  0.500000  0.845883  0.892068  1
  P  P15  1  0.500000  0.154117  0.892068  1
  P  P16  1  0.000000  0.654117  0.107932  1
  P  P17  1  0.000000  0.345883  0.107932  1
  Rh  Rh18  1  0.500000  0.500000  0.169597  1
  Rh  Rh19  1  0.000000  0.000000  0.830403  1
  Rh  Rh20  1  0.500000  0.500000  0.700038  1
  Rh  Rh21  1  0.000000  0.000000  0.299962  1
  Rh  Rh22  1  0.000000  0.500000  0.978684  1
  Rh  Rh23  1  0.500000  0.000000  0.021316  1
  Rh  Rh24  1  0.500000  0.334014  0.992729  1
  Rh  Rh25  1  0.500000  0.665986  0.992729  1
  Rh  Rh26  1  0.000000  0.165986  0.007271  1
  Rh  Rh27  1  0.000000  0.834014  0.007271  1
  Rh  Rh28  1  0.500000  0.296760  0.431881  1
  Rh  Rh29  1  0.500000  0.703240  0.431881  1
  Rh  Rh30  1  0.000000  0.203240  0.568119  1
  Rh  Rh31  1  0.000000  0.796760  0.568119  1
  Rh  Rh32  1  0.500000  0.872234  0.710712  1
  Rh  Rh33  1  0.500000  0.127766  0.710712  1
  Rh  Rh34  1  0.000000  0.627766  0.289288  1
  Rh  Rh35  1  0.000000  0.372234  0.289288  1
