# generated using pymatgen
data_Th4Cu20Sn3Hg
_symmetry_space_group_name_H-M   'P 1'
_cell_length_a   5.11141900
_cell_length_b   8.35400500
_cell_length_c   10.58325501
_cell_angle_alpha   90.00455076
_cell_angle_beta   90.00000000
_cell_angle_gamma   90.00000000
_symmetry_Int_Tables_number   1
_chemical_formula_structural   Th4Cu20Sn3Hg
_chemical_formula_sum   'Th4 Cu20 Sn3 Hg1'
_cell_volume   451.91366484
_cell_formula_units_Z   1
loop_
 _symmetry_equiv_pos_site_id
 _symmetry_equiv_pos_as_xyz
  1  'x, y, z'
loop_
 _atom_site_type_symbol
 _atom_site_label
 _atom_site_symmetry_multiplicity
 _atom_site_fract_x
 _atom_site_fract_y
 _atom_site_fract_z
 _atom_site_occupancy
  Th  Th0  1  0.750000  0.252865  0.934136  1
  Th  Th1  1  0.250000  0.752498  0.057536  1
  Th  Th2  1  0.750000  0.743504  0.560157  1
  Th  Th3  1  0.250000  0.252667  0.449589  1
  Cu  Cu4  1  0.001171  0.427794  0.186408  1
  Cu  Cu5  1  0.501090  0.571320  0.812970  1
  Cu  Cu6  1  0.498855  0.928389  0.313192  1
  Cu  Cu7  1  0.998422  0.070030  0.687608  1
  Cu  Cu8  1  0.998910  0.571320  0.812970  1
  Cu  Cu9  1  0.498829  0.427794  0.186408  1
  Cu  Cu10  1  0.501578  0.070030  0.687608  1
  Cu  Cu11  1  0.001145  0.928389  0.313192  1
  Cu  Cu12  1  0.750000  0.433296  0.391426  1
  Cu  Cu13  1  0.250000  0.565411  0.606870  1
  Cu  Cu14  1  0.750000  0.935628  0.104829  1
  Cu  Cu15  1  0.250000  0.069304  0.895095  1
  Cu  Cu16  1  0.750000  0.179126  0.254839  1
  Cu  Cu17  1  0.250000  0.820867  0.746618  1
  Cu  Cu18  1  0.750000  0.680456  0.244215  1
  Cu  Cu19  1  0.250000  0.321282  0.754888  1
  Cu  Cu20  1  0.750000  0.079199  0.483054  1
  Cu  Cu21  1  0.250000  0.915108  0.518401  1
  Cu  Cu22  1  0.750000  0.582107  0.017922  1
  Cu  Cu23  1  0.250000  0.419621  0.982700  1
  Sn  Sn24  1  0.250000  0.635686  0.358891  1
  Sn  Sn25  1  0.750000  0.862524  0.860102  1
  Sn  Sn26  1  0.250000  0.137476  0.141961  1
  Hg  Hg27  1  0.750000  0.366312  0.636414  1
