# generated using pymatgen
data_Er4Ga16Ir2Ru
_symmetry_space_group_name_H-M   'P 1'
_cell_length_a   6.12351500
_cell_length_b   6.12351500
_cell_length_c   11.18474000
_cell_angle_alpha   90.00000000
_cell_angle_beta   90.00000000
_cell_angle_gamma   90.00000000
_symmetry_Int_Tables_number   1
_chemical_formula_structural   Er4Ga16Ir2Ru
_chemical_formula_sum   'Er4 Ga16 Ir2 Ru1'
_cell_volume   419.39907183
_cell_formula_units_Z   1
loop_
 _symmetry_equiv_pos_site_id
 _symmetry_equiv_pos_as_xyz
  1  'x, y, z'
loop_
 _atom_site_type_symbol
 _atom_site_label
 _atom_site_symmetry_multiplicity
 _atom_site_fract_x
 _atom_site_fract_y
 _atom_site_fract_z
 _atom_site_occupancy
  Er  Er0  1  0.000000  0.500000  0.193591  1
  Er  Er1  1  0.000000  0.500000  0.806409  1
  Er  Er2  1  0.500000  0.000000  0.806409  1
  Er  Er3  1  0.500000  0.000000  0.193591  1
  Ga  Ga4  1  0.000000  0.000000  0.220975  1
  Ga  Ga5  1  0.000000  0.000000  0.779025  1
  Ga  Ga6  1  0.500000  0.500000  0.195160  1
  Ga  Ga7  1  0.500000  0.500000  0.804840  1
  Ga  Ga8  1  0.286312  0.286312  0.000000  1
  Ga  Ga9  1  0.713688  0.713688  0.000000  1
  Ga  Ga10  1  0.286312  0.713688  0.000000  1
  Ga  Ga11  1  0.713688  0.286312  0.000000  1
  Ga  Ga12  1  0.248338  0.248338  0.378443  1
  Ga  Ga13  1  0.751662  0.751662  0.378443  1
  Ga  Ga14  1  0.248338  0.751662  0.621557  1
  Ga  Ga15  1  0.751662  0.248338  0.621557  1
  Ga  Ga16  1  0.751662  0.751662  0.621557  1
  Ga  Ga17  1  0.248338  0.248338  0.621557  1
  Ga  Ga18  1  0.248338  0.751662  0.378443  1
  Ga  Ga19  1  0.751662  0.248338  0.378443  1
  Ir  Ir20  1  0.000000  0.500000  0.500000  1
  Ir  Ir21  1  0.500000  0.000000  0.500000  1
  Ru  Ru22  1  0.000000  0.000000  0.000000  1
