# generated using pymatgen
data_Zn2Cd2P6SeN12
_symmetry_space_group_name_H-M   'P 1'
_cell_length_a   7.29363696
_cell_length_b   7.32129709
_cell_length_c   7.29363806
_cell_angle_alpha   109.52230274
_cell_angle_beta   109.21524253
_cell_angle_gamma   109.52229046
_symmetry_Int_Tables_number   1
_chemical_formula_structural   Zn2Cd2P6SeN12
_chemical_formula_sum   'Zn2 Cd2 P6 Se1 N12'
_cell_volume   300.38145436
_cell_formula_units_Z   1
loop_
 _symmetry_equiv_pos_site_id
 _symmetry_equiv_pos_as_xyz
  1  'x, y, z'
loop_
 _atom_site_type_symbol
 _atom_site_label
 _atom_site_symmetry_multiplicity
 _atom_site_fract_x
 _atom_site_fract_y
 _atom_site_fract_z
 _atom_site_occupancy
  Zn  Zn0  1  0.628710  0.000000  0.004349  1
  Zn  Zn1  1  0.004349  0.000000  0.628710  1
  Cd  Cd2  1  0.004284  0.686775  0.004284  1
  Cd  Cd3  1  0.317509  0.313225  0.317509  1
  P  P4  1  0.256138  0.751251  0.507636  1
  P  P5  1  0.756385  0.248749  0.504886  1
  P  P6  1  0.754163  0.500000  0.254163  1
  P  P7  1  0.254163  0.500000  0.754163  1
  P  P8  1  0.507636  0.751251  0.256138  1
  P  P9  1  0.504886  0.248749  0.756385  1
  Se  Se10  1  0.953433  0.000000  0.953433  1
  N  N11  1  0.717411  0.276947  0.281248  1
  N  N12  1  0.289815  0.721698  0.289815  1
  N  N13  1  0.290534  0.567329  0.571490  1
  N  N14  1  0.571490  0.567329  0.290534  1
  N  N15  1  0.440464  0.723053  0.004301  1
  N  N16  1  0.004301  0.723053  0.440464  1
  N  N17  1  0.568117  0.278302  0.568117  1
  N  N18  1  0.731582  0.000000  0.436013  1
  N  N19  1  0.436013  0.000000  0.731582  1
  N  N20  1  0.723205  0.432671  0.004160  1
  N  N21  1  0.281248  0.276947  0.717411  1
  N  N22  1  0.004160  0.432671  0.723205  1
