# generated using pymatgen
data_Rb3NaSi4(SbS4)4
_symmetry_space_group_name_H-M   'P 1'
_cell_length_a   7.38278047
_cell_length_b   8.81696215
_cell_length_c   12.92757368
_cell_angle_alpha   74.09599775
_cell_angle_beta   90.95627393
_cell_angle_gamma   88.84854521
_symmetry_Int_Tables_number   1
_chemical_formula_structural   Rb3NaSi4(SbS4)4
_chemical_formula_sum   'Rb3 Na1 Si4 Sb4 S16'
_cell_volume   808.91358800
_cell_formula_units_Z   1
loop_
 _symmetry_equiv_pos_site_id
 _symmetry_equiv_pos_as_xyz
  1  'x, y, z'
loop_
 _atom_site_type_symbol
 _atom_site_label
 _atom_site_symmetry_multiplicity
 _atom_site_fract_x
 _atom_site_fract_y
 _atom_site_fract_z
 _atom_site_occupancy
  Rb  Rb0  1  0.263821  0.420062  0.393005  1
  Rb  Rb1  1  0.769271  0.575446  0.108989  1
  Rb  Rb2  1  0.736438  0.577120  0.608035  1
  Na  Na3  1  0.328086  0.427904  0.855854  1
  Si  Si4  1  0.787813  0.185712  0.348479  1
  Si  Si5  1  0.286101  0.821770  0.150538  1
  Si  Si6  1  0.207817  0.803813  0.658582  1
  Si  Si7  1  0.700248  0.189189  0.846299  1
  Sb  Sb8  1  0.140371  0.936453  0.373235  1
  Sb  Sb9  1  0.631064  0.065873  0.127882  1
  Sb  Sb10  1  0.863440  0.061802  0.635320  1
  Sb  Sb11  1  0.352641  0.934310  0.873256  1
  S  S12  1  0.956409  0.223487  0.767871  1
  S  S13  1  0.816828  0.934863  0.434045  1
  S  S14  1  0.483634  0.233476  0.734026  1
  S  S15  1  0.681893  0.938211  0.932180  1
  S  S16  1  0.788745  0.319552  0.462026  1
  S  S17  1  0.040473  0.781925  0.238839  1
  S  S18  1  0.284709  0.687957  0.035558  1
  S  S19  1  0.187317  0.056797  0.576247  1
  S  S20  1  0.679994  0.324830  0.959350  1
  S  S21  1  0.509270  0.779892  0.258351  1
  S  S22  1  0.987055  0.768759  0.762148  1
  S  S23  1  0.213676  0.674055  0.542685  1
  S  S24  1  0.536472  0.228962  0.258219  1
  S  S25  1  0.006918  0.222660  0.242956  1
  S  S26  1  0.454727  0.753666  0.753278  1
  S  S27  1  0.304768  0.071458  0.062749  1
