# generated using pymatgen
data_Pr5Ti3(Co4P3)4
_symmetry_space_group_name_H-M   'P 1'
_cell_length_a   12.32246500
_cell_length_b   12.32246512
_cell_length_c   3.75339800
_cell_angle_alpha   90.00000000
_cell_angle_beta   90.00000000
_cell_angle_gamma   120.00000773
_symmetry_Int_Tables_number   1
_chemical_formula_structural   Pr5Ti3(Co4P3)4
_chemical_formula_sum   'Pr5 Ti3 Co16 P12'
_cell_volume   493.57187773
_cell_formula_units_Z   1
loop_
 _symmetry_equiv_pos_site_id
 _symmetry_equiv_pos_as_xyz
  1  'x, y, z'
loop_
 _atom_site_type_symbol
 _atom_site_label
 _atom_site_symmetry_multiplicity
 _atom_site_fract_x
 _atom_site_fract_y
 _atom_site_fract_z
 _atom_site_occupancy
  Pr  Pr0  1  0.186239  0.186239  0.500000  1
  Pr  Pr1  1  0.813761  0.000000  0.500000  1
  Pr  Pr2  1  0.000000  0.813761  0.500000  1
  Pr  Pr3  1  0.333333  0.666667  0.000000  1
  Pr  Pr4  1  0.666667  0.333333  0.000000  1
  Ti  Ti5  1  0.563128  0.563128  0.000000  1
  Ti  Ti6  1  0.436872  0.000000  0.000000  1
  Ti  Ti7  1  0.000000  0.436872  0.000000  1
  Co  Co8  1  0.716532  0.716532  0.500000  1
  Co  Co9  1  0.283468  0.000000  0.500000  1
  Co  Co10  1  0.000000  0.283468  0.500000  1
  Co  Co11  1  0.177132  0.377213  0.000000  1
  Co  Co12  1  0.622787  0.799919  0.000000  1
  Co  Co13  1  0.200081  0.822868  0.000000  1
  Co  Co14  1  0.799919  0.622787  0.000000  1
  Co  Co15  1  0.822868  0.200081  0.000000  1
  Co  Co16  1  0.377213  0.177132  0.000000  1
  Co  Co17  1  0.356903  0.480156  0.500000  1
  Co  Co18  1  0.519844  0.876747  0.500000  1
  Co  Co19  1  0.123253  0.643097  0.500000  1
  Co  Co20  1  0.876747  0.519844  0.500000  1
  Co  Co21  1  0.643097  0.123253  0.500000  1
  Co  Co22  1  0.480156  0.356903  0.500000  1
  Co  Co23  1  0.000000  0.000000  0.000000  1
  P  P24  1  0.816839  0.816839  0.000000  1
  P  P25  1  0.183161  0.000000  0.000000  1
  P  P26  1  0.000000  0.183161  0.000000  1
  P  P27  1  0.165328  0.476489  0.500000  1
  P  P28  1  0.523511  0.688840  0.500000  1
  P  P29  1  0.311160  0.834672  0.500000  1
  P  P30  1  0.688840  0.523511  0.500000  1
  P  P31  1  0.834672  0.311160  0.500000  1
  P  P32  1  0.476489  0.165328  0.500000  1
  P  P33  1  0.364939  0.364939  0.000000  1
  P  P34  1  0.635061  0.000000  0.000000  1
  P  P35  1  0.000000  0.635061  0.000000  1
