# generated using pymatgen
data_LaThPPt8
_symmetry_space_group_name_H-M   'P 1'
_cell_length_a   9.20045746
_cell_length_b   9.22744881
_cell_length_c   4.31699900
_cell_angle_alpha   90.00000000
_cell_angle_beta   90.00000000
_cell_angle_gamma   145.59187072
_symmetry_Int_Tables_number   1
_chemical_formula_structural   LaThPPt8
_chemical_formula_sum   'La1 Th1 P1 Pt8'
_cell_volume   207.10285052
_cell_formula_units_Z   1
loop_
 _symmetry_equiv_pos_site_id
 _symmetry_equiv_pos_as_xyz
  1  'x, y, z'
loop_
 _atom_site_type_symbol
 _atom_site_label
 _atom_site_symmetry_multiplicity
 _atom_site_fract_x
 _atom_site_fract_y
 _atom_site_fract_z
 _atom_site_occupancy
  La  La0  1  0.618694  0.373493  0.500000  1
  Th  Th1  1  0.371050  0.621761  0.500000  1
  P  P2  1  0.223746  0.221367  0.000000  1
  Pt  Pt3  1  0.107443  0.886957  0.000000  1
  Pt  Pt4  1  0.893518  0.112538  0.000000  1
  Pt  Pt5  1  0.490302  0.979903  0.000000  1
  Pt  Pt6  1  0.988732  0.490260  0.000000  1
  Pt  Pt7  1  0.196416  0.792311  0.500000  1
  Pt  Pt8  1  0.793757  0.194488  0.500000  1
  Pt  Pt9  1  0.000962  0.003145  0.500000  1
  Pt  Pt10  1  0.628980  0.637376  0.000000  1
