# generated using pymatgen
data_NaCa3Zr3TaO12
_symmetry_space_group_name_H-M   'P 1'
_cell_length_a   5.79924400
_cell_length_b   5.55991100
_cell_length_c   15.96838370
_cell_angle_alpha   89.87385390
_cell_angle_beta   90.00000000
_cell_angle_gamma   90.00000000
_symmetry_Int_Tables_number   1
_chemical_formula_structural   NaCa3Zr3TaO12
_chemical_formula_sum   'Na2 Ca6 Zr6 Ta2 O24'
_cell_volume   514.87182707
_cell_formula_units_Z   2
loop_
 _symmetry_equiv_pos_site_id
 _symmetry_equiv_pos_as_xyz
  1  'x, y, z'
loop_
 _atom_site_type_symbol
 _atom_site_label
 _atom_site_symmetry_multiplicity
 _atom_site_fract_x
 _atom_site_fract_y
 _atom_site_fract_z
 _atom_site_occupancy
  Na  Na0  1  0.496672  0.745129  0.500484  1
  Na  Na1  1  0.996672  0.254871  0.499516  1
  Ca  Ca2  1  0.941306  0.262135  0.255504  1
  Ca  Ca3  1  0.940832  0.261558  0.744945  1
  Ca  Ca4  1  0.441306  0.737865  0.744496  1
  Ca  Ca5  1  0.440832  0.738442  0.255055  1
  Ca  Ca6  1  0.546349  0.767741  0.000163  1
  Ca  Ca7  1  0.046349  0.232259  0.999837  1
  Zr  Zr8  1  0.492713  0.253828  0.874429  1
  Zr  Zr9  1  0.483850  0.243025  0.377470  1
  Zr  Zr10  1  0.992713  0.746172  0.125571  1
  Zr  Zr11  1  0.993454  0.747652  0.874062  1
  Zr  Zr12  1  0.983850  0.756975  0.622530  1
  Zr  Zr13  1  0.493454  0.252348  0.125938  1
  Ta  Ta14  1  0.987155  0.756837  0.377029  1
  Ta  Ta15  1  0.487155  0.243163  0.622971  1
  O  O16  1  0.448414  0.363745  0.999674  1
  O  O17  1  0.483693  0.329825  0.504739  1
  O  O18  1  0.187834  0.440572  0.155993  1
  O  O19  1  0.220382  0.452300  0.651528  1
  O  O20  1  0.204821  0.465293  0.348438  1
  O  O21  1  0.187628  0.441571  0.843857  1
  O  O22  1  0.687628  0.558429  0.156143  1
  O  O23  1  0.720382  0.547700  0.348472  1
  O  O24  1  0.704821  0.534707  0.651562  1
  O  O25  1  0.687834  0.559428  0.844007  1
  O  O26  1  0.948414  0.636255  0.000326  1
  O  O27  1  0.983693  0.670175  0.495261  1
  O  O28  1  0.035988  0.854616  0.748513  1
  O  O29  1  0.031124  0.849594  0.253634  1
  O  O30  1  0.292780  0.946559  0.904084  1
  O  O31  1  0.292584  0.945339  0.097172  1
  O  O32  1  0.306395  0.954367  0.607411  1
  O  O33  1  0.291330  0.937771  0.392840  1
  O  O34  1  0.792584  0.054661  0.902828  1
  O  O35  1  0.806395  0.045633  0.392589  1
  O  O36  1  0.792780  0.053441  0.095916  1
  O  O37  1  0.791330  0.062229  0.607160  1
  O  O38  1  0.535988  0.145384  0.251487  1
  O  O39  1  0.531124  0.150406  0.746366  1
