# generated using pymatgen
data_Tb5Sc3(Co4P3)4
_symmetry_space_group_name_H-M   'P 1'
_cell_length_a   12.25561400
_cell_length_b   12.25561358
_cell_length_c   3.72903700
_cell_angle_alpha   90.00000000
_cell_angle_beta   90.00000000
_cell_angle_gamma   120.00000653
_symmetry_Int_Tables_number   1
_chemical_formula_structural   Tb5Sc3(Co4P3)4
_chemical_formula_sum   'Tb5 Sc3 Co16 P12'
_cell_volume   485.06219627
_cell_formula_units_Z   1
loop_
 _symmetry_equiv_pos_site_id
 _symmetry_equiv_pos_as_xyz
  1  'x, y, z'
loop_
 _atom_site_type_symbol
 _atom_site_label
 _atom_site_symmetry_multiplicity
 _atom_site_fract_x
 _atom_site_fract_y
 _atom_site_fract_z
 _atom_site_occupancy
  Tb  Tb0  1  0.666667  0.333333  0.000000  1
  Tb  Tb1  1  0.333333  0.666667  0.000000  1
  Tb  Tb2  1  0.815826  0.815826  0.500000  1
  Tb  Tb3  1  0.184174  0.000000  0.500000  1
  Tb  Tb4  1  0.000000  0.184174  0.500000  1
  Sc  Sc5  1  0.439765  0.439765  0.000000  1
  Sc  Sc6  1  0.560235  0.000000  0.000000  1
  Sc  Sc7  1  0.000000  0.560235  0.000000  1
  Co  Co8  1  0.875811  0.355244  0.500000  1
  Co  Co9  1  0.644756  0.520566  0.500000  1
  Co  Co10  1  0.479434  0.124189  0.500000  1
  Co  Co11  1  0.355244  0.875811  0.500000  1
  Co  Co12  1  0.520566  0.644756  0.500000  1
  Co  Co13  1  0.124189  0.479434  0.500000  1
  Co  Co14  1  0.804595  0.178976  0.000000  1
  Co  Co15  1  0.821024  0.625619  0.000000  1
  Co  Co16  1  0.374381  0.195405  0.000000  1
  Co  Co17  1  0.178976  0.804595  0.000000  1
  Co  Co18  1  0.625619  0.821024  0.000000  1
  Co  Co19  1  0.195405  0.374381  0.000000  1
  Co  Co20  1  0.278747  0.278747  0.500000  1
  Co  Co21  1  0.721253  0.000000  0.500000  1
  Co  Co22  1  0.000000  0.721253  0.500000  1
  Co  Co23  1  0.000000  0.000000  0.000000  1
  P  P24  1  0.692666  0.170531  0.500000  1
  P  P25  1  0.829469  0.522135  0.500000  1
  P  P26  1  0.477865  0.307334  0.500000  1
  P  P27  1  0.170531  0.692666  0.500000  1
  P  P28  1  0.522135  0.829469  0.500000  1
  P  P29  1  0.307334  0.477865  0.500000  1
  P  P30  1  0.179901  0.179901  0.000000  1
  P  P31  1  0.820099  0.000000  0.000000  1
  P  P32  1  0.000000  0.820099  0.000000  1
  P  P33  1  0.644584  0.644584  0.000000  1
  P  P34  1  0.355416  0.000000  0.000000  1
  P  P35  1  0.000000  0.355416  0.000000  1
