# generated using pymatgen
data_DySb3Pb4O13
_symmetry_space_group_name_H-M   'P 1'
_cell_length_a   7.68871489
_cell_length_b   7.68871437
_cell_length_c   7.68871497
_cell_angle_alpha   59.65050144
_cell_angle_beta   59.65050616
_cell_angle_gamma   59.65049078
_symmetry_Int_Tables_number   1
_chemical_formula_structural   DySb3Pb4O13
_chemical_formula_sum   'Dy1 Sb3 Pb4 O13'
_cell_volume   318.84794714
_cell_formula_units_Z   1
loop_
 _symmetry_equiv_pos_site_id
 _symmetry_equiv_pos_as_xyz
  1  'x, y, z'
loop_
 _atom_site_type_symbol
 _atom_site_label
 _atom_site_symmetry_multiplicity
 _atom_site_fract_x
 _atom_site_fract_y
 _atom_site_fract_z
 _atom_site_occupancy
  Dy  Dy0  1  0.500000  0.500000  0.500000  1
  Sb  Sb1  1  0.001012  0.499857  0.499857  1
  Sb  Sb2  1  0.499857  0.499857  0.001012  1
  Sb  Sb3  1  0.499857  0.001012  0.499857  1
  Pb  Pb4  1  0.999334  0.999334  0.999334  1
  Pb  Pb5  1  0.498559  0.001738  0.001738  1
  Pb  Pb6  1  0.001738  0.001738  0.498559  1
  Pb  Pb7  1  0.001738  0.498559  0.001738  1
  O  O8  1  0.855213  0.416664  0.416664  1
  O  O9  1  0.419559  0.815587  0.815587  1
  O  O10  1  0.416664  0.416664  0.855213  1
  O  O11  1  0.815587  0.815587  0.419559  1
  O  O12  1  0.815587  0.419559  0.815587  1
  O  O13  1  0.416664  0.855213  0.416664  1
  O  O14  1  0.149702  0.580217  0.580217  1
  O  O15  1  0.580760  0.185463  0.185463  1
  O  O16  1  0.580217  0.580217  0.149702  1
  O  O17  1  0.185463  0.185463  0.580760  1
  O  O18  1  0.185463  0.580760  0.185463  1
  O  O19  1  0.580217  0.149702  0.580217  1
  O  O20  1  0.121810  0.121810  0.121810  1
