# generated using pymatgen
data_Tb4Tm4Sc11Si16Au
_symmetry_space_group_name_H-M   'P 1'
_cell_length_a   7.00087966
_cell_length_b   7.37930153
_cell_length_c   14.00325633
_cell_angle_alpha   90.01996430
_cell_angle_beta   90.04578986
_cell_angle_gamma   89.84550079
_symmetry_Int_Tables_number   1
_chemical_formula_structural   Tb4Tm4Sc11Si16Au
_chemical_formula_sum   'Tb4 Tm4 Sc11 Si16 Au1'
_cell_volume   723.42775076
_cell_formula_units_Z   1
loop_
 _symmetry_equiv_pos_site_id
 _symmetry_equiv_pos_as_xyz
  1  'x, y, z'
loop_
 _atom_site_type_symbol
 _atom_site_label
 _atom_site_symmetry_multiplicity
 _atom_site_fract_x
 _atom_site_fract_y
 _atom_site_fract_z
 _atom_site_occupancy
  Tb  Tb0  1  0.010169  0.175092  0.096270  1
  Tb  Tb1  1  0.991098  0.814683  0.901968  1
  Tb  Tb2  1  0.486270  0.672222  0.902543  1
  Tb  Tb3  1  0.991149  0.814296  0.597246  1
  Tm  Tm4  1  0.509617  0.322735  0.096829  1
  Tm  Tm5  1  0.011279  0.176404  0.403224  1
  Tm  Tm6  1  0.509708  0.322492  0.404009  1
  Tm  Tm7  1  0.485944  0.672859  0.597928  1
  Sc  Sc8  1  0.837974  0.497284  0.250350  1
  Sc  Sc9  1  0.340723  0.004152  0.250412  1
  Sc  Sc10  1  0.655206  0.997564  0.749687  1
  Sc  Sc11  1  0.323644  0.183540  0.627238  1
  Sc  Sc12  1  0.671161  0.823793  0.375194  1
  Sc  Sc13  1  0.170923  0.678161  0.373658  1
  Sc  Sc14  1  0.671210  0.823766  0.125619  1
  Sc  Sc15  1  0.837937  0.327986  0.626948  1
  Sc  Sc16  1  0.323623  0.183157  0.872308  1
  Sc  Sc17  1  0.838492  0.328147  0.872153  1
  Sc  Sc18  1  0.171170  0.677793  0.126814  1
  Si  Si19  1  0.025830  0.094033  0.749509  1
  Si  Si20  1  0.969403  0.889468  0.250683  1
  Si  Si21  1  0.468025  0.614936  0.250398  1
  Si  Si22  1  0.535612  0.385111  0.749428  1
  Si  Si23  1  0.289077  0.880255  0.749243  1
  Si  Si24  1  0.712687  0.130250  0.251099  1
  Si  Si25  1  0.213958  0.370796  0.250801  1
  Si  Si26  1  0.776898  0.629006  0.748997  1
  Si  Si27  1  0.164522  0.458280  0.529833  1
  Si  Si28  1  0.841319  0.532887  0.461237  1
  Si  Si29  1  0.343752  0.965997  0.462840  1
  Si  Si30  1  0.840671  0.534266  0.038385  1
  Si  Si31  1  0.656314  0.034263  0.540146  1
  Si  Si32  1  0.162689  0.458641  0.970277  1
  Si  Si33  1  0.657062  0.035756  0.960069  1
  Si  Si34  1  0.345341  0.966396  0.037253  1
  Au  Au35  1  0.159543  0.523536  0.749402  1
