# generated using pymatgen
data_Dy2Tm2LuRu2
_symmetry_space_group_name_H-M   'P 1'
_cell_length_a   6.26605891
_cell_length_b   7.23809114
_cell_length_c   8.36866611
_cell_angle_alpha   96.94253350
_cell_angle_beta   111.98576049
_cell_angle_gamma   89.99999432
_symmetry_Int_Tables_number   1
_chemical_formula_structural   Dy2Tm2LuRu2
_chemical_formula_sum   'Dy4 Tm4 Lu2 Ru4'
_cell_volume   348.94962563
_cell_formula_units_Z   2
loop_
 _symmetry_equiv_pos_site_id
 _symmetry_equiv_pos_as_xyz
  1  'x, y, z'
loop_
 _atom_site_type_symbol
 _atom_site_label
 _atom_site_symmetry_multiplicity
 _atom_site_fract_x
 _atom_site_fract_y
 _atom_site_fract_z
 _atom_site_occupancy
  Dy  Dy0  1  0.522107  0.083314  0.812269  1
  Dy  Dy1  1  0.477893  0.916686  0.187731  1
  Dy  Dy2  1  0.709838  0.416686  0.187731  1
  Dy  Dy3  1  0.290162  0.583314  0.812269  1
  Tm  Tm4  1  0.299317  0.313331  0.432769  1
  Tm  Tm5  1  0.700683  0.686669  0.567231  1
  Tm  Tm6  1  0.866549  0.186669  0.567231  1
  Tm  Tm7  1  0.133451  0.813331  0.432769  1
  Lu  Lu8  1  0.079296  0.250000  0.000000  1
  Lu  Lu9  1  0.920704  0.750000  0.000000  1
  Ru  Ru10  1  0.319795  0.576491  0.220626  1
  Ru  Ru11  1  0.680205  0.423509  0.779374  1
  Ru  Ru12  1  0.099170  0.923509  0.779374  1
  Ru  Ru13  1  0.900830  0.076491  0.220626  1
