# generated using pymatgen
data_NbGa3Cu3NiPt8
_symmetry_space_group_name_H-M   'P 1'
_cell_length_a   3.97328400
_cell_length_b   3.97328400
_cell_length_c   14.74329600
_cell_angle_alpha   90.00000000
_cell_angle_beta   90.00000000
_cell_angle_gamma   90.00000000
_symmetry_Int_Tables_number   1
_chemical_formula_structural   NbGa3Cu3NiPt8
_chemical_formula_sum   'Nb1 Ga3 Cu3 Ni1 Pt8'
_cell_volume   232.75220378
_cell_formula_units_Z   1
loop_
 _symmetry_equiv_pos_site_id
 _symmetry_equiv_pos_as_xyz
  1  'x, y, z'
loop_
 _atom_site_type_symbol
 _atom_site_label
 _atom_site_symmetry_multiplicity
 _atom_site_fract_x
 _atom_site_fract_y
 _atom_site_fract_z
 _atom_site_occupancy
  Nb  Nb0  1  0.000000  0.000000  0.000000  1
  Ga  Ga1  1  0.000000  0.000000  0.256897  1
  Ga  Ga2  1  0.000000  0.000000  0.500000  1
  Ga  Ga3  1  0.000000  0.000000  0.743103  1
  Cu  Cu4  1  0.500000  0.500000  0.252006  1
  Cu  Cu5  1  0.500000  0.500000  0.500000  1
  Cu  Cu6  1  0.500000  0.500000  0.747994  1
  Ni  Ni7  1  0.500000  0.500000  0.000000  1
  Pt  Pt8  1  0.500000  0.000000  0.126323  1
  Pt  Pt9  1  0.500000  0.000000  0.376996  1
  Pt  Pt10  1  0.500000  0.000000  0.623004  1
  Pt  Pt11  1  0.500000  0.000000  0.873677  1
  Pt  Pt12  1  0.000000  0.500000  0.126323  1
  Pt  Pt13  1  0.000000  0.500000  0.376996  1
  Pt  Pt14  1  0.000000  0.500000  0.623004  1
  Pt  Pt15  1  0.000000  0.500000  0.873677  1
