# generated using pymatgen
data_NpB4Ir
_symmetry_space_group_name_H-M   'P 1'
_cell_length_a   3.50402400
_cell_length_b   6.04006600
_cell_length_c   11.71376300
_cell_angle_alpha   90.00000000
_cell_angle_beta   90.00000000
_cell_angle_gamma   90.00000000
_symmetry_Int_Tables_number   1
_chemical_formula_structural   NpB4Ir
_chemical_formula_sum   'Np4 B16 Ir4'
_cell_volume   247.91636135
_cell_formula_units_Z   4
loop_
 _symmetry_equiv_pos_site_id
 _symmetry_equiv_pos_as_xyz
  1  'x, y, z'
loop_
 _atom_site_type_symbol
 _atom_site_label
 _atom_site_symmetry_multiplicity
 _atom_site_fract_x
 _atom_site_fract_y
 _atom_site_fract_z
 _atom_site_occupancy
  Np  Np0  1  0.000000  0.628935  0.350574  1
  Np  Np1  1  0.000000  0.371065  0.649426  1
  Np  Np2  1  0.000000  0.128935  0.149426  1
  Np  Np3  1  0.000000  0.871065  0.850574  1
  B  B4  1  0.500000  0.789638  0.188486  1
  B  B5  1  0.500000  0.210362  0.811514  1
  B  B6  1  0.500000  0.289638  0.311514  1
  B  B7  1  0.500000  0.710362  0.688486  1
  B  B8  1  0.500000  0.867159  0.032195  1
  B  B9  1  0.500000  0.132841  0.967805  1
  B  B10  1  0.500000  0.367159  0.467805  1
  B  B11  1  0.500000  0.632841  0.532195  1
  B  B12  1  0.500000  0.883816  0.452965  1
  B  B13  1  0.500000  0.116184  0.547035  1
  B  B14  1  0.500000  0.383816  0.047035  1
  B  B15  1  0.500000  0.616184  0.952965  1
  B  B16  1  0.500000  0.972002  0.307854  1
  B  B17  1  0.500000  0.027998  0.692146  1
  B  B18  1  0.500000  0.472002  0.192146  1
  B  B19  1  0.500000  0.527998  0.807854  1
  Ir  Ir20  1  0.000000  0.640233  0.093676  1
  Ir  Ir21  1  0.000000  0.359767  0.906324  1
  Ir  Ir22  1  0.000000  0.140233  0.406324  1
  Ir  Ir23  1  0.000000  0.859767  0.593676  1
