# generated using pymatgen
data_YbThVIr3
_symmetry_space_group_name_H-M   'P 1'
_cell_length_a   5.64930642
_cell_length_b   5.15360832
_cell_length_c   5.64930700
_cell_angle_alpha   56.76376556
_cell_angle_beta   60.00000249
_cell_angle_gamma   56.76375695
_symmetry_Int_Tables_number   1
_chemical_formula_structural   YbThVIr3
_chemical_formula_sum   'Yb1 Th1 V1 Ir3'
_cell_volume   110.28395944
_cell_formula_units_Z   1
loop_
 _symmetry_equiv_pos_site_id
 _symmetry_equiv_pos_as_xyz
  1  'x, y, z'
loop_
 _atom_site_type_symbol
 _atom_site_label
 _atom_site_symmetry_multiplicity
 _atom_site_fract_x
 _atom_site_fract_y
 _atom_site_fract_z
 _atom_site_occupancy
  Yb  Yb0  1  0.752460  0.742622  0.752460  1
  Th  Th1  1  0.499556  0.501331  0.499556  1
  V  V2  1  0.124970  0.625090  0.124970  1
  Ir  Ir3  1  0.626351  0.126986  0.123332  1
  Ir  Ir4  1  0.123332  0.126986  0.123332  1
  Ir  Ir5  1  0.123332  0.126986  0.626351  1
