# generated using pymatgen
data_Sc4Al6OsRh
_symmetry_space_group_name_H-M   'P 1'
_cell_length_a   5.31450400
_cell_length_b   5.31450409
_cell_length_c   8.50739600
_cell_angle_alpha   90.00000000
_cell_angle_beta   90.00000000
_cell_angle_gamma   120.00001188
_symmetry_Int_Tables_number   1
_chemical_formula_structural   Sc4Al6OsRh
_chemical_formula_sum   'Sc4 Al6 Os1 Rh1'
_cell_volume   208.09071974
_cell_formula_units_Z   1
loop_
 _symmetry_equiv_pos_site_id
 _symmetry_equiv_pos_as_xyz
  1  'x, y, z'
loop_
 _atom_site_type_symbol
 _atom_site_label
 _atom_site_symmetry_multiplicity
 _atom_site_fract_x
 _atom_site_fract_y
 _atom_site_fract_z
 _atom_site_occupancy
  Sc  Sc0  1  0.333333  0.666667  0.057591  1
  Sc  Sc1  1  0.666667  0.333333  0.553805  1
  Sc  Sc2  1  0.333333  0.666667  0.446195  1
  Sc  Sc3  1  0.666667  0.333333  0.942409  1
  Al  Al4  1  0.834366  0.668731  0.250521  1
  Al  Al5  1  0.165634  0.834366  0.749479  1
  Al  Al6  1  0.668731  0.834366  0.749479  1
  Al  Al7  1  0.331269  0.165634  0.250521  1
  Al  Al8  1  0.834366  0.165634  0.250521  1
  Al  Al9  1  0.165634  0.331269  0.749479  1
  Os  Os10  1  0.000000  0.000000  0.000000  1
  Rh  Rh11  1  0.000000  0.000000  0.500000  1
