# generated using pymatgen
data_Na4MnFe3P8(O3F)8
_symmetry_space_group_name_H-M   'P 1'
_cell_length_a   14.40797100
_cell_length_b   6.55292599
_cell_length_c   6.56675400
_cell_angle_alpha   83.94683646
_cell_angle_beta   90.00000000
_cell_angle_gamma   90.00000000
_symmetry_Int_Tables_number   1
_chemical_formula_structural   Na4MnFe3P8(O3F)8
_chemical_formula_sum   'Na4 Mn1 Fe3 P8 O24 F8'
_cell_volume   616.53912470
_cell_formula_units_Z   1
loop_
 _symmetry_equiv_pos_site_id
 _symmetry_equiv_pos_as_xyz
  1  'x, y, z'
loop_
 _atom_site_type_symbol
 _atom_site_label
 _atom_site_symmetry_multiplicity
 _atom_site_fract_x
 _atom_site_fract_y
 _atom_site_fract_z
 _atom_site_occupancy
  Na  Na0  1  0.425659  0.689404  0.495638  1
  Na  Na1  1  0.922405  0.310625  0.004584  1
  Na  Na2  1  0.578726  0.310789  0.505379  1
  Na  Na3  1  0.076349  0.689237  0.995085  1
  Mn  Mn4  1  0.608771  0.729634  0.135265  1
  Fe  Fe5  1  0.108740  0.270724  0.364827  1
  Fe  Fe6  1  0.391947  0.270787  0.864636  1
  Fe  Fe7  1  0.889513  0.729169  0.635047  1
  P  P8  1  0.654322  0.771080  0.629663  1
  P  P9  1  0.155669  0.228775  0.869228  1
  P  P10  1  0.344652  0.228864  0.369294  1
  P  P11  1  0.841616  0.771910  0.130103  1
  P  P12  1  0.398147  0.755251  0.978816  1
  P  P13  1  0.894769  0.245081  0.519983  1
  P  P14  1  0.605331  0.245139  0.020256  1
  P  P15  1  0.104727  0.755038  0.480305  1
  O  O16  1  0.473318  0.739936  0.147808  1
  O  O17  1  0.968390  0.261027  0.350209  1
  O  O18  1  0.531491  0.260201  0.850836  1
  O  O19  1  0.030745  0.738891  0.648931  1
  O  O20  1  0.387051  0.964832  0.860657  1
  O  O21  1  0.885678  0.035023  0.639830  1
  O  O22  1  0.615289  0.037296  0.142931  1
  O  O23  1  0.114331  0.965160  0.360385  1
  O  O24  1  0.599985  0.749647  0.826615  1
  O  O25  1  0.102310  0.254576  0.669202  1
  O  O26  1  0.397821  0.255105  0.168975  1
  O  O27  1  0.894768  0.744621  0.330048  1
  O  O28  1  0.400316  0.585922  0.837230  1
  O  O29  1  0.899243  0.413938  0.662942  1
  O  O30  1  0.600719  0.412756  0.164200  1
  O  O31  1  0.100735  0.586397  0.336716  1
  O  O32  1  0.754270  0.700762  0.642755  1
  O  O33  1  0.255367  0.298247  0.858219  1
  O  O34  1  0.244974  0.298295  0.357993  1
  O  O35  1  0.741866  0.699921  0.141576  1
  O  O36  1  0.597260  0.684079  0.462073  1
  O  O37  1  0.098248  0.311661  0.040200  1
  O  O38  1  0.401776  0.311785  0.540520  1
  O  O39  1  0.898731  0.688066  0.959673  1
  F  F40  1  0.340846  0.985718  0.430332  1
  F  F41  1  0.837505  0.014341  0.069271  1
  F  F42  1  0.660334  0.013595  0.564310  1
  F  F43  1  0.159856  0.985634  0.930652  1
  F  F44  1  0.307660  0.715192  0.115797  1
  F  F45  1  0.801547  0.284784  0.392164  1
  F  F46  1  0.698188  0.285624  0.890589  1
  F  F47  1  0.198040  0.715464  0.608253  1
