# generated using pymatgen
data_Li2La9Nd7(CdIr2)2
_symmetry_space_group_name_H-M   'P 1'
_cell_length_a   10.06089301
_cell_length_b   10.06089302
_cell_length_c   10.06559900
_cell_angle_alpha   59.98452248
_cell_angle_beta   59.98452243
_cell_angle_gamma   60.52898045
_symmetry_Int_Tables_number   1
_chemical_formula_structural   Li2La9Nd7(CdIr2)2
_chemical_formula_sum   'Li2 La9 Nd7 Cd2 Ir4'
_cell_volume   723.10507056
_cell_formula_units_Z   1
loop_
 _symmetry_equiv_pos_site_id
 _symmetry_equiv_pos_as_xyz
  1  'x, y, z'
loop_
 _atom_site_type_symbol
 _atom_site_label
 _atom_site_symmetry_multiplicity
 _atom_site_fract_x
 _atom_site_fract_y
 _atom_site_fract_z
 _atom_site_occupancy
  Li  Li0  1  0.571845  0.571845  0.575189  1
  Li  Li1  1  0.571845  0.571845  0.281120  1
  La  La2  1  0.347421  0.347421  0.348364  1
  La  La3  1  0.347421  0.347421  0.956795  1
  La  La4  1  0.347395  0.962488  0.345058  1
  La  La5  1  0.962488  0.347395  0.345058  1
  La  La6  1  0.811040  0.187398  0.190332  1
  La  La7  1  0.187398  0.811040  0.811230  1
  La  La8  1  0.187398  0.811040  0.190332  1
  La  La9  1  0.811040  0.187398  0.811230  1
  La  La10  1  0.193021  0.193021  0.806979  1
  Nd  Nd11  1  0.813032  0.813032  0.186968  1
  Nd  Nd12  1  0.935952  0.564845  0.564138  1
  Nd  Nd13  1  0.564845  0.935952  0.935065  1
  Nd  Nd14  1  0.564845  0.935952  0.564138  1
  Nd  Nd15  1  0.935952  0.564845  0.935065  1
  Nd  Nd16  1  0.563647  0.563647  0.936353  1
  Nd  Nd17  1  0.936581  0.936581  0.563419  1
  Cd  Cd18  1  0.584162  0.254556  0.580641  1
  Cd  Cd19  1  0.254556  0.584162  0.580641  1
  Ir  Ir20  1  0.141761  0.141761  0.140169  1
  Ir  Ir21  1  0.141761  0.141761  0.576309  1
  Ir  Ir22  1  0.147297  0.577296  0.137703  1
  Ir  Ir23  1  0.577296  0.147297  0.137703  1
