# generated using pymatgen
data_Hf3ScCo2Si6Ir5
_symmetry_space_group_name_H-M   'P 1'
_cell_length_a   6.89769612
_cell_length_b   6.92380404
_cell_length_c   6.91105155
_cell_angle_alpha   109.33969213
_cell_angle_beta   109.55777036
_cell_angle_gamma   109.63262878
_symmetry_Int_Tables_number   1
_chemical_formula_structural   Hf3ScCo2Si6Ir5
_chemical_formula_sum   'Hf3 Sc1 Co2 Si6 Ir5'
_cell_volume   253.71325850
_cell_formula_units_Z   1
loop_
 _symmetry_equiv_pos_site_id
 _symmetry_equiv_pos_as_xyz
  1  'x, y, z'
loop_
 _atom_site_type_symbol
 _atom_site_label
 _atom_site_symmetry_multiplicity
 _atom_site_fract_x
 _atom_site_fract_y
 _atom_site_fract_z
 _atom_site_occupancy
  Hf  Hf0  1  0.999500  0.999750  0.499750  1
  Hf  Hf1  1  0.499080  0.003879  0.003844  1
  Hf  Hf2  1  0.499080  0.495201  0.495236  1
  Sc  Sc3  1  0.000665  0.500333  0.000333  1
  Co  Co4  1  0.745456  0.249622  0.493184  1
  Co  Co5  1  0.745456  0.495834  0.252273  1
  Si  Si6  1  0.687402  0.680540  0.004067  1
  Si  Si7  1  0.325139  0.003241  0.319995  1
  Si  Si8  1  0.987290  0.319798  0.317696  1
  Si  Si9  1  0.325139  0.321898  0.005145  1
  Si  Si10  1  0.687402  0.006862  0.683335  1
  Si  Si11  1  0.987290  0.667492  0.669594  1
  Ir  Ir12  1  0.508490  0.254245  0.754245  1
  Ir  Ir13  1  0.245073  0.495862  0.747556  1
  Ir  Ir14  1  0.245073  0.749212  0.497516  1
  Ir  Ir15  1  0.510400  0.755201  0.255201  1
  Ir  Ir16  1  0.002061  0.001031  0.001031  1
