# generated using pymatgen
data_Tm12Co8Si7Rh
_symmetry_space_group_name_H-M   'P 1'
_cell_length_a   5.42612940
_cell_length_b   7.52458014
_cell_length_c   12.54038800
_cell_angle_alpha   90.00000000
_cell_angle_beta   90.00000000
_cell_angle_gamma   90.67980821
_symmetry_Int_Tables_number   1
_chemical_formula_structural   Tm12Co8Si7Rh
_chemical_formula_sum   'Tm12 Co8 Si7 Rh1'
_cell_volume   511.97979562
_cell_formula_units_Z   1
loop_
 _symmetry_equiv_pos_site_id
 _symmetry_equiv_pos_as_xyz
  1  'x, y, z'
loop_
 _atom_site_type_symbol
 _atom_site_label
 _atom_site_symmetry_multiplicity
 _atom_site_fract_x
 _atom_site_fract_y
 _atom_site_fract_z
 _atom_site_occupancy
  Tm  Tm0  1  0.635580  0.247313  0.250000  1
  Tm  Tm1  1  0.370568  0.747869  0.750000  1
  Tm  Tm2  1  0.367571  0.758795  0.250000  1
  Tm  Tm3  1  0.631455  0.244166  0.750000  1
  Tm  Tm4  1  0.141853  0.392472  0.103407  1
  Tm  Tm5  1  0.860603  0.603924  0.899819  1
  Tm  Tm6  1  0.860603  0.603924  0.600181  1
  Tm  Tm7  1  0.858114  0.900192  0.398229  1
  Tm  Tm8  1  0.141853  0.392472  0.396593  1
  Tm  Tm9  1  0.140458  0.104412  0.601410  1
  Tm  Tm10  1  0.140458  0.104412  0.898590  1
  Tm  Tm11  1  0.858114  0.900192  0.101771  1
  Co  Co12  1  0.369135  0.026797  0.081298  1
  Co  Co13  1  0.640530  0.971949  0.910234  1
  Co  Co14  1  0.640530  0.971949  0.589766  1
  Co  Co15  1  0.630520  0.529073  0.412303  1
  Co  Co16  1  0.369135  0.026797  0.418702  1
  Co  Co17  1  0.364883  0.470748  0.588540  1
  Co  Co18  1  0.364883  0.470748  0.911460  1
  Co  Co19  1  0.630520  0.529073  0.087697  1
  Si  Si20  1  0.851428  0.896502  0.750000  1
  Si  Si21  1  0.843731  0.600872  0.250000  1
  Si  Si22  1  0.151760  0.398042  0.750000  1
  Si  Si23  1  0.612960  0.252832  0.997440  1
  Si  Si24  1  0.387126  0.748808  0.998118  1
  Si  Si25  1  0.387126  0.748808  0.501882  1
  Si  Si26  1  0.612960  0.252832  0.502560  1
  Rh  Rh27  1  0.135541  0.104024  0.250000  1
