# generated using pymatgen
data_MgVNi20B6Mo
_symmetry_space_group_name_H-M   'P 1'
_cell_length_a   7.42764812
_cell_length_b   7.42764776
_cell_length_c   7.42764800
_cell_angle_alpha   59.99999892
_cell_angle_beta   60.00000055
_cell_angle_gamma   60.00000131
_symmetry_Int_Tables_number   1
_chemical_formula_structural   MgVNi20B6Mo
_chemical_formula_sum   'Mg1 V1 Ni20 B6 Mo1'
_cell_volume   289.76033831
_cell_formula_units_Z   1
loop_
 _symmetry_equiv_pos_site_id
 _symmetry_equiv_pos_as_xyz
  1  'x, y, z'
loop_
 _atom_site_type_symbol
 _atom_site_label
 _atom_site_symmetry_multiplicity
 _atom_site_fract_x
 _atom_site_fract_y
 _atom_site_fract_z
 _atom_site_occupancy
  Mg  Mg0  1  0.250000  0.250000  0.250000  1
  V  V1  1  0.000000  0.000000  0.000000  1
  Ni  Ni2  1  0.618010  0.618010  0.145970  1
  Ni  Ni3  1  0.618010  0.145970  0.618010  1
  Ni  Ni4  1  0.145970  0.618010  0.618010  1
  Ni  Ni5  1  0.618010  0.618010  0.618010  1
  Ni  Ni6  1  0.386198  0.386198  0.841408  1
  Ni  Ni7  1  0.386198  0.841408  0.386198  1
  Ni  Ni8  1  0.841408  0.386198  0.386198  1
  Ni  Ni9  1  0.386198  0.386198  0.386198  1
  Ni  Ni10  1  0.998121  0.998121  0.340998  1
  Ni  Ni11  1  0.662761  0.998121  0.340998  1
  Ni  Ni12  1  0.998121  0.662761  0.340998  1
  Ni  Ni13  1  0.662761  0.340998  0.998121  1
  Ni  Ni14  1  0.998121  0.340998  0.998121  1
  Ni  Ni15  1  0.998121  0.340998  0.662761  1
  Ni  Ni16  1  0.340998  0.662761  0.998121  1
  Ni  Ni17  1  0.340998  0.998121  0.662761  1
  Ni  Ni18  1  0.340998  0.998121  0.998121  1
  Ni  Ni19  1  0.998121  0.998121  0.662761  1
  Ni  Ni20  1  0.998121  0.662761  0.998121  1
  Ni  Ni21  1  0.662761  0.998121  0.998121  1
  B  B22  1  0.730175  0.730175  0.269825  1
  B  B23  1  0.269825  0.730175  0.269825  1
  B  B24  1  0.730175  0.269825  0.269825  1
  B  B25  1  0.269825  0.269825  0.730175  1
  B  B26  1  0.730175  0.269825  0.730175  1
  B  B27  1  0.269825  0.730175  0.730175  1
  Mo  Mo28  1  0.750000  0.750000  0.750000  1
