# generated using pymatgen
data_Cs2Sm(PdO2)3
_symmetry_space_group_name_H-M   'P 1'
_cell_length_a   10.21950573
_cell_length_b   8.99021973
_cell_length_c   8.01429546
_cell_angle_alpha   73.62937374
_cell_angle_beta   57.56997433
_cell_angle_gamma   48.80064160
_symmetry_Int_Tables_number   1
_chemical_formula_structural   Cs2Sm(PdO2)3
_chemical_formula_sum   'Cs4 Sm2 Pd6 O12'
_cell_volume   464.65770591
_cell_formula_units_Z   2
loop_
 _symmetry_equiv_pos_site_id
 _symmetry_equiv_pos_as_xyz
  1  'x, y, z'
loop_
 _atom_site_type_symbol
 _atom_site_label
 _atom_site_symmetry_multiplicity
 _atom_site_fract_x
 _atom_site_fract_y
 _atom_site_fract_z
 _atom_site_occupancy
  Cs  Cs0  1  0.750000  0.750000  0.750000  1
  Cs  Cs1  1  0.250000  0.250000  0.250000  1
  Cs  Cs2  1  0.223242  0.776758  0.223242  1
  Cs  Cs3  1  0.776758  0.223242  0.776758  1
  Sm  Sm4  1  0.667628  0.667628  0.332372  1
  Sm  Sm5  1  0.332372  0.332372  0.667628  1
  Pd  Pd6  1  0.692790  0.003144  0.307210  1
  Pd  Pd7  1  0.996856  0.307210  0.003144  1
  Pd  Pd8  1  0.003144  0.692790  0.996856  1
  Pd  Pd9  1  0.307210  0.996856  0.692790  1
  Pd  Pd10  1  0.311672  0.688328  0.688328  1
  Pd  Pd11  1  0.688328  0.311672  0.311672  1
  O  O12  1  0.305527  0.490550  0.890209  1
  O  O13  1  0.313714  0.890209  0.490550  1
  O  O14  1  0.890209  0.313714  0.305527  1
  O  O15  1  0.490550  0.305527  0.313714  1
  O  O16  1  0.694473  0.509450  0.109791  1
  O  O17  1  0.686286  0.109791  0.509450  1
  O  O18  1  0.701249  0.895511  0.104489  1
  O  O19  1  0.509450  0.694473  0.686286  1
  O  O20  1  0.895511  0.701249  0.298751  1
  O  O21  1  0.104489  0.298751  0.701249  1
  O  O22  1  0.298751  0.104489  0.895511  1
  O  O23  1  0.109791  0.686286  0.694473  1
