# generated using pymatgen
data_Eu8PuPt6
_symmetry_space_group_name_H-M   'P 1'
_cell_length_a   7.82294612
_cell_length_b   7.82294597
_cell_length_c   7.82294600
_cell_angle_alpha   70.30062231
_cell_angle_beta   70.30062268
_cell_angle_gamma   70.30061254
_symmetry_Int_Tables_number   1
_chemical_formula_structural   Eu8PuPt6
_chemical_formula_sum   'Eu8 Pu1 Pt6'
_cell_volume   410.64694152
_cell_formula_units_Z   1
loop_
 _symmetry_equiv_pos_site_id
 _symmetry_equiv_pos_as_xyz
  1  'x, y, z'
loop_
 _atom_site_type_symbol
 _atom_site_label
 _atom_site_symmetry_multiplicity
 _atom_site_fract_x
 _atom_site_fract_y
 _atom_site_fract_z
 _atom_site_occupancy
  Eu  Eu0  1  0.152760  0.401674  0.670079  1
  Eu  Eu1  1  0.670079  0.152760  0.401674  1
  Eu  Eu2  1  0.401673  0.670079  0.152761  1
  Eu  Eu3  1  0.847239  0.598326  0.329921  1
  Eu  Eu4  1  0.329920  0.847240  0.598326  1
  Eu  Eu5  1  0.598326  0.329921  0.847239  1
  Eu  Eu6  1  0.198570  0.198570  0.198571  1
  Eu  Eu7  1  0.801429  0.801429  0.801429  1
  Pu  Pu8  1  0.000000  0.000000  0.000000  1
  Pt  Pt9  1  0.396516  0.042642  0.842380  1
  Pt  Pt10  1  0.842380  0.396516  0.042643  1
  Pt  Pt11  1  0.042643  0.842380  0.396516  1
  Pt  Pt12  1  0.603484  0.957358  0.157620  1
  Pt  Pt13  1  0.157620  0.603485  0.957357  1
  Pt  Pt14  1  0.957357  0.157620  0.603484  1
