# generated using pymatgen
data_LiMnSb12RuPt2
_symmetry_space_group_name_H-M   'P 1'
_cell_length_a   8.15596966
_cell_length_b   8.14316026
_cell_length_c   8.13410446
_cell_angle_alpha   109.45836137
_cell_angle_beta   109.43623737
_cell_angle_gamma   109.43101414
_symmetry_Int_Tables_number   1
_chemical_formula_structural   LiMnSb12RuPt2
_chemical_formula_sum   'Li1 Mn1 Sb12 Ru1 Pt2'
_cell_volume   416.32016241
_cell_formula_units_Z   1
loop_
 _symmetry_equiv_pos_site_id
 _symmetry_equiv_pos_as_xyz
  1  'x, y, z'
loop_
 _atom_site_type_symbol
 _atom_site_label
 _atom_site_symmetry_multiplicity
 _atom_site_fract_x
 _atom_site_fract_y
 _atom_site_fract_z
 _atom_site_occupancy
  Li  Li0  1  0.000000  0.000000  0.000000  1
  Mn  Mn1  1  0.000000  0.500000  0.000000  1
  Sb  Sb2  1  0.147094  0.492906  0.326440  1
  Sb  Sb3  1  0.501863  0.652740  0.849159  1
  Sb  Sb4  1  0.326457  0.831837  0.179384  1
  Sb  Sb5  1  0.830855  0.665186  0.155474  1
  Sb  Sb6  1  0.663027  0.850719  0.503717  1
  Sb  Sb7  1  0.169145  0.334814  0.844526  1
  Sb  Sb8  1  0.673543  0.168163  0.820616  1
  Sb  Sb9  1  0.336973  0.149281  0.496283  1
  Sb  Sb10  1  0.498137  0.347260  0.150841  1
  Sb  Sb11  1  0.852906  0.507094  0.673560  1
  Sb  Sb12  1  0.850042  0.187901  0.345869  1
  Sb  Sb13  1  0.149958  0.812099  0.654131  1
  Ru  Ru14  1  0.000000  0.000000  0.500000  1
  Pt  Pt15  1  0.500000  0.500000  0.500000  1
  Pt  Pt16  1  0.500000  0.000000  0.000000  1
