# generated using pymatgen
data_Pr5HfWO12
_symmetry_space_group_name_H-M   'P 1'
_cell_length_a   7.18640739
_cell_length_b   7.18640854
_cell_length_c   7.72517100
_cell_angle_alpha   74.48828690
_cell_angle_beta   74.48827389
_cell_angle_gamma   51.16972672
_symmetry_Int_Tables_number   1
_chemical_formula_structural   Pr5HfWO12
_chemical_formula_sum   'Pr5 Hf1 W1 O12'
_cell_volume   296.81789903
_cell_formula_units_Z   1
loop_
 _symmetry_equiv_pos_site_id
 _symmetry_equiv_pos_as_xyz
  1  'x, y, z'
loop_
 _atom_site_type_symbol
 _atom_site_label
 _atom_site_symmetry_multiplicity
 _atom_site_fract_x
 _atom_site_fract_y
 _atom_site_fract_z
 _atom_site_occupancy
  Pr  Pr0  1  0.306296  0.299697  0.361217  1
  Pr  Pr1  1  0.700303  0.693704  0.638783  1
  Pr  Pr2  1  0.691480  0.697184  0.168638  1
  Pr  Pr3  1  0.302816  0.308520  0.831362  1
  Pr  Pr4  1  0.004598  0.995402  0.500000  1
  Hf  Hf5  1  0.761287  0.238713  0.000000  1
  W  W6  1  0.246134  0.753866  0.000000  1
  O  O7  1  0.096167  0.596887  0.574274  1
  O  O8  1  0.006217  0.992605  0.182103  1
  O  O9  1  0.403113  0.903833  0.425726  1
  O  O10  1  0.497479  0.505168  0.179148  1
  O  O11  1  0.103294  0.583960  0.079804  1
  O  O12  1  0.906326  0.405653  0.420961  1
  O  O13  1  0.007395  0.993783  0.817897  1
  O  O14  1  0.594347  0.093673  0.579039  1
  O  O15  1  0.494832  0.502521  0.820852  1
  O  O16  1  0.565183  0.103307  0.081640  1
  O  O17  1  0.416040  0.896706  0.920196  1
  O  O18  1  0.896693  0.434817  0.918360  1
