# generated using pymatgen
data_Sc4Ge2B4(RuRh)5
_symmetry_space_group_name_H-M   'P 1'
_cell_length_a   9.38749900
_cell_length_b   3.03261700
_cell_length_c   9.39800900
_cell_angle_alpha   90.00000000
_cell_angle_beta   90.00225090
_cell_angle_gamma   90.00000000
_symmetry_Int_Tables_number   1
_chemical_formula_structural   Sc4Ge2B4(RuRh)5
_chemical_formula_sum   'Sc4 Ge2 B4 Ru5 Rh5'
_cell_volume   267.54899585
_cell_formula_units_Z   1
loop_
 _symmetry_equiv_pos_site_id
 _symmetry_equiv_pos_as_xyz
  1  'x, y, z'
loop_
 _atom_site_type_symbol
 _atom_site_label
 _atom_site_symmetry_multiplicity
 _atom_site_fract_x
 _atom_site_fract_y
 _atom_site_fract_z
 _atom_site_occupancy
  Sc  Sc0  1  0.329305  0.000000  0.177422  1
  Sc  Sc1  1  0.826407  0.000000  0.319558  1
  Sc  Sc2  1  0.174026  0.000000  0.670777  1
  Sc  Sc3  1  0.677322  0.000000  0.834466  1
  Ge  Ge4  1  0.996250  0.000000  0.004211  1
  Ge  Ge5  1  0.500995  0.000000  0.495587  1
  B  B6  1  0.623291  0.000000  0.124805  1
  B  B7  1  0.119029  0.000000  0.373262  1
  B  B8  1  0.878300  0.000000  0.621597  1
  B  B9  1  0.378036  0.000000  0.878330  1
  Ru  Ru10  1  0.497426  0.500001  0.998816  1
  Ru  Ru11  1  0.784975  0.500001  0.069261  1
  Ru  Ru12  1  0.073839  0.500001  0.213704  1
  Ru  Ru13  1  0.570652  0.500001  0.286662  1
  Ru  Ru14  1  0.999222  0.500001  0.500476  1
  Rh  Rh15  1  0.284661  0.500001  0.431856  1
  Rh  Rh16  1  0.714261  0.500001  0.575698  1
  Rh  Rh17  1  0.428786  0.500001  0.712753  1
  Rh  Rh18  1  0.930934  0.500001  0.785571  1
  Rh  Rh19  1  0.212280  0.500001  0.925186  1
