# generated using pymatgen
data_CaTlAg2(Ru2O7)2
_symmetry_space_group_name_H-M   'P 1'
_cell_length_a   7.22662093
_cell_length_b   7.28868076
_cell_length_c   7.22661374
_cell_angle_alpha   60.46783355
_cell_angle_beta   59.99995704
_cell_angle_gamma   60.28126557
_symmetry_Int_Tables_number   1
_chemical_formula_structural   CaTlAg2(Ru2O7)2
_chemical_formula_sum   'Ca1 Tl1 Ag2 Ru4 O14'
_cell_volume   270.66819098
_cell_formula_units_Z   1
loop_
 _symmetry_equiv_pos_site_id
 _symmetry_equiv_pos_as_xyz
  1  'x, y, z'
loop_
 _atom_site_type_symbol
 _atom_site_label
 _atom_site_symmetry_multiplicity
 _atom_site_fract_x
 _atom_site_fract_y
 _atom_site_fract_z
 _atom_site_occupancy
  Ca  Ca0  1  0.625000  0.125000  0.625000  1
  Tl  Tl1  1  0.625000  0.625000  0.125000  1
  Ag  Ag2  1  0.125000  0.625000  0.625000  1
  Ag  Ag3  1  0.625000  0.625000  0.625000  1
  Ru  Ru4  1  0.625000  0.125000  0.125000  1
  Ru  Ru5  1  0.125000  0.625000  0.125000  1
  Ru  Ru6  1  0.125000  0.125000  0.625000  1
  Ru  Ru7  1  0.125000  0.125000  0.125000  1
  O  O8  1  0.196465  0.191322  0.806531  1
  O  O9  1  0.194031  0.808496  0.190551  1
  O  O10  1  0.446961  0.054071  0.052006  1
  O  O11  1  0.190059  0.810215  0.809667  1
  O  O12  1  0.059941  0.439785  0.440333  1
  O  O13  1  0.806922  0.808496  0.190551  1
  O  O14  1  0.443078  0.441504  0.059449  1
  O  O15  1  0.491916  0.520843  0.495324  1
  O  O16  1  0.053535  0.058678  0.443469  1
  O  O17  1  0.444319  0.058678  0.443469  1
  O  O18  1  0.055969  0.441504  0.059449  1
  O  O19  1  0.758084  0.729157  0.754676  1
  O  O20  1  0.805681  0.191322  0.806531  1
  O  O21  1  0.803039  0.195929  0.197994  1
