# generated using pymatgen
data_EuCo4(Ni4B3)2
_symmetry_space_group_name_H-M   'P 1'
_cell_length_a   6.03315567
_cell_length_b   6.04171005
_cell_length_c   6.03315613
_cell_angle_alpha   104.42783408
_cell_angle_beta   104.24854148
_cell_angle_gamma   104.42782210
_symmetry_Int_Tables_number   1
_chemical_formula_structural   EuCo4(Ni4B3)2
_chemical_formula_sum   'Eu1 Co4 Ni8 B6'
_cell_volume   194.80522178
_cell_formula_units_Z   1
loop_
 _symmetry_equiv_pos_site_id
 _symmetry_equiv_pos_as_xyz
  1  'x, y, z'
loop_
 _atom_site_type_symbol
 _atom_site_label
 _atom_site_symmetry_multiplicity
 _atom_site_fract_x
 _atom_site_fract_y
 _atom_site_fract_z
 _atom_site_occupancy
  Eu  Eu0  1  0.999645  0.000000  0.000355  1
  Co  Co1  1  0.866491  0.500000  0.133509  1
  Co  Co2  1  0.498950  0.866877  0.135474  1
  Co  Co3  1  0.134367  0.500000  0.865633  1
  Co  Co4  1  0.864526  0.133123  0.501050  1
  Ni  Ni5  1  0.541316  0.809787  0.542262  1
  Ni  Ni6  1  0.543144  0.542516  0.813021  1
  Ni  Ni7  1  0.810969  0.545494  0.542739  1
  Ni  Ni8  1  0.457738  0.190213  0.458684  1
  Ni  Ni9  1  0.457261  0.454506  0.189031  1
  Ni  Ni10  1  0.186979  0.457484  0.456856  1
  Ni  Ni11  1  0.133083  0.868457  0.500217  1
  Ni  Ni12  1  0.499783  0.131543  0.866917  1
  B  B13  1  0.774829  0.339536  0.771283  1
  B  B14  1  0.766198  0.769444  0.326292  1
  B  B15  1  0.335283  0.766593  0.772985  1
  B  B16  1  0.228717  0.660464  0.225171  1
  B  B17  1  0.227015  0.233407  0.664717  1
  B  B18  1  0.673708  0.230556  0.233802  1
