# generated using pymatgen
data_ErBiRh2O7
_symmetry_space_group_name_H-M   'P 1'
_cell_length_a   7.26157897
_cell_length_b   7.26157893
_cell_length_c   7.22026800
_cell_angle_alpha   60.18801197
_cell_angle_beta   60.18801217
_cell_angle_gamma   60.37282169
_symmetry_Int_Tables_number   1
_chemical_formula_structural   ErBiRh2O7
_chemical_formula_sum   'Er2 Bi2 Rh4 O14'
_cell_volume   270.73505786
_cell_formula_units_Z   2
loop_
 _symmetry_equiv_pos_site_id
 _symmetry_equiv_pos_as_xyz
  1  'x, y, z'
loop_
 _atom_site_type_symbol
 _atom_site_label
 _atom_site_symmetry_multiplicity
 _atom_site_fract_x
 _atom_site_fract_y
 _atom_site_fract_z
 _atom_site_occupancy
  Er  Er0  1  0.125000  0.125000  0.125000  1
  Er  Er1  1  0.125000  0.125000  0.625000  1
  Bi  Bi2  1  0.125000  0.625000  0.125000  1
  Bi  Bi3  1  0.625000  0.125000  0.125000  1
  Rh  Rh4  1  0.625000  0.625000  0.625000  1
  Rh  Rh5  1  0.625000  0.625000  0.125000  1
  Rh  Rh6  1  0.125000  0.625000  0.625000  1
  Rh  Rh7  1  0.625000  0.125000  0.625000  1
  O  O8  1  0.243872  0.243872  0.256128  1
  O  O9  1  0.287800  0.718050  0.287956  1
  O  O10  1  0.962458  0.962458  0.537542  1
  O  O11  1  0.531950  0.962200  0.543805  1
  O  O12  1  0.708233  0.708233  0.291767  1
  O  O13  1  0.962200  0.531950  0.543805  1
  O  O14  1  0.718050  0.287800  0.706195  1
  O  O15  1  0.287542  0.287542  0.712458  1
  O  O16  1  0.718050  0.287800  0.287956  1
  O  O17  1  0.287800  0.718050  0.706195  1
  O  O18  1  0.962200  0.531950  0.962044  1
  O  O19  1  0.541767  0.541767  0.958233  1
  O  O20  1  0.006128  0.006128  0.993872  1
  O  O21  1  0.531950  0.962200  0.962044  1
