# generated using pymatgen
data_Ca5TlCu2
_symmetry_space_group_name_H-M   'P 1'
_cell_length_a   9.26613820
_cell_length_b   9.26613784
_cell_length_c   9.26613780
_cell_angle_alpha   129.49752463
_cell_angle_beta   129.49752326
_cell_angle_gamma   74.21134390
_symmetry_Int_Tables_number   1
_chemical_formula_structural   Ca5TlCu2
_chemical_formula_sum   'Ca10 Tl2 Cu4'
_cell_volume   461.86813034
_cell_formula_units_Z   2
loop_
 _symmetry_equiv_pos_site_id
 _symmetry_equiv_pos_as_xyz
  1  'x, y, z'
loop_
 _atom_site_type_symbol
 _atom_site_label
 _atom_site_symmetry_multiplicity
 _atom_site_fract_x
 _atom_site_fract_y
 _atom_site_fract_z
 _atom_site_occupancy
  Ca  Ca0  1  0.529378  0.029378  0.839508  1
  Ca  Ca1  1  0.189869  0.689869  0.160492  1
  Ca  Ca2  1  0.029378  0.189869  0.500000  1
  Ca  Ca3  1  0.689869  0.529378  0.500000  1
  Ca  Ca4  1  0.470622  0.970622  0.160492  1
  Ca  Ca5  1  0.810131  0.310131  0.839508  1
  Ca  Ca6  1  0.970622  0.810131  0.500000  1
  Ca  Ca7  1  0.310131  0.470622  0.500000  1
  Ca  Ca8  1  0.500000  0.500000  0.000000  1
  Ca  Ca9  1  0.000000  0.000000  0.000000  1
  Tl  Tl10  1  0.250000  0.250000  0.000000  1
  Tl  Tl11  1  0.750000  0.750000  0.000000  1
  Cu  Cu12  1  0.612411  0.887589  0.500000  1
  Cu  Cu13  1  0.387589  0.112411  0.500000  1
  Cu  Cu14  1  0.112411  0.612411  0.724821  1
  Cu  Cu15  1  0.887589  0.387589  0.275179  1
