# generated using pymatgen
data_Pa4Fe15P12Os5
_symmetry_space_group_name_H-M   'P 1'
_cell_length_a   3.74812500
_cell_length_b   10.36159462
_cell_length_c   11.91804756
_cell_angle_alpha   90.19783582
_cell_angle_beta   90.00000000
_cell_angle_gamma   90.00000000
_symmetry_Int_Tables_number   1
_chemical_formula_structural   Pa4Fe15P12Os5
_chemical_formula_sum   'Pa4 Fe15 P12 Os5'
_cell_volume   462.85311257
_cell_formula_units_Z   1
loop_
 _symmetry_equiv_pos_site_id
 _symmetry_equiv_pos_as_xyz
  1  'x, y, z'
loop_
 _atom_site_type_symbol
 _atom_site_label
 _atom_site_symmetry_multiplicity
 _atom_site_fract_x
 _atom_site_fract_y
 _atom_site_fract_z
 _atom_site_occupancy
  Pa  Pa0  1  0.250000  0.581704  0.705165  1
  Pa  Pa1  1  0.250000  0.921216  0.203107  1
  Pa  Pa2  1  0.750000  0.421057  0.291362  1
  Pa  Pa3  1  0.750000  0.078529  0.796505  1
  Fe  Fe4  1  0.250000  0.095314  0.980899  1
  Fe  Fe5  1  0.750000  0.598930  0.522640  1
  Fe  Fe6  1  0.750000  0.903726  0.019274  1
  Fe  Fe7  1  0.250000  0.224787  0.168108  1
  Fe  Fe8  1  0.250000  0.271313  0.674663  1
  Fe  Fe9  1  0.750000  0.775501  0.830257  1
  Fe  Fe10  1  0.750000  0.725500  0.328929  1
  Fe  Fe11  1  0.250000  0.886116  0.703285  1
  Fe  Fe12  1  0.250000  0.615604  0.200648  1
  Fe  Fe13  1  0.750000  0.113434  0.296427  1
  Fe  Fe14  1  0.750000  0.386214  0.798707  1
  Fe  Fe15  1  0.250000  0.464381  0.933075  1
  Fe  Fe16  1  0.250000  0.035497  0.433504  1
  Fe  Fe17  1  0.750000  0.536215  0.065820  1
  Fe  Fe18  1  0.750000  0.963149  0.566225  1
  P  P19  1  0.250000  0.423511  0.110513  1
  P  P20  1  0.250000  0.075497  0.612351  1
  P  P21  1  0.750000  0.577415  0.887876  1
  P  P22  1  0.750000  0.922999  0.387608  1
  P  P23  1  0.250000  0.274011  0.860164  1
  P  P24  1  0.250000  0.220968  0.353629  1
  P  P25  1  0.750000  0.725589  0.141370  1
  P  P26  1  0.750000  0.775538  0.642703  1
  P  P27  1  0.250000  0.606499  0.388562  1
  P  P28  1  0.250000  0.898830  0.893008  1
  P  P29  1  0.750000  0.397018  0.613432  1
  P  P30  1  0.750000  0.100954  0.106192  1
  Os  Os31  1  0.250000  0.708055  0.990292  1
  Os  Os32  1  0.250000  0.792873  0.491254  1
  Os  Os33  1  0.750000  0.292252  0.008601  1
  Os  Os34  1  0.750000  0.204913  0.512512  1
  Os  Os35  1  0.250000  0.404891  0.481331  1
