# generated using pymatgen
data_PrB2Rh2N
_symmetry_space_group_name_H-M   'P 1'
_cell_length_a   3.90680997
_cell_length_b   3.90681070
_cell_length_c   5.69996700
_cell_angle_alpha   110.04175167
_cell_angle_beta   110.04176382
_cell_angle_gamma   89.99999907
_symmetry_Int_Tables_number   1
_chemical_formula_structural   PrB2Rh2N
_chemical_formula_sum   'Pr1 B2 Rh2 N1'
_cell_volume   76.09883304
_cell_formula_units_Z   1
loop_
 _symmetry_equiv_pos_site_id
 _symmetry_equiv_pos_as_xyz
  1  'x, y, z'
loop_
 _atom_site_type_symbol
 _atom_site_label
 _atom_site_symmetry_multiplicity
 _atom_site_fract_x
 _atom_site_fract_y
 _atom_site_fract_z
 _atom_site_occupancy
  Pr  Pr0  1  0.000000  0.000000  0.000000  1
  B  B1  1  0.646505  0.646505  0.293013  1
  B  B2  1  0.353495  0.353495  0.706989  1
  Rh  Rh3  1  0.749999  0.250000  0.500000  1
  Rh  Rh4  1  0.250000  0.749999  0.500000  1
  N  N5  1  0.499999  0.499999  0.000000  1
