# generated using pymatgen
data_Nd16Y4(Ir3Ru)3
_symmetry_space_group_name_H-M   'P 1'
_cell_length_a   11.19446000
_cell_length_b   11.19446000
_cell_length_c   6.55837500
_cell_angle_alpha   90.00000000
_cell_angle_beta   90.00000000
_cell_angle_gamma   90.00000000
_symmetry_Int_Tables_number   1
_chemical_formula_structural   Nd16Y4(Ir3Ru)3
_chemical_formula_sum   'Nd16 Y4 Ir9 Ru3'
_cell_volume   821.86889318
_cell_formula_units_Z   1
loop_
 _symmetry_equiv_pos_site_id
 _symmetry_equiv_pos_as_xyz
  1  'x, y, z'
loop_
 _atom_site_type_symbol
 _atom_site_label
 _atom_site_symmetry_multiplicity
 _atom_site_fract_x
 _atom_site_fract_y
 _atom_site_fract_z
 _atom_site_occupancy
  Nd  Nd0  1  0.292023  0.086556  0.381051  1
  Nd  Nd1  1  0.292050  0.913697  0.881420  1
  Nd  Nd2  1  0.707950  0.086303  0.881420  1
  Nd  Nd3  1  0.707977  0.913444  0.381051  1
  Nd  Nd4  1  0.586303  0.792050  0.881420  1
  Nd  Nd5  1  0.586556  0.207977  0.381051  1
  Nd  Nd6  1  0.413444  0.792023  0.381051  1
  Nd  Nd7  1  0.413697  0.207950  0.881420  1
  Nd  Nd8  1  0.209657  0.412772  0.620038  1
  Nd  Nd9  1  0.209514  0.587174  0.117434  1
  Nd  Nd10  1  0.790486  0.412826  0.117434  1
  Nd  Nd11  1  0.790343  0.587228  0.620038  1
  Nd  Nd12  1  0.912826  0.709514  0.117434  1
  Nd  Nd13  1  0.912772  0.290343  0.620038  1
  Nd  Nd14  1  0.087228  0.709657  0.620038  1
  Nd  Nd15  1  0.087174  0.290486  0.117434  1
  Y  Y16  1  0.000000  0.000000  0.499599  1
  Y  Y17  1  0.000000  0.000000  0.999688  1
  Y  Y18  1  0.500000  0.500000  0.999688  1
  Y  Y19  1  0.500000  0.500000  0.499599  1
  Ir  Ir20  1  0.850728  0.149939  0.250221  1
  Ir  Ir21  1  0.850441  0.849942  0.749789  1
  Ir  Ir22  1  0.149559  0.150058  0.749789  1
  Ir  Ir23  1  0.149272  0.850061  0.250221  1
  Ir  Ir24  1  0.650058  0.350441  0.749789  1
  Ir  Ir25  1  0.649939  0.649272  0.250221  1
  Ir  Ir26  1  0.350061  0.350728  0.250221  1
  Ir  Ir27  1  0.349942  0.649559  0.749789  1
  Ir  Ir28  1  0.000000  0.500000  0.380423  1
  Ru  Ru29  1  0.500000  0.000000  0.120341  1
  Ru  Ru30  1  0.500000  0.000000  0.619893  1
  Ru  Ru31  1  0.000000  0.500000  0.880954  1
