# generated using pymatgen
data_Dy3YFeRuC8
_symmetry_space_group_name_H-M   'P 1'
_cell_length_a   5.16705517
_cell_length_b   6.62141162
_cell_length_c   6.62237056
_cell_angle_alpha   70.18256465
_cell_angle_beta   67.03815195
_cell_angle_gamma   67.03857475
_symmetry_Int_Tables_number   1
_chemical_formula_structural   Dy3YFeRuC8
_chemical_formula_sum   'Dy3 Y1 Fe1 Ru1 C8'
_cell_volume   187.36810879
_cell_formula_units_Z   1
loop_
 _symmetry_equiv_pos_site_id
 _symmetry_equiv_pos_as_xyz
  1  'x, y, z'
loop_
 _atom_site_type_symbol
 _atom_site_label
 _atom_site_symmetry_multiplicity
 _atom_site_fract_x
 _atom_site_fract_y
 _atom_site_fract_z
 _atom_site_occupancy
  Dy  Dy0  1  0.148934  0.201248  0.504190  1
  Dy  Dy1  1  0.854435  0.798585  0.495941  1
  Dy  Dy2  1  0.645695  0.504034  0.201333  1
  Y  Y3  1  0.351061  0.496223  0.798820  1
  Fe  Fe4  1  0.250019  0.999976  0.999901  1
  Ru  Ru5  1  0.750074  0.999963  0.999847  1
  C  C6  1  0.368867  0.789790  0.466414  1
  C  C7  1  0.625065  0.210403  0.532950  1
  C  C8  1  0.875142  0.466654  0.789443  1
  C  C9  1  0.130770  0.533313  0.211411  1
  C  C10  1  0.401930  0.906643  0.247901  1
  C  C11  1  0.556663  0.093301  0.751630  1
  C  C12  1  0.943467  0.248007  0.906444  1
  C  C13  1  0.097879  0.751860  0.093773  1
