# generated using pymatgen
data_Er10(SnSb)3
_symmetry_space_group_name_H-M   'P 1'
_cell_length_a   8.90322500
_cell_length_b   8.89172639
_cell_length_c   6.34519200
_cell_angle_alpha   90.00000000
_cell_angle_beta   90.00000000
_cell_angle_gamma   120.04278359
_symmetry_Int_Tables_number   1
_chemical_formula_structural   Er10(SnSb)3
_chemical_formula_sum   'Er10 Sn3 Sb3'
_cell_volume   434.83194921
_cell_formula_units_Z   1
loop_
 _symmetry_equiv_pos_site_id
 _symmetry_equiv_pos_as_xyz
  1  'x, y, z'
loop_
 _atom_site_type_symbol
 _atom_site_label
 _atom_site_symmetry_multiplicity
 _atom_site_fract_x
 _atom_site_fract_y
 _atom_site_fract_z
 _atom_site_occupancy
  Er  Er0  1  0.001063  0.761449  0.750000  1
  Er  Er1  1  0.000984  0.241283  0.250000  1
  Er  Er2  1  0.759701  0.758717  0.250000  1
  Er  Er3  1  0.758221  0.000000  0.750000  1
  Er  Er4  1  0.239615  0.238551  0.750000  1
  Er  Er5  1  0.239031  0.000000  0.250000  1
  Er  Er6  1  0.333320  0.666300  0.499353  1
  Er  Er7  1  0.667021  0.333700  0.000647  1
  Er  Er8  1  0.667021  0.333700  0.499353  1
  Er  Er9  1  0.333320  0.666300  0.000647  1
  Sn  Sn10  1  0.394289  0.000000  0.750000  1
  Sn  Sn11  1  0.393267  0.393657  0.250000  1
  Sn  Sn12  1  0.999610  0.606343  0.250000  1
  Sb  Sb13  1  0.999608  0.392886  0.750000  1
  Sb  Sb14  1  0.606722  0.607114  0.750000  1
  Sb  Sb15  1  0.607207  0.000000  0.250000  1
