# generated using pymatgen
data_Cr(SeF9)2
_symmetry_space_group_name_H-M   'P 1'
_cell_length_a   9.12545700
_cell_length_b   9.12545674
_cell_length_c   5.28142500
_cell_angle_alpha   90.00000000
_cell_angle_beta   90.00000000
_cell_angle_gamma   120.00000455
_symmetry_Int_Tables_number   1
_chemical_formula_structural   Cr(SeF9)2
_chemical_formula_sum   'Cr1 Se2 F18'
_cell_volume   380.88245043
_cell_formula_units_Z   1
loop_
 _symmetry_equiv_pos_site_id
 _symmetry_equiv_pos_as_xyz
  1  'x, y, z'
loop_
 _atom_site_type_symbol
 _atom_site_label
 _atom_site_symmetry_multiplicity
 _atom_site_fract_x
 _atom_site_fract_y
 _atom_site_fract_z
 _atom_site_occupancy
  Cr  Cr0  1  0.000000  0.000000  0.000000  1
  Se  Se1  1  0.666667  0.333333  0.446707  1
  Se  Se2  1  0.333333  0.666667  0.553293  1
  F  F3  1  0.243597  0.756403  0.363494  1
  F  F4  1  0.243597  0.487194  0.363494  1
  F  F5  1  0.512806  0.756403  0.363494  1
  F  F6  1  0.090932  0.909068  0.807477  1
  F  F7  1  0.090932  0.181864  0.807477  1
  F  F8  1  0.818136  0.909068  0.807477  1
  F  F9  1  0.181864  0.090932  0.192523  1
  F  F10  1  0.909068  0.818136  0.192523  1
  F  F11  1  0.909068  0.090932  0.192523  1
  F  F12  1  0.423024  0.576976  0.743243  1
  F  F13  1  0.423024  0.846049  0.743243  1
  F  F14  1  0.153951  0.576976  0.743243  1
  F  F15  1  0.846049  0.423024  0.256757  1
  F  F16  1  0.576976  0.153951  0.256757  1
  F  F17  1  0.576976  0.423024  0.256757  1
  F  F18  1  0.756403  0.243597  0.636506  1
  F  F19  1  0.756403  0.512806  0.636506  1
  F  F20  1  0.487194  0.243597  0.636506  1
