# generated using pymatgen
data_Fe(CoPt3)2
_symmetry_space_group_name_H-M   'P 1'
_cell_length_a   6.04488399
_cell_length_b   6.04488308
_cell_length_c   6.16023517
_cell_angle_alpha   95.80884485
_cell_angle_beta   95.80883998
_cell_angle_gamma   142.53428500
_symmetry_Int_Tables_number   1
_chemical_formula_structural   Fe(CoPt3)2
_chemical_formula_sum   'Fe1 Co2 Pt6'
_cell_volume   129.94751431
_cell_formula_units_Z   1
loop_
 _symmetry_equiv_pos_site_id
 _symmetry_equiv_pos_as_xyz
  1  'x, y, z'
loop_
 _atom_site_type_symbol
 _atom_site_label
 _atom_site_symmetry_multiplicity
 _atom_site_fract_x
 _atom_site_fract_y
 _atom_site_fract_z
 _atom_site_occupancy
  Fe  Fe0  1  0.000000  0.000000  0.000000  1
  Co  Co1  1  0.331295  0.331295  0.662590  1
  Co  Co2  1  0.668705  0.668705  0.337410  1
  Pt  Pt3  1  0.656172  0.343828  0.000000  1
  Pt  Pt4  1  0.343828  0.656172  0.000000  1
  Pt  Pt5  1  0.009956  0.323219  0.333176  1
  Pt  Pt6  1  0.990044  0.676781  0.666824  1
  Pt  Pt7  1  0.676781  0.990044  0.666824  1
  Pt  Pt8  1  0.323219  0.009956  0.333176  1
