# generated using pymatgen
data_La2Sc3Sn4
_symmetry_space_group_name_H-M   'P 1'
_cell_length_a   7.84141700
_cell_length_b   15.29035600
_cell_length_c   7.96411300
_cell_angle_alpha   90.00000000
_cell_angle_beta   90.00000000
_cell_angle_gamma   90.00000000
_symmetry_Int_Tables_number   1
_chemical_formula_structural   La2Sc3Sn4
_chemical_formula_sum   'La8 Sc12 Sn16'
_cell_volume   954.88167821
_cell_formula_units_Z   4
loop_
 _symmetry_equiv_pos_site_id
 _symmetry_equiv_pos_as_xyz
  1  'x, y, z'
loop_
 _atom_site_type_symbol
 _atom_site_label
 _atom_site_symmetry_multiplicity
 _atom_site_fract_x
 _atom_site_fract_y
 _atom_site_fract_z
 _atom_site_occupancy
  La  La0  1  0.992792  0.405098  0.169890  1
  La  La1  1  0.507209  0.594902  0.669890  1
  La  La2  1  0.492791  0.094902  0.330110  1
  La  La3  1  0.007209  0.905097  0.830110  1
  La  La4  1  0.007209  0.594902  0.830110  1
  La  La5  1  0.492791  0.405098  0.330110  1
  La  La6  1  0.507209  0.905097  0.669890  1
  La  La7  1  0.992792  0.094902  0.169890  1
  Sc  Sc8  1  0.326935  0.250000  0.994359  1
  Sc  Sc9  1  0.173067  0.750000  0.494358  1
  Sc  Sc10  1  0.826934  0.250000  0.505642  1
  Sc  Sc11  1  0.673066  0.750000  0.005641  1
  Sc  Sc12  1  0.341633  0.627221  0.162408  1
  Sc  Sc13  1  0.158366  0.372780  0.662408  1
  Sc  Sc14  1  0.841633  0.872779  0.337592  1
  Sc  Sc15  1  0.658366  0.127220  0.837592  1
  Sc  Sc16  1  0.658366  0.372780  0.837592  1
  Sc  Sc17  1  0.841633  0.627221  0.337592  1
  Sc  Sc18  1  0.158366  0.127220  0.662408  1
  Sc  Sc19  1  0.341633  0.872779  0.162408  1
  Sn  Sn20  1  0.173484  0.543728  0.453446  1
  Sn  Sn21  1  0.326516  0.456272  0.953446  1
  Sn  Sn22  1  0.673485  0.956272  0.046554  1
  Sn  Sn23  1  0.826515  0.043728  0.546556  1
  Sn  Sn24  1  0.826515  0.456272  0.546556  1
  Sn  Sn25  1  0.673485  0.543728  0.046554  1
  Sn  Sn26  1  0.326516  0.043728  0.953446  1
  Sn  Sn27  1  0.173484  0.956272  0.453446  1
  Sn  Sn28  1  0.463759  0.250000  0.634000  1
  Sn  Sn29  1  0.036241  0.750000  0.134001  1
  Sn  Sn30  1  0.963759  0.250000  0.865999  1
  Sn  Sn31  1  0.536241  0.750000  0.366000  1
  Sn  Sn32  1  0.185734  0.250000  0.358575  1
  Sn  Sn33  1  0.314266  0.750000  0.858575  1
  Sn  Sn34  1  0.685733  0.250000  0.141425  1
  Sn  Sn35  1  0.814266  0.750000  0.641424  1
