# generated using pymatgen
data_BaSr3(ScSe2)8
_symmetry_space_group_name_H-M   'P 1'
_cell_length_a   3.99368800
_cell_length_b   12.36198809
_cell_length_c   14.45535178
_cell_angle_alpha   90.05799158
_cell_angle_beta   90.00000000
_cell_angle_gamma   90.00000000
_symmetry_Int_Tables_number   1
_chemical_formula_structural   BaSr3(ScSe2)8
_chemical_formula_sum   'Ba1 Sr3 Sc8 Se16'
_cell_volume   713.65924560
_cell_formula_units_Z   1
loop_
 _symmetry_equiv_pos_site_id
 _symmetry_equiv_pos_as_xyz
  1  'x, y, z'
loop_
 _atom_site_type_symbol
 _atom_site_label
 _atom_site_symmetry_multiplicity
 _atom_site_fract_x
 _atom_site_fract_y
 _atom_site_fract_z
 _atom_site_occupancy
  Ba  Ba0  1  0.750000  0.761709  0.668610  1
  Sr  Sr1  1  0.250000  0.238437  0.330774  1
  Sr  Sr2  1  0.750000  0.261742  0.831379  1
  Sr  Sr3  1  0.250000  0.738345  0.168876  1
  Sc  Sc4  1  0.250000  0.081997  0.596356  1
  Sc  Sc5  1  0.250000  0.058166  0.110025  1
  Sc  Sc6  1  0.750000  0.418671  0.096670  1
  Sc  Sc7  1  0.750000  0.944040  0.892150  1
  Sc  Sc8  1  0.750000  0.439221  0.609465  1
  Sc  Sc9  1  0.250000  0.556666  0.388260  1
  Sc  Sc10  1  0.750000  0.920691  0.400570  1
  Sc  Sc11  1  0.250000  0.580802  0.903922  1
  Se  Se12  1  0.250000  0.879985  0.523409  1
  Se  Se13  1  0.250000  0.798241  0.849516  1
  Se  Se14  1  0.250000  0.971219  0.283560  1
  Se  Se15  1  0.750000  0.410885  0.424395  1
  Se  Se16  1  0.250000  0.470267  0.214687  1
  Se  Se17  1  0.250000  0.089516  0.925825  1
  Se  Se18  1  0.750000  0.203160  0.159635  1
  Se  Se19  1  0.750000  0.031768  0.715629  1
  Se  Se20  1  0.250000  0.582650  0.572393  1
  Se  Se21  1  0.750000  0.703060  0.340580  1
  Se  Se22  1  0.250000  0.296164  0.659930  1
  Se  Se23  1  0.250000  0.376187  0.971796  1
  Se  Se24  1  0.750000  0.623154  0.029046  1
  Se  Se25  1  0.750000  0.526513  0.785857  1
  Se  Se26  1  0.750000  0.124702  0.471239  1
  Se  Se27  1  0.750000  0.912040  0.075449  1
