# generated using pymatgen
data_CdH7Ir
_symmetry_space_group_name_H-M   'P 1'
_cell_length_a   5.51949348
_cell_length_b   5.83560204
_cell_length_c   8.14901200
_cell_angle_alpha   90.00000000
_cell_angle_beta   90.00000000
_cell_angle_gamma   93.39276785
_symmetry_Int_Tables_number   1
_chemical_formula_structural   CdH7Ir
_chemical_formula_sum   'Cd2 H14 Ir2'
_cell_volume   262.01611089
_cell_formula_units_Z   2
loop_
 _symmetry_equiv_pos_site_id
 _symmetry_equiv_pos_as_xyz
  1  'x, y, z'
loop_
 _atom_site_type_symbol
 _atom_site_label
 _atom_site_symmetry_multiplicity
 _atom_site_fract_x
 _atom_site_fract_y
 _atom_site_fract_z
 _atom_site_occupancy
  Cd  Cd0  1  0.000000  0.000000  0.000000  1
  Cd  Cd1  1  0.000000  0.000000  0.500000  1
  H  H2  1  0.166885  0.746878  0.250000  1
  H  H3  1  0.833115  0.253122  0.750000  1
  H  H4  1  0.896231  0.649116  0.445085  1
  H  H5  1  0.103769  0.350884  0.945085  1
  H  H6  1  0.103769  0.350884  0.554915  1
  H  H7  1  0.896231  0.649116  0.054915  1
  H  H8  1  0.573788  0.662806  0.306410  1
  H  H9  1  0.426212  0.337194  0.806410  1
  H  H10  1  0.426212  0.337194  0.693590  1
  H  H11  1  0.573788  0.662806  0.193590  1
  H  H12  1  0.799980  0.007380  0.250000  1
  H  H13  1  0.200020  0.992620  0.750000  1
  H  H14  1  0.914671  0.449980  0.250000  1
  H  H15  1  0.085329  0.550020  0.750000  1
  Ir  Ir16  1  0.872651  0.724010  0.250000  1
  Ir  Ir17  1  0.127349  0.275990  0.750000  1
