# generated using pymatgen
data_Pr3Nd5Se12
_symmetry_space_group_name_H-M   'P 1'
_cell_length_a   4.22308300
_cell_length_b   7.87853037
_cell_length_c   16.43016577
_cell_angle_alpha   90.03498844
_cell_angle_beta   90.00000000
_cell_angle_gamma   90.00000000
_symmetry_Int_Tables_number   1
_chemical_formula_structural   Pr3Nd5Se12
_chemical_formula_sum   'Pr3 Nd5 Se12'
_cell_volume   546.65924162
_cell_formula_units_Z   1
loop_
 _symmetry_equiv_pos_site_id
 _symmetry_equiv_pos_as_xyz
  1  'x, y, z'
loop_
 _atom_site_type_symbol
 _atom_site_label
 _atom_site_symmetry_multiplicity
 _atom_site_fract_x
 _atom_site_fract_y
 _atom_site_fract_z
 _atom_site_occupancy
  Pr  Pr0  1  0.499999  0.733539  0.043470  1
  Pr  Pr1  1  0.000000  0.143007  0.203682  1
  Pr  Pr2  1  0.000000  0.642768  0.296511  1
  Nd  Nd3  1  0.499999  0.233458  0.456495  1
  Nd  Nd4  1  0.000000  0.766616  0.544014  1
  Nd  Nd5  1  0.499999  0.356537  0.703811  1
  Nd  Nd6  1  0.499999  0.856781  0.795868  1
  Nd  Nd7  1  0.000000  0.266382  0.955903  1
  Se  Se8  1  0.499999  0.125497  0.066389  1
  Se  Se9  1  0.000000  0.505707  0.109477  1
  Se  Se10  1  0.499999  0.854350  0.218703  1
  Se  Se11  1  0.499999  0.353696  0.282091  1
  Se  Se12  1  0.000000  0.007857  0.391245  1
  Se  Se13  1  0.499999  0.624305  0.433731  1
  Se  Se14  1  0.000000  0.375694  0.567204  1
  Se  Se15  1  0.499999  0.992429  0.609375  1
  Se  Se16  1  0.000000  0.646480  0.718545  1
  Se  Se17  1  0.000000  0.146611  0.781360  1
  Se  Se18  1  0.499999  0.491809  0.890157  1
  Se  Se19  1  0.000000  0.876462  0.931968  1
