# generated using pymatgen
data_Gd7DySe12
_symmetry_space_group_name_H-M   'P 1'
_cell_length_a   7.20435071
_cell_length_b   7.25156575
_cell_length_c   13.11756300
_cell_angle_alpha   100.86223263
_cell_angle_beta   100.71913878
_cell_angle_gamma   108.68707344
_symmetry_Int_Tables_number   1
_chemical_formula_structural   Gd7DySe12
_chemical_formula_sum   'Gd7 Dy1 Se12'
_cell_volume   614.77705703
_cell_formula_units_Z   1
loop_
 _symmetry_equiv_pos_site_id
 _symmetry_equiv_pos_as_xyz
  1  'x, y, z'
loop_
 _atom_site_type_symbol
 _atom_site_label
 _atom_site_symmetry_multiplicity
 _atom_site_fract_x
 _atom_site_fract_y
 _atom_site_fract_z
 _atom_site_occupancy
  Gd  Gd0  1  0.290212  0.040388  0.081218  1
  Gd  Gd1  1  0.370258  0.620015  0.240521  1
  Gd  Gd2  1  0.878738  0.128440  0.257233  1
  Gd  Gd3  1  0.460179  0.210102  0.419342  1
  Gd  Gd4  1  0.540753  0.790598  0.580774  1
  Gd  Gd5  1  0.121312  0.871331  0.742154  1
  Gd  Gd6  1  0.629479  0.379653  0.759172  1
  Dy  Dy7  1  0.708842  0.958992  0.918401  1
  Se  Se8  1  0.036179  0.276777  0.088844  1
  Se  Se9  1  0.552104  0.811766  0.088838  1
  Se  Se10  1  0.612315  0.362188  0.250147  1
  Se  Se11  1  0.138492  0.888524  0.250707  1
  Se  Se12  1  0.221372  0.461883  0.409390  1
  Se  Se13  1  0.687911  0.947157  0.409182  1
  Se  Se14  1  0.312510  0.052760  0.590365  1
  Se  Se15  1  0.778386  0.537833  0.590599  1
  Se  Se16  1  0.861073  0.110775  0.751266  1
  Se  Se17  1  0.389804  0.640316  0.750902  1
  Se  Se18  1  0.450302  0.185743  0.910494  1
  Se  Se19  1  0.959787  0.724766  0.910459  1
