# generated using pymatgen
data_YbY5(CdHg2)6
_symmetry_space_group_name_H-M   'P 1'
_cell_length_a   5.12775928
_cell_length_b   7.09126100
_cell_length_c   15.58166087
_cell_angle_alpha   90.00000000
_cell_angle_beta   90.03815743
_cell_angle_gamma   90.00000000
_symmetry_Int_Tables_number   1
_chemical_formula_structural   YbY5(CdHg2)6
_chemical_formula_sum   'Yb1 Y5 Cd6 Hg12'
_cell_volume   566.58458067
_cell_formula_units_Z   1
loop_
 _symmetry_equiv_pos_site_id
 _symmetry_equiv_pos_as_xyz
  1  'x, y, z'
loop_
 _atom_site_type_symbol
 _atom_site_label
 _atom_site_symmetry_multiplicity
 _atom_site_fract_x
 _atom_site_fract_y
 _atom_site_fract_z
 _atom_site_occupancy
  Yb  Yb0  1  0.000000  0.000000  0.000000  1
  Y  Y1  1  0.499890  0.500000  0.167254  1
  Y  Y2  1  0.999905  0.000000  0.332923  1
  Y  Y3  1  0.500000  0.500000  0.500000  1
  Y  Y4  1  0.000095  0.000000  0.667076  1
  Y  Y5  1  0.500110  0.500000  0.832746  1
  Cd  Cd6  1  0.000000  0.500000  0.000000  1
  Cd  Cd7  1  0.499905  0.000000  0.166013  1
  Cd  Cd8  1  0.999915  0.500000  0.334140  1
  Cd  Cd9  1  0.500000  0.000000  0.500000  1
  Cd  Cd10  1  0.000085  0.500000  0.665860  1
  Cd  Cd11  1  0.500095  0.000000  0.833987  1
  Hg  Hg12  1  0.500000  0.247664  0.000000  1
  Hg  Hg13  1  0.500000  0.752335  0.000000  1
  Hg  Hg14  1  0.999880  0.247304  0.165640  1
  Hg  Hg15  1  0.999880  0.752697  0.165640  1
  Hg  Hg16  1  0.499920  0.251628  0.333859  1
  Hg  Hg17  1  0.499920  0.748373  0.333859  1
  Hg  Hg18  1  0.000000  0.248609  0.500000  1
  Hg  Hg19  1  0.000000  0.751392  0.500000  1
  Hg  Hg20  1  0.500080  0.251628  0.666141  1
  Hg  Hg21  1  0.500080  0.748373  0.666141  1
  Hg  Hg22  1  0.000120  0.247304  0.834360  1
  Hg  Hg23  1  0.000120  0.752697  0.834360  1
