# generated using pymatgen
data_CaAl3Hg
_symmetry_space_group_name_H-M   'P 1'
_cell_length_a   4.28735878
_cell_length_b   4.28735923
_cell_length_c   6.64456969
_cell_angle_alpha   71.17846816
_cell_angle_beta   71.17847191
_cell_angle_gamma   90.00000865
_symmetry_Int_Tables_number   1
_chemical_formula_structural   CaAl3Hg
_chemical_formula_sum   'Ca1 Al3 Hg1'
_cell_volume   108.68328813
_cell_formula_units_Z   1
loop_
 _symmetry_equiv_pos_site_id
 _symmetry_equiv_pos_as_xyz
  1  'x, y, z'
loop_
 _atom_site_type_symbol
 _atom_site_label
 _atom_site_symmetry_multiplicity
 _atom_site_fract_x
 _atom_site_fract_y
 _atom_site_fract_z
 _atom_site_occupancy
  Ca  Ca0  1  0.996671  0.996671  0.006656  1
  Al  Al1  1  0.753704  0.253704  0.492592  1
  Al  Al2  1  0.253704  0.753704  0.492592  1
  Al  Al3  1  0.388326  0.388326  0.223349  1
  Hg  Hg4  1  0.607594  0.607594  0.784812  1
