# generated using pymatgen
data_LuTaNb4(B2Ru5)2
_symmetry_space_group_name_H-M   'P 1'
_cell_length_a   9.49915478
_cell_length_b   9.49984592
_cell_length_c   3.05371300
_cell_angle_alpha   90.00000000
_cell_angle_beta   90.00000000
_cell_angle_gamma   90.16810118
_symmetry_Int_Tables_number   1
_chemical_formula_structural   LuTaNb4(B2Ru5)2
_chemical_formula_sum   'Lu1 Ta1 Nb4 B4 Ru10'
_cell_volume   275.56742261
_cell_formula_units_Z   1
loop_
 _symmetry_equiv_pos_site_id
 _symmetry_equiv_pos_as_xyz
  1  'x, y, z'
loop_
 _atom_site_type_symbol
 _atom_site_label
 _atom_site_symmetry_multiplicity
 _atom_site_fract_x
 _atom_site_fract_y
 _atom_site_fract_z
 _atom_site_occupancy
  Lu  Lu0  1  0.824522  0.675555  0.000000  1
  Ta  Ta1  1  0.998955  0.998357  0.000000  1
  Nb  Nb2  1  0.177556  0.322400  0.000000  1
  Nb  Nb3  1  0.324133  0.823178  0.000000  1
  Nb  Nb4  1  0.676934  0.175843  0.000000  1
  Nb  Nb5  1  0.501625  0.501008  0.000000  1
  B  B6  1  0.619635  0.880309  0.000000  1
  B  B7  1  0.377377  0.122651  0.000000  1
  B  B8  1  0.122388  0.620053  0.000000  1
  B  B9  1  0.879915  0.377614  0.000000  1
  Ru  Ru10  1  0.561050  0.723490  0.500000  1
  Ru  Ru11  1  0.427091  0.282751  0.500000  1
  Ru  Ru12  1  0.079471  0.782579  0.500000  1
  Ru  Ru13  1  0.930284  0.216356  0.500000  1
  Ru  Ru14  1  0.283390  0.569784  0.500000  1
  Ru  Ru15  1  0.717682  0.420466  0.500000  1
  Ru  Ru16  1  0.216938  0.072789  0.500000  1
  Ru  Ru17  1  0.776800  0.939013  0.500000  1
  Ru  Ru18  1  0.496902  0.003145  0.500000  1
  Ru  Ru19  1  0.007354  0.492658  0.500000  1
