# generated using pymatgen
data_Dy5HoAl18
_symmetry_space_group_name_H-M   'P 1'
_cell_length_a   14.41637765
_cell_length_b   14.41637762
_cell_length_c   14.41638003
_cell_angle_alpha   24.85575395
_cell_angle_beta   24.85575407
_cell_angle_gamma   24.85575631
_symmetry_Int_Tables_number   1
_chemical_formula_structural   Dy5HoAl18
_chemical_formula_sum   'Dy5 Ho1 Al18'
_cell_volume   465.63371173
_cell_formula_units_Z   1
loop_
 _symmetry_equiv_pos_site_id
 _symmetry_equiv_pos_as_xyz
  1  'x, y, z'
loop_
 _atom_site_type_symbol
 _atom_site_label
 _atom_site_symmetry_multiplicity
 _atom_site_fract_x
 _atom_site_fract_y
 _atom_site_fract_z
 _atom_site_occupancy
  Dy  Dy0  1  0.999934  0.999934  0.999934  1
  Dy  Dy1  1  0.500042  0.500042  0.500042  1
  Dy  Dy2  1  0.108614  0.108614  0.108614  1
  Dy  Dy3  1  0.891459  0.891459  0.891459  1
  Dy  Dy4  1  0.391249  0.391249  0.391249  1
  Ho  Ho5  1  0.608563  0.608563  0.608563  1
  Al  Al6  1  0.925823  0.369669  0.369669  1
  Al  Al7  1  0.426095  0.869244  0.869244  1
  Al  Al8  1  0.369669  0.369669  0.925823  1
  Al  Al9  1  0.869244  0.869244  0.426095  1
  Al  Al10  1  0.369669  0.925823  0.369669  1
  Al  Al11  1  0.869244  0.426095  0.869244  1
  Al  Al12  1  0.573645  0.130818  0.130818  1
  Al  Al13  1  0.073861  0.630715  0.630715  1
  Al  Al14  1  0.130818  0.130818  0.573645  1
  Al  Al15  1  0.630715  0.630715  0.073861  1
  Al  Al16  1  0.130818  0.573645  0.130818  1
  Al  Al17  1  0.630715  0.073861  0.630715  1
  Al  Al18  1  0.500663  0.500663  0.998200  1
  Al  Al19  1  0.000261  0.000261  0.499784  1
  Al  Al20  1  0.500663  0.998200  0.500663  1
  Al  Al21  1  0.000261  0.499784  0.000261  1
  Al  Al22  1  0.998200  0.500663  0.500663  1
  Al  Al23  1  0.499784  0.000261  0.000261  1
