# generated using pymatgen
data_CaDyTaRh3
_symmetry_space_group_name_H-M   'P 1'
_cell_length_a   5.21621384
_cell_length_b   5.21621202
_cell_length_c   5.21621109
_cell_angle_alpha   66.45608516
_cell_angle_beta   66.45609358
_cell_angle_gamma   66.45609376
_symmetry_Int_Tables_number   1
_chemical_formula_structural   CaDyTaRh3
_chemical_formula_sum   'Ca1 Dy1 Ta1 Rh3'
_cell_volume   114.31879040
_cell_formula_units_Z   1
loop_
 _symmetry_equiv_pos_site_id
 _symmetry_equiv_pos_as_xyz
  1  'x, y, z'
loop_
 _atom_site_type_symbol
 _atom_site_label
 _atom_site_symmetry_multiplicity
 _atom_site_fract_x
 _atom_site_fract_y
 _atom_site_fract_z
 _atom_site_occupancy
  Ca  Ca0  1  0.372366  0.372366  0.372366  1
  Dy  Dy1  1  0.628240  0.628240  0.628240  1
  Ta  Ta2  1  0.999845  0.999845  0.999845  1
  Rh  Rh3  1  0.499955  0.999798  0.999798  1
  Rh  Rh4  1  0.999798  0.499955  0.999798  1
  Rh  Rh5  1  0.999798  0.999798  0.499955  1
