# generated using pymatgen
data_Sc14(InCo)3
_symmetry_space_group_name_H-M   'P 1'
_cell_length_a   8.87366200
_cell_length_b   8.87366200
_cell_length_c   21.62169400
_cell_angle_alpha   90.00000000
_cell_angle_beta   90.00000000
_cell_angle_gamma   90.00000000
_symmetry_Int_Tables_number   1
_chemical_formula_structural   Sc14(InCo)3
_chemical_formula_sum   'Sc56 In12 Co12'
_cell_volume   1702.53277576
_cell_formula_units_Z   4
loop_
 _symmetry_equiv_pos_site_id
 _symmetry_equiv_pos_as_xyz
  1  'x, y, z'
loop_
 _atom_site_type_symbol
 _atom_site_label
 _atom_site_symmetry_multiplicity
 _atom_site_fract_x
 _atom_site_fract_y
 _atom_site_fract_z
 _atom_site_occupancy
  Sc  Sc0  1  0.065909  0.064349  0.604657  1
  Sc  Sc1  1  0.064349  0.065909  0.104657  1
  Sc  Sc2  1  0.058927  0.941073  0.750000  1
  Sc  Sc3  1  0.934091  0.935651  0.395343  1
  Sc  Sc4  1  0.935651  0.934091  0.895343  1
  Sc  Sc5  1  0.064349  0.434091  0.104657  1
  Sc  Sc6  1  0.250000  0.750000  0.854229  1
  Sc  Sc7  1  0.250000  0.557686  0.983939  1
  Sc  Sc8  1  0.558927  0.058927  0.250000  1
  Sc  Sc9  1  0.558927  0.441073  0.250000  1
  Sc  Sc10  1  0.435651  0.065909  0.104657  1
  Sc  Sc11  1  0.564349  0.934091  0.895343  1
  Sc  Sc12  1  0.942314  0.250000  0.483939  1
  Sc  Sc13  1  0.750000  0.561256  0.529988  1
  Sc  Sc14  1  0.750000  0.750000  0.786623  1
  Sc  Sc15  1  0.941073  0.441073  0.250000  1
  Sc  Sc16  1  0.750000  0.750000  0.286623  1
  Sc  Sc17  1  0.941073  0.058927  0.250000  1
  Sc  Sc18  1  0.750000  0.057686  0.016061  1
  Sc  Sc19  1  0.750000  0.250000  0.354229  1
  Sc  Sc20  1  0.934091  0.564349  0.395343  1
  Sc  Sc21  1  0.750000  0.442314  0.016061  1
  Sc  Sc22  1  0.434091  0.064349  0.604657  1
  Sc  Sc23  1  0.451422  0.750000  0.196920  1
  Sc  Sc24  1  0.565909  0.564349  0.395343  1
  Sc  Sc25  1  0.935651  0.565909  0.895343  1
  Sc  Sc26  1  0.435651  0.434091  0.104657  1
  Sc  Sc27  1  0.065909  0.435651  0.604657  1
  Sc  Sc28  1  0.058927  0.558927  0.750000  1
  Sc  Sc29  1  0.438744  0.250000  0.970012  1
  Sc  Sc30  1  0.564349  0.565909  0.895343  1
  Sc  Sc31  1  0.442314  0.750000  0.516061  1
  Sc  Sc32  1  0.250000  0.438744  0.470012  1
  Sc  Sc33  1  0.048578  0.750000  0.196920  1
  Sc  Sc34  1  0.938744  0.750000  0.029988  1
  Sc  Sc35  1  0.750000  0.938744  0.529988  1
  Sc  Sc36  1  0.250000  0.250000  0.713377  1
  Sc  Sc37  1  0.441073  0.558927  0.750000  1
  Sc  Sc38  1  0.750000  0.048578  0.696920  1
  Sc  Sc39  1  0.951422  0.250000  0.803080  1
  Sc  Sc40  1  0.250000  0.951422  0.303080  1
  Sc  Sc41  1  0.250000  0.061256  0.470012  1
  Sc  Sc42  1  0.750000  0.451422  0.696920  1
  Sc  Sc43  1  0.750000  0.250000  0.145771  1
  Sc  Sc44  1  0.250000  0.942314  0.983939  1
  Sc  Sc45  1  0.548578  0.250000  0.803080  1
  Sc  Sc46  1  0.250000  0.750000  0.645771  1
  Sc  Sc47  1  0.561256  0.750000  0.029988  1
  Sc  Sc48  1  0.250000  0.548578  0.303080  1
  Sc  Sc49  1  0.434091  0.435651  0.604657  1
  Sc  Sc50  1  0.057686  0.750000  0.516061  1
  Sc  Sc51  1  0.557686  0.250000  0.483939  1
  Sc  Sc52  1  0.441073  0.941073  0.750000  1
  Sc  Sc53  1  0.250000  0.250000  0.213377  1
  Sc  Sc54  1  0.061256  0.250000  0.970012  1
  Sc  Sc55  1  0.565909  0.935651  0.395343  1
  In  In56  1  0.750000  0.250000  0.907495  1
  In  In57  1  0.250000  0.750000  0.092505  1
  In  In58  1  0.250000  0.750000  0.407495  1
  In  In59  1  0.250000  0.086642  0.855242  1
  In  In60  1  0.913358  0.750000  0.644758  1
  In  In61  1  0.413358  0.250000  0.355242  1
  In  In62  1  0.750000  0.250000  0.592505  1
  In  In63  1  0.086642  0.250000  0.355242  1
  In  In64  1  0.250000  0.413358  0.855242  1
  In  In65  1  0.750000  0.586642  0.144758  1
  In  In66  1  0.586642  0.750000  0.644758  1
  In  In67  1  0.750000  0.913358  0.144758  1
  Co  Co68  1  0.750000  0.470326  0.811478  1
  Co  Co69  1  0.250000  0.250000  0.051861  1
  Co  Co70  1  0.029674  0.750000  0.311478  1
  Co  Co71  1  0.250000  0.529674  0.188522  1
  Co  Co72  1  0.750000  0.029674  0.811478  1
  Co  Co73  1  0.470326  0.750000  0.311478  1
  Co  Co74  1  0.250000  0.250000  0.551861  1
  Co  Co75  1  0.250000  0.970326  0.188522  1
  Co  Co76  1  0.529674  0.250000  0.688522  1
  Co  Co77  1  0.750000  0.750000  0.448139  1
  Co  Co78  1  0.970326  0.250000  0.688522  1
  Co  Co79  1  0.750000  0.750000  0.948139  1
