# generated using pymatgen
data_Li2Al(Ru2W)3
_symmetry_space_group_name_H-M   'P 1'
_cell_length_a   4.30425400
_cell_length_b   6.09798100
_cell_length_c   12.86707500
_cell_angle_alpha   89.99994509
_cell_angle_beta   89.99816421
_cell_angle_gamma   89.99997729
_symmetry_Int_Tables_number   1
_chemical_formula_structural   Li2Al(Ru2W)3
_chemical_formula_sum   'Li4 Al2 Ru12 W6'
_cell_volume   337.72545144
_cell_formula_units_Z   2
loop_
 _symmetry_equiv_pos_site_id
 _symmetry_equiv_pos_as_xyz
  1  'x, y, z'
loop_
 _atom_site_type_symbol
 _atom_site_label
 _atom_site_symmetry_multiplicity
 _atom_site_fract_x
 _atom_site_fract_y
 _atom_site_fract_z
 _atom_site_occupancy
  Li  Li0  1  0.999628  0.999999  0.333754  1
  Li  Li1  1  0.499984  0.500001  0.499996  1
  Li  Li2  1  0.000356  0.999999  0.666682  1
  Li  Li3  1  0.500346  0.500000  0.832909  1
  Al  Al4  1  0.999988  0.000000  0.998665  1
  Al  Al5  1  0.499774  0.499999  0.167998  1
  Ru  Ru6  1  0.499996  0.250715  0.000063  1
  Ru  Ru7  1  0.499997  0.749285  0.000063  1
  Ru  Ru8  1  0.999776  0.249294  0.166612  1
  Ru  Ru9  1  0.999776  0.750705  0.166612  1
  Ru  Ru10  1  0.499752  0.248908  0.333830  1
  Ru  Ru11  1  0.499752  0.751091  0.333830  1
  Ru  Ru12  1  0.999988  0.248553  0.499547  1
  Ru  Ru13  1  0.999989  0.751447  0.499547  1
  Ru  Ru14  1  0.500231  0.251432  0.667109  1
  Ru  Ru15  1  0.500232  0.748568  0.667108  1
  Ru  Ru16  1  0.000241  0.251095  0.832837  1
  Ru  Ru17  1  0.000242  0.748906  0.832836  1
  W  W18  1  0.999992  0.500001  0.995798  1
  W  W19  1  0.499778  0.999999  0.170870  1
  W  W20  1  0.999776  0.500002  0.339102  1
  W  W21  1  0.500001  0.999998  0.503578  1
  W  W22  1  0.000190  0.500002  0.663089  1
  W  W23  1  0.500217  0.999998  0.827566  1
