# generated using pymatgen
data_BaDyNi12P5
_symmetry_space_group_name_H-M   'P 1'
_cell_length_a   3.65937800
_cell_length_b   10.86238984
_cell_length_c   13.33411807
_cell_angle_alpha   71.72609834
_cell_angle_beta   90.00000000
_cell_angle_gamma   90.00000000
_symmetry_Int_Tables_number   1
_chemical_formula_structural   BaDyNi12P5
_chemical_formula_sum   'Ba2 Dy2 Ni24 P10'
_cell_volume   503.29568801
_cell_formula_units_Z   2
loop_
 _symmetry_equiv_pos_site_id
 _symmetry_equiv_pos_as_xyz
  1  'x, y, z'
loop_
 _atom_site_type_symbol
 _atom_site_label
 _atom_site_symmetry_multiplicity
 _atom_site_fract_x
 _atom_site_fract_y
 _atom_site_fract_z
 _atom_site_occupancy
  Ba  Ba0  1  0.250000  0.746611  0.188406  1
  Ba  Ba1  1  0.750000  0.253389  0.811594  1
  Dy  Dy2  1  0.250000  0.782523  0.679903  1
  Dy  Dy3  1  0.750000  0.217477  0.320097  1
  Ni  Ni4  1  0.250000  0.567384  0.015480  1
  Ni  Ni5  1  0.250000  0.563384  0.448648  1
  Ni  Ni6  1  0.750000  0.498070  0.344307  1
  Ni  Ni7  1  0.250000  0.501930  0.655693  1
  Ni  Ni8  1  0.750000  0.500290  0.153169  1
  Ni  Ni9  1  0.250000  0.499710  0.846831  1
  Ni  Ni10  1  0.750000  0.436616  0.551352  1
  Ni  Ni11  1  0.250000  0.336063  0.142496  1
  Ni  Ni12  1  0.750000  0.664007  0.563728  1
  Ni  Ni13  1  0.250000  0.335993  0.436272  1
  Ni  Ni14  1  0.750000  0.911994  0.306841  1
  Ni  Ni15  1  0.250000  0.088006  0.693159  1
  Ni  Ni16  1  0.750000  0.920138  0.986392  1
  Ni  Ni17  1  0.250000  0.079862  0.013608  1
  Ni  Ni18  1  0.750000  0.919997  0.493369  1
  Ni  Ni19  1  0.250000  0.080003  0.506631  1
  Ni  Ni20  1  0.750000  0.928693  0.793924  1
  Ni  Ni21  1  0.250000  0.071307  0.206076  1
  Ni  Ni22  1  0.250000  0.788113  0.442394  1
  Ni  Ni23  1  0.750000  0.211887  0.557606  1
  Ni  Ni24  1  0.250000  0.793833  0.912944  1
  Ni  Ni25  1  0.750000  0.206167  0.087056  1
  Ni  Ni26  1  0.750000  0.663937  0.857504  1
  Ni  Ni27  1  0.750000  0.432616  0.984520  1
  P  P28  1  0.250000  0.002255  0.872512  1
  P  P29  1  0.750000  0.997745  0.127488  1
  P  P30  1  0.250000  0.305483  0.988339  1
  P  P31  1  0.750000  0.694517  0.011661  1
  P  P32  1  0.250000  0.440265  0.263015  1
  P  P33  1  0.750000  0.559735  0.736985  1
  P  P34  1  0.250000  0.996522  0.377937  1
  P  P35  1  0.750000  0.003478  0.622063  1
  P  P36  1  0.250000  0.312563  0.605532  1
  P  P37  1  0.750000  0.687437  0.394468  1
