# generated using pymatgen
data_DyHo4Lu3(P3Ir4)4
_symmetry_space_group_name_H-M   'P 1'
_cell_length_a   12.93287700
_cell_length_b   12.93287673
_cell_length_c   3.98923800
_cell_angle_alpha   90.00000000
_cell_angle_beta   90.00000000
_cell_angle_gamma   119.99999814
_symmetry_Int_Tables_number   1
_chemical_formula_structural   DyHo4Lu3(P3Ir4)4
_chemical_formula_sum   'Dy1 Ho4 Lu3 P12 Ir16'
_cell_volume   577.84435150
_cell_formula_units_Z   1
loop_
 _symmetry_equiv_pos_site_id
 _symmetry_equiv_pos_as_xyz
  1  'x, y, z'
loop_
 _atom_site_type_symbol
 _atom_site_label
 _atom_site_symmetry_multiplicity
 _atom_site_fract_x
 _atom_site_fract_y
 _atom_site_fract_z
 _atom_site_occupancy
  Dy  Dy0  1  0.666667  0.333333  0.500000  1
  Ho  Ho1  1  0.333333  0.666667  0.500000  1
  Ho  Ho2  1  0.999997  0.814284  0.000000  1
  Ho  Ho3  1  0.185716  0.185713  0.000000  1
  Ho  Ho4  1  0.814287  0.000003  0.000000  1
  Lu  Lu5  1  0.000025  0.446634  0.500000  1
  Lu  Lu6  1  0.553366  0.553391  0.500000  1
  Lu  Lu7  1  0.446609  0.999975  0.500000  1
  P  P8  1  0.999982  0.651888  0.500000  1
  P  P9  1  0.348112  0.348094  0.500000  1
  P  P10  1  0.651906  0.000018  0.500000  1
  P  P11  1  0.516479  0.687669  0.000000  1
  P  P12  1  0.312331  0.828812  0.000000  1
  P  P13  1  0.171188  0.483521  0.000000  1
  P  P14  1  0.483387  0.171068  0.000000  1
  P  P15  1  0.687682  0.516613  0.000000  1
  P  P16  1  0.828932  0.312318  0.000000  1
  P  P17  1  0.000001  0.176613  0.500000  1
  P  P18  1  0.823387  0.823388  0.500000  1
  P  P19  1  0.176612  0.999999  0.500000  1
  Ir  Ir20  1  0.509370  0.866077  0.000000  1
  Ir  Ir21  1  0.133923  0.643294  0.000000  1
  Ir  Ir22  1  0.356706  0.490630  0.000000  1
  Ir  Ir23  1  0.490448  0.356745  0.000000  1
  Ir  Ir24  1  0.866297  0.509552  0.000000  1
  Ir  Ir25  1  0.643255  0.133703  0.000000  1
  Ir  Ir26  1  0.000006  0.276057  0.000000  1
  Ir  Ir27  1  0.723943  0.723949  0.000000  1
  Ir  Ir28  1  0.276051  0.999994  0.000000  1
  Ir  Ir29  1  0.629704  0.808316  0.500000  1
  Ir  Ir30  1  0.191684  0.821388  0.500000  1
  Ir  Ir31  1  0.178612  0.370296  0.500000  1
  Ir  Ir32  1  0.370257  0.178585  0.500000  1
  Ir  Ir33  1  0.808328  0.629743  0.500000  1
  Ir  Ir34  1  0.821415  0.191672  0.500000  1
  Ir  Ir35  1  0.000000  0.000000  0.500000  1
