# generated using pymatgen
data_NdDy7Cd2IrPt
_symmetry_space_group_name_H-M   'P 1'
_cell_length_a   9.69880287
_cell_length_b   9.69879891
_cell_length_c   9.67013749
_cell_angle_alpha   60.05849157
_cell_angle_beta   60.05841666
_cell_angle_gamma   60.18752203
_symmetry_Int_Tables_number   1
_chemical_formula_structural   NdDy7Cd2IrPt
_chemical_formula_sum   'Nd2 Dy14 Cd4 Ir2 Pt2'
_cell_volume   644.68813927
_cell_formula_units_Z   2
loop_
 _symmetry_equiv_pos_site_id
 _symmetry_equiv_pos_as_xyz
  1  'x, y, z'
loop_
 _atom_site_type_symbol
 _atom_site_label
 _atom_site_symmetry_multiplicity
 _atom_site_fract_x
 _atom_site_fract_y
 _atom_site_fract_z
 _atom_site_occupancy
  Nd  Nd0  1  0.565938  0.565939  0.935201  1
  Nd  Nd1  1  0.935317  0.935322  0.563326  1
  Dy  Dy2  1  0.349261  0.349263  0.345921  1
  Dy  Dy3  1  0.351082  0.351080  0.953046  1
  Dy  Dy4  1  0.356389  0.943022  0.351944  1
  Dy  Dy5  1  0.943023  0.356388  0.351945  1
  Dy  Dy6  1  0.807239  0.191879  0.187668  1
  Dy  Dy7  1  0.189108  0.808263  0.813350  1
  Dy  Dy8  1  0.191876  0.807240  0.187668  1
  Dy  Dy9  1  0.808265  0.189110  0.813353  1
  Dy  Dy10  1  0.190383  0.190379  0.810470  1
  Dy  Dy11  1  0.812124  0.812126  0.183723  1
  Dy  Dy12  1  0.940687  0.562649  0.558869  1
  Dy  Dy13  1  0.560424  0.941209  0.939485  1
  Dy  Dy14  1  0.562645  0.940686  0.558867  1
  Dy  Dy15  1  0.941208  0.560426  0.939482  1
  Cd  Cd16  1  0.581960  0.581956  0.577698  1
  Cd  Cd17  1  0.581439  0.581436  0.256508  1
  Cd  Cd18  1  0.577573  0.257202  0.582481  1
  Cd  Cd19  1  0.257203  0.577573  0.582480  1
  Ir  Ir20  1  0.137472  0.573829  0.144989  1
  Ir  Ir21  1  0.573828  0.137473  0.144992  1
  Pt  Pt22  1  0.143117  0.143118  0.144248  1
  Pt  Pt23  1  0.142439  0.142434  0.572284  1
