# generated using pymatgen
data_Ti2BeB2Ru5
_symmetry_space_group_name_H-M   'P 1'
_cell_length_a   9.03819300
_cell_length_b   9.03819300
_cell_length_c   2.96601800
_cell_angle_alpha   90.00000000
_cell_angle_beta   90.00000000
_cell_angle_gamma   90.00000000
_symmetry_Int_Tables_number   1
_chemical_formula_structural   Ti2BeB2Ru5
_chemical_formula_sum   'Ti4 Be2 B4 Ru10'
_cell_volume   242.29084480
_cell_formula_units_Z   2
loop_
 _symmetry_equiv_pos_site_id
 _symmetry_equiv_pos_as_xyz
  1  'x, y, z'
loop_
 _atom_site_type_symbol
 _atom_site_label
 _atom_site_symmetry_multiplicity
 _atom_site_fract_x
 _atom_site_fract_y
 _atom_site_fract_z
 _atom_site_occupancy
  Ti  Ti0  1  0.825801  0.674199  0.000000  1
  Ti  Ti1  1  0.174199  0.325801  0.000000  1
  Ti  Ti2  1  0.325801  0.825801  0.000000  1
  Ti  Ti3  1  0.674199  0.174199  0.000000  1
  Be  Be4  1  0.500000  0.500000  0.000000  1
  Be  Be5  1  0.000000  0.000000  0.000000  1
  B  B6  1  0.629487  0.870513  0.000000  1
  B  B7  1  0.370513  0.129487  0.000000  1
  B  B8  1  0.129487  0.629487  0.000000  1
  B  B9  1  0.870513  0.370513  0.000000  1
  Ru  Ru10  1  0.572658  0.705200  0.500000  1
  Ru  Ru11  1  0.427342  0.294800  0.500000  1
  Ru  Ru12  1  0.072658  0.794800  0.500000  1
  Ru  Ru13  1  0.927342  0.205200  0.500000  1
  Ru  Ru14  1  0.294800  0.572658  0.500000  1
  Ru  Ru15  1  0.705200  0.427342  0.500000  1
  Ru  Ru16  1  0.205200  0.072658  0.500000  1
  Ru  Ru17  1  0.794800  0.927342  0.500000  1
  Ru  Ru18  1  0.500000  0.000000  0.500000  1
  Ru  Ru19  1  0.000000  0.500000  0.500000  1
