# generated using pymatgen
data_LuBi3IrRh3O14
_symmetry_space_group_name_H-M   'P 1'
_cell_length_a   7.28456776
_cell_length_b   7.28456774
_cell_length_c   7.26829890
_cell_angle_alpha   60.36781308
_cell_angle_beta   60.36781300
_cell_angle_gamma   60.30711980
_symmetry_Int_Tables_number   1
_chemical_formula_structural   LuBi3IrRh3O14
_chemical_formula_sum   'Lu1 Bi3 Ir1 Rh3 O14'
_cell_volume   274.86951510
_cell_formula_units_Z   1
loop_
 _symmetry_equiv_pos_site_id
 _symmetry_equiv_pos_as_xyz
  1  'x, y, z'
loop_
 _atom_site_type_symbol
 _atom_site_label
 _atom_site_symmetry_multiplicity
 _atom_site_fract_x
 _atom_site_fract_y
 _atom_site_fract_z
 _atom_site_occupancy
  Lu  Lu0  1  0.125000  0.125000  0.125000  1
  Bi  Bi1  1  0.125000  0.625000  0.125000  1
  Bi  Bi2  1  0.625000  0.125000  0.125000  1
  Bi  Bi3  1  0.125000  0.125000  0.625000  1
  Ir  Ir4  1  0.625000  0.625000  0.125000  1
  Rh  Rh5  1  0.625000  0.625000  0.625000  1
  Rh  Rh6  1  0.125000  0.625000  0.625000  1
  Rh  Rh7  1  0.625000  0.125000  0.625000  1
  O  O8  1  0.245964  0.245964  0.243342  1
  O  O9  1  0.292147  0.718580  0.286932  1
  O  O10  1  0.962537  0.962537  0.527664  1
  O  O11  1  0.542722  0.959199  0.539353  1
  O  O12  1  0.706431  0.706431  0.290405  1
  O  O13  1  0.959199  0.542722  0.539353  1
  O  O14  1  0.707278  0.290801  0.710647  1
  O  O15  1  0.287463  0.287463  0.722336  1
  O  O16  1  0.718580  0.292147  0.286932  1
  O  O17  1  0.290801  0.707278  0.710647  1
  O  O18  1  0.957853  0.531420  0.963068  1
  O  O19  1  0.543569  0.543569  0.959595  1
  O  O20  1  0.004036  0.004036  0.006658  1
  O  O21  1  0.531420  0.957853  0.963068  1
