# generated using pymatgen
data_Ho11Tm9CoBi8Rh3
_symmetry_space_group_name_H-M   'P 1'
_cell_length_a   7.92817842
_cell_length_b   8.95462500
_cell_length_c   12.38360809
_cell_angle_alpha   90.00000000
_cell_angle_beta   89.86457322
_cell_angle_gamma   90.00000000
_symmetry_Int_Tables_number   1
_chemical_formula_structural   Ho11Tm9CoBi8Rh3
_chemical_formula_sum   'Ho11 Tm9 Co1 Bi8 Rh3'
_cell_volume   879.15774047
_cell_formula_units_Z   1
loop_
 _symmetry_equiv_pos_site_id
 _symmetry_equiv_pos_as_xyz
  1  'x, y, z'
loop_
 _atom_site_type_symbol
 _atom_site_label
 _atom_site_symmetry_multiplicity
 _atom_site_fract_x
 _atom_site_fract_y
 _atom_site_fract_z
 _atom_site_occupancy
  Ho  Ho0  1  0.346453  0.750000  0.699751  1
  Ho  Ho1  1  0.842996  0.250000  0.793361  1
  Ho  Ho2  1  0.156912  0.750000  0.206360  1
  Ho  Ho3  1  0.879484  0.750000  0.806689  1
  Ho  Ho4  1  0.121117  0.250000  0.192932  1
  Ho  Ho5  1  0.378562  0.250000  0.693191  1
  Ho  Ho6  1  0.615051  0.750000  0.312486  1
  Ho  Ho7  1  0.052530  0.750000  0.498713  1
  Ho  Ho8  1  0.948808  0.250000  0.501245  1
  Ho  Ho9  1  0.548059  0.250000  0.001089  1
  Ho  Ho10  1  0.450262  0.750000  0.998017  1
  Tm  Tm11  1  0.656785  0.250000  0.294198  1
  Tm  Tm12  1  0.674748  0.545832  0.563664  1
  Tm  Tm13  1  0.326495  0.465094  0.436715  1
  Tm  Tm14  1  0.175833  0.456772  0.934614  1
  Tm  Tm15  1  0.326495  0.034906  0.436715  1
  Tm  Tm16  1  0.823399  0.542174  0.065378  1
  Tm  Tm17  1  0.674748  0.954168  0.563664  1
  Tm  Tm18  1  0.823399  0.957826  0.065378  1
  Tm  Tm19  1  0.175833  0.043228  0.934614  1
  Co  Co20  1  0.432617  0.750000  0.491929  1
  Bi  Bi21  1  0.570194  0.509807  0.826250  1
  Bi  Bi22  1  0.430420  0.490471  0.173956  1
  Bi  Bi23  1  0.071136  0.490400  0.672646  1
  Bi  Bi24  1  0.430420  0.009529  0.173956  1
  Bi  Bi25  1  0.928707  0.509646  0.327379  1
  Bi  Bi26  1  0.570194  0.990193  0.826250  1
  Bi  Bi27  1  0.928707  0.990354  0.327379  1
  Bi  Bi28  1  0.071136  0.009600  0.672646  1
  Rh  Rh29  1  0.070323  0.750000  0.990647  1
  Rh  Rh30  1  0.928144  0.250000  0.009986  1
  Rh  Rh31  1  0.570033  0.250000  0.508203  1
