# generated using pymatgen
data_Dy2Er3Sn4
_symmetry_space_group_name_H-M   'P 1'
_cell_length_a   8.00351600
_cell_length_b   8.14382400
_cell_length_c   15.39506100
_cell_angle_alpha   90.00000000
_cell_angle_beta   90.00000000
_cell_angle_gamma   90.00000000
_symmetry_Int_Tables_number   1
_chemical_formula_structural   Dy2Er3Sn4
_chemical_formula_sum   'Dy8 Er12 Sn16'
_cell_volume   1003.43815536
_cell_formula_units_Z   4
loop_
 _symmetry_equiv_pos_site_id
 _symmetry_equiv_pos_as_xyz
  1  'x, y, z'
loop_
 _atom_site_type_symbol
 _atom_site_label
 _atom_site_symmetry_multiplicity
 _atom_site_fract_x
 _atom_site_fract_y
 _atom_site_fract_z
 _atom_site_occupancy
  Dy  Dy0  1  0.521587  0.320025  0.902437  1
  Dy  Dy1  1  0.021587  0.179975  0.597563  1
  Dy  Dy2  1  0.478413  0.679975  0.402437  1
  Dy  Dy3  1  0.978413  0.820025  0.097563  1
  Dy  Dy4  1  0.478413  0.679975  0.097563  1
  Dy  Dy5  1  0.978413  0.820025  0.402437  1
  Dy  Dy6  1  0.521587  0.320025  0.597563  1
  Dy  Dy7  1  0.021587  0.179975  0.902437  1
  Er  Er8  1  0.367762  0.835868  0.878039  1
  Er  Er9  1  0.867762  0.664132  0.621961  1
  Er  Er10  1  0.632238  0.164132  0.378039  1
  Er  Er11  1  0.132238  0.335868  0.121961  1
  Er  Er12  1  0.632238  0.164132  0.121961  1
  Er  Er13  1  0.132238  0.335868  0.378039  1
  Er  Er14  1  0.367762  0.835868  0.621961  1
  Er  Er15  1  0.867762  0.664132  0.878039  1
  Er  Er16  1  0.197869  0.503372  0.750000  1
  Er  Er17  1  0.697869  0.996628  0.750000  1
  Er  Er18  1  0.802131  0.496628  0.250000  1
  Er  Er19  1  0.302131  0.003372  0.250000  1
  Sn  Sn20  1  0.292727  0.035177  0.041875  1
  Sn  Sn21  1  0.792727  0.464823  0.458125  1
  Sn  Sn22  1  0.707273  0.964823  0.541875  1
  Sn  Sn23  1  0.207273  0.535177  0.958125  1
  Sn  Sn24  1  0.707273  0.964823  0.958125  1
  Sn  Sn25  1  0.207273  0.535177  0.541875  1
  Sn  Sn26  1  0.292727  0.035177  0.458125  1
  Sn  Sn27  1  0.792727  0.464823  0.041875  1
  Sn  Sn28  1  0.564926  0.620063  0.750000  1
  Sn  Sn29  1  0.064926  0.879937  0.750000  1
  Sn  Sn30  1  0.435074  0.379937  0.250000  1
  Sn  Sn31  1  0.935074  0.120063  0.250000  1
  Sn  Sn32  1  0.329697  0.146703  0.750000  1
  Sn  Sn33  1  0.829697  0.353297  0.750000  1
  Sn  Sn34  1  0.670303  0.853297  0.250000  1
  Sn  Sn35  1  0.170303  0.646703  0.250000  1
