# generated using pymatgen
data_Sm10Bi3Pb3Cl2
_symmetry_space_group_name_H-M   'P 1'
_cell_length_a   9.47107790
_cell_length_b   9.43989194
_cell_length_c   6.64851100
_cell_angle_alpha   90.00000000
_cell_angle_beta   90.00000000
_cell_angle_gamma   120.22937338
_symmetry_Int_Tables_number   1
_chemical_formula_structural   Sm10Bi3Pb3Cl2
_chemical_formula_sum   'Sm10 Bi3 Pb3 Cl2'
_cell_volume   513.58580855
_cell_formula_units_Z   1
loop_
 _symmetry_equiv_pos_site_id
 _symmetry_equiv_pos_as_xyz
  1  'x, y, z'
loop_
 _atom_site_type_symbol
 _atom_site_label
 _atom_site_symmetry_multiplicity
 _atom_site_fract_x
 _atom_site_fract_y
 _atom_site_fract_z
 _atom_site_occupancy
  Sm  Sm0  1  0.262806  0.996913  0.750000  1
  Sm  Sm1  1  0.735673  0.000426  0.250000  1
  Sm  Sm2  1  0.997174  0.262176  0.750000  1
  Sm  Sm3  1  0.002661  0.738927  0.250000  1
  Sm  Sm4  1  0.738680  0.738416  0.750000  1
  Sm  Sm5  1  0.262842  0.260601  0.250000  1
  Sm  Sm6  1  0.333228  0.668398  0.500029  1
  Sm  Sm7  1  0.666695  0.331896  0.500087  1
  Sm  Sm8  1  0.666695  0.331896  0.999913  1
  Sm  Sm9  1  0.333228  0.668398  0.999971  1
  Bi  Bi10  1  0.000456  0.386942  0.250000  1
  Bi  Bi11  1  0.385852  0.385776  0.750000  1
  Bi  Bi12  1  0.614309  0.613882  0.250000  1
  Pb  Pb13  1  0.613004  0.999320  0.750000  1
  Pb  Pb14  1  0.387339  0.000041  0.250000  1
  Pb  Pb15  1  0.999372  0.613151  0.750000  1
  Cl  Cl16  1  0.999993  0.001421  0.499423  1
  Cl  Cl17  1  0.999993  0.001421  0.000577  1
