# generated using pymatgen
data_SmRuF7
_symmetry_space_group_name_H-M   'P 1'
_cell_length_a   5.58460100
_cell_length_b   9.12057220
_cell_length_c   12.16488342
_cell_angle_alpha   62.57605969
_cell_angle_beta   90.00000000
_cell_angle_gamma   90.00000000
_symmetry_Int_Tables_number   1
_chemical_formula_structural   SmRuF7
_chemical_formula_sum   'Sm4 Ru4 F28'
_cell_volume   549.98487068
_cell_formula_units_Z   4
loop_
 _symmetry_equiv_pos_site_id
 _symmetry_equiv_pos_as_xyz
  1  'x, y, z'
loop_
 _atom_site_type_symbol
 _atom_site_label
 _atom_site_symmetry_multiplicity
 _atom_site_fract_x
 _atom_site_fract_y
 _atom_site_fract_z
 _atom_site_occupancy
  Sm  Sm0  1  0.759024  0.810253  0.767066  1
  Sm  Sm1  1  0.259024  0.189747  0.732934  1
  Sm  Sm2  1  0.240976  0.189747  0.232934  1
  Sm  Sm3  1  0.740976  0.810253  0.267066  1
  Ru  Ru4  1  0.755456  0.273459  0.956380  1
  Ru  Ru5  1  0.255456  0.726541  0.543620  1
  Ru  Ru6  1  0.244544  0.726541  0.043620  1
  Ru  Ru7  1  0.744544  0.273459  0.456380  1
  F  F8  1  0.438703  0.707240  0.916302  1
  F  F9  1  0.938703  0.292760  0.583698  1
  F  F10  1  0.561297  0.292760  0.083698  1
  F  F11  1  0.061297  0.707240  0.416302  1
  F  F12  1  0.448676  0.280639  0.542988  1
  F  F13  1  0.948676  0.719361  0.957012  1
  F  F14  1  0.551324  0.719361  0.457012  1
  F  F15  1  0.051324  0.280639  0.042988  1
  F  F16  1  0.767518  0.509479  0.862659  1
  F  F17  1  0.267518  0.490521  0.637341  1
  F  F18  1  0.232482  0.490521  0.137341  1
  F  F19  1  0.732482  0.509479  0.362659  1
  F  F20  1  0.757051  0.038196  0.048035  1
  F  F21  1  0.257051  0.961804  0.451965  1
  F  F22  1  0.242949  0.961804  0.951965  1
  F  F23  1  0.742949  0.038196  0.548035  1
  F  F24  1  0.966166  0.729571  0.634840  1
  F  F25  1  0.466166  0.270429  0.865160  1
  F  F26  1  0.033834  0.270429  0.365160  1
  F  F27  1  0.533834  0.729571  0.134840  1
  F  F28  1  0.052595  0.745364  0.172608  1
  F  F29  1  0.552595  0.254636  0.327392  1
  F  F30  1  0.947405  0.254636  0.827392  1
  F  F31  1  0.447405  0.745364  0.672608  1
  F  F32  1  0.411791  0.969866  0.230815  1
  F  F33  1  0.911791  0.030134  0.269185  1
  F  F34  1  0.588209  0.030134  0.769185  1
  F  F35  1  0.088209  0.969866  0.730815  1
