# generated using pymatgen
data_Ho5ErScRhO12
_symmetry_space_group_name_H-M   'P 1'
_cell_length_a   6.54149436
_cell_length_b   6.54282778
_cell_length_c   6.54283817
_cell_angle_alpha   93.44320763
_cell_angle_beta   93.43716902
_cell_angle_gamma   93.42340686
_symmetry_Int_Tables_number   1
_chemical_formula_structural   Ho5ErScRhO12
_chemical_formula_sum   'Ho5 Er1 Sc1 Rh1 O12'
_cell_volume   278.46039832
_cell_formula_units_Z   1
loop_
 _symmetry_equiv_pos_site_id
 _symmetry_equiv_pos_as_xyz
  1  'x, y, z'
loop_
 _atom_site_type_symbol
 _atom_site_label
 _atom_site_symmetry_multiplicity
 _atom_site_fract_x
 _atom_site_fract_y
 _atom_site_fract_z
 _atom_site_occupancy
  Ho  Ho0  1  0.921795  0.432967  0.741973  1
  Ho  Ho1  1  0.433055  0.742042  0.921896  1
  Ho  Ho2  1  0.257957  0.078104  0.566952  1
  Ho  Ho3  1  0.078058  0.567091  0.257975  1
  Ho  Ho4  1  0.567065  0.257905  0.078233  1
  Er  Er5  1  0.742261  0.921815  0.433034  1
  Sc  Sc6  1  0.999917  0.999971  0.000046  1
  Rh  Rh7  1  0.500125  0.500032  0.499999  1
  O  O8  1  0.589989  0.460430  0.805989  1
  O  O9  1  0.461212  0.806250  0.589555  1
  O  O10  1  0.805764  0.591007  0.460374  1
  O  O11  1  0.409982  0.539579  0.194015  1
  O  O12  1  0.540070  0.193407  0.410017  1
  O  O13  1  0.194006  0.409978  0.539609  1
  O  O14  1  0.067871  0.916124  0.309292  1
  O  O15  1  0.916094  0.309061  0.068484  1
  O  O16  1  0.690973  0.931363  0.084769  1
  O  O17  1  0.083953  0.690942  0.931472  1
  O  O18  1  0.930821  0.083405  0.690267  1
  O  O19  1  0.309033  0.068526  0.916048  1
