# generated using pymatgen
data_Ti6CuSn5Rh12
_symmetry_space_group_name_H-M   'P 1'
_cell_length_a   4.14244900
_cell_length_b   7.27854100
_cell_length_c   12.43763100
_cell_angle_alpha   90.00000000
_cell_angle_beta   89.99983386
_cell_angle_gamma   90.00000000
_symmetry_Int_Tables_number   1
_chemical_formula_structural   Ti6CuSn5Rh12
_chemical_formula_sum   'Ti6 Cu1 Sn5 Rh12'
_cell_volume   375.00682432
_cell_formula_units_Z   1
loop_
 _symmetry_equiv_pos_site_id
 _symmetry_equiv_pos_as_xyz
  1  'x, y, z'
loop_
 _atom_site_type_symbol
 _atom_site_label
 _atom_site_symmetry_multiplicity
 _atom_site_fract_x
 _atom_site_fract_y
 _atom_site_fract_z
 _atom_site_occupancy
  Ti  Ti0  1  0.000000  0.499999  0.000000  1
  Ti  Ti1  1  0.500005  0.000000  0.150173  1
  Ti  Ti2  1  0.000004  0.499999  0.331111  1
  Ti  Ti3  1  0.499999  0.000000  0.500000  1
  Ti  Ti4  1  0.999996  0.499999  0.668889  1
  Ti  Ti5  1  0.499993  0.000000  0.849828  1
  Cu  Cu6  1  0.000000  0.000000  0.000000  1
  Sn  Sn7  1  0.500016  0.499999  0.166403  1
  Sn  Sn8  1  0.000031  0.000000  0.328433  1
  Sn  Sn9  1  0.499999  0.499999  0.500000  1
  Sn  Sn10  1  0.999969  0.000000  0.671566  1
  Sn  Sn11  1  0.499985  0.499999  0.833597  1
  Rh  Rh12  1  0.499999  0.247005  0.000000  1
  Rh  Rh13  1  0.499999  0.752995  0.000000  1
  Rh  Rh14  1  0.000004  0.248142  0.163301  1
  Rh  Rh15  1  0.000004  0.751858  0.163301  1
  Rh  Rh16  1  0.500002  0.249590  0.333173  1
  Rh  Rh17  1  0.500002  0.750410  0.333173  1
  Rh  Rh18  1  0.000000  0.247852  0.500000  1
  Rh  Rh19  1  0.000000  0.752148  0.500000  1
  Rh  Rh20  1  0.499996  0.249590  0.666826  1
  Rh  Rh21  1  0.499996  0.750410  0.666826  1
  Rh  Rh22  1  0.999996  0.248142  0.836699  1
  Rh  Rh23  1  0.999996  0.751858  0.836699  1
