# generated using pymatgen
data_Hf18TiV(Re3As)2
_symmetry_space_group_name_H-M   'P 1'
_cell_length_a   8.67722447
_cell_length_b   8.67722567
_cell_length_c   8.55478874
_cell_angle_alpha   89.96045818
_cell_angle_beta   90.03954680
_cell_angle_gamma   119.99208509
_symmetry_Int_Tables_number   1
_chemical_formula_structural   Hf18TiV(Re3As)2
_chemical_formula_sum   'Hf18 Ti1 V1 Re6 As2'
_cell_volume   557.87402374
_cell_formula_units_Z   1
loop_
 _symmetry_equiv_pos_site_id
 _symmetry_equiv_pos_as_xyz
  1  'x, y, z'
loop_
 _atom_site_type_symbol
 _atom_site_label
 _atom_site_symmetry_multiplicity
 _atom_site_fract_x
 _atom_site_fract_y
 _atom_site_fract_z
 _atom_site_occupancy
  Hf  Hf0  1  0.807907  0.615678  0.548070  1
  Hf  Hf1  1  0.807969  0.192031  0.548203  1
  Hf  Hf2  1  0.384322  0.192093  0.548070  1
  Hf  Hf3  1  0.192093  0.384322  0.451930  1
  Hf  Hf4  1  0.192031  0.807969  0.451797  1
  Hf  Hf5  1  0.615678  0.807907  0.451930  1
  Hf  Hf6  1  0.193710  0.387610  0.046872  1
  Hf  Hf7  1  0.193725  0.806275  0.046883  1
  Hf  Hf8  1  0.612390  0.806290  0.046872  1
  Hf  Hf9  1  0.806290  0.612390  0.953128  1
  Hf  Hf10  1  0.806275  0.193725  0.953117  1
  Hf  Hf11  1  0.387610  0.193710  0.953128  1
  Hf  Hf12  1  0.457863  0.915735  0.748851  1
  Hf  Hf13  1  0.457758  0.542242  0.748854  1
  Hf  Hf14  1  0.084265  0.542137  0.748851  1
  Hf  Hf15  1  0.542137  0.084265  0.251149  1
  Hf  Hf16  1  0.542242  0.457758  0.251146  1
  Hf  Hf17  1  0.915735  0.457863  0.251149  1
  Ti  Ti18  1  0.000000  0.000000  0.000000  1
  V  V19  1  0.000000  0.000000  0.500000  1
  Re  Re20  1  0.109711  0.219157  0.748349  1
  Re  Re21  1  0.109516  0.890484  0.748626  1
  Re  Re22  1  0.780843  0.890289  0.748349  1
  Re  Re23  1  0.890289  0.780843  0.251651  1
  Re  Re24  1  0.890484  0.109516  0.251374  1
  Re  Re25  1  0.219157  0.109711  0.251651  1
  As  As26  1  0.666682  0.333318  0.749125  1
  As  As27  1  0.333318  0.666682  0.250875  1
