# generated using pymatgen
data_Tm2Mn2Fe3(CoP)7
_symmetry_space_group_name_H-M   'P 1'
_cell_length_a   8.97377570
_cell_length_b   8.95923212
_cell_length_c   3.60183000
_cell_angle_alpha   90.00000000
_cell_angle_beta   90.00000000
_cell_angle_gamma   119.86920773
_symmetry_Int_Tables_number   1
_chemical_formula_structural   Tm2Mn2Fe3(CoP)7
_chemical_formula_sum   'Tm2 Mn2 Fe3 Co7 P7'
_cell_volume   251.11387657
_cell_formula_units_Z   1
loop_
 _symmetry_equiv_pos_site_id
 _symmetry_equiv_pos_as_xyz
  1  'x, y, z'
loop_
 _atom_site_type_symbol
 _atom_site_label
 _atom_site_symmetry_multiplicity
 _atom_site_fract_x
 _atom_site_fract_y
 _atom_site_fract_z
 _atom_site_occupancy
  Tm  Tm0  1  0.332135  0.667967  0.000000  1
  Tm  Tm1  1  0.999379  0.999527  0.500000  1
  Mn  Mn2  1  0.769576  0.207314  0.500000  1
  Mn  Mn3  1  0.440283  0.230648  0.500000  1
  Fe  Fe4  1  0.510072  0.058356  0.000000  1
  Fe  Fe5  1  0.546750  0.489950  0.000000  1
  Fe  Fe6  1  0.791712  0.556944  0.500000  1
  Co  Co7  1  0.727649  0.962009  0.000000  1
  Co  Co8  1  0.232996  0.270849  0.000000  1
  Co  Co9  1  0.037380  0.765783  0.000000  1
  Co  Co10  1  0.943525  0.452163  0.000000  1
  Co  Co11  1  0.105587  0.386696  0.500000  1
  Co  Co12  1  0.280301  0.895257  0.500000  1
  Co  Co13  1  0.617238  0.720394  0.500000  1
  P  P14  1  0.963847  0.220233  0.000000  1
  P  P15  1  0.254656  0.033275  0.000000  1
  P  P16  1  0.779993  0.742005  0.000000  1
  P  P17  1  0.067547  0.622090  0.500000  1
  P  P18  1  0.551621  0.931087  0.500000  1
  P  P19  1  0.378942  0.452824  0.500000  1
  P  P20  1  0.668815  0.334626  0.000000  1
