# generated using pymatgen
data_Li2Tm3ZnSi2Ag
_symmetry_space_group_name_H-M   'P 1'
_cell_length_a   7.03611500
_cell_length_b   6.98706438
_cell_length_c   4.15584200
_cell_angle_alpha   90.00000000
_cell_angle_beta   90.00000000
_cell_angle_gamma   120.23248527
_symmetry_Int_Tables_number   1
_chemical_formula_structural   Li2Tm3ZnSi2Ag
_chemical_formula_sum   'Li2 Tm3 Zn1 Si2 Ag1'
_cell_volume   176.52049950
_cell_formula_units_Z   1
loop_
 _symmetry_equiv_pos_site_id
 _symmetry_equiv_pos_as_xyz
  1  'x, y, z'
loop_
 _atom_site_type_symbol
 _atom_site_label
 _atom_site_symmetry_multiplicity
 _atom_site_fract_x
 _atom_site_fract_y
 _atom_site_fract_z
 _atom_site_occupancy
  Li  Li0  1  0.002242  0.243246  0.500000  1
  Li  Li1  1  0.758996  0.756754  0.500000  1
  Tm  Tm2  1  0.571078  0.000000  0.000000  1
  Tm  Tm3  1  0.995177  0.570572  0.000000  1
  Tm  Tm4  1  0.424605  0.429428  0.000000  1
  Zn  Zn5  1  0.251041  0.000000  0.500000  1
  Si  Si6  1  0.332175  0.669139  0.500000  1
  Si  Si7  1  0.663036  0.330861  0.500000  1
  Ag  Ag8  1  0.001648  0.000000  0.000000  1
