# generated using pymatgen
data_Ho10Er10Sn3Pb13
_symmetry_space_group_name_H-M   'P 1'
_cell_length_a   8.15482092
_cell_length_b   15.53383301
_cell_length_c   8.20047774
_cell_angle_alpha   90.00424488
_cell_angle_beta   89.88635688
_cell_angle_gamma   90.00005723
_symmetry_Int_Tables_number   1
_chemical_formula_structural   Ho10Er10Sn3Pb13
_chemical_formula_sum   'Ho10 Er10 Sn3 Pb13'
_cell_volume   1038.79860827
_cell_formula_units_Z   1
loop_
 _symmetry_equiv_pos_site_id
 _symmetry_equiv_pos_as_xyz
  1  'x, y, z'
loop_
 _atom_site_type_symbol
 _atom_site_label
 _atom_site_symmetry_multiplicity
 _atom_site_fract_x
 _atom_site_fract_y
 _atom_site_fract_z
 _atom_site_occupancy
  Ho  Ho0  1  0.620711  0.876837  0.161473  1
  Ho  Ho1  1  0.121467  0.622973  0.338271  1
  Ho  Ho2  1  0.462697  0.601521  0.672658  1
  Ho  Ho3  1  0.963102  0.898473  0.827695  1
  Ho  Ho4  1  0.537105  0.100793  0.327420  1
  Ho  Ho5  1  0.036755  0.400123  0.175897  1
  Ho  Ho6  1  0.537104  0.399246  0.327425  1
  Ho  Ho7  1  0.036757  0.099830  0.175895  1
  Ho  Ho8  1  0.462684  0.898461  0.672623  1
  Ho  Ho9  1  0.963089  0.601538  0.827722  1
  Er  Er10  1  0.620777  0.623204  0.161467  1
  Er  Er11  1  0.121531  0.876973  0.338275  1
  Er  Er12  1  0.381117  0.122267  0.838113  1
  Er  Er13  1  0.876693  0.378802  0.659308  1
  Er  Er14  1  0.381137  0.377716  0.838078  1
  Er  Er15  1  0.876696  0.121228  0.659363  1
  Er  Er16  1  0.788783  0.749999  0.492651  1
  Er  Er17  1  0.288456  0.750005  0.007340  1
  Er  Er18  1  0.212212  0.249992  0.505649  1
  Er  Er19  1  0.709122  0.250008  0.993309  1
  Sn  Sn20  1  0.425061  0.749984  0.376117  1
  Sn  Sn21  1  0.925245  0.750020  0.124549  1
  Sn  Sn22  1  0.575228  0.250003  0.623919  1
  Pb  Pb23  1  0.717900  0.458320  0.967888  1
  Pb  Pb24  1  0.218128  0.041656  0.532909  1
  Pb  Pb25  1  0.282479  0.957936  0.031898  1
  Pb  Pb26  1  0.781861  0.542344  0.466475  1
  Pb  Pb27  1  0.282718  0.542066  0.031779  1
  Pb  Pb28  1  0.782081  0.957664  0.466609  1
  Pb  Pb29  1  0.717956  0.041765  0.967765  1
  Pb  Pb30  1  0.218184  0.458253  0.533007  1
  Pb  Pb31  1  0.073285  0.250004  0.875272  1
  Pb  Pb32  1  0.652073  0.749960  0.847353  1
  Pb  Pb33  1  0.152263  0.750031  0.652826  1
  Pb  Pb34  1  0.349406  0.250007  0.153778  1
  Pb  Pb35  1  0.848145  0.249999  0.347224  1
