# generated using pymatgen
data_EuDy2Y(B6Ru)2
_symmetry_space_group_name_H-M   'P 1'
_cell_length_a   3.68882200
_cell_length_b   9.20139515
_cell_length_c   11.62039214
_cell_angle_alpha   89.90422187
_cell_angle_beta   90.00000000
_cell_angle_gamma   90.00000000
_symmetry_Int_Tables_number   1
_chemical_formula_structural   EuDy2Y(B6Ru)2
_chemical_formula_sum   'Eu2 Dy4 Y2 B24 Ru4'
_cell_volume   394.42238803
_cell_formula_units_Z   2
loop_
 _symmetry_equiv_pos_site_id
 _symmetry_equiv_pos_as_xyz
  1  'x, y, z'
loop_
 _atom_site_type_symbol
 _atom_site_label
 _atom_site_symmetry_multiplicity
 _atom_site_fract_x
 _atom_site_fract_y
 _atom_site_fract_z
 _atom_site_occupancy
  Eu  Eu0  1  0.000000  0.323611  0.414112  1
  Eu  Eu1  1  0.000000  0.676389  0.585888  1
  Dy  Dy2  1  0.000000  0.942752  0.369842  1
  Dy  Dy3  1  0.000000  0.057248  0.630158  1
  Dy  Dy4  1  0.000000  0.442920  0.129014  1
  Dy  Dy5  1  0.000000  0.557080  0.870986  1
  Y  Y6  1  0.000000  0.822676  0.085477  1
  Y  Y7  1  0.000000  0.177324  0.914523  1
  B  B8  1  0.500000  0.555531  0.430565  1
  B  B9  1  0.500000  0.444469  0.569435  1
  B  B10  1  0.500000  0.053796  0.066911  1
  B  B11  1  0.500000  0.946204  0.933089  1
  B  B12  1  0.500000  0.748428  0.416779  1
  B  B13  1  0.500000  0.251572  0.583221  1
  B  B14  1  0.500000  0.247456  0.080669  1
  B  B15  1  0.500000  0.752544  0.919331  1
  B  B16  1  0.500000  0.791132  0.264410  1
  B  B17  1  0.500000  0.208868  0.735590  1
  B  B18  1  0.500000  0.288952  0.232411  1
  B  B19  1  0.500000  0.711048  0.767589  1
  B  B20  1  0.500000  0.631932  0.184502  1
  B  B21  1  0.500000  0.368068  0.815498  1
  B  B22  1  0.500000  0.130299  0.313010  1
  B  B23  1  0.500000  0.869701  0.686990  1
  B  B24  1  0.500000  0.983563  0.211289  1
  B  B25  1  0.500000  0.016437  0.788711  1
  B  B26  1  0.500000  0.485680  0.286454  1
  B  B27  1  0.500000  0.514320  0.713546  1
  B  B28  1  0.500000  0.607356  0.029393  1
  B  B29  1  0.500000  0.392644  0.970607  1
  B  B30  1  0.500000  0.101102  0.472136  1
  B  B31  1  0.500000  0.898898  0.527864  1
  Ru  Ru32  1  0.000000  0.640789  0.317848  1
  Ru  Ru33  1  0.000000  0.359211  0.682152  1
  Ru  Ru34  1  0.000000  0.136468  0.177556  1
  Ru  Ru35  1  0.000000  0.863532  0.822444  1
