# generated using pymatgen
data_Nd(ThH5)3
_symmetry_space_group_name_H-M   'P 1'
_cell_length_a   7.89891440
_cell_length_b   7.90306347
_cell_length_c   7.89609910
_cell_angle_alpha   109.46951113
_cell_angle_beta   109.44820218
_cell_angle_gamma   109.52101200
_symmetry_Int_Tables_number   1
_chemical_formula_structural   Nd(ThH5)3
_chemical_formula_sum   'Nd2 Th6 H30'
_cell_volume   379.33160678
_cell_formula_units_Z   2
loop_
 _symmetry_equiv_pos_site_id
 _symmetry_equiv_pos_as_xyz
  1  'x, y, z'
loop_
 _atom_site_type_symbol
 _atom_site_label
 _atom_site_symmetry_multiplicity
 _atom_site_fract_x
 _atom_site_fract_y
 _atom_site_fract_z
 _atom_site_occupancy
  Nd  Nd0  1  0.916441  0.916852  0.917390  1
  Nd  Nd1  1  0.499051  0.999462  0.082610  1
  Th  Th2  1  0.997233  0.082691  0.498100  1
  Th  Th3  1  0.084896  0.501718  0.999978  1
  Th  Th4  1  0.999133  0.584591  0.501900  1
  Th  Th5  1  0.584919  0.501741  0.000022  1
  Th  Th6  1  0.501452  0.999391  0.585343  1
  Th  Th7  1  0.416109  0.414048  0.414657  1
  H  H8  1  0.655888  0.968344  0.377665  1
  H  H9  1  0.218610  0.315445  0.845783  1
  H  H10  1  0.185220  0.403844  0.532330  1
  H  H11  1  0.099576  0.287626  0.131235  1
  H  H12  1  0.284104  0.132626  0.099712  1
  H  H13  1  0.130823  0.099331  0.286591  1
  H  H14  1  0.468341  0.156391  0.868765  1
  H  H15  1  0.719354  0.347832  0.815540  1
  H  H16  1  0.628295  0.383192  0.253472  1
  H  H17  1  0.249373  0.625123  0.374306  1
  H  H18  1  0.752529  0.871433  0.131167  1
  H  H19  1  0.121363  0.740266  0.868833  1
  H  H20  1  0.375067  0.250817  0.625694  1
  H  H21  1  0.874823  0.129719  0.746528  1
  H  H22  1  0.778224  0.590679  0.622335  1
  H  H23  1  0.313115  0.843216  0.221761  1
  H  H24  1  0.371203  0.648923  0.967537  1
  H  H25  1  0.968649  0.371980  0.652882  1
  H  H26  1  0.532754  0.187947  0.409895  1
  H  H27  1  0.403814  0.532292  0.184460  1
  H  H28  1  0.850423  0.222425  0.319194  1
  H  H29  1  0.903667  0.681387  0.032463  1
  H  H30  1  0.815767  0.719099  0.347118  1
  H  H31  1  0.152890  0.871514  0.467670  1
  H  H32  1  0.684392  0.032914  0.900288  1
  H  H33  1  0.344232  0.812740  0.713409  1
  H  H34  1  0.872826  0.469662  0.154217  1
  H  H35  1  0.622859  0.778052  0.590105  1
  H  H36  1  0.591355  0.621455  0.778239  1
  H  H37  1  0.031229  0.903232  0.680806  1
