# generated using pymatgen
data_Nd(TiAu2)2
_symmetry_space_group_name_H-M   'P 1'
_cell_length_a   5.72796899
_cell_length_b   5.72796821
_cell_length_c   5.72796757
_cell_angle_alpha   102.33024578
_cell_angle_beta   102.33024482
_cell_angle_gamma   124.95323545
_symmetry_Int_Tables_number   1
_chemical_formula_structural   Nd(TiAu2)2
_chemical_formula_sum   'Nd1 Ti2 Au4'
_cell_volume   136.60008134
_cell_formula_units_Z   1
loop_
 _symmetry_equiv_pos_site_id
 _symmetry_equiv_pos_as_xyz
  1  'x, y, z'
loop_
 _atom_site_type_symbol
 _atom_site_label
 _atom_site_symmetry_multiplicity
 _atom_site_fract_x
 _atom_site_fract_y
 _atom_site_fract_z
 _atom_site_occupancy
  Nd  Nd0  1  0.000000  0.000000  0.000000  1
  Ti  Ti1  1  0.250000  0.750000  0.500000  1
  Ti  Ti2  1  0.750000  0.250000  0.500000  1
  Au  Au3  1  0.698082  0.301918  0.000000  1
  Au  Au4  1  0.698082  0.698082  0.396166  1
  Au  Au5  1  0.301918  0.301918  0.603834  1
  Au  Au6  1  0.301918  0.698082  0.000000  1
