# generated using pymatgen
data_Tm8ReSi16Tc11
_symmetry_space_group_name_H-M   'P 1'
_cell_length_a   6.75576666
_cell_length_b   6.75576666
_cell_length_c   12.60644513
_cell_angle_alpha   89.92710225
_cell_angle_beta   89.92710225
_cell_angle_gamma   90.03424024
_symmetry_Int_Tables_number   1
_chemical_formula_structural   Tm8ReSi16Tc11
_chemical_formula_sum   'Tm8 Re1 Si16 Tc11'
_cell_volume   575.36195178
_cell_formula_units_Z   1
loop_
 _symmetry_equiv_pos_site_id
 _symmetry_equiv_pos_as_xyz
  1  'x, y, z'
loop_
 _atom_site_type_symbol
 _atom_site_label
 _atom_site_symmetry_multiplicity
 _atom_site_fract_x
 _atom_site_fract_y
 _atom_site_fract_z
 _atom_site_occupancy
  Tm  Tm0  1  0.004617  0.661524  0.030713  1
  Tm  Tm1  1  0.994747  0.338585  0.530899  1
  Tm  Tm2  1  0.338476  0.995383  0.469287  1
  Tm  Tm3  1  0.161202  0.495133  0.780363  1
  Tm  Tm4  1  0.838655  0.504967  0.280676  1
  Tm  Tm5  1  0.495033  0.161345  0.219324  1
  Tm  Tm6  1  0.504867  0.838798  0.719637  1
  Tm  Tm7  1  0.661415  0.005253  0.969101  1
  Re  Re8  1  0.835127  0.164873  0.750000  1
  Si  Si9  1  0.022199  0.724379  0.436662  1
  Si  Si10  1  0.616458  0.306251  0.435938  1
  Si  Si11  1  0.383906  0.693454  0.936165  1
  Si  Si12  1  0.194002  0.115929  0.685592  1
  Si  Si13  1  0.306546  0.616094  0.563835  1
  Si  Si14  1  0.693749  0.383542  0.064062  1
  Si  Si15  1  0.806137  0.883501  0.186010  1
  Si  Si16  1  0.116499  0.193863  0.313990  1
  Si  Si17  1  0.977707  0.276191  0.936654  1
  Si  Si18  1  0.723809  0.022293  0.563346  1
  Si  Si19  1  0.223207  0.477336  0.186622  1
  Si  Si20  1  0.774741  0.522449  0.686790  1
  Si  Si21  1  0.477551  0.225259  0.813210  1
  Si  Si22  1  0.522664  0.776793  0.313378  1
  Si  Si23  1  0.275621  0.977801  0.063338  1
  Si  Si24  1  0.884071  0.805998  0.814408  1
  Tc  Tc25  1  0.665590  0.665383  0.500354  1
  Tc  Tc26  1  0.165355  0.834645  0.250000  1
  Tc  Tc27  1  0.334617  0.334410  0.999646  1
  Tc  Tc28  1  0.020489  0.815408  0.628803  1
  Tc  Tc29  1  0.979140  0.184192  0.129240  1
  Tc  Tc30  1  0.815808  0.020860  0.370760  1
  Tc  Tc31  1  0.316987  0.479977  0.378557  1
  Tc  Tc32  1  0.685239  0.520845  0.879528  1
  Tc  Tc33  1  0.479155  0.314761  0.620472  1
  Tc  Tc34  1  0.520023  0.683013  0.121443  1
  Tc  Tc35  1  0.184592  0.979511  0.871197  1
