# generated using pymatgen
data_Li3Nd4MgPt4
_symmetry_space_group_name_H-M   'P 1'
_cell_length_a   4.12190700
_cell_length_b   7.25900979
_cell_length_c   8.73355339
_cell_angle_alpha   89.96298596
_cell_angle_beta   90.00000000
_cell_angle_gamma   90.00000000
_symmetry_Int_Tables_number   1
_chemical_formula_structural   Li3Nd4MgPt4
_chemical_formula_sum   'Li3 Nd4 Mg1 Pt4'
_cell_volume   261.31627555
_cell_formula_units_Z   1
loop_
 _symmetry_equiv_pos_site_id
 _symmetry_equiv_pos_as_xyz
  1  'x, y, z'
loop_
 _atom_site_type_symbol
 _atom_site_label
 _atom_site_symmetry_multiplicity
 _atom_site_fract_x
 _atom_site_fract_y
 _atom_site_fract_z
 _atom_site_occupancy
  Li  Li0  1  0.750000  0.877873  0.947357  1
  Li  Li1  1  0.250000  0.124302  0.055203  1
  Li  Li2  1  0.250000  0.629002  0.441608  1
  Nd  Nd3  1  0.750000  0.951070  0.316117  1
  Nd  Nd4  1  0.250000  0.041120  0.687787  1
  Nd  Nd5  1  0.250000  0.550669  0.821277  1
  Nd  Nd6  1  0.750000  0.451845  0.180459  1
  Mg  Mg7  1  0.750000  0.374065  0.556783  1
  Pt  Pt8  1  0.750000  0.748495  0.619945  1
  Pt  Pt9  1  0.250000  0.247763  0.379789  1
  Pt  Pt10  1  0.250000  0.748672  0.121443  1
  Pt  Pt11  1  0.750000  0.255123  0.872232  1
