# generated using pymatgen
data_Ho5Er5In4(HgPd)4
_symmetry_space_group_name_H-M   'P 1'
_cell_length_a   3.61179100
_cell_length_b   7.98510031
_cell_length_c   18.27310869
_cell_angle_alpha   89.96844788
_cell_angle_beta   90.00000000
_cell_angle_gamma   90.00000000
_symmetry_Int_Tables_number   1
_chemical_formula_structural   Ho5Er5In4(HgPd)4
_chemical_formula_sum   'Ho5 Er5 In4 Hg4 Pd4'
_cell_volume   527.00575634
_cell_formula_units_Z   1
loop_
 _symmetry_equiv_pos_site_id
 _symmetry_equiv_pos_as_xyz
  1  'x, y, z'
loop_
 _atom_site_type_symbol
 _atom_site_label
 _atom_site_symmetry_multiplicity
 _atom_site_fract_x
 _atom_site_fract_y
 _atom_site_fract_z
 _atom_site_occupancy
  Ho  Ho0  1  0.000000  0.500303  0.500014  1
  Ho  Ho1  1  0.000000  0.999757  0.999983  1
  Ho  Ho2  1  0.000000  0.745434  0.285299  1
  Ho  Ho3  1  0.000000  0.254539  0.714459  1
  Ho  Ho4  1  0.000000  0.754482  0.785377  1
  Er  Er5  1  0.000000  0.245075  0.214877  1
  Er  Er6  1  0.000000  0.609326  0.084176  1
  Er  Er7  1  0.000000  0.390153  0.916392  1
  Er  Er8  1  0.000000  0.890402  0.583441  1
  Er  Er9  1  0.000000  0.110400  0.415904  1
  In  In10  1  0.500000  0.581401  0.649565  1
  In  In11  1  0.500000  0.419082  0.350675  1
  In  In12  1  0.500000  0.919352  0.149125  1
  In  In13  1  0.500000  0.081181  0.850584  1
  Hg  Hg14  1  0.500000  0.710672  0.934528  1
  Hg  Hg15  1  0.500000  0.288580  0.065991  1
  Hg  Hg16  1  0.500000  0.789695  0.434463  1
  Hg  Hg17  1  0.500000  0.211209  0.565320  1
  Pd  Pd18  1  0.500000  0.532946  0.197987  1
  Pd  Pd19  1  0.500000  0.465155  0.802001  1
  Pd  Pd20  1  0.500000  0.966146  0.697766  1
  Pd  Pd21  1  0.500000  0.034707  0.302073  1
