# generated using pymatgen
data_Tb3Pr4ThS12
_symmetry_space_group_name_H-M   'P 1'
_cell_length_a   4.02838500
_cell_length_b   10.58088344
_cell_length_c   10.90942878
_cell_angle_alpha   89.74980523
_cell_angle_beta   90.00000000
_cell_angle_gamma   90.00000000
_symmetry_Int_Tables_number   1
_chemical_formula_structural   Tb3Pr4ThS12
_chemical_formula_sum   'Tb3 Pr4 Th1 S12'
_cell_volume   464.99766389
_cell_formula_units_Z   1
loop_
 _symmetry_equiv_pos_site_id
 _symmetry_equiv_pos_as_xyz
  1  'x, y, z'
loop_
 _atom_site_type_symbol
 _atom_site_label
 _atom_site_symmetry_multiplicity
 _atom_site_fract_x
 _atom_site_fract_y
 _atom_site_fract_z
 _atom_site_occupancy
  Tb  Tb0  1  0.250000  0.686298  0.491118  1
  Tb  Tb1  1  0.750000  0.313863  0.509186  1
  Tb  Tb2  1  0.750000  0.188746  0.009020  1
  Pr  Pr3  1  0.250000  0.006932  0.310172  1
  Pr  Pr4  1  0.750000  0.000027  0.693132  1
  Pr  Pr5  1  0.750000  0.497813  0.195808  1
  Pr  Pr6  1  0.250000  0.492222  0.803346  1
  Th  Th7  1  0.250000  0.812826  0.989861  1
  S  S8  1  0.250000  0.057263  0.884793  1
  S  S9  1  0.750000  0.948366  0.118834  1
  S  S10  1  0.750000  0.553543  0.614305  1
  S  S11  1  0.250000  0.447333  0.386098  1
  S  S12  1  0.250000  0.134883  0.544942  1
  S  S13  1  0.750000  0.865907  0.455386  1
  S  S14  1  0.750000  0.627891  0.952661  1
  S  S15  1  0.250000  0.366916  0.044458  1
  S  S16  1  0.250000  0.702734  0.228199  1
  S  S17  1  0.750000  0.293678  0.769033  1
  S  S18  1  0.750000  0.206189  0.269345  1
  S  S19  1  0.250000  0.796568  0.730303  1
