# generated using pymatgen
data_CaLu2(Al3Pd2)3
_symmetry_space_group_name_H-M   'P 1'
_cell_length_a   4.13963900
_cell_length_b   9.25871833
_cell_length_c   9.25431700
_cell_angle_alpha   120.01597777
_cell_angle_beta   90.00000000
_cell_angle_gamma   90.00000000
_symmetry_Int_Tables_number   1
_chemical_formula_structural   CaLu2(Al3Pd2)3
_chemical_formula_sum   'Ca1 Lu2 Al9 Pd6'
_cell_volume   307.12728475
_cell_formula_units_Z   1
loop_
 _symmetry_equiv_pos_site_id
 _symmetry_equiv_pos_as_xyz
  1  'x, y, z'
loop_
 _atom_site_type_symbol
 _atom_site_label
 _atom_site_symmetry_multiplicity
 _atom_site_fract_x
 _atom_site_fract_y
 _atom_site_fract_z
 _atom_site_occupancy
  Ca  Ca0  1  0.000000  0.999980  0.999790  1
  Lu  Lu1  1  0.500000  0.333700  0.666787  1
  Lu  Lu2  1  0.500000  0.666366  0.333364  1
  Al  Al3  1  0.500000  0.307903  0.999966  1
  Al  Al4  1  0.500000  0.692196  0.692116  1
  Al  Al5  1  0.500000  0.000028  0.307910  1
  Al  Al6  1  0.500000  0.692075  0.000063  1
  Al  Al7  1  0.500000  0.307771  0.307898  1
  Al  Al8  1  0.500000  0.999957  0.692106  1
  Al  Al9  1  0.000000  0.500005  0.000046  1
  Al  Al10  1  0.000000  0.499978  0.500005  1
  Al  Al11  1  0.000000  0.999997  0.499998  1
  Pd  Pd12  1  0.000000  0.187078  0.374077  1
  Pd  Pd13  1  0.000000  0.186999  0.812916  1
  Pd  Pd14  1  0.000000  0.625940  0.812951  1
  Pd  Pd15  1  0.000000  0.812848  0.625836  1
  Pd  Pd16  1  0.000000  0.374014  0.187068  1
  Pd  Pd17  1  0.000000  0.813065  0.187102  1
