# generated using pymatgen
data_Mg4Al(SbPt)5
_symmetry_space_group_name_H-M   'P 1'
_cell_length_a   18.59441528
_cell_length_b   18.59441528
_cell_length_c   18.59441497
_cell_angle_alpha   13.76476273
_cell_angle_beta   13.76476407
_cell_angle_gamma   13.76476264
_symmetry_Int_Tables_number   1
_chemical_formula_structural   Mg4Al(SbPt)5
_chemical_formula_sum   'Mg4 Al1 Sb5 Pt5'
_cell_volume   316.72531649
_cell_formula_units_Z   1
loop_
 _symmetry_equiv_pos_site_id
 _symmetry_equiv_pos_as_xyz
  1  'x, y, z'
loop_
 _atom_site_type_symbol
 _atom_site_label
 _atom_site_symmetry_multiplicity
 _atom_site_fract_x
 _atom_site_fract_y
 _atom_site_fract_z
 _atom_site_occupancy
  Mg  Mg0  1  0.699307  0.699307  0.699307  1
  Mg  Mg1  1  0.099481  0.099481  0.099481  1
  Mg  Mg2  1  0.499906  0.499906  0.499906  1
  Mg  Mg3  1  0.899967  0.899967  0.899967  1
  Al  Al4  1  0.299698  0.299698  0.299698  1
  Sb  Sb5  1  0.599380  0.599380  0.599380  1
  Sb  Sb6  1  0.801023  0.801023  0.801023  1
  Sb  Sb7  1  0.201411  0.201411  0.201411  1
  Sb  Sb8  1  0.000025  0.000025  0.000025  1
  Sb  Sb9  1  0.400214  0.400214  0.400214  1
  Pt  Pt10  1  0.049696  0.049696  0.049696  1
  Pt  Pt11  1  0.449927  0.449927  0.449927  1
  Pt  Pt12  1  0.850291  0.850291  0.850291  1
  Pt  Pt13  1  0.251934  0.251934  0.251934  1
  Pt  Pt14  1  0.647741  0.647741  0.647741  1
