# generated using pymatgen
data_Tl7Ni4F15
_symmetry_space_group_name_H-M   'P 1'
_cell_length_a   10.58179800
_cell_length_b   7.60008316
_cell_length_c   11.20575000
_cell_angle_alpha   87.61180444
_cell_angle_beta   90.00000000
_cell_angle_gamma   90.00000000
_symmetry_Int_Tables_number   1
_chemical_formula_structural   Tl7Ni4F15
_chemical_formula_sum   'Tl14 Ni8 F30'
_cell_volume   900.41218556
_cell_formula_units_Z   2
loop_
 _symmetry_equiv_pos_site_id
 _symmetry_equiv_pos_as_xyz
  1  'x, y, z'
loop_
 _atom_site_type_symbol
 _atom_site_label
 _atom_site_symmetry_multiplicity
 _atom_site_fract_x
 _atom_site_fract_y
 _atom_site_fract_z
 _atom_site_occupancy
  Tl  Tl0  1  0.654539  0.836390  0.801799  1
  Tl  Tl1  1  0.998376  0.669591  0.666334  1
  Tl  Tl2  1  0.819793  0.506268  0.031820  1
  Tl  Tl3  1  0.498376  0.330409  0.833666  1
  Tl  Tl4  1  0.501624  0.669591  0.166334  1
  Tl  Tl5  1  0.500000  0.000000  0.500000  1
  Tl  Tl6  1  0.154539  0.163610  0.698201  1
  Tl  Tl7  1  0.845461  0.836390  0.301799  1
  Tl  Tl8  1  0.001624  0.330409  0.333666  1
  Tl  Tl9  1  0.345461  0.163610  0.198201  1
  Tl  Tl10  1  0.680207  0.506268  0.531820  1
  Tl  Tl11  1  0.319793  0.493732  0.468180  1
  Tl  Tl12  1  0.000000  0.000000  0.000000  1
  Tl  Tl13  1  0.180207  0.493732  0.968180  1
  Ni  Ni14  1  0.170767  0.734607  0.227394  1
  Ni  Ni15  1  0.836087  0.074402  0.571999  1
  Ni  Ni16  1  0.663913  0.074402  0.071999  1
  Ni  Ni17  1  0.329233  0.734607  0.727394  1
  Ni  Ni18  1  0.670767  0.265393  0.272606  1
  Ni  Ni19  1  0.829233  0.265393  0.772606  1
  Ni  Ni20  1  0.163913  0.925598  0.428001  1
  Ni  Ni21  1  0.336087  0.925598  0.928001  1
  F  F22  1  0.088237  0.679761  0.393589  1
  F  F23  1  0.411763  0.679761  0.893589  1
  F  F24  1  0.252279  0.500104  0.221714  1
  F  F25  1  0.980946  0.332731  0.863884  1
  F  F26  1  0.231671  0.829114  0.584422  1
  F  F27  1  0.247721  0.500104  0.721714  1
  F  F28  1  0.752279  0.499896  0.278286  1
  F  F29  1  0.731671  0.170886  0.915578  1
  F  F30  1  0.184030  0.826889  0.836192  1
  F  F31  1  0.747721  0.499896  0.778286  1
  F  F32  1  0.588237  0.320239  0.106411  1
  F  F33  1  0.911763  0.320239  0.606411  1
  F  F34  1  0.480946  0.667269  0.636116  1
  F  F35  1  0.315970  0.826889  0.336192  1
  F  F36  1  0.259140  0.160045  0.945372  1
  F  F37  1  0.815970  0.173111  0.163808  1
  F  F38  1  0.598641  0.015185  0.243059  1
  F  F39  1  0.519054  0.332731  0.363884  1
  F  F40  1  0.740860  0.839955  0.054628  1
  F  F41  1  0.759140  0.839955  0.554628  1
  F  F42  1  0.684030  0.173111  0.663808  1
  F  F43  1  0.019054  0.667269  0.136116  1
  F  F44  1  0.098641  0.984815  0.256941  1
  F  F45  1  0.240860  0.160045  0.445372  1
  F  F46  1  0.768329  0.170886  0.415578  1
  F  F47  1  0.401359  0.984815  0.756941  1
  F  F48  1  0.268329  0.829114  0.084422  1
  F  F49  1  0.000000  0.000000  0.500000  1
  F  F50  1  0.901359  0.015185  0.743059  1
  F  F51  1  0.500000  0.000000  0.000000  1
