# generated using pymatgen
data_UTc4(P2Rh)2
_symmetry_space_group_name_H-M   'P 1'
_cell_length_a   6.94154914
_cell_length_b   7.04407252
_cell_length_c   3.78923000
_cell_angle_alpha   90.00000000
_cell_angle_beta   90.00000000
_cell_angle_gamma   120.48978747
_symmetry_Int_Tables_number   1
_chemical_formula_structural   UTc4(P2Rh)2
_chemical_formula_sum   'U1 Tc4 P4 Rh2'
_cell_volume   159.66038229
_cell_formula_units_Z   1
loop_
 _symmetry_equiv_pos_site_id
 _symmetry_equiv_pos_as_xyz
  1  'x, y, z'
loop_
 _atom_site_type_symbol
 _atom_site_label
 _atom_site_symmetry_multiplicity
 _atom_site_fract_x
 _atom_site_fract_y
 _atom_site_fract_z
 _atom_site_occupancy
  U  U0  1  0.016607  0.008303  0.000000  1
  Tc  Tc1  1  0.064895  0.532448  0.000000  1
  Tc  Tc2  1  0.463991  0.929852  0.000000  1
  Tc  Tc3  1  0.463991  0.534139  0.000000  1
  Tc  Tc4  1  0.390536  0.195268  0.500000  1
  P  P5  1  0.658327  0.329163  0.000000  1
  P  P6  1  0.194387  0.805821  0.500000  1
  P  P7  1  0.194387  0.388567  0.500000  1
  P  P8  1  0.613698  0.806849  0.500000  1
  Rh  Rh9  1  0.802924  0.609923  0.500000  1
  Rh  Rh10  1  0.802924  0.193000  0.500000  1
