# generated using pymatgen
data_ThAl4(FeRe)4
_symmetry_space_group_name_H-M   'P 1'
_cell_length_a   6.72802273
_cell_length_b   6.72802207
_cell_length_c   6.72802276
_cell_angle_alpha   97.46393926
_cell_angle_beta   97.46393046
_cell_angle_gamma   137.74813484
_symmetry_Int_Tables_number   1
_chemical_formula_structural   ThAl4(FeRe)4
_chemical_formula_sum   'Th1 Al4 Fe4 Re4'
_cell_volume   191.01529643
_cell_formula_units_Z   1
loop_
 _symmetry_equiv_pos_site_id
 _symmetry_equiv_pos_as_xyz
  1  'x, y, z'
loop_
 _atom_site_type_symbol
 _atom_site_label
 _atom_site_symmetry_multiplicity
 _atom_site_fract_x
 _atom_site_fract_y
 _atom_site_fract_z
 _atom_site_occupancy
  Th  Th0  1  0.000000  0.000000  0.000000  1
  Al  Al1  1  0.272124  0.500000  0.772124  1
  Al  Al2  1  0.500000  0.272124  0.772124  1
  Al  Al3  1  0.500000  0.727876  0.227876  1
  Al  Al4  1  0.727876  0.500000  0.227876  1
  Fe  Fe5  1  0.500000  0.500000  0.500000  1
  Fe  Fe6  1  0.000000  0.500000  0.000000  1
  Fe  Fe7  1  0.500000  0.000000  0.000000  1
  Fe  Fe8  1  0.000000  0.000000  0.500000  1
  Re  Re9  1  0.358665  0.000000  0.358665  1
  Re  Re10  1  0.641335  0.000000  0.641335  1
  Re  Re11  1  0.000000  0.641335  0.641335  1
  Re  Re12  1  0.000000  0.358665  0.358665  1
