# generated using pymatgen
data_Y3Ho3Er14(Cd3Ru)2
_symmetry_space_group_name_H-M   'P 1'
_cell_length_a   9.53196800
_cell_length_b   9.53196762
_cell_length_c   9.78050600
_cell_angle_alpha   90.00000000
_cell_angle_beta   90.00000000
_cell_angle_gamma   120.00000131
_symmetry_Int_Tables_number   1
_chemical_formula_structural   Y3Ho3Er14(Cd3Ru)2
_chemical_formula_sum   'Y3 Ho3 Er14 Cd6 Ru2'
_cell_volume   769.58586780
_cell_formula_units_Z   1
loop_
 _symmetry_equiv_pos_site_id
 _symmetry_equiv_pos_as_xyz
  1  'x, y, z'
loop_
 _atom_site_type_symbol
 _atom_site_label
 _atom_site_symmetry_multiplicity
 _atom_site_fract_x
 _atom_site_fract_y
 _atom_site_fract_z
 _atom_site_occupancy
  Y  Y0  1  0.459067  0.540933  0.750000  1
  Y  Y1  1  0.459067  0.918132  0.750000  1
  Y  Y2  1  0.081868  0.540933  0.750000  1
  Ho  Ho3  1  0.541016  0.458984  0.250000  1
  Ho  Ho4  1  0.541016  0.082033  0.250000  1
  Ho  Ho5  1  0.917967  0.458984  0.250000  1
  Er  Er6  1  0.000000  0.000000  0.500044  1
  Er  Er7  1  0.000000  0.000000  0.999956  1
  Er  Er8  1  0.209862  0.790138  0.440123  1
  Er  Er9  1  0.209862  0.419726  0.440123  1
  Er  Er10  1  0.580274  0.790138  0.440123  1
  Er  Er11  1  0.790063  0.209937  0.559557  1
  Er  Er12  1  0.790063  0.580125  0.559557  1
  Er  Er13  1  0.419875  0.209937  0.559557  1
  Er  Er14  1  0.790063  0.209937  0.940443  1
  Er  Er15  1  0.790063  0.580125  0.940443  1
  Er  Er16  1  0.419875  0.209937  0.940443  1
  Er  Er17  1  0.209862  0.790138  0.059877  1
  Er  Er18  1  0.209862  0.419726  0.059877  1
  Er  Er19  1  0.580274  0.790138  0.059877  1
  Cd  Cd20  1  0.885395  0.114605  0.250000  1
  Cd  Cd21  1  0.885395  0.770790  0.250000  1
  Cd  Cd22  1  0.229210  0.114605  0.250000  1
  Cd  Cd23  1  0.114303  0.885697  0.750000  1
  Cd  Cd24  1  0.114303  0.228606  0.750000  1
  Cd  Cd25  1  0.771394  0.885697  0.750000  1
  Ru  Ru26  1  0.333333  0.666667  0.250000  1
  Ru  Ru27  1  0.666667  0.333333  0.750000  1
