# generated using pymatgen
data_Hf3Zr3CoSi7Ni15
_symmetry_space_group_name_H-M   'P 1'
_cell_length_a   8.09660876
_cell_length_b   8.09055872
_cell_length_c   8.10101843
_cell_angle_alpha   59.92828610
_cell_angle_beta   59.95812208
_cell_angle_gamma   59.94160270
_symmetry_Int_Tables_number   1
_chemical_formula_structural   Hf3Zr3CoSi7Ni15
_chemical_formula_sum   'Hf3 Zr3 Co1 Si7 Ni15'
_cell_volume   374.74958567
_cell_formula_units_Z   1
loop_
 _symmetry_equiv_pos_site_id
 _symmetry_equiv_pos_as_xyz
  1  'x, y, z'
loop_
 _atom_site_type_symbol
 _atom_site_label
 _atom_site_symmetry_multiplicity
 _atom_site_fract_x
 _atom_site_fract_y
 _atom_site_fract_z
 _atom_site_occupancy
  Hf  Hf0  1  0.205300  0.205305  0.798634  1
  Hf  Hf1  1  0.798638  0.205273  0.205411  1
  Hf  Hf2  1  0.205259  0.798719  0.205397  1
  Zr  Zr3  1  0.794410  0.206136  0.794332  1
  Zr  Zr4  1  0.794381  0.794424  0.206142  1
  Zr  Zr5  1  0.206117  0.794447  0.794319  1
  Co  Co6  1  0.165746  0.165652  0.165816  1
  Si  Si7  1  0.000297  0.498886  0.000329  1
  Si  Si8  1  0.499784  0.499821  0.499815  1
  Si  Si9  1  0.499859  0.499893  0.003036  1
  Si  Si10  1  0.499881  0.003018  0.499874  1
  Si  Si11  1  0.003002  0.499898  0.499855  1
  Si  Si12  1  0.000288  0.000310  0.498908  1
  Si  Si13  1  0.498891  0.000307  0.000319  1
  Ni  Ni14  1  0.617601  0.617605  0.145569  1
  Ni  Ni15  1  0.382476  0.382302  0.382334  1
  Ni  Ni16  1  0.169063  0.493304  0.169119  1
  Ni  Ni17  1  0.169210  0.169185  0.493079  1
  Ni  Ni18  1  0.145549  0.617625  0.617569  1
  Ni  Ni19  1  0.617588  0.145636  0.617601  1
  Ni  Ni20  1  0.830745  0.830712  0.830716  1
  Ni  Ni21  1  0.855329  0.381020  0.381034  1
  Ni  Ni22  1  0.381243  0.380992  0.855315  1
  Ni  Ni23  1  0.381132  0.855264  0.381042  1
  Ni  Ni24  1  0.506101  0.830835  0.830747  1
  Ni  Ni25  1  0.617575  0.617480  0.617401  1
  Ni  Ni26  1  0.830750  0.830779  0.506181  1
  Ni  Ni27  1  0.492916  0.169254  0.169297  1
  Ni  Ni28  1  0.830874  0.505919  0.830812  1
