# generated using pymatgen
data_TbDy9(Sn3Cl)2
_symmetry_space_group_name_H-M   'P 1'
_cell_length_a   9.11138404
_cell_length_b   9.11138267
_cell_length_c   6.54322500
_cell_angle_alpha   90.00000000
_cell_angle_beta   90.00000000
_cell_angle_gamma   120.01050561
_symmetry_Int_Tables_number   1
_chemical_formula_structural   TbDy9(Sn3Cl)2
_chemical_formula_sum   'Tb1 Dy9 Sn6 Cl2'
_cell_volume   470.37598471
_cell_formula_units_Z   1
loop_
 _symmetry_equiv_pos_site_id
 _symmetry_equiv_pos_as_xyz
  1  'x, y, z'
loop_
 _atom_site_type_symbol
 _atom_site_label
 _atom_site_symmetry_multiplicity
 _atom_site_fract_x
 _atom_site_fract_y
 _atom_site_fract_z
 _atom_site_occupancy
  Tb  Tb0  1  0.261959  0.261959  0.750000  1
  Dy  Dy1  1  0.000008  0.737947  0.750000  1
  Dy  Dy2  1  0.737947  0.000008  0.750000  1
  Dy  Dy3  1  0.999974  0.262119  0.250000  1
  Dy  Dy4  1  0.333336  0.666719  0.499964  1
  Dy  Dy5  1  0.737875  0.737875  0.250000  1
  Dy  Dy6  1  0.666719  0.333336  0.499964  1
  Dy  Dy7  1  0.262119  0.999974  0.250000  1
  Dy  Dy8  1  0.333336  0.666719  0.000036  1
  Dy  Dy9  1  0.666719  0.333336  0.000036  1
  Sn  Sn10  1  0.610864  0.999993  0.250000  1
  Sn  Sn11  1  0.999792  0.389272  0.750000  1
  Sn  Sn12  1  0.389272  0.999792  0.750000  1
  Sn  Sn13  1  0.611154  0.611154  0.750000  1
  Sn  Sn14  1  0.999993  0.610864  0.250000  1
  Sn  Sn15  1  0.389209  0.389209  0.250000  1
  Cl  Cl16  1  0.999862  0.999862  0.000185  1
  Cl  Cl17  1  0.999862  0.999862  0.499815  1
