# generated using pymatgen
data_Dy3Ho5In3Os
_symmetry_space_group_name_H-M   'P 1'
_cell_length_a   10.37857700
_cell_length_b   10.37857696
_cell_length_c   7.05984400
_cell_angle_alpha   90.00000000
_cell_angle_beta   90.00000000
_cell_angle_gamma   120.00000332
_symmetry_Int_Tables_number   1
_chemical_formula_structural   Dy3Ho5In3Os
_chemical_formula_sum   'Dy6 Ho10 In6 Os2'
_cell_volume   658.56909054
_cell_formula_units_Z   2
loop_
 _symmetry_equiv_pos_site_id
 _symmetry_equiv_pos_as_xyz
  1  'x, y, z'
loop_
 _atom_site_type_symbol
 _atom_site_label
 _atom_site_symmetry_multiplicity
 _atom_site_fract_x
 _atom_site_fract_y
 _atom_site_fract_z
 _atom_site_occupancy
  Dy  Dy0  1  0.533131  0.066261  0.507633  1
  Dy  Dy1  1  0.933739  0.466869  0.507633  1
  Dy  Dy2  1  0.533131  0.466869  0.507633  1
  Dy  Dy3  1  0.466869  0.933739  0.007633  1
  Dy  Dy4  1  0.066261  0.533131  0.007633  1
  Dy  Dy5  1  0.466869  0.533131  0.007633  1
  Ho  Ho6  1  0.177237  0.354472  0.712640  1
  Ho  Ho7  1  0.645528  0.822763  0.712640  1
  Ho  Ho8  1  0.177237  0.822763  0.712640  1
  Ho  Ho9  1  0.822763  0.645528  0.212640  1
  Ho  Ho10  1  0.354472  0.177237  0.212640  1
  Ho  Ho11  1  0.822763  0.177237  0.212640  1
  Ho  Ho12  1  0.666667  0.333333  0.884551  1
  Ho  Ho13  1  0.333333  0.666667  0.384551  1
  Ho  Ho14  1  0.000000  0.000000  0.493207  1
  Ho  Ho15  1  0.000000  0.000000  0.993207  1
  In  In16  1  0.837275  0.674550  0.752605  1
  In  In17  1  0.325450  0.162725  0.752605  1
  In  In18  1  0.837275  0.162725  0.752605  1
  In  In19  1  0.162725  0.325450  0.252605  1
  In  In20  1  0.674550  0.837275  0.252605  1
  In  In21  1  0.162725  0.837275  0.252605  1
  Os  Os22  1  0.666667  0.333333  0.282631  1
  Os  Os23  1  0.333333  0.666667  0.782631  1
