# generated using pymatgen
data_CsNb(SiO3)3
_symmetry_space_group_name_H-M   'P 1'
_cell_length_a   7.05602500
_cell_length_b   7.05602397
_cell_length_c   9.97890400
_cell_angle_alpha   90.00000000
_cell_angle_beta   90.00000000
_cell_angle_gamma   120.00000014
_symmetry_Int_Tables_number   1
_chemical_formula_structural   CsNb(SiO3)3
_chemical_formula_sum   'Cs2 Nb2 Si6 O18'
_cell_volume   430.26263648
_cell_formula_units_Z   2
loop_
 _symmetry_equiv_pos_site_id
 _symmetry_equiv_pos_as_xyz
  1  'x, y, z'
loop_
 _atom_site_type_symbol
 _atom_site_label
 _atom_site_symmetry_multiplicity
 _atom_site_fract_x
 _atom_site_fract_y
 _atom_site_fract_z
 _atom_site_occupancy
  Cs  Cs0  1  0.666667  0.333333  0.500000  1
  Cs  Cs1  1  0.666667  0.333333  0.000000  1
  Nb  Nb2  1  0.333333  0.666667  0.500000  1
  Nb  Nb3  1  0.333333  0.666667  0.000000  1
  Si  Si4  1  0.198745  0.920227  0.250000  1
  Si  Si5  1  0.198745  0.278517  0.750000  1
  Si  Si6  1  0.721483  0.920227  0.750000  1
  Si  Si7  1  0.721483  0.801255  0.250000  1
  Si  Si8  1  0.079773  0.278517  0.250000  1
  Si  Si9  1  0.079773  0.801255  0.750000  1
  O  O10  1  0.114520  0.689367  0.616591  1
  O  O11  1  0.310633  0.885480  0.383409  1
  O  O12  1  0.574847  0.885480  0.616591  1
  O  O13  1  0.310633  0.425153  0.883409  1
  O  O14  1  0.574847  0.885480  0.883409  1
  O  O15  1  0.114520  0.689367  0.883409  1
  O  O16  1  0.574847  0.689367  0.116591  1
  O  O17  1  0.114520  0.425153  0.116591  1
  O  O18  1  0.244688  0.174784  0.250000  1
  O  O19  1  0.930097  0.755312  0.250000  1
  O  O20  1  0.825216  0.069903  0.250000  1
  O  O21  1  0.825216  0.755312  0.750000  1
  O  O22  1  0.574847  0.689367  0.383409  1
  O  O23  1  0.244688  0.069903  0.750000  1
  O  O24  1  0.930097  0.174784  0.750000  1
  O  O25  1  0.114520  0.425153  0.383409  1
  O  O26  1  0.310633  0.885480  0.116591  1
  O  O27  1  0.310633  0.425153  0.616591  1
