# generated using pymatgen
data_Ti16V3Si16Pt
_symmetry_space_group_name_H-M   'P 1'
_cell_length_a   6.63302224
_cell_length_b   6.64125866
_cell_length_c   12.09204819
_cell_angle_alpha   89.83751924
_cell_angle_beta   90.43600013
_cell_angle_gamma   89.87473047
_symmetry_Int_Tables_number   1
_chemical_formula_structural   Ti16V3Si16Pt
_chemical_formula_sum   'Ti16 V3 Si16 Pt1'
_cell_volume   532.65540537
_cell_formula_units_Z   1
loop_
 _symmetry_equiv_pos_site_id
 _symmetry_equiv_pos_as_xyz
  1  'x, y, z'
loop_
 _atom_site_type_symbol
 _atom_site_label
 _atom_site_symmetry_multiplicity
 _atom_site_fract_x
 _atom_site_fract_y
 _atom_site_fract_z
 _atom_site_occupancy
  Ti  Ti0  1  0.500385  0.353837  0.130935  1
  Ti  Ti1  1  0.501376  0.649937  0.628855  1
  Ti  Ti2  1  0.005045  0.845328  0.118567  1
  Ti  Ti3  1  0.148674  0.999099  0.376521  1
  Ti  Ti4  1  0.847164  0.000699  0.881190  1
  Ti  Ti5  1  0.002768  0.347834  0.219915  1
  Ti  Ti6  1  0.155645  0.502856  0.470263  1
  Ti  Ti7  1  0.838139  0.496352  0.971038  1
  Ti  Ti8  1  0.501286  0.156631  0.531077  1
  Ti  Ti9  1  0.498914  0.834680  0.028948  1
  Ti  Ti10  1  0.996945  0.656285  0.718871  1
  Ti  Ti11  1  0.346004  0.001021  0.779921  1
  Ti  Ti12  1  0.657730  0.999452  0.281075  1
  Ti  Ti13  1  0.329523  0.669413  0.248095  1
  Ti  Ti14  1  0.669899  0.327844  0.751187  1
  Ti  Ti15  1  0.829594  0.832411  0.500144  1
  V  V16  1  0.992650  0.151950  0.623471  1
  V  V17  1  0.354417  0.495557  0.867658  1
  V  V18  1  0.651412  0.506946  0.372270  1
  Si  Si19  1  0.047442  0.299589  0.813801  1
  Si  Si20  1  0.205733  0.543994  0.058859  1
  Si  Si21  1  0.798917  0.454913  0.563219  1
  Si  Si22  1  0.543380  0.204973  0.937737  1
  Si  Si23  1  0.455594  0.798663  0.435616  1
  Si  Si24  1  0.955690  0.698594  0.314545  1
  Si  Si25  1  0.302251  0.045389  0.185609  1
  Si  Si26  1  0.702211  0.956419  0.686517  1
  Si  Si27  1  0.289469  0.356902  0.672491  1
  Si  Si28  1  0.138349  0.778934  0.916984  1
  Si  Si29  1  0.858254  0.211814  0.423633  1
  Si  Si30  1  0.784748  0.134165  0.080616  1
  Si  Si31  1  0.204152  0.866401  0.577565  1
  Si  Si32  1  0.706682  0.643544  0.175983  1
  Si  Si33  1  0.363982  0.297293  0.329158  1
  Si  Si34  1  0.638678  0.703327  0.827118  1
  Pt  Pt35  1  0.176901  0.176956  0.000547  1
