# generated using pymatgen
data_Tb5MnAsO12
_symmetry_space_group_name_H-M   'P 1'
_cell_length_a   6.81868967
_cell_length_b   6.81869024
_cell_length_c   7.27172104
_cell_angle_alpha   74.55272826
_cell_angle_beta   74.55272714
_cell_angle_gamma   50.50341271
_symmetry_Int_Tables_number   1
_chemical_formula_structural   Tb5MnAsO12
_chemical_formula_sum   'Tb5 Mn1 As1 O12'
_cell_volume   249.32571354
_cell_formula_units_Z   1
loop_
 _symmetry_equiv_pos_site_id
 _symmetry_equiv_pos_as_xyz
  1  'x, y, z'
loop_
 _atom_site_type_symbol
 _atom_site_label
 _atom_site_symmetry_multiplicity
 _atom_site_fract_x
 _atom_site_fract_y
 _atom_site_fract_z
 _atom_site_occupancy
  Tb  Tb0  1  0.696043  0.695069  0.664645  1
  Tb  Tb1  1  0.701341  0.692168  0.141127  1
  Tb  Tb2  1  0.004970  0.995030  0.000000  1
  Tb  Tb3  1  0.307832  0.298659  0.858873  1
  Tb  Tb4  1  0.304931  0.303957  0.335355  1
  Mn  Mn5  1  0.751936  0.248064  0.500000  1
  As  As6  1  0.238994  0.761006  0.500000  1
  O  O7  1  0.404789  0.900032  0.925114  1
  O  O8  1  0.576364  0.100752  0.578583  1
  O  O9  1  0.899248  0.423636  0.421417  1
  O  O10  1  0.099968  0.595211  0.074886  1
  O  O11  1  0.006431  0.994660  0.324236  1
  O  O12  1  0.490694  0.509883  0.675797  1
  O  O13  1  0.906560  0.400851  0.921184  1
  O  O14  1  0.102771  0.587480  0.577763  1
  O  O15  1  0.412520  0.897229  0.422237  1
  O  O16  1  0.599149  0.093440  0.078816  1
  O  O17  1  0.490117  0.509306  0.324203  1
  O  O18  1  0.005340  0.993569  0.675764  1
