# generated using pymatgen
data_Ca2PrUO6
_symmetry_space_group_name_H-M   'P 1'
_cell_length_a   6.90373361
_cell_length_b   6.88782914
_cell_length_c   6.86902522
_cell_angle_alpha   91.68836961
_cell_angle_beta   91.40614162
_cell_angle_gamma   91.17643529
_symmetry_Int_Tables_number   1
_chemical_formula_structural   Ca2PrUO6
_chemical_formula_sum   'Ca4 Pr2 U2 O12'
_cell_volume   326.32012213
_cell_formula_units_Z   2
loop_
 _symmetry_equiv_pos_site_id
 _symmetry_equiv_pos_as_xyz
  1  'x, y, z'
loop_
 _atom_site_type_symbol
 _atom_site_label
 _atom_site_symmetry_multiplicity
 _atom_site_fract_x
 _atom_site_fract_y
 _atom_site_fract_z
 _atom_site_occupancy
  Ca  Ca0  1  0.550042  0.251434  0.058645  1
  Ca  Ca1  1  0.253064  0.059286  0.557820  1
  Ca  Ca2  1  0.065560  0.555871  0.249652  1
  Ca  Ca3  1  0.445084  0.750908  0.941871  1
  Pr  Pr4  1  0.938975  0.444454  0.750321  1
  Pr  Pr5  1  0.747493  0.940154  0.440877  1
  U  U6  1  0.005491  0.000163  0.003640  1
  U  U7  1  0.492850  0.498730  0.497090  1
  O  O8  1  0.295333  0.063082  0.926375  1
  O  O9  1  0.065571  0.920834  0.301847  1
  O  O10  1  0.926052  0.297998  0.065763  1
  O  O11  1  0.708268  0.937226  0.081504  1
  O  O12  1  0.936368  0.084981  0.699550  1
  O  O13  1  0.080897  0.699758  0.935692  1
  O  O14  1  0.195044  0.406092  0.533930  1
  O  O15  1  0.412159  0.542241  0.202819  1
  O  O16  1  0.461790  0.798903  0.590853  1
  O  O17  1  0.588185  0.456975  0.794280  1
  O  O18  1  0.797402  0.591480  0.461138  1
  O  O19  1  0.534370  0.199430  0.406331  1
