# generated using pymatgen
data_ScMn4P3W
_symmetry_space_group_name_H-M   'P 1'
_cell_length_a   3.55330000
_cell_length_b   10.68186900
_cell_length_c   12.26049700
_cell_angle_alpha   90.00000000
_cell_angle_beta   90.00000000
_cell_angle_gamma   90.00000000
_symmetry_Int_Tables_number   1
_chemical_formula_structural   ScMn4P3W
_chemical_formula_sum   'Sc4 Mn16 P12 W4'
_cell_volume   465.35801562
_cell_formula_units_Z   4
loop_
 _symmetry_equiv_pos_site_id
 _symmetry_equiv_pos_as_xyz
  1  'x, y, z'
loop_
 _atom_site_type_symbol
 _atom_site_label
 _atom_site_symmetry_multiplicity
 _atom_site_fract_x
 _atom_site_fract_y
 _atom_site_fract_z
 _atom_site_occupancy
  Sc  Sc0  1  0.250000  0.585034  0.706457  1
  Sc  Sc1  1  0.250000  0.914966  0.206457  1
  Sc  Sc2  1  0.750000  0.414966  0.293543  1
  Sc  Sc3  1  0.750000  0.085034  0.793543  1
  Mn  Mn4  1  0.250000  0.410790  0.491466  1
  Mn  Mn5  1  0.250000  0.089210  0.991466  1
  Mn  Mn6  1  0.750000  0.589210  0.508534  1
  Mn  Mn7  1  0.750000  0.910790  0.008534  1
  Mn  Mn8  1  0.250000  0.213470  0.181566  1
  Mn  Mn9  1  0.250000  0.286531  0.681566  1
  Mn  Mn10  1  0.750000  0.786531  0.818434  1
  Mn  Mn11  1  0.750000  0.713469  0.318434  1
  Mn  Mn12  1  0.250000  0.884381  0.695888  1
  Mn  Mn13  1  0.250000  0.615619  0.195888  1
  Mn  Mn14  1  0.750000  0.115619  0.304112  1
  Mn  Mn15  1  0.750000  0.384381  0.804112  1
  Mn  Mn16  1  0.250000  0.464356  0.933442  1
  Mn  Mn17  1  0.250000  0.035644  0.433442  1
  Mn  Mn18  1  0.750000  0.535644  0.066558  1
  Mn  Mn19  1  0.750000  0.964356  0.566558  1
  P  P20  1  0.250000  0.414298  0.121530  1
  P  P21  1  0.250000  0.085702  0.621530  1
  P  P22  1  0.750000  0.585702  0.878470  1
  P  P23  1  0.750000  0.914298  0.378470  1
  P  P24  1  0.250000  0.259056  0.868489  1
  P  P25  1  0.250000  0.240944  0.368489  1
  P  P26  1  0.750000  0.740944  0.131511  1
  P  P27  1  0.750000  0.759056  0.631511  1
  P  P28  1  0.250000  0.586705  0.382116  1
  P  P29  1  0.250000  0.913295  0.882116  1
  P  P30  1  0.750000  0.413295  0.617884  1
  P  P31  1  0.750000  0.086705  0.117884  1
  W  W32  1  0.250000  0.710877  0.984887  1
  W  W33  1  0.250000  0.789123  0.484887  1
  W  W34  1  0.750000  0.289123  0.015113  1
  W  W35  1  0.750000  0.210877  0.515113  1
