# generated using pymatgen
data_Dy8Er8Cd4NiRu3
_symmetry_space_group_name_H-M   'P 1'
_cell_length_a   9.52345916
_cell_length_b   9.58530669
_cell_length_c   9.61039200
_cell_angle_alpha   59.91339056
_cell_angle_beta   59.69757658
_cell_angle_gamma   59.65894408
_symmetry_Int_Tables_number   1
_chemical_formula_structural   Dy8Er8Cd4NiRu3
_chemical_formula_sum   'Dy8 Er8 Cd4 Ni1 Ru3'
_cell_volume   616.90066992
_cell_formula_units_Z   1
loop_
 _symmetry_equiv_pos_site_id
 _symmetry_equiv_pos_as_xyz
  1  'x, y, z'
loop_
 _atom_site_type_symbol
 _atom_site_label
 _atom_site_symmetry_multiplicity
 _atom_site_fract_x
 _atom_site_fract_y
 _atom_site_fract_z
 _atom_site_occupancy
  Dy  Dy0  1  0.437527  0.438545  0.061964  1
  Dy  Dy1  1  0.060884  0.061759  0.438679  1
  Dy  Dy2  1  0.188871  0.810652  0.810595  1
  Dy  Dy3  1  0.808756  0.187543  0.187466  1
  Dy  Dy4  1  0.808756  0.187543  0.816234  1
  Dy  Dy5  1  0.188871  0.810652  0.189883  1
  Dy  Dy6  1  0.808372  0.816483  0.187572  1
  Dy  Dy7  1  0.189195  0.190020  0.810392  1
  Er  Er8  1  0.600729  0.596001  0.594634  1
  Er  Er9  1  0.600729  0.596001  0.208637  1
  Er  Er10  1  0.600364  0.209264  0.595187  1
  Er  Er11  1  0.210098  0.596145  0.596878  1
  Er  Er12  1  0.060306  0.438628  0.438960  1
  Er  Er13  1  0.437087  0.061123  0.061850  1
  Er  Er14  1  0.437087  0.061123  0.439940  1
  Er  Er15  1  0.060306  0.438628  0.062107  1
  Cd  Cd16  1  0.829237  0.830693  0.831188  1
  Cd  Cd17  1  0.829237  0.830693  0.508881  1
  Cd  Cd18  1  0.829714  0.508578  0.830854  1
  Cd  Cd19  1  0.507139  0.831013  0.830924  1
  Ni  Ni20  1  0.826098  0.391823  0.391039  1
  Ru  Ru21  1  0.393343  0.389663  0.389097  1
  Ru  Ru22  1  0.393343  0.389663  0.827896  1
  Ru  Ru23  1  0.393950  0.827767  0.389141  1
