# generated using pymatgen
data_DyLu2Sc3CrTe2
_symmetry_space_group_name_H-M   'P 1'
_cell_length_a   7.85423107
_cell_length_b   7.85423142
_cell_length_c   4.07884200
_cell_angle_alpha   90.00000000
_cell_angle_beta   90.00000000
_cell_angle_gamma   119.80905034
_symmetry_Int_Tables_number   1
_chemical_formula_structural   DyLu2Sc3CrTe2
_chemical_formula_sum   'Dy1 Lu2 Sc3 Cr1 Te2'
_cell_volume   218.32693173
_cell_formula_units_Z   1
loop_
 _symmetry_equiv_pos_site_id
 _symmetry_equiv_pos_as_xyz
  1  'x, y, z'
loop_
 _atom_site_type_symbol
 _atom_site_label
 _atom_site_symmetry_multiplicity
 _atom_site_fract_x
 _atom_site_fract_y
 _atom_site_fract_z
 _atom_site_occupancy
  Dy  Dy0  1  0.389014  0.389014  0.000000  1
  Lu  Lu1  1  0.615816  0.000122  0.000000  1
  Lu  Lu2  1  0.000122  0.615816  0.000000  1
  Sc  Sc3  1  0.225509  0.998058  0.500000  1
  Sc  Sc4  1  0.998058  0.225509  0.500000  1
  Sc  Sc5  1  0.772879  0.772879  0.500000  1
  Cr  Cr6  1  0.996751  0.996751  0.000000  1
  Te  Te7  1  0.333264  0.668587  0.500000  1
  Te  Te8  1  0.668587  0.333264  0.500000  1
