# generated using pymatgen
data_Na3Er2P12Ru9Rh10
_symmetry_space_group_name_H-M   'P 1'
_cell_length_a   12.53129200
_cell_length_b   12.53129231
_cell_length_c   3.96216800
_cell_angle_alpha   90.00000000
_cell_angle_beta   90.00000000
_cell_angle_gamma   120.00000445
_symmetry_Int_Tables_number   1
_chemical_formula_structural   Na3Er2P12Ru9Rh10
_chemical_formula_sum   'Na3 Er2 P12 Ru9 Rh10'
_cell_volume   538.83426982
_cell_formula_units_Z   1
loop_
 _symmetry_equiv_pos_site_id
 _symmetry_equiv_pos_as_xyz
  1  'x, y, z'
loop_
 _atom_site_type_symbol
 _atom_site_label
 _atom_site_symmetry_multiplicity
 _atom_site_fract_x
 _atom_site_fract_y
 _atom_site_fract_z
 _atom_site_occupancy
  Na  Na0  1  0.183538  0.183538  0.500000  1
  Na  Na1  1  0.816462  0.000000  0.500000  1
  Na  Na2  1  0.000000  0.816462  0.500000  1
  Er  Er3  1  0.333333  0.666667  0.000000  1
  Er  Er4  1  0.666667  0.333333  0.000000  1
  P  P5  1  0.817876  0.817876  0.000000  1
  P  P6  1  0.182124  0.000000  0.000000  1
  P  P7  1  0.000000  0.182124  0.000000  1
  P  P8  1  0.170470  0.480091  0.500000  1
  P  P9  1  0.519909  0.690379  0.500000  1
  P  P10  1  0.309621  0.829530  0.500000  1
  P  P11  1  0.690379  0.519909  0.500000  1
  P  P12  1  0.829530  0.309621  0.500000  1
  P  P13  1  0.480091  0.170470  0.500000  1
  P  P14  1  0.370390  0.370390  0.000000  1
  P  P15  1  0.629610  0.000000  0.000000  1
  P  P16  1  0.000000  0.629610  0.000000  1
  Ru  Ru17  1  0.716845  0.716845  0.500000  1
  Ru  Ru18  1  0.283155  0.000000  0.500000  1
  Ru  Ru19  1  0.000000  0.283155  0.500000  1
  Ru  Ru20  1  0.362982  0.489372  0.500000  1
  Ru  Ru21  1  0.510628  0.873611  0.500000  1
  Ru  Ru22  1  0.126389  0.637018  0.500000  1
  Ru  Ru23  1  0.873611  0.510628  0.500000  1
  Ru  Ru24  1  0.637018  0.126389  0.500000  1
  Ru  Ru25  1  0.489372  0.362982  0.500000  1
  Rh  Rh26  1  0.550674  0.550674  0.000000  1
  Rh  Rh27  1  0.449326  0.000000  0.000000  1
  Rh  Rh28  1  0.000000  0.449326  0.000000  1
  Rh  Rh29  1  0.184798  0.377150  0.000000  1
  Rh  Rh30  1  0.622850  0.807647  0.000000  1
  Rh  Rh31  1  0.192353  0.815202  0.000000  1
  Rh  Rh32  1  0.807647  0.622850  0.000000  1
  Rh  Rh33  1  0.815202  0.192353  0.000000  1
  Rh  Rh34  1  0.377150  0.184798  0.000000  1
  Rh  Rh35  1  0.000000  0.000000  0.000000  1
