# generated using pymatgen
data_NaEu(PO3)3
_symmetry_space_group_name_H-M   'P 1'
_cell_length_a   6.90886174
_cell_length_b   7.25208419
_cell_length_c   7.88198121
_cell_angle_alpha   83.59408102
_cell_angle_beta   80.91428432
_cell_angle_gamma   82.72060914
_symmetry_Int_Tables_number   1
_chemical_formula_structural   NaEu(PO3)3
_chemical_formula_sum   'Na2 Eu2 P6 O18'
_cell_volume   385.12421359
_cell_formula_units_Z   2
loop_
 _symmetry_equiv_pos_site_id
 _symmetry_equiv_pos_as_xyz
  1  'x, y, z'
loop_
 _atom_site_type_symbol
 _atom_site_label
 _atom_site_symmetry_multiplicity
 _atom_site_fract_x
 _atom_site_fract_y
 _atom_site_fract_z
 _atom_site_occupancy
  Na  Na0  1  0.467851  0.367665  0.336787  1
  Na  Na1  1  0.532149  0.632335  0.663213  1
  Eu  Eu2  1  0.012746  0.730160  0.639786  1
  Eu  Eu3  1  0.987254  0.269840  0.360214  1
  P  P4  1  0.830537  0.793376  0.273885  1
  P  P5  1  0.169463  0.206624  0.726115  1
  P  P6  1  0.805057  0.333455  0.941379  1
  P  P7  1  0.194943  0.666545  0.058621  1
  P  P8  1  0.607203  0.119162  0.723019  1
  P  P9  1  0.392797  0.880838  0.276981  1
  O  O10  1  0.091036  0.051459  0.655422  1
  O  O11  1  0.908964  0.948541  0.344578  1
  O  O12  1  0.373054  0.142058  0.797974  1
  O  O13  1  0.626946  0.857942  0.202026  1
  O  O14  1  0.181082  0.381760  0.601631  1
  O  O15  1  0.818918  0.618240  0.398369  1
  O  O16  1  0.036683  0.247648  0.909251  1
  O  O17  1  0.963317  0.752352  0.090749  1
  O  O18  1  0.756564  0.339372  0.133164  1
  O  O19  1  0.243436  0.660628  0.866836  1
  O  O20  1  0.777897  0.508256  0.822488  1
  O  O21  1  0.222103  0.491744  0.177512  1
  O  O22  1  0.690116  0.171191  0.890804  1
  O  O23  1  0.309884  0.828809  0.109196  1
  O  O24  1  0.648495  0.264650  0.573029  1
  O  O25  1  0.351505  0.735350  0.426971  1
  O  O26  1  0.669428  0.916547  0.702699  1
  O  O27  1  0.330572  0.083453  0.297301  1
