# generated using pymatgen
data_Tm4Lu4B24Ir3Rh
_symmetry_space_group_name_H-M   'P 1'
_cell_length_a   3.59469100
_cell_length_b   9.08640268
_cell_length_c   11.42756685
_cell_angle_alpha   90.04428166
_cell_angle_beta   90.00000000
_cell_angle_gamma   90.00000000
_symmetry_Int_Tables_number   1
_chemical_formula_structural   Tm4Lu4B24Ir3Rh
_chemical_formula_sum   'Tm4 Lu4 B24 Ir3 Rh1'
_cell_volume   373.25633262
_cell_formula_units_Z   1
loop_
 _symmetry_equiv_pos_site_id
 _symmetry_equiv_pos_as_xyz
  1  'x, y, z'
loop_
 _atom_site_type_symbol
 _atom_site_label
 _atom_site_symmetry_multiplicity
 _atom_site_fract_x
 _atom_site_fract_y
 _atom_site_fract_z
 _atom_site_occupancy
  Tm  Tm0  1  0.500000  0.322185  0.413343  1
  Tm  Tm1  1  0.500000  0.678378  0.585592  1
  Tm  Tm2  1  0.500000  0.179117  0.913618  1
  Tm  Tm3  1  0.500000  0.820690  0.087349  1
  Lu  Lu4  1  0.500000  0.445227  0.126458  1
  Lu  Lu5  1  0.500000  0.555261  0.874520  1
  Lu  Lu6  1  0.500000  0.055384  0.625350  1
  Lu  Lu7  1  0.500000  0.943641  0.374104  1
  B  B8  1  0.000000  0.107320  0.470721  1
  B  B9  1  0.000000  0.892482  0.529156  1
  B  B10  1  0.000000  0.392800  0.970966  1
  B  B11  1  0.000000  0.607491  0.029164  1
  B  B12  1  0.000000  0.132055  0.316639  1
  B  B13  1  0.000000  0.867891  0.683003  1
  B  B14  1  0.000000  0.367749  0.816935  1
  B  B15  1  0.000000  0.632587  0.183261  1
  B  B16  1  0.000000  0.054110  0.065472  1
  B  B17  1  0.000000  0.946027  0.934541  1
  B  B18  1  0.000000  0.446118  0.565258  1
  B  B19  1  0.000000  0.553710  0.434777  1
  B  B20  1  0.000000  0.481848  0.286772  1
  B  B21  1  0.000000  0.518144  0.713524  1
  B  B22  1  0.000000  0.018343  0.786394  1
  B  B23  1  0.000000  0.981666  0.213650  1
  B  B24  1  0.000000  0.251076  0.079147  1
  B  B25  1  0.000000  0.748968  0.920936  1
  B  B26  1  0.000000  0.249360  0.578968  1
  B  B27  1  0.000000  0.750392  0.420731  1
  B  B28  1  0.000000  0.294950  0.235641  1
  B  B29  1  0.000000  0.705327  0.764378  1
  B  B30  1  0.000000  0.205238  0.735646  1
  B  B31  1  0.000000  0.794805  0.263924  1
  Ir  Ir32  1  0.500000  0.139514  0.178841  1
  Ir  Ir33  1  0.500000  0.860678  0.820869  1
  Ir  Ir34  1  0.500000  0.360052  0.679939  1
  Rh  Rh35  1  0.500000  0.639418  0.320413  1
