# generated using pymatgen
data_Lu(Ti3Bi2)2
_symmetry_space_group_name_H-M   'P 1'
_cell_length_a   8.45680859
_cell_length_b   8.45680844
_cell_length_c   8.45680777
_cell_angle_alpha   40.60859288
_cell_angle_beta   40.60859763
_cell_angle_gamma   40.60859498
_symmetry_Int_Tables_number   1
_chemical_formula_structural   Lu(Ti3Bi2)2
_chemical_formula_sum   'Lu1 Ti6 Bi4'
_cell_volume   231.14325749
_cell_formula_units_Z   1
loop_
 _symmetry_equiv_pos_site_id
 _symmetry_equiv_pos_as_xyz
  1  'x, y, z'
loop_
 _atom_site_type_symbol
 _atom_site_label
 _atom_site_symmetry_multiplicity
 _atom_site_fract_x
 _atom_site_fract_y
 _atom_site_fract_z
 _atom_site_occupancy
  Lu  Lu0  1  0.000000  0.000000  0.000000  1
  Ti  Ti1  1  0.597088  0.597088  0.121839  1
  Ti  Ti2  1  0.878160  0.402912  0.402912  1
  Ti  Ti3  1  0.402912  0.878160  0.402912  1
  Ti  Ti4  1  0.597088  0.121840  0.597088  1
  Ti  Ti5  1  0.121840  0.597088  0.597088  1
  Ti  Ti6  1  0.402912  0.402912  0.878160  1
  Bi  Bi7  1  0.128268  0.128268  0.128268  1
  Bi  Bi8  1  0.331546  0.331546  0.331546  1
  Bi  Bi9  1  0.668454  0.668454  0.668454  1
  Bi  Bi10  1  0.871732  0.871732  0.871732  1
