# generated using pymatgen
data_Dy5Tm5(RuRh)2
_symmetry_space_group_name_H-M   'P 1'
_cell_length_a   6.35362497
_cell_length_b   7.22814676
_cell_length_c   8.45087697
_cell_angle_alpha   96.81919100
_cell_angle_beta   111.94638818
_cell_angle_gamma   89.99224962
_symmetry_Int_Tables_number   1
_chemical_formula_structural   Dy5Tm5(RuRh)2
_chemical_formula_sum   'Dy5 Tm5 Ru2 Rh2'
_cell_volume   357.02223608
_cell_formula_units_Z   1
loop_
 _symmetry_equiv_pos_site_id
 _symmetry_equiv_pos_as_xyz
  1  'x, y, z'
loop_
 _atom_site_type_symbol
 _atom_site_label
 _atom_site_symmetry_multiplicity
 _atom_site_fract_x
 _atom_site_fract_y
 _atom_site_fract_z
 _atom_site_occupancy
  Dy  Dy0  1  0.791287  0.081454  0.811351  1
  Dy  Dy1  1  0.979187  0.418646  0.188759  1
  Dy  Dy2  1  0.211745  0.914529  0.185851  1
  Dy  Dy3  1  0.024810  0.585139  0.813720  1
  Dy  Dy4  1  0.207533  0.183729  0.565064  1
  Tm  Tm5  1  0.641967  0.317447  0.434082  1
  Tm  Tm6  1  0.791784  0.812499  0.436197  1
  Tm  Tm7  1  0.356015  0.686387  0.563582  1
  Tm  Tm8  1  0.421137  0.250267  0.000832  1
  Tm  Tm9  1  0.576801  0.750193  0.000053  1
  Ru  Ru10  1  0.399023  0.574596  0.221192  1
  Ru  Ru11  1  0.178139  0.924875  0.779307  1
  Rh  Rh12  1  0.600933  0.424986  0.779128  1
  Rh  Rh13  1  0.819634  0.075252  0.220881  1
