# generated using pymatgen
data_CeCd3P7N12
_symmetry_space_group_name_H-M   'P 1'
_cell_length_a   7.48009259
_cell_length_b   7.49608837
_cell_length_c   7.49608913
_cell_angle_alpha   109.51440412
_cell_angle_beta   109.42800311
_cell_angle_gamma   109.42800271
_symmetry_Int_Tables_number   1
_chemical_formula_structural   CeCd3P7N12
_chemical_formula_sum   'Ce1 Cd3 P7 N12'
_cell_volume   323.73218629
_cell_formula_units_Z   1
loop_
 _symmetry_equiv_pos_site_id
 _symmetry_equiv_pos_as_xyz
  1  'x, y, z'
loop_
 _atom_site_type_symbol
 _atom_site_label
 _atom_site_symmetry_multiplicity
 _atom_site_fract_x
 _atom_site_fract_y
 _atom_site_fract_z
 _atom_site_occupancy
  Ce  Ce0  1  0.652602  0.000000  0.000000  1
  Cd  Cd1  1  0.999301  0.000000  0.665738  1
  Cd  Cd2  1  0.999301  0.665738  0.000000  1
  Cd  Cd3  1  0.333563  0.334262  0.334262  1
  P  P4  1  0.245863  0.749082  0.495616  1
  P  P5  1  0.750246  0.253465  0.504384  1
  P  P6  1  0.750246  0.504384  0.253465  1
  P  P7  1  0.245863  0.495616  0.749082  1
  P  P8  1  0.496781  0.746535  0.250918  1
  P  P9  1  0.496781  0.250918  0.746535  1
  P  P10  1  0.025253  0.000000  0.000000  1
  N  N11  1  0.716596  0.301656  0.301656  1
  N  N12  1  0.286354  0.703971  0.287431  1
  N  N13  1  0.305558  0.597135  0.597135  1
  N  N14  1  0.582383  0.583460  0.296029  1
  N  N15  1  0.414940  0.698344  0.000000  1
  N  N16  1  0.998923  0.712569  0.416540  1
  N  N17  1  0.582383  0.296029  0.583460  1
  N  N18  1  0.708423  0.000000  0.402865  1
  N  N19  1  0.414940  0.000000  0.698344  1
  N  N20  1  0.708423  0.402865  0.000000  1
  N  N21  1  0.286354  0.287431  0.703971  1
  N  N22  1  0.998923  0.416540  0.712569  1
