# generated using pymatgen
data_YbTh7(SiRh)8
_symmetry_space_group_name_H-M   'P 1'
_cell_length_a   5.83640013
_cell_length_b   7.75551734
_cell_length_c   10.83053300
_cell_angle_alpha   88.26598685
_cell_angle_beta   89.98773860
_cell_angle_gamma   89.83538442
_symmetry_Int_Tables_number   1
_chemical_formula_structural   YbTh7(SiRh)8
_chemical_formula_sum   'Yb1 Th7 Si8 Rh8'
_cell_volume   490.01000241
_cell_formula_units_Z   1
loop_
 _symmetry_equiv_pos_site_id
 _symmetry_equiv_pos_as_xyz
  1  'x, y, z'
loop_
 _atom_site_type_symbol
 _atom_site_label
 _atom_site_symmetry_multiplicity
 _atom_site_fract_x
 _atom_site_fract_y
 _atom_site_fract_z
 _atom_site_occupancy
  Yb  Yb0  1  0.353313  0.964307  0.140087  1
  Th  Th1  1  0.630696  0.326294  0.369659  1
  Th  Th2  1  0.128678  0.173492  0.630331  1
  Th  Th3  1  0.368890  0.673038  0.629674  1
  Th  Th4  1  0.871346  0.824172  0.368645  1
  Th  Th5  1  0.151443  0.461848  0.140293  1
  Th  Th6  1  0.645383  0.036185  0.862026  1
  Th  Th7  1  0.851956  0.537416  0.860687  1
  Si  Si8  1  0.626026  0.032688  0.578659  1
  Si  Si9  1  0.131311  0.465470  0.420706  1
  Si  Si10  1  0.367256  0.964184  0.417022  1
  Si  Si11  1  0.871642  0.532352  0.580919  1
  Si  Si12  1  0.858203  0.118030  0.143183  1
  Si  Si13  1  0.352495  0.379880  0.857599  1
  Si  Si14  1  0.148640  0.882181  0.856687  1
  Si  Si15  1  0.648210  0.624834  0.144057  1
  Rh  Rh16  1  0.907304  0.836715  0.048945  1
  Rh  Rh17  1  0.403353  0.665843  0.949786  1
  Rh  Rh18  1  0.084794  0.168228  0.948170  1
  Rh  Rh19  1  0.604038  0.336057  0.051105  1
  Rh  Rh20  1  0.894758  0.822951  0.669695  1
  Rh  Rh21  1  0.400343  0.673522  0.331408  1
  Rh  Rh22  1  0.098889  0.178242  0.331224  1
  Rh  Rh23  1  0.601034  0.322067  0.669433  1
