# generated using pymatgen
data_Ba6NdHg(BO3)6
_symmetry_space_group_name_H-M   'P 1'
_cell_length_a   8.26254682
_cell_length_b   8.26254721
_cell_length_c   8.26254615
_cell_angle_alpha   105.67013111
_cell_angle_beta   105.67013937
_cell_angle_gamma   105.67014075
_symmetry_Int_Tables_number   1
_chemical_formula_structural   Ba6NdHg(BO3)6
_chemical_formula_sum   'Ba6 Nd1 Hg1 B6 O18'
_cell_volume   485.80837729
_cell_formula_units_Z   1
loop_
 _symmetry_equiv_pos_site_id
 _symmetry_equiv_pos_as_xyz
  1  'x, y, z'
loop_
 _atom_site_type_symbol
 _atom_site_label
 _atom_site_symmetry_multiplicity
 _atom_site_fract_x
 _atom_site_fract_y
 _atom_site_fract_z
 _atom_site_occupancy
  Ba  Ba0  1  0.352355  0.727113  0.836244  1
  Ba  Ba1  1  0.836244  0.352355  0.727113  1
  Ba  Ba2  1  0.727113  0.836244  0.352355  1
  Ba  Ba3  1  0.647645  0.272887  0.163756  1
  Ba  Ba4  1  0.163756  0.647645  0.272887  1
  Ba  Ba5  1  0.272887  0.163756  0.647645  1
  Nd  Nd6  1  0.000000  0.000000  0.000000  1
  Hg  Hg7  1  0.500000  0.500000  0.500000  1
  B  B8  1  0.706752  0.618866  0.959148  1
  B  B9  1  0.959148  0.706752  0.618866  1
  B  B10  1  0.618866  0.959148  0.706752  1
  B  B11  1  0.040852  0.293248  0.381134  1
  B  B12  1  0.381134  0.040852  0.293248  1
  B  B13  1  0.293248  0.381134  0.040852  1
  O  O14  1  0.068297  0.811873  0.556828  1
  O  O15  1  0.556828  0.068297  0.811873  1
  O  O16  1  0.432320  0.508651  0.201584  1
  O  O17  1  0.508651  0.201584  0.432320  1
  O  O18  1  0.201584  0.432320  0.508651  1
  O  O19  1  0.798416  0.567680  0.491349  1
  O  O20  1  0.567680  0.491349  0.798416  1
  O  O21  1  0.491349  0.798416  0.567680  1
  O  O22  1  0.268370  0.198414  0.990322  1
  O  O23  1  0.198414  0.990322  0.268370  1
  O  O24  1  0.990322  0.268370  0.198414  1
  O  O25  1  0.731630  0.801586  0.009678  1
  O  O26  1  0.801586  0.009678  0.731630  1
  O  O27  1  0.009678  0.731630  0.801586  1
  O  O28  1  0.188127  0.443172  0.931703  1
  O  O29  1  0.443172  0.931703  0.188127  1
  O  O30  1  0.931703  0.188127  0.443172  1
  O  O31  1  0.811873  0.556828  0.068297  1
