# generated using pymatgen
data_Dy4Si6IrRh
_symmetry_space_group_name_H-M   'P 1'
_cell_length_a   8.16786900
_cell_length_b   8.16786957
_cell_length_c   7.93977300
_cell_angle_alpha   90.00000000
_cell_angle_beta   90.00000000
_cell_angle_gamma   119.99999363
_symmetry_Int_Tables_number   1
_chemical_formula_structural   Dy4Si6IrRh
_chemical_formula_sum   'Dy8 Si12 Ir2 Rh2'
_cell_volume   458.72911330
_cell_formula_units_Z   2
loop_
 _symmetry_equiv_pos_site_id
 _symmetry_equiv_pos_as_xyz
  1  'x, y, z'
loop_
 _atom_site_type_symbol
 _atom_site_label
 _atom_site_symmetry_multiplicity
 _atom_site_fract_x
 _atom_site_fract_y
 _atom_site_fract_z
 _atom_site_occupancy
  Dy  Dy0  1  0.000000  0.000000  0.248804  1
  Dy  Dy1  1  0.000000  0.000000  0.751196  1
  Dy  Dy2  1  0.509047  0.490953  0.250281  1
  Dy  Dy3  1  0.509047  0.018096  0.250281  1
  Dy  Dy4  1  0.981904  0.490953  0.250281  1
  Dy  Dy5  1  0.490953  0.509047  0.749719  1
  Dy  Dy6  1  0.490953  0.981904  0.749719  1
  Dy  Dy7  1  0.018096  0.509047  0.749719  1
  Si  Si8  1  0.166777  0.833223  0.499194  1
  Si  Si9  1  0.166777  0.333555  0.499194  1
  Si  Si10  1  0.666445  0.833223  0.499194  1
  Si  Si11  1  0.833223  0.166777  0.500806  1
  Si  Si12  1  0.833223  0.666445  0.500806  1
  Si  Si13  1  0.333555  0.166777  0.500806  1
  Si  Si14  1  0.833222  0.166778  0.999850  1
  Si  Si15  1  0.833222  0.666444  0.999850  1
  Si  Si16  1  0.333556  0.166778  0.999850  1
  Si  Si17  1  0.166778  0.833222  0.000150  1
  Si  Si18  1  0.166778  0.333556  0.000150  1
  Si  Si19  1  0.666444  0.833222  0.000150  1
  Ir  Ir20  1  0.333333  0.666667  0.468724  1
  Ir  Ir21  1  0.666667  0.333333  0.531276  1
  Rh  Rh22  1  0.666667  0.333333  0.965075  1
  Rh  Rh23  1  0.333333  0.666667  0.034925  1
