# generated using pymatgen
data_Pr2Nd6Si12RhAu3
_symmetry_space_group_name_H-M   'P 1'
_cell_length_a   8.28993900
_cell_length_b   8.28994541
_cell_length_c   8.62953900
_cell_angle_alpha   90.00012524
_cell_angle_beta   90.00000054
_cell_angle_gamma   120.00006668
_symmetry_Int_Tables_number   1
_chemical_formula_structural   Pr2Nd6Si12RhAu3
_chemical_formula_sum   'Pr2 Nd6 Si12 Rh1 Au3'
_cell_volume   513.59518255
_cell_formula_units_Z   1
loop_
 _symmetry_equiv_pos_site_id
 _symmetry_equiv_pos_as_xyz
  1  'x, y, z'
loop_
 _atom_site_type_symbol
 _atom_site_label
 _atom_site_symmetry_multiplicity
 _atom_site_fract_x
 _atom_site_fract_y
 _atom_site_fract_z
 _atom_site_occupancy
  Pr  Pr0  1  0.000001  0.000001  0.751518  1
  Pr  Pr1  1  0.000001  0.000001  0.248528  1
  Nd  Nd2  1  0.497045  0.502953  0.754169  1
  Nd  Nd3  1  0.497046  0.994093  0.754168  1
  Nd  Nd4  1  0.005910  0.502954  0.754169  1
  Nd  Nd5  1  0.498739  0.501258  0.245879  1
  Nd  Nd6  1  0.002518  0.501257  0.245880  1
  Nd  Nd7  1  0.498742  0.997484  0.245880  1
  Si  Si8  1  0.838152  0.161847  0.999204  1
  Si  Si9  1  0.838151  0.676304  0.999203  1
  Si  Si10  1  0.323696  0.161848  0.999204  1
  Si  Si11  1  0.836000  0.163999  0.500738  1
  Si  Si12  1  0.836000  0.672000  0.500737  1
  Si  Si13  1  0.327999  0.163999  0.500738  1
  Si  Si14  1  0.163639  0.836361  0.499287  1
  Si  Si15  1  0.672722  0.836361  0.499287  1
  Si  Si16  1  0.163639  0.327277  0.499287  1
  Si  Si17  1  0.169551  0.830450  0.001134  1
  Si  Si18  1  0.660896  0.830448  0.001133  1
  Si  Si19  1  0.169551  0.339102  0.001133  1
  Rh  Rh20  1  0.333333  0.666668  0.001510  1
  Au  Au21  1  0.666667  0.333333  0.997190  1
  Au  Au22  1  0.666667  0.333334  0.502743  1
  Au  Au23  1  0.333333  0.666667  0.497281  1
