# generated using pymatgen
data_PrEr9(In2Ir)4
_symmetry_space_group_name_H-M   'P 1'
_cell_length_a   3.63775600
_cell_length_b   7.98782324
_cell_length_c   18.32453918
_cell_angle_alpha   90.35704111
_cell_angle_beta   90.00000000
_cell_angle_gamma   90.00000000
_symmetry_Int_Tables_number   1
_chemical_formula_structural   PrEr9(In2Ir)4
_chemical_formula_sum   'Pr1 Er9 In8 Ir4'
_cell_volume   532.45957504
_cell_formula_units_Z   1
loop_
 _symmetry_equiv_pos_site_id
 _symmetry_equiv_pos_as_xyz
  1  'x, y, z'
loop_
 _atom_site_type_symbol
 _atom_site_label
 _atom_site_symmetry_multiplicity
 _atom_site_fract_x
 _atom_site_fract_y
 _atom_site_fract_z
 _atom_site_occupancy
  Pr  Pr0  1  0.000000  0.500000  0.500000  1
  Er  Er1  1  0.000000  0.000000  0.000000  1
  Er  Er2  1  0.000000  0.750689  0.275601  1
  Er  Er3  1  0.000000  0.249311  0.724399  1
  Er  Er4  1  0.000000  0.752227  0.779606  1
  Er  Er5  1  0.000000  0.247773  0.220394  1
  Er  Er6  1  0.000000  0.617688  0.088952  1
  Er  Er7  1  0.000000  0.382312  0.911048  1
  Er  Er8  1  0.000000  0.877977  0.591445  1
  Er  Er9  1  0.000000  0.122023  0.408555  1
  In  In10  1  0.500000  0.704195  0.933633  1
  In  In11  1  0.500000  0.295805  0.066367  1
  In  In12  1  0.500000  0.801651  0.429591  1
  In  In13  1  0.500000  0.198349  0.570409  1
  In  In14  1  0.500000  0.565419  0.653314  1
  In  In15  1  0.500000  0.434581  0.346686  1
  In  In16  1  0.500000  0.932612  0.147472  1
  In  In17  1  0.500000  0.067388  0.852528  1
  Ir  Ir18  1  0.500000  0.522561  0.194204  1
  Ir  Ir19  1  0.500000  0.477439  0.805796  1
  Ir  Ir20  1  0.500000  0.974935  0.697430  1
  Ir  Ir21  1  0.500000  0.025065  0.302570  1
