# generated using pymatgen
data_Dy8Co3Si12Au
_symmetry_space_group_name_H-M   'P 1'
_cell_length_a   8.06447600
_cell_length_b   8.06447739
_cell_length_c   7.99845600
_cell_angle_alpha   89.99994316
_cell_angle_beta   90.00000000
_cell_angle_gamma   119.99996148
_symmetry_Int_Tables_number   1
_chemical_formula_structural   Dy8Co3Si12Au
_chemical_formula_sum   'Dy8 Co3 Si12 Au1'
_cell_volume   450.49434409
_cell_formula_units_Z   1
loop_
 _symmetry_equiv_pos_site_id
 _symmetry_equiv_pos_as_xyz
  1  'x, y, z'
loop_
 _atom_site_type_symbol
 _atom_site_label
 _atom_site_symmetry_multiplicity
 _atom_site_fract_x
 _atom_site_fract_y
 _atom_site_fract_z
 _atom_site_occupancy
  Dy  Dy0  1  0.000000  0.000000  0.247843  1
  Dy  Dy1  1  0.000000  0.000000  0.754528  1
  Dy  Dy2  1  0.017856  0.508929  0.243166  1
  Dy  Dy3  1  0.491071  0.508928  0.243165  1
  Dy  Dy4  1  0.502116  0.004230  0.754243  1
  Dy  Dy5  1  0.491071  0.982144  0.243165  1
  Dy  Dy6  1  0.502116  0.497885  0.754242  1
  Dy  Dy7  1  0.995770  0.497884  0.754243  1
  Co  Co8  1  0.333333  0.666667  0.968083  1
  Co  Co9  1  0.333333  0.666667  0.534312  1
  Co  Co10  1  0.666667  0.333334  0.024809  1
  Si  Si11  1  0.170619  0.341239  0.998518  1
  Si  Si12  1  0.658761  0.829381  0.998517  1
  Si  Si13  1  0.174319  0.348636  0.498370  1
  Si  Si14  1  0.344600  0.172300  0.001216  1
  Si  Si15  1  0.170619  0.829380  0.998518  1
  Si  Si16  1  0.651364  0.825681  0.498369  1
  Si  Si17  1  0.827699  0.655400  0.001216  1
  Si  Si18  1  0.319528  0.159764  0.503402  1
  Si  Si19  1  0.174319  0.825681  0.498370  1
  Si  Si20  1  0.840236  0.680472  0.503403  1
  Si  Si21  1  0.827699  0.172300  0.001216  1
  Si  Si22  1  0.840236  0.159764  0.503403  1
  Au  Au23  1  0.666667  0.333333  0.473681  1
