# generated using pymatgen
data_DyLu2IrO7
_symmetry_space_group_name_H-M   'P 1'
_cell_length_a   6.35534437
_cell_length_b   6.35534590
_cell_length_c   7.32766100
_cell_angle_alpha   90.00000000
_cell_angle_beta   90.00000000
_cell_angle_gamma   109.11804284
_symmetry_Int_Tables_number   1
_chemical_formula_structural   DyLu2IrO7
_chemical_formula_sum   'Dy2 Lu4 Ir2 O14'
_cell_volume   279.64341536
_cell_formula_units_Z   2
loop_
 _symmetry_equiv_pos_site_id
 _symmetry_equiv_pos_as_xyz
  1  'x, y, z'
loop_
 _atom_site_type_symbol
 _atom_site_label
 _atom_site_symmetry_multiplicity
 _atom_site_fract_x
 _atom_site_fract_y
 _atom_site_fract_z
 _atom_site_occupancy
  Dy  Dy0  1  0.511356  0.511356  0.500000  1
  Dy  Dy1  1  0.488644  0.488644  0.000000  1
  Lu  Lu2  1  0.999189  0.467471  0.747859  1
  Lu  Lu3  1  0.000811  0.532529  0.247859  1
  Lu  Lu4  1  0.532529  0.000811  0.752141  1
  Lu  Lu5  1  0.467471  0.999189  0.252141  1
  Ir  Ir6  1  0.000091  0.000091  0.500000  1
  Ir  Ir7  1  0.999909  0.999909  0.000000  1
  O  O8  1  0.639746  0.360254  0.750000  1
  O  O9  1  0.360254  0.639746  0.250000  1
  O  O10  1  0.922005  0.077995  0.750000  1
  O  O11  1  0.077995  0.922005  0.250000  1
  O  O12  1  0.922478  0.672349  0.526811  1
  O  O13  1  0.077522  0.327651  0.026811  1
  O  O14  1  0.327651  0.077522  0.973189  1
  O  O15  1  0.672349  0.922478  0.473189  1
  O  O16  1  0.364080  0.635920  0.750000  1
  O  O17  1  0.635920  0.364080  0.250000  1
  O  O18  1  0.929299  0.676404  0.969788  1
  O  O19  1  0.070701  0.323596  0.469788  1
  O  O20  1  0.323596  0.070701  0.530212  1
  O  O21  1  0.676404  0.929299  0.030212  1
