# generated using pymatgen
data_Er4BI6
_symmetry_space_group_name_H-M   'P 1'
_cell_length_a   4.08661600
_cell_length_b   13.83935600
_cell_length_c   14.31811900
_cell_angle_alpha   90.00000000
_cell_angle_beta   90.00000000
_cell_angle_gamma   90.00000000
_symmetry_Int_Tables_number   1
_chemical_formula_structural   Er4BI6
_chemical_formula_sum   'Er8 B2 I12'
_cell_volume   809.77745191
_cell_formula_units_Z   2
loop_
 _symmetry_equiv_pos_site_id
 _symmetry_equiv_pos_as_xyz
  1  'x, y, z'
loop_
 _atom_site_type_symbol
 _atom_site_label
 _atom_site_symmetry_multiplicity
 _atom_site_fract_x
 _atom_site_fract_y
 _atom_site_fract_z
 _atom_site_occupancy
  Er  Er0  1  0.000000  0.094953  0.075641  1
  Er  Er1  1  0.000000  0.905047  0.924359  1
  Er  Er2  1  0.000000  0.594953  0.424359  1
  Er  Er3  1  0.000000  0.405047  0.575641  1
  Er  Er4  1  0.500000  0.116593  0.863176  1
  Er  Er5  1  0.500000  0.883407  0.136824  1
  Er  Er6  1  0.500000  0.616593  0.636824  1
  Er  Er7  1  0.500000  0.383407  0.363176  1
  B  B8  1  0.500000  0.000000  0.000000  1
  B  B9  1  0.500000  0.500000  0.500000  1
  I  I10  1  0.500000  0.268713  0.681246  1
  I  I11  1  0.500000  0.731287  0.318754  1
  I  I12  1  0.500000  0.768713  0.818754  1
  I  I13  1  0.500000  0.231287  0.181246  1
  I  I14  1  0.000000  0.263996  0.932504  1
  I  I15  1  0.000000  0.736004  0.067496  1
  I  I16  1  0.000000  0.482159  0.236476  1
  I  I17  1  0.000000  0.517841  0.763524  1
  I  I18  1  0.000000  0.982159  0.263524  1
  I  I19  1  0.000000  0.017841  0.736476  1
  I  I20  1  0.000000  0.236004  0.432504  1
  I  I21  1  0.000000  0.763996  0.567496  1
