# generated using pymatgen
data_Dy2Sc3(SiGe)2
_symmetry_space_group_name_H-M   'P 1'
_cell_length_a   7.15634800
_cell_length_b   7.41824400
_cell_length_c   14.05991800
_cell_angle_alpha   90.00000000
_cell_angle_beta   90.00000000
_cell_angle_gamma   90.00000000
_symmetry_Int_Tables_number   1
_chemical_formula_structural   Dy2Sc3(SiGe)2
_chemical_formula_sum   'Dy8 Sc12 Si8 Ge8'
_cell_volume   746.40639754
_cell_formula_units_Z   4
loop_
 _symmetry_equiv_pos_site_id
 _symmetry_equiv_pos_as_xyz
  1  'x, y, z'
loop_
 _atom_site_type_symbol
 _atom_site_label
 _atom_site_symmetry_multiplicity
 _atom_site_fract_x
 _atom_site_fract_y
 _atom_site_fract_z
 _atom_site_occupancy
  Dy  Dy0  1  0.009992  0.176045  0.098871  1
  Dy  Dy1  1  0.990008  0.823955  0.901129  1
  Dy  Dy2  1  0.490008  0.676045  0.901129  1
  Dy  Dy3  1  0.990008  0.823955  0.598871  1
  Dy  Dy4  1  0.509992  0.323955  0.098871  1
  Dy  Dy5  1  0.009992  0.176045  0.401129  1
  Dy  Dy6  1  0.509992  0.323955  0.401129  1
  Dy  Dy7  1  0.490008  0.676045  0.598871  1
  Sc  Sc8  1  0.161337  0.502206  0.750000  1
  Sc  Sc9  1  0.838663  0.497794  0.250000  1
  Sc  Sc10  1  0.338663  0.002206  0.250000  1
  Sc  Sc11  1  0.661337  0.997794  0.750000  1
  Sc  Sc12  1  0.332567  0.174019  0.626615  1
  Sc  Sc13  1  0.667433  0.825981  0.373385  1
  Sc  Sc14  1  0.167433  0.674019  0.373385  1
  Sc  Sc15  1  0.667433  0.825981  0.126615  1
  Sc  Sc16  1  0.832567  0.325981  0.626615  1
  Sc  Sc17  1  0.332567  0.174019  0.873385  1
  Sc  Sc18  1  0.832567  0.325981  0.873385  1
  Sc  Sc19  1  0.167433  0.674019  0.126615  1
  Si  Si20  1  0.033652  0.117758  0.750000  1
  Si  Si21  1  0.966348  0.882242  0.250000  1
  Si  Si22  1  0.466348  0.617758  0.250000  1
  Si  Si23  1  0.533652  0.382242  0.750000  1
  Si  Si24  1  0.286940  0.872665  0.750000  1
  Si  Si25  1  0.713060  0.127335  0.250000  1
  Si  Si26  1  0.213060  0.372665  0.250000  1
  Si  Si27  1  0.786940  0.627335  0.750000  1
  Ge  Ge28  1  0.167282  0.462053  0.540839  1
  Ge  Ge29  1  0.832718  0.537947  0.459161  1
  Ge  Ge30  1  0.332718  0.962053  0.459161  1
  Ge  Ge31  1  0.832718  0.537947  0.040839  1
  Ge  Ge32  1  0.667282  0.037947  0.540839  1
  Ge  Ge33  1  0.167282  0.462053  0.959161  1
  Ge  Ge34  1  0.667282  0.037947  0.959161  1
  Ge  Ge35  1  0.332718  0.962053  0.040839  1
