# generated using pymatgen
data_Sm7Tm(Si4Mo3)4
_symmetry_space_group_name_H-M   'P 1'
_cell_length_a   6.84784322
_cell_length_b   7.01558825
_cell_length_c   13.00912267
_cell_angle_alpha   89.92808729
_cell_angle_beta   89.98502969
_cell_angle_gamma   89.89915334
_symmetry_Int_Tables_number   1
_chemical_formula_structural   Sm7Tm(Si4Mo3)4
_chemical_formula_sum   'Sm7 Tm1 Si16 Mo12'
_cell_volume   624.97821675
_cell_formula_units_Z   1
loop_
 _symmetry_equiv_pos_site_id
 _symmetry_equiv_pos_as_xyz
  1  'x, y, z'
loop_
 _atom_site_type_symbol
 _atom_site_label
 _atom_site_symmetry_multiplicity
 _atom_site_fract_x
 _atom_site_fract_y
 _atom_site_fract_z
 _atom_site_occupancy
  Sm  Sm0  1  0.497359  0.334399  0.094078  1
  Sm  Sm1  1  0.997521  0.165310  0.406042  1
  Sm  Sm2  1  0.502777  0.665248  0.594136  1
  Sm  Sm3  1  0.001826  0.834121  0.906754  1
  Sm  Sm4  1  0.502210  0.665979  0.906693  1
  Sm  Sm5  1  0.002401  0.834628  0.594163  1
  Sm  Sm6  1  0.497156  0.334411  0.404787  1
  Tm  Tm7  1  0.996284  0.166799  0.095141  1
  Si  Si8  1  0.655918  0.045218  0.548584  1
  Si  Si9  1  0.155939  0.453563  0.952549  1
  Si  Si10  1  0.339932  0.957691  0.049095  1
  Si  Si11  1  0.843708  0.544895  0.451042  1
  Si  Si12  1  0.344419  0.954707  0.450561  1
  Si  Si13  1  0.845074  0.541043  0.049095  1
  Si  Si14  1  0.657279  0.044920  0.952784  1
  Si  Si15  1  0.156154  0.455559  0.548643  1
  Si  Si16  1  0.535754  0.361308  0.750720  1
  Si  Si17  1  0.036211  0.138444  0.750295  1
  Si  Si18  1  0.464771  0.639764  0.249287  1
  Si  Si19  1  0.964966  0.863958  0.248567  1
  Si  Si20  1  0.805254  0.622213  0.750625  1
  Si  Si21  1  0.304447  0.876199  0.750382  1
  Si  Si22  1  0.193193  0.374401  0.248504  1
  Si  Si23  1  0.697651  0.124313  0.248661  1
  Mo  Mo24  1  0.831760  0.334404  0.626457  1
  Mo  Mo25  1  0.330332  0.164326  0.874801  1
  Mo  Mo26  1  0.168223  0.665504  0.125916  1
  Mo  Mo27  1  0.669759  0.835846  0.372943  1
  Mo  Mo28  1  0.167918  0.665345  0.372718  1
  Mo  Mo29  1  0.670320  0.836680  0.125212  1
  Mo  Mo30  1  0.832582  0.333111  0.875076  1
  Mo  Mo31  1  0.331269  0.164661  0.626210  1
  Mo  Mo32  1  0.664924  0.002932  0.750606  1
  Mo  Mo33  1  0.165168  0.496902  0.750492  1
  Mo  Mo34  1  0.334255  0.999068  0.249026  1
  Mo  Mo35  1  0.835283  0.502128  0.249358  1
