# generated using pymatgen
data_Nd2Si7(PdPt3)3
_symmetry_space_group_name_H-M   'P 1'
_cell_length_a   9.92965400
_cell_length_b   9.92965347
_cell_length_c   4.01500200
_cell_angle_alpha   90.00000000
_cell_angle_beta   90.00000000
_cell_angle_gamma   120.00000177
_symmetry_Int_Tables_number   1
_chemical_formula_structural   Nd2Si7(PdPt3)3
_chemical_formula_sum   'Nd2 Si7 Pd3 Pt9'
_cell_volume   342.83456221
_cell_formula_units_Z   1
loop_
 _symmetry_equiv_pos_site_id
 _symmetry_equiv_pos_as_xyz
  1  'x, y, z'
loop_
 _atom_site_type_symbol
 _atom_site_label
 _atom_site_symmetry_multiplicity
 _atom_site_fract_x
 _atom_site_fract_y
 _atom_site_fract_z
 _atom_site_occupancy
  Nd  Nd0  1  0.000000  0.000000  0.000000  1
  Nd  Nd1  1  0.333333  0.666667  0.500000  1
  Si  Si2  1  0.267712  0.220658  0.500000  1
  Si  Si3  1  0.779342  0.047055  0.500000  1
  Si  Si4  1  0.952945  0.732288  0.500000  1
  Si  Si5  1  0.553460  0.631485  0.000000  1
  Si  Si6  1  0.368515  0.921973  0.000000  1
  Si  Si7  1  0.078027  0.446540  0.000000  1
  Si  Si8  1  0.666667  0.333333  0.000000  1
  Pd  Pd9  1  0.882709  0.458328  0.500000  1
  Pd  Pd10  1  0.575619  0.117291  0.500000  1
  Pd  Pd11  1  0.541672  0.424381  0.500000  1
  Pt  Pt12  1  0.220786  0.944986  0.500000  1
  Pt  Pt13  1  0.055014  0.275799  0.500000  1
  Pt  Pt14  1  0.724201  0.779214  0.500000  1
  Pt  Pt15  1  0.300859  0.406672  0.000000  1
  Pt  Pt16  1  0.593328  0.894188  0.000000  1
  Pt  Pt17  1  0.105812  0.699141  0.000000  1
  Pt  Pt18  1  0.391202  0.174158  0.000000  1
  Pt  Pt19  1  0.825842  0.217045  0.000000  1
  Pt  Pt20  1  0.782955  0.608798  0.000000  1
