# generated using pymatgen
data_Tb3Er(HfIr)4
_symmetry_space_group_name_H-M   'P 1'
_cell_length_a   4.52539400
_cell_length_b   7.06677521
_cell_length_c   8.34207500
_cell_angle_alpha   90.10205254
_cell_angle_beta   90.00000000
_cell_angle_gamma   90.00000000
_symmetry_Int_Tables_number   1
_chemical_formula_structural   Tb3Er(HfIr)4
_chemical_formula_sum   'Tb3 Er1 Hf4 Ir4'
_cell_volume   266.77865259
_cell_formula_units_Z   1
loop_
 _symmetry_equiv_pos_site_id
 _symmetry_equiv_pos_as_xyz
  1  'x, y, z'
loop_
 _atom_site_type_symbol
 _atom_site_label
 _atom_site_symmetry_multiplicity
 _atom_site_fract_x
 _atom_site_fract_y
 _atom_site_fract_z
 _atom_site_occupancy
  Tb  Tb0  1  0.250000  0.486554  0.177866  1
  Tb  Tb1  1  0.750000  0.013714  0.676720  1
  Tb  Tb2  1  0.750000  0.515282  0.822550  1
  Er  Er3  1  0.250000  0.983260  0.323371  1
  Hf  Hf4  1  0.250000  0.357593  0.570602  1
  Hf  Hf5  1  0.250000  0.861143  0.929157  1
  Hf  Hf6  1  0.750000  0.639820  0.427471  1
  Hf  Hf7  1  0.750000  0.142392  0.073790  1
  Ir  Ir8  1  0.250000  0.232681  0.908030  1
  Ir  Ir9  1  0.250000  0.731120  0.590678  1
  Ir  Ir10  1  0.750000  0.770241  0.093201  1
  Ir  Ir11  1  0.750000  0.266200  0.406564  1
