# generated using pymatgen
data_Tb3Ho5Sc12Si15Ru
_symmetry_space_group_name_H-M   'P 1'
_cell_length_a   7.07948621
_cell_length_b   7.44827648
_cell_length_c   13.93962864
_cell_angle_alpha   90.02605572
_cell_angle_beta   89.97718016
_cell_angle_gamma   90.15595826
_symmetry_Int_Tables_number   1
_chemical_formula_structural   Tb3Ho5Sc12Si15Ru
_chemical_formula_sum   'Tb3 Ho5 Sc12 Si15 Ru1'
_cell_volume   735.03335250
_cell_formula_units_Z   1
loop_
 _symmetry_equiv_pos_site_id
 _symmetry_equiv_pos_as_xyz
  1  'x, y, z'
loop_
 _atom_site_type_symbol
 _atom_site_label
 _atom_site_symmetry_multiplicity
 _atom_site_fract_x
 _atom_site_fract_y
 _atom_site_fract_z
 _atom_site_occupancy
  Tb  Tb0  1  0.011170  0.178970  0.404048  1
  Tb  Tb1  1  0.511286  0.323555  0.404061  1
  Tb  Tb2  1  0.489572  0.675935  0.595756  1
  Ho  Ho3  1  0.011617  0.179713  0.095845  1
  Ho  Ho4  1  0.990521  0.826458  0.905140  1
  Ho  Ho5  1  0.489243  0.676812  0.904407  1
  Ho  Ho6  1  0.990666  0.826566  0.595887  1
  Ho  Ho7  1  0.511264  0.322746  0.095658  1
  Sc  Sc8  1  0.158171  0.502888  0.750326  1
  Sc  Sc9  1  0.838585  0.496226  0.249463  1
  Sc  Sc10  1  0.339454  0.005998  0.249521  1
  Sc  Sc11  1  0.669116  0.997210  0.750323  1
  Sc  Sc12  1  0.315062  0.170477  0.628730  1
  Sc  Sc13  1  0.672696  0.826919  0.373398  1
  Sc  Sc14  1  0.171804  0.678414  0.373595  1
  Sc  Sc15  1  0.672352  0.826408  0.125610  1
  Sc  Sc16  1  0.837441  0.319750  0.628328  1
  Sc  Sc17  1  0.314881  0.170702  0.872004  1
  Sc  Sc18  1  0.838161  0.319011  0.872497  1
  Sc  Sc19  1  0.171897  0.677947  0.125449  1
  Si  Si20  1  0.969442  0.885690  0.249271  1
  Si  Si21  1  0.470145  0.614731  0.249348  1
  Si  Si22  1  0.529034  0.387045  0.750787  1
  Si  Si23  1  0.285631  0.865833  0.750740  1
  Si  Si24  1  0.713456  0.130842  0.248915  1
  Si  Si25  1  0.214210  0.371541  0.248949  1
  Si  Si26  1  0.780199  0.626612  0.750914  1
  Si  Si27  1  0.158939  0.468844  0.537750  1
  Si  Si28  1  0.844953  0.537371  0.461851  1
  Si  Si29  1  0.344835  0.965447  0.460388  1
  Si  Si30  1  0.843818  0.535581  0.038404  1
  Si  Si31  1  0.655786  0.034622  0.539114  1
  Si  Si32  1  0.160321  0.468364  0.962417  1
  Si  Si33  1  0.655354  0.034570  0.961039  1
  Si  Si34  1  0.344007  0.966182  0.039784  1
  Ru  Ru35  1  0.024911  0.104017  0.750282  1
