# generated using pymatgen
data_Dy5Er3(Sc3Ga4)4
_symmetry_space_group_name_H-M   'P 1'
_cell_length_a   7.26726004
_cell_length_b   7.57283005
_cell_length_c   14.45289014
_cell_angle_alpha   89.98816450
_cell_angle_beta   90.01048005
_cell_angle_gamma   90.00430920
_symmetry_Int_Tables_number   1
_chemical_formula_structural   Dy5Er3(Sc3Ga4)4
_chemical_formula_sum   'Dy5 Er3 Sc12 Ga16'
_cell_volume   795.39635089
_cell_formula_units_Z   1
loop_
 _symmetry_equiv_pos_site_id
 _symmetry_equiv_pos_as_xyz
  1  'x, y, z'
loop_
 _atom_site_type_symbol
 _atom_site_label
 _atom_site_symmetry_multiplicity
 _atom_site_fract_x
 _atom_site_fract_y
 _atom_site_fract_z
 _atom_site_occupancy
  Dy  Dy0  1  0.010587  0.180202  0.094295  1
  Dy  Dy1  1  0.989435  0.819786  0.905678  1
  Dy  Dy2  1  0.489410  0.680210  0.905728  1
  Dy  Dy3  1  0.989411  0.819830  0.594252  1
  Dy  Dy4  1  0.510594  0.319785  0.094292  1
  Er  Er5  1  0.010616  0.180560  0.405592  1
  Er  Er6  1  0.510600  0.319486  0.405664  1
  Er  Er7  1  0.489374  0.680359  0.594359  1
  Sc  Sc8  1  0.162333  0.502985  0.749938  1
  Sc  Sc9  1  0.837710  0.496834  0.250125  1
  Sc  Sc10  1  0.337772  0.003129  0.250121  1
  Sc  Sc11  1  0.662140  0.996970  0.749947  1
  Sc  Sc12  1  0.330105  0.172951  0.624656  1
  Sc  Sc13  1  0.670002  0.827145  0.375330  1
  Sc  Sc14  1  0.170121  0.672854  0.375277  1
  Sc  Sc15  1  0.669980  0.827110  0.124804  1
  Sc  Sc16  1  0.829906  0.327118  0.624660  1
  Sc  Sc17  1  0.330047  0.172890  0.875217  1
  Sc  Sc18  1  0.830016  0.327077  0.875245  1
  Sc  Sc19  1  0.169963  0.672920  0.124790  1
  Ga  Ga20  1  0.030616  0.115997  0.749992  1
  Ga  Ga21  1  0.969383  0.884121  0.250065  1
  Ga  Ga22  1  0.469396  0.615874  0.250067  1
  Ga  Ga23  1  0.530599  0.384110  0.749944  1
  Ga  Ga24  1  0.283528  0.870304  0.749897  1
  Ga  Ga25  1  0.716643  0.129733  0.250192  1
  Ga  Ga26  1  0.216633  0.370255  0.250218  1
  Ga  Ga27  1  0.783202  0.629584  0.749880  1
  Ga  Ga28  1  0.163084  0.465244  0.540379  1
  Ga  Ga29  1  0.836933  0.534340  0.459480  1
  Ga  Ga30  1  0.337167  0.965530  0.459534  1
  Ga  Ga31  1  0.837266  0.534751  0.040409  1
  Ga  Ga32  1  0.662680  0.034660  0.540359  1
  Ga  Ga33  1  0.162734  0.465270  0.959606  1
  Ga  Ga34  1  0.662729  0.034784  0.959591  1
  Ga  Ga35  1  0.337284  0.965243  0.040415  1
