# generated using pymatgen
data_La5Yb5Sn8
_symmetry_space_group_name_H-M   'P 1'
_cell_length_a   8.06931600
_cell_length_b   8.61936222
_cell_length_c   16.25903702
_cell_angle_alpha   89.98991483
_cell_angle_beta   90.00000000
_cell_angle_gamma   90.00000000
_symmetry_Int_Tables_number   1
_chemical_formula_structural   La5Yb5Sn8
_chemical_formula_sum   'La10 Yb10 Sn16'
_cell_volume   1130.85433770
_cell_formula_units_Z   2
loop_
 _symmetry_equiv_pos_site_id
 _symmetry_equiv_pos_as_xyz
  1  'x, y, z'
loop_
 _atom_site_type_symbol
 _atom_site_label
 _atom_site_symmetry_multiplicity
 _atom_site_fract_x
 _atom_site_fract_y
 _atom_site_fract_z
 _atom_site_occupancy
  La  La0  1  0.335380  0.827451  0.123488  1
  La  La1  1  0.835380  0.672549  0.376512  1
  La  La2  1  0.997889  0.187239  0.092660  1
  La  La3  1  0.497889  0.312761  0.407340  1
  La  La4  1  0.503295  0.685195  0.901556  1
  La  La5  1  0.003295  0.814805  0.598444  1
  La  La6  1  0.000699  0.813647  0.902468  1
  La  La7  1  0.500699  0.686353  0.597532  1
  La  La8  1  0.498004  0.315424  0.092730  1
  La  La9  1  0.998004  0.184576  0.407270  1
  Yb  Yb10  1  0.833270  0.667324  0.121958  1
  Yb  Yb11  1  0.333270  0.832676  0.378042  1
  Yb  Yb12  1  0.669227  0.167656  0.875153  1
  Yb  Yb13  1  0.169227  0.332344  0.624847  1
  Yb  Yb14  1  0.163806  0.330511  0.874725  1
  Yb  Yb15  1  0.663806  0.169489  0.625275  1
  Yb  Yb16  1  0.664912  0.999984  0.249609  1
  Yb  Yb17  1  0.164912  0.500016  0.250391  1
  Yb  Yb18  1  0.834512  0.494592  0.750205  1
  Yb  Yb19  1  0.334512  0.005408  0.749795  1
  Sn  Sn20  1  0.035739  0.897279  0.250437  1
  Sn  Sn21  1  0.535739  0.602721  0.249563  1
  Sn  Sn22  1  0.464127  0.393301  0.751354  1
  Sn  Sn23  1  0.964127  0.106699  0.748646  1
  Sn  Sn24  1  0.790770  0.358405  0.250336  1
  Sn  Sn25  1  0.290770  0.141595  0.249664  1
  Sn  Sn26  1  0.709648  0.860718  0.749680  1
  Sn  Sn27  1  0.209648  0.639282  0.750320  1
  Sn  Sn28  1  0.825769  0.462518  0.959684  1
  Sn  Sn29  1  0.325769  0.037482  0.540316  1
  Sn  Sn30  1  0.675344  0.964681  0.038160  1
  Sn  Sn31  1  0.175344  0.535319  0.461840  1
  Sn  Sn32  1  0.169077  0.534156  0.036902  1
  Sn  Sn33  1  0.669077  0.965844  0.463098  1
  Sn  Sn34  1  0.328531  0.036955  0.958033  1
  Sn  Sn35  1  0.828531  0.463045  0.541967  1
