# generated using pymatgen
data_Hf6Cu2TcOs3
_symmetry_space_group_name_H-M   'P 1'
_cell_length_a   4.61101601
_cell_length_b   6.52580100
_cell_length_c   13.79317402
_cell_angle_alpha   90.00000000
_cell_angle_beta   89.99430074
_cell_angle_gamma   90.00000000
_symmetry_Int_Tables_number   1
_chemical_formula_structural   Hf6Cu2TcOs3
_chemical_formula_sum   'Hf12 Cu4 Tc2 Os6'
_cell_volume   415.04450569
_cell_formula_units_Z   2
loop_
 _symmetry_equiv_pos_site_id
 _symmetry_equiv_pos_as_xyz
  1  'x, y, z'
loop_
 _atom_site_type_symbol
 _atom_site_label
 _atom_site_symmetry_multiplicity
 _atom_site_fract_x
 _atom_site_fract_y
 _atom_site_fract_z
 _atom_site_occupancy
  Hf  Hf0  1  0.499979  0.250243  0.000850  1
  Hf  Hf1  1  0.499979  0.749757  0.000850  1
  Hf  Hf2  1  0.999870  0.249755  0.165825  1
  Hf  Hf3  1  0.999870  0.750244  0.165825  1
  Hf  Hf4  1  0.499858  0.247923  0.332122  1
  Hf  Hf5  1  0.499858  0.752078  0.332122  1
  Hf  Hf6  1  0.000000  0.250484  0.499554  1
  Hf  Hf7  1  0.000000  0.749517  0.499554  1
  Hf  Hf8  1  0.500151  0.249518  0.667106  1
  Hf  Hf9  1  0.500151  0.750483  0.667106  1
  Hf  Hf10  1  0.000123  0.252078  0.834547  1
  Hf  Hf11  1  0.000123  0.747921  0.834547  1
  Cu  Cu12  1  0.999859  0.500000  0.331327  1
  Cu  Cu13  1  0.499995  0.000000  0.499498  1
  Cu  Cu14  1  0.000210  0.500000  0.667160  1
  Cu  Cu15  1  0.500138  0.000000  0.835323  1
  Tc  Tc16  1  0.999989  0.500000  0.998625  1
  Tc  Tc17  1  0.499867  0.000000  0.168056  1
  Os  Os18  1  0.999972  0.000000  0.997605  1
  Os  Os19  1  0.499866  0.500000  0.169073  1
  Os  Os20  1  0.999842  0.000000  0.336279  1
  Os  Os21  1  0.500004  0.500000  0.501803  1
  Os  Os22  1  0.000178  0.000000  0.664853  1
  Os  Os23  1  0.500123  0.500000  0.830393  1
