# generated using pymatgen
data_Cs3V(SeO5)2
_symmetry_space_group_name_H-M   'P 1'
_cell_length_a   8.20032900
_cell_length_b   8.21748702
_cell_length_c   11.26429717
_cell_angle_alpha   76.47458190
_cell_angle_beta   90.00000000
_cell_angle_gamma   90.00000000
_symmetry_Int_Tables_number   1
_chemical_formula_structural   Cs3V(SeO5)2
_chemical_formula_sum   'Cs6 V2 Se4 O20'
_cell_volume   738.00553338
_cell_formula_units_Z   2
loop_
 _symmetry_equiv_pos_site_id
 _symmetry_equiv_pos_as_xyz
  1  'x, y, z'
loop_
 _atom_site_type_symbol
 _atom_site_label
 _atom_site_symmetry_multiplicity
 _atom_site_fract_x
 _atom_site_fract_y
 _atom_site_fract_z
 _atom_site_occupancy
  Cs  Cs0  1  0.614835  0.577517  0.596294  1
  Cs  Cs1  1  0.114835  0.422483  0.403706  1
  Cs  Cs2  1  0.347005  0.980008  0.739227  1
  Cs  Cs3  1  0.847005  0.019992  0.260773  1
  Cs  Cs4  1  0.914907  0.706669  0.962324  1
  Cs  Cs5  1  0.414907  0.293331  0.037676  1
  V  V6  1  0.346826  0.758197  0.147288  1
  V  V7  1  0.846826  0.241803  0.852712  1
  Se  Se8  1  0.318339  0.942783  0.338491  1
  Se  Se9  1  0.818339  0.057217  0.661509  1
  Se  Se10  1  0.640902  0.543181  0.254404  1
  Se  Se11  1  0.140902  0.456819  0.745596  1
  O  O12  1  0.569315  0.685856  0.122836  1
  O  O13  1  0.069315  0.314144  0.877164  1
  O  O14  1  0.480666  0.521938  0.347404  1
  O  O15  1  0.980666  0.478062  0.652596  1
  O  O16  1  0.482735  0.930727  0.249862  1
  O  O17  1  0.982735  0.069273  0.750138  1
  O  O18  1  0.200526  0.802089  0.280427  1
  O  O19  1  0.700526  0.197911  0.719573  1
  O  O20  1  0.351654  0.873559  0.485726  1
  O  O21  1  0.851654  0.126441  0.514274  1
  O  O22  1  0.814189  0.091215  0.976544  1
  O  O23  1  0.314189  0.908785  0.023456  1
  O  O24  1  0.799577  0.631453  0.305953  1
  O  O25  1  0.299577  0.368547  0.694047  1
  O  O26  1  0.694184  0.373048  0.209011  1
  O  O27  1  0.194184  0.626952  0.790989  1
  O  O28  1  0.227761  0.127649  0.301770  1
  O  O29  1  0.727761  0.872351  0.698230  1
  O  O30  1  0.235078  0.595261  0.131012  1
  O  O31  1  0.735078  0.404739  0.868988  1
