# generated using pymatgen
data_Ta10Ga4Ge2C
_symmetry_space_group_name_H-M   'P 1'
_cell_length_a   7.71416822
_cell_length_b   7.71943890
_cell_length_c   5.31550068
_cell_angle_alpha   90.00764158
_cell_angle_beta   89.99618971
_cell_angle_gamma   120.02260903
_symmetry_Int_Tables_number   1
_chemical_formula_structural   Ta10Ga4Ge2C
_chemical_formula_sum   'Ta10 Ga4 Ge2 C1'
_cell_volume   274.06315804
_cell_formula_units_Z   1
loop_
 _symmetry_equiv_pos_site_id
 _symmetry_equiv_pos_as_xyz
  1  'x, y, z'
loop_
 _atom_site_type_symbol
 _atom_site_label
 _atom_site_symmetry_multiplicity
 _atom_site_fract_x
 _atom_site_fract_y
 _atom_site_fract_z
 _atom_site_occupancy
  Ta  Ta0  1  0.000000  0.764256  0.253390  1
  Ta  Ta1  1  0.235972  0.235898  0.253089  1
  Ta  Ta2  1  0.764028  0.999925  0.253089  1
  Ta  Ta3  1  0.000000  0.234949  0.745614  1
  Ta  Ta4  1  0.766037  0.766047  0.746795  1
  Ta  Ta5  1  0.233963  0.000011  0.746795  1
  Ta  Ta6  1  0.335092  0.667015  0.000569  1
  Ta  Ta7  1  0.664908  0.331922  0.000569  1
  Ta  Ta8  1  0.665135  0.332323  0.499160  1
  Ta  Ta9  1  0.334865  0.667189  0.499160  1
  Ga  Ga10  1  0.000000  0.401795  0.243837  1
  Ga  Ga11  1  0.600773  0.599761  0.244969  1
  Ga  Ga12  1  0.399227  0.998988  0.244969  1
  Ga  Ga13  1  0.000000  0.597690  0.756101  1
  Ge  Ge14  1  0.401814  0.402108  0.756810  1
  Ge  Ge15  1  0.598186  0.000295  0.756810  1
  C  C16  1  0.000000  0.999830  0.498276  1
