# generated using pymatgen
data_CaTm(NiP)2
_symmetry_space_group_name_H-M   'P 1'
_cell_length_a   3.86154800
_cell_length_b   3.86154742
_cell_length_c   15.99813200
_cell_angle_alpha   90.00000000
_cell_angle_beta   90.00000000
_cell_angle_gamma   120.00000494
_symmetry_Int_Tables_number   1
_chemical_formula_structural   CaTm(NiP)2
_chemical_formula_sum   'Ca2 Tm2 Ni4 P4'
_cell_volume   206.59637463
_cell_formula_units_Z   2
loop_
 _symmetry_equiv_pos_site_id
 _symmetry_equiv_pos_as_xyz
  1  'x, y, z'
loop_
 _atom_site_type_symbol
 _atom_site_label
 _atom_site_symmetry_multiplicity
 _atom_site_fract_x
 _atom_site_fract_y
 _atom_site_fract_z
 _atom_site_occupancy
  Ca  Ca0  1  0.000000  0.000000  0.500000  1
  Ca  Ca1  1  0.000000  0.000000  0.000000  1
  Tm  Tm2  1  0.000000  0.000000  0.250000  1
  Tm  Tm3  1  0.000000  0.000000  0.750000  1
  Ni  Ni4  1  0.333333  0.666667  0.366463  1
  Ni  Ni5  1  0.666667  0.333333  0.633537  1
  Ni  Ni6  1  0.666667  0.333333  0.866463  1
  Ni  Ni7  1  0.333333  0.666667  0.133537  1
  P  P8  1  0.333333  0.666667  0.871451  1
  P  P9  1  0.666667  0.333333  0.128549  1
  P  P10  1  0.666667  0.333333  0.371451  1
  P  P11  1  0.333333  0.666667  0.628549  1
