# generated using pymatgen
data_SmEr3SiI6
_symmetry_space_group_name_H-M   'P 1'
_cell_length_a   4.20613500
_cell_length_b   14.04910232
_cell_length_c   14.75294058
_cell_angle_alpha   89.39846588
_cell_angle_beta   90.00000000
_cell_angle_gamma   90.00000000
_symmetry_Int_Tables_number   1
_chemical_formula_structural   SmEr3SiI6
_chemical_formula_sum   'Sm2 Er6 Si2 I12'
_cell_volume   871.73893014
_cell_formula_units_Z   2
loop_
 _symmetry_equiv_pos_site_id
 _symmetry_equiv_pos_as_xyz
  1  'x, y, z'
loop_
 _atom_site_type_symbol
 _atom_site_label
 _atom_site_symmetry_multiplicity
 _atom_site_fract_x
 _atom_site_fract_y
 _atom_site_fract_z
 _atom_site_occupancy
  Sm  Sm0  1  0.000000  0.113998  0.577002  1
  Sm  Sm1  1  0.000000  0.886002  0.422998  1
  Er  Er2  1  0.500000  0.114203  0.347886  1
  Er  Er3  1  0.500000  0.885797  0.652114  1
  Er  Er4  1  0.500000  0.612776  0.150062  1
  Er  Er5  1  0.500000  0.387224  0.849938  1
  Er  Er6  1  0.000000  0.609326  0.926312  1
  Er  Er7  1  0.000000  0.390674  0.073688  1
  Si  Si8  1  0.500000  0.000000  0.500000  1
  Si  Si9  1  0.500000  0.500000  0.000000  1
  I  I10  1  0.500000  0.249800  0.161966  1
  I  I11  1  0.500000  0.750200  0.838034  1
  I  I12  1  0.500000  0.740518  0.332531  1
  I  I13  1  0.500000  0.259482  0.667469  1
  I  I14  1  0.000000  0.258962  0.409661  1
  I  I15  1  0.000000  0.741038  0.590339  1
  I  I16  1  0.000000  0.756287  0.084203  1
  I  I17  1  0.000000  0.243713  0.915797  1
  I  I18  1  0.000000  0.005204  0.237724  1
  I  I19  1  0.000000  0.994796  0.762276  1
  I  I20  1  0.000000  0.499289  0.257078  1
  I  I21  1  0.000000  0.500711  0.742922  1
