# generated using pymatgen
data_Zr5MnCo16(Si6Mo)2
_symmetry_space_group_name_H-M   'P 1'
_cell_length_a   11.95184800
_cell_length_b   11.92464812
_cell_length_c   3.66348700
_cell_angle_alpha   90.00000000
_cell_angle_beta   90.00000000
_cell_angle_gamma   119.92474010
_symmetry_Int_Tables_number   1
_chemical_formula_structural   Zr5MnCo16(Si6Mo)2
_chemical_formula_sum   'Zr5 Mn1 Co16 Si12 Mo2'
_cell_volume   452.51687174
_cell_formula_units_Z   1
loop_
 _symmetry_equiv_pos_site_id
 _symmetry_equiv_pos_as_xyz
  1  'x, y, z'
loop_
 _atom_site_type_symbol
 _atom_site_label
 _atom_site_symmetry_multiplicity
 _atom_site_fract_x
 _atom_site_fract_y
 _atom_site_fract_z
 _atom_site_occupancy
  Zr  Zr0  1  0.666849  0.334841  0.000000  1
  Zr  Zr1  1  0.333151  0.667992  0.000000  1
  Zr  Zr2  1  0.815165  0.815161  0.500000  1
  Zr  Zr3  1  0.184835  0.999996  0.500000  1
  Zr  Zr4  1  0.000000  0.188928  0.500000  1
  Mn  Mn5  1  0.000000  0.561916  0.000000  1
  Co  Co6  1  0.194763  0.376513  0.000000  1
  Co  Co7  1  0.176299  0.799797  0.000000  1
  Co  Co8  1  0.823701  0.623497  0.000000  1
  Co  Co9  1  0.805237  0.181750  0.000000  1
  Co  Co10  1  0.373251  0.194174  0.000000  1
  Co  Co11  1  0.122175  0.479431  0.500000  1
  Co  Co12  1  0.352624  0.872426  0.500000  1
  Co  Co13  1  0.523042  0.644313  0.500000  1
  Co  Co14  1  0.647376  0.519800  0.500000  1
  Co  Co15  1  0.877825  0.357256  0.500000  1
  Co  Co16  1  0.476958  0.121271  0.500000  1
  Co  Co17  1  0.000000  0.999638  0.000000  1
  Co  Co18  1  0.721659  0.001196  0.500000  1
  Co  Co19  1  0.000000  0.719587  0.500000  1
  Co  Co20  1  0.626749  0.820924  0.000000  1
  Co  Co21  1  0.278341  0.279536  0.500000  1
  Si  Si22  1  0.643417  0.639783  0.000000  1
  Si  Si23  1  0.356583  0.996366  0.000000  1
  Si  Si24  1  0.000000  0.368608  0.000000  1
  Si  Si25  1  0.482474  0.311755  0.500000  1
  Si  Si26  1  0.686419  0.171014  0.500000  1
  Si  Si27  1  0.837563  0.518606  0.500000  1
  Si  Si28  1  0.517526  0.829280  0.500000  1
  Si  Si29  1  0.162437  0.681043  0.500000  1
  Si  Si30  1  0.821736  0.001845  0.000000  1
  Si  Si31  1  0.000000  0.819756  0.000000  1
  Si  Si32  1  0.313581  0.484596  0.500000  1
  Si  Si33  1  0.178264  0.180109  0.000000  1
  Mo  Mo34  1  0.438192  0.437741  0.000000  1
  Mo  Mo35  1  0.561808  0.999549  0.000000  1
