# generated using pymatgen
data_Y5Mg3Fe9Ni7P12
_symmetry_space_group_name_H-M   'P 1'
_cell_length_a   12.16993600
_cell_length_b   12.16993586
_cell_length_c   3.77484300
_cell_angle_alpha   90.00000000
_cell_angle_beta   90.00000000
_cell_angle_gamma   120.00000582
_symmetry_Int_Tables_number   1
_chemical_formula_structural   Y5Mg3Fe9Ni7P12
_chemical_formula_sum   'Y5 Mg3 Fe9 Ni7 P12'
_cell_volume   484.17914980
_cell_formula_units_Z   1
loop_
 _symmetry_equiv_pos_site_id
 _symmetry_equiv_pos_as_xyz
  1  'x, y, z'
loop_
 _atom_site_type_symbol
 _atom_site_label
 _atom_site_symmetry_multiplicity
 _atom_site_fract_x
 _atom_site_fract_y
 _atom_site_fract_z
 _atom_site_occupancy
  Y  Y0  1  0.185249  0.185249  0.500000  1
  Y  Y1  1  0.814751  0.000000  0.500000  1
  Y  Y2  1  0.000000  0.814751  0.500000  1
  Y  Y3  1  0.333333  0.666667  0.000000  1
  Y  Y4  1  0.666667  0.333333  0.000000  1
  Mg  Mg5  1  0.559964  0.559964  0.000000  1
  Mg  Mg6  1  0.440036  0.000000  0.000000  1
  Mg  Mg7  1  0.000000  0.440036  0.000000  1
  Fe  Fe8  1  0.719795  0.719795  0.500000  1
  Fe  Fe9  1  0.280205  0.000000  0.500000  1
  Fe  Fe10  1  0.000000  0.280205  0.500000  1
  Fe  Fe11  1  0.181029  0.376981  0.000000  1
  Fe  Fe12  1  0.623019  0.804048  0.000000  1
  Fe  Fe13  1  0.195952  0.818971  0.000000  1
  Fe  Fe14  1  0.804048  0.623019  0.000000  1
  Fe  Fe15  1  0.818971  0.195952  0.000000  1
  Fe  Fe16  1  0.376981  0.181029  0.000000  1
  Ni  Ni17  1  0.362976  0.484882  0.500000  1
  Ni  Ni18  1  0.515118  0.878094  0.500000  1
  Ni  Ni19  1  0.121906  0.637024  0.500000  1
  Ni  Ni20  1  0.878094  0.515118  0.500000  1
  Ni  Ni21  1  0.637024  0.121906  0.500000  1
  Ni  Ni22  1  0.484882  0.362976  0.500000  1
  Ni  Ni23  1  0.000000  0.000000  0.000000  1
  P  P24  1  0.815205  0.815205  0.000000  1
  P  P25  1  0.184795  0.000000  0.000000  1
  P  P26  1  0.000000  0.184795  0.000000  1
  P  P27  1  0.172817  0.472621  0.500000  1
  P  P28  1  0.527379  0.700197  0.500000  1
  P  P29  1  0.299803  0.827183  0.500000  1
  P  P30  1  0.700197  0.527379  0.500000  1
  P  P31  1  0.827183  0.299803  0.500000  1
  P  P32  1  0.472621  0.172817  0.500000  1
  P  P33  1  0.355604  0.355604  0.000000  1
  P  P34  1  0.644396  0.000000  0.000000  1
  P  P35  1  0.000000  0.644396  0.000000  1
