# generated using pymatgen
data_VSi4Mo3Ir4
_symmetry_space_group_name_H-M   'P 1'
_cell_length_a   3.87679800
_cell_length_b   6.20817659
_cell_length_c   7.14472753
_cell_angle_alpha   90.09562172
_cell_angle_beta   90.00000000
_cell_angle_gamma   90.00000000
_symmetry_Int_Tables_number   1
_chemical_formula_structural   VSi4Mo3Ir4
_chemical_formula_sum   'V1 Si4 Mo3 Ir4'
_cell_volume   171.95796673
_cell_formula_units_Z   1
loop_
 _symmetry_equiv_pos_site_id
 _symmetry_equiv_pos_as_xyz
  1  'x, y, z'
loop_
 _atom_site_type_symbol
 _atom_site_label
 _atom_site_symmetry_multiplicity
 _atom_site_fract_x
 _atom_site_fract_y
 _atom_site_fract_z
 _atom_site_occupancy
  V  V0  1  0.750000  0.472875  0.824173  1
  Si  Si1  1  0.250000  0.262155  0.624040  1
  Si  Si2  1  0.250000  0.758779  0.879740  1
  Si  Si3  1  0.750000  0.738130  0.377198  1
  Si  Si4  1  0.750000  0.240331  0.120095  1
  Mo  Mo5  1  0.250000  0.026528  0.330954  1
  Mo  Mo6  1  0.250000  0.525905  0.173631  1
  Mo  Mo7  1  0.750000  0.975044  0.668007  1
  Ir  Ir8  1  0.250000  0.148993  0.937976  1
  Ir  Ir9  1  0.250000  0.645540  0.565661  1
  Ir  Ir10  1  0.750000  0.852703  0.060803  1
  Ir  Ir11  1  0.750000  0.353017  0.437721  1
