# generated using pymatgen
data_Pr5GdTa2O14
_symmetry_space_group_name_H-M   'P 1'
_cell_length_a   6.72711149
_cell_length_b   6.71654180
_cell_length_c   7.73650080
_cell_angle_alpha   90.04900899
_cell_angle_beta   90.08544825
_cell_angle_gamma   108.97969469
_symmetry_Int_Tables_number   1
_chemical_formula_structural   Pr5GdTa2O14
_chemical_formula_sum   'Pr5 Gd1 Ta2 O14'
_cell_volume   330.55294766
_cell_formula_units_Z   1
loop_
 _symmetry_equiv_pos_site_id
 _symmetry_equiv_pos_as_xyz
  1  'x, y, z'
loop_
 _atom_site_type_symbol
 _atom_site_label
 _atom_site_symmetry_multiplicity
 _atom_site_fract_x
 _atom_site_fract_y
 _atom_site_fract_z
 _atom_site_occupancy
  Pr  Pr0  1  0.464972  0.000167  0.257015  1
  Pr  Pr1  1  0.997250  0.535909  0.242981  1
  Pr  Pr2  1  0.462617  0.467697  0.999602  1
  Pr  Pr3  1  0.529227  0.526119  0.501842  1
  Pr  Pr4  1  0.536817  0.998362  0.756838  1
  Gd  Gd5  1  0.000077  0.469063  0.742503  1
  Ta  Ta6  1  0.002254  0.003438  0.501874  1
  Ta  Ta7  1  0.998475  0.997861  0.998692  1
  O  O8  1  0.942097  0.056953  0.750193  1
  O  O9  1  0.646825  0.365836  0.752715  1
  O  O10  1  0.305009  0.060861  0.536023  1
  O  O11  1  0.963534  0.702771  0.956099  1
  O  O12  1  0.629185  0.370144  0.249194  1
  O  O13  1  0.928861  0.683258  0.529025  1
  O  O14  1  0.320254  0.080724  0.977371  1
  O  O15  1  0.073385  0.319137  0.018831  1
  O  O16  1  0.681178  0.918643  0.476954  1
  O  O17  1  0.360476  0.624233  0.747302  1
  O  O18  1  0.697328  0.940495  0.036232  1
  O  O19  1  0.043674  0.302284  0.467125  1
  O  O20  1  0.361708  0.632950  0.251235  1
  O  O21  1  0.054797  0.943095  0.250352  1
