# generated using pymatgen
data_Pr7Y(Si3Rh)4
_symmetry_space_group_name_H-M   'P 1'
_cell_length_a   8.27830400
_cell_length_b   8.27877454
_cell_length_c   8.37960600
_cell_angle_alpha   90.00000000
_cell_angle_beta   90.00000000
_cell_angle_gamma   119.99834672
_symmetry_Int_Tables_number   1
_chemical_formula_structural   Pr7Y(Si3Rh)4
_chemical_formula_sum   'Pr7 Y1 Si12 Rh4'
_cell_volume   497.35775219
_cell_formula_units_Z   1
loop_
 _symmetry_equiv_pos_site_id
 _symmetry_equiv_pos_as_xyz
  1  'x, y, z'
loop_
 _atom_site_type_symbol
 _atom_site_label
 _atom_site_symmetry_multiplicity
 _atom_site_fract_x
 _atom_site_fract_y
 _atom_site_fract_z
 _atom_site_occupancy
  Pr  Pr0  1  0.999978  0.999976  0.250000  1
  Pr  Pr1  1  0.000066  0.000116  0.750000  1
  Pr  Pr2  1  0.495985  0.503988  0.250000  1
  Pr  Pr3  1  0.496814  0.993627  0.250000  1
  Pr  Pr4  1  0.007997  0.503971  0.250000  1
  Pr  Pr5  1  0.504650  0.495427  0.750000  1
  Pr  Pr6  1  0.990770  0.495427  0.750000  1
  Y  Y7  1  0.503640  0.007285  0.750000  1
  Si  Si8  1  0.832307  0.165569  0.504269  1
  Si  Si9  1  0.833723  0.667439  0.499377  1
  Si  Si10  1  0.333268  0.165569  0.504269  1
  Si  Si11  1  0.832307  0.165569  0.995731  1
  Si  Si12  1  0.833723  0.667439  0.000623  1
  Si  Si13  1  0.333268  0.165569  0.995731  1
  Si  Si14  1  0.167616  0.833917  0.998850  1
  Si  Si15  1  0.666298  0.833919  0.998845  1
  Si  Si16  1  0.166668  0.333341  0.999879  1
  Si  Si17  1  0.167616  0.833917  0.501150  1
  Si  Si18  1  0.666298  0.833919  0.501155  1
  Si  Si19  1  0.166668  0.333341  0.500121  1
  Rh  Rh20  1  0.665790  0.331576  0.488745  1
  Rh  Rh21  1  0.665790  0.331576  0.011255  1
  Rh  Rh22  1  0.334379  0.668760  0.978930  1
  Rh  Rh23  1  0.334379  0.668760  0.521070  1
