# generated using pymatgen
data_FeMo2Ir5
_symmetry_space_group_name_H-M   'P 1'
_cell_length_a   5.49774242
_cell_length_b   5.48880746
_cell_length_c   4.38584600
_cell_angle_alpha   90.00000000
_cell_angle_beta   90.00000000
_cell_angle_gamma   119.94620713
_symmetry_Int_Tables_number   1
_chemical_formula_structural   FeMo2Ir5
_chemical_formula_sum   'Fe1 Mo2 Ir5'
_cell_volume   114.67838012
_cell_formula_units_Z   1
loop_
 _symmetry_equiv_pos_site_id
 _symmetry_equiv_pos_as_xyz
  1  'x, y, z'
loop_
 _atom_site_type_symbol
 _atom_site_label
 _atom_site_symmetry_multiplicity
 _atom_site_fract_x
 _atom_site_fract_y
 _atom_site_fract_z
 _atom_site_occupancy
  Fe  Fe0  1  0.665861  0.832931  0.750001  1
  Mo  Mo1  1  0.667650  0.333825  0.750001  1
  Mo  Mo2  1  0.341822  0.670911  0.250000  1
  Ir  Ir3  1  0.167756  0.834398  0.750001  1
  Ir  Ir4  1  0.828907  0.159227  0.250000  1
  Ir  Ir5  1  0.331346  0.165673  0.250000  1
  Ir  Ir6  1  0.167756  0.333360  0.750001  1
  Ir  Ir7  1  0.828907  0.669679  0.250000  1
