# generated using pymatgen
data_NdPa3(SnPt2)2
_symmetry_space_group_name_H-M   'P 1'
_cell_length_a   7.82543701
_cell_length_b   7.82372371
_cell_length_c   3.73867500
_cell_angle_alpha   90.00000000
_cell_angle_beta   90.00000000
_cell_angle_gamma   91.10934980
_symmetry_Int_Tables_number   1
_chemical_formula_structural   NdPa3(SnPt2)2
_chemical_formula_sum   'Nd1 Pa3 Sn2 Pt4'
_cell_volume   228.85394874
_cell_formula_units_Z   1
loop_
 _symmetry_equiv_pos_site_id
 _symmetry_equiv_pos_as_xyz
  1  'x, y, z'
loop_
 _atom_site_type_symbol
 _atom_site_label
 _atom_site_symmetry_multiplicity
 _atom_site_fract_x
 _atom_site_fract_y
 _atom_site_fract_z
 _atom_site_occupancy
  Nd  Nd0  1  0.324538  0.175444  0.500000  1
  Pa  Pa1  1  0.173859  0.673764  0.500000  1
  Pa  Pa2  1  0.826216  0.326063  0.500000  1
  Pa  Pa3  1  0.672358  0.827628  0.500000  1
  Sn  Sn4  1  0.498743  0.495960  0.000000  1
  Sn  Sn5  1  0.004021  0.001253  0.000000  1
  Pt  Pt6  1  0.643767  0.121627  0.000000  1
  Pt  Pt7  1  0.378299  0.856277  0.000000  1
  Pt  Pt8  1  0.114170  0.385962  0.000000  1
  Pt  Pt9  1  0.864029  0.636022  0.000000  1
