# generated using pymatgen
data_Zr6AlGa4(SiNi8)2
_symmetry_space_group_name_H-M   'P 1'
_cell_length_a   8.21520383
_cell_length_b   8.21511118
_cell_length_c   8.24384601
_cell_angle_alpha   59.88008672
_cell_angle_beta   59.88055493
_cell_angle_gamma   60.23269448
_symmetry_Int_Tables_number   1
_chemical_formula_structural   Zr6AlGa4(SiNi8)2
_chemical_formula_sum   'Zr6 Al1 Ga4 Si2 Ni16'
_cell_volume   393.38139046
_cell_formula_units_Z   1
loop_
 _symmetry_equiv_pos_site_id
 _symmetry_equiv_pos_as_xyz
  1  'x, y, z'
loop_
 _atom_site_type_symbol
 _atom_site_label
 _atom_site_symmetry_multiplicity
 _atom_site_fract_x
 _atom_site_fract_y
 _atom_site_fract_z
 _atom_site_occupancy
  Zr  Zr0  1  0.793207  0.206797  0.793222  1
  Zr  Zr1  1  0.791010  0.791021  0.208992  1
  Zr  Zr2  1  0.206806  0.793216  0.793212  1
  Zr  Zr3  1  0.208990  0.208979  0.791008  1
  Zr  Zr4  1  0.793194  0.206784  0.206788  1
  Zr  Zr5  1  0.206793  0.793203  0.206778  1
  Al  Al6  1  0.500000  0.500000  0.500000  1
  Ga  Ga7  1  0.000000  0.500000  0.000000  1
  Ga  Ga8  1  0.500000  0.000000  0.500000  1
  Ga  Ga9  1  0.000000  0.500000  0.500000  1
  Ga  Ga10  1  0.500000  0.000000  0.000000  1
  Si  Si11  1  0.500000  0.500000  0.000000  1
  Si  Si12  1  0.000000  0.000000  0.500000  1
  Ni  Ni13  1  0.165831  0.165820  0.175175  1
  Ni  Ni14  1  0.617614  0.617616  0.139777  1
  Ni  Ni15  1  0.382387  0.382386  0.375054  1
  Ni  Ni16  1  0.175218  0.493177  0.165809  1
  Ni  Ni17  1  0.165842  0.165830  0.493151  1
  Ni  Ni18  1  0.139764  0.624963  0.617638  1
  Ni  Ni19  1  0.624948  0.139786  0.617637  1
  Ni  Ni20  1  0.834169  0.834180  0.824825  1
  Ni  Ni21  1  0.860236  0.375037  0.382362  1
  Ni  Ni22  1  0.382386  0.382384  0.860223  1
  Ni  Ni23  1  0.375052  0.860214  0.382363  1
  Ni  Ni24  1  0.506852  0.824778  0.834179  1
  Ni  Ni25  1  0.617613  0.617614  0.624946  1
  Ni  Ni26  1  0.834158  0.834170  0.506849  1
  Ni  Ni27  1  0.493148  0.175222  0.165821  1
  Ni  Ni28  1  0.824782  0.506823  0.834191  1
