# generated using pymatgen
data_Nd4In2Ag3Rh
_symmetry_space_group_name_H-M   'P 1'
_cell_length_a   8.10754783
_cell_length_b   8.10754783
_cell_length_c   3.87674200
_cell_angle_alpha   90.00000000
_cell_angle_beta   90.00000000
_cell_angle_gamma   90.20383973
_symmetry_Int_Tables_number   1
_chemical_formula_structural   Nd4In2Ag3Rh
_chemical_formula_sum   'Nd4 In2 Ag3 Rh1'
_cell_volume   254.82567865
_cell_formula_units_Z   1
loop_
 _symmetry_equiv_pos_site_id
 _symmetry_equiv_pos_as_xyz
  1  'x, y, z'
loop_
 _atom_site_type_symbol
 _atom_site_label
 _atom_site_symmetry_multiplicity
 _atom_site_fract_x
 _atom_site_fract_y
 _atom_site_fract_z
 _atom_site_occupancy
  Nd  Nd0  1  0.683284  0.150633  0.500000  1
  Nd  Nd1  1  0.349367  0.816716  0.500000  1
  Nd  Nd2  1  0.807908  0.692092  0.500000  1
  Nd  Nd3  1  0.173429  0.326571  0.500000  1
  In  In4  1  0.500187  0.499280  0.000000  1
  In  In5  1  0.000720  0.999813  0.000000  1
  Ag  Ag6  1  0.374668  0.125332  0.000000  1
  Ag  Ag7  1  0.118631  0.630866  0.000000  1
  Ag  Ag8  1  0.869134  0.381369  0.000000  1
  Rh  Rh9  1  0.622672  0.877328  0.000000  1
