# generated using pymatgen
data_Er20GaBi7Ir4
_symmetry_space_group_name_H-M   'P 1'
_cell_length_a   7.89829414
_cell_length_b   8.94283661
_cell_length_c   12.27666100
_cell_angle_alpha   90.11193486
_cell_angle_beta   90.05865019
_cell_angle_gamma   90.09195884
_symmetry_Int_Tables_number   1
_chemical_formula_structural   Er20GaBi7Ir4
_chemical_formula_sum   'Er20 Ga1 Bi7 Ir4'
_cell_volume   867.13605824
_cell_formula_units_Z   1
loop_
 _symmetry_equiv_pos_site_id
 _symmetry_equiv_pos_as_xyz
  1  'x, y, z'
loop_
 _atom_site_type_symbol
 _atom_site_label
 _atom_site_symmetry_multiplicity
 _atom_site_fract_x
 _atom_site_fract_y
 _atom_site_fract_z
 _atom_site_occupancy
  Er  Er0  1  0.671493  0.760706  0.710453  1
  Er  Er1  1  0.337634  0.249848  0.294521  1
  Er  Er2  1  0.154494  0.239621  0.786704  1
  Er  Er3  1  0.839128  0.748533  0.209432  1
  Er  Er4  1  0.115778  0.760845  0.801344  1
  Er  Er5  1  0.875205  0.250171  0.192226  1
  Er  Er6  1  0.639750  0.240764  0.692724  1
  Er  Er7  1  0.374916  0.750507  0.307203  1
  Er  Er8  1  0.551398  0.748508  0.997938  1
  Er  Er9  1  0.446266  0.251302  0.000511  1
  Er  Er10  1  0.043866  0.238708  0.509145  1
  Er  Er11  1  0.948460  0.761152  0.504357  1
  Er  Er12  1  0.823290  0.455922  0.932486  1
  Er  Er13  1  0.175083  0.545202  0.065329  1
  Er  Er14  1  0.325278  0.542146  0.567011  1
  Er  Er15  1  0.174864  0.956712  0.066343  1
  Er  Er16  1  0.678545  0.458716  0.435169  1
  Er  Er17  1  0.828524  0.041697  0.924226  1
  Er  Er18  1  0.675369  0.042970  0.436285  1
  Er  Er19  1  0.317823  0.957742  0.568207  1
  Ga  Ga20  1  0.936175  0.005223  0.670132  1
  Bi  Bi21  1  0.067155  0.991367  0.325688  1
  Bi  Bi22  1  0.431937  0.991225  0.828369  1
  Bi  Bi23  1  0.067833  0.508270  0.331438  1
  Bi  Bi24  1  0.567479  0.009290  0.172013  1
  Bi  Bi25  1  0.933111  0.492732  0.671994  1
  Bi  Bi26  1  0.566902  0.490280  0.173367  1
  Bi  Bi27  1  0.431653  0.508239  0.824368  1
  Ir  Ir28  1  0.923724  0.750711  0.989526  1
  Ir  Ir29  1  0.074562  0.250235  0.008303  1
  Ir  Ir30  1  0.429095  0.249734  0.511603  1
  Ir  Ir31  1  0.573211  0.750920  0.491586  1
