# generated using pymatgen
data_Y4VRe3B16
_symmetry_space_group_name_H-M   'P 1'
_cell_length_a   3.58761600
_cell_length_b   5.98394494
_cell_length_c   11.56951369
_cell_angle_alpha   89.86817071
_cell_angle_beta   90.00000000
_cell_angle_gamma   90.00000000
_symmetry_Int_Tables_number   1
_chemical_formula_structural   Y4VRe3B16
_chemical_formula_sum   'Y4 V1 Re3 B16'
_cell_volume   248.37478028
_cell_formula_units_Z   1
loop_
 _symmetry_equiv_pos_site_id
 _symmetry_equiv_pos_as_xyz
  1  'x, y, z'
loop_
 _atom_site_type_symbol
 _atom_site_label
 _atom_site_symmetry_multiplicity
 _atom_site_fract_x
 _atom_site_fract_y
 _atom_site_fract_z
 _atom_site_occupancy
  Y  Y0  1  0.000000  0.625720  0.351426  1
  Y  Y1  1  0.000000  0.375285  0.649077  1
  Y  Y2  1  0.000000  0.126271  0.151014  1
  Y  Y3  1  0.000000  0.873089  0.847472  1
  V  V4  1  0.000000  0.872078  0.582490  1
  Re  Re5  1  0.000000  0.632607  0.087016  1
  Re  Re6  1  0.000000  0.367530  0.914093  1
  Re  Re7  1  0.000000  0.126642  0.416280  1
  B  B8  1  0.500000  0.785108  0.185525  1
  B  B9  1  0.500000  0.215041  0.814647  1
  B  B10  1  0.500000  0.285611  0.315675  1
  B  B11  1  0.500000  0.714411  0.684623  1
  B  B12  1  0.500000  0.863640  0.031527  1
  B  B13  1  0.500000  0.136513  0.968389  1
  B  B14  1  0.500000  0.364204  0.467999  1
  B  B15  1  0.500000  0.635486  0.532404  1
  B  B16  1  0.500000  0.886075  0.453188  1
  B  B17  1  0.500000  0.113990  0.547187  1
  B  B18  1  0.500000  0.386296  0.047417  1
  B  B19  1  0.500000  0.614364  0.952513  1
  B  B20  1  0.500000  0.976560  0.307905  1
  B  B21  1  0.500000  0.023302  0.692224  1
  B  B22  1  0.500000  0.476271  0.192458  1
  B  B23  1  0.500000  0.523907  0.807452  1
