# generated using pymatgen
data_Ac2Yb(YSn2)2
_symmetry_space_group_name_H-M   'P 1'
_cell_length_a   8.22921000
_cell_length_b   8.55389800
_cell_length_c   16.07792500
_cell_angle_alpha   90.00000000
_cell_angle_beta   90.00000000
_cell_angle_gamma   90.00000000
_symmetry_Int_Tables_number   1
_chemical_formula_structural   Ac2Yb(YSn2)2
_chemical_formula_sum   'Ac8 Yb4 Y8 Sn16'
_cell_volume   1131.75445017
_cell_formula_units_Z   4
loop_
 _symmetry_equiv_pos_site_id
 _symmetry_equiv_pos_as_xyz
  1  'x, y, z'
loop_
 _atom_site_type_symbol
 _atom_site_label
 _atom_site_symmetry_multiplicity
 _atom_site_fract_x
 _atom_site_fract_y
 _atom_site_fract_z
 _atom_site_occupancy
  Ac  Ac0  1  0.503180  0.677547  0.596013  1
  Ac  Ac1  1  0.003180  0.822453  0.903987  1
  Ac  Ac2  1  0.496820  0.322453  0.096013  1
  Ac  Ac3  1  0.996820  0.177547  0.403987  1
  Ac  Ac4  1  0.496820  0.322453  0.403987  1
  Ac  Ac5  1  0.996820  0.177547  0.096013  1
  Ac  Ac6  1  0.503180  0.677547  0.903987  1
  Ac  Ac7  1  0.003180  0.822453  0.596013  1
  Yb  Yb8  1  0.827253  0.501529  0.750000  1
  Yb  Yb9  1  0.327253  0.998471  0.750000  1
  Yb  Yb10  1  0.172747  0.498471  0.250000  1
  Yb  Yb11  1  0.672747  0.001529  0.250000  1
  Y  Y12  1  0.664027  0.169881  0.624579  1
  Y  Y13  1  0.164027  0.330119  0.875421  1
  Y  Y14  1  0.335973  0.830119  0.124579  1
  Y  Y15  1  0.835973  0.669881  0.375421  1
  Y  Y16  1  0.335973  0.830119  0.375421  1
  Y  Y17  1  0.835973  0.669881  0.124579  1
  Y  Y18  1  0.664027  0.169881  0.875421  1
  Y  Y19  1  0.164027  0.330119  0.624579  1
  Sn  Sn20  1  0.670971  0.958809  0.460958  1
  Sn  Sn21  1  0.170971  0.541191  0.039042  1
  Sn  Sn22  1  0.329029  0.041191  0.960958  1
  Sn  Sn23  1  0.829029  0.458809  0.539042  1
  Sn  Sn24  1  0.329029  0.041191  0.539042  1
  Sn  Sn25  1  0.829029  0.458809  0.960958  1
  Sn  Sn26  1  0.670971  0.958809  0.039042  1
  Sn  Sn27  1  0.170971  0.541191  0.460958  1
  Sn  Sn28  1  0.464011  0.372300  0.750000  1
  Sn  Sn29  1  0.964011  0.127700  0.750000  1
  Sn  Sn30  1  0.535989  0.627700  0.250000  1
  Sn  Sn31  1  0.035989  0.872300  0.250000  1
  Sn  Sn32  1  0.701694  0.874387  0.750000  1
  Sn  Sn33  1  0.201694  0.625613  0.750000  1
  Sn  Sn34  1  0.298306  0.125613  0.250000  1
  Sn  Sn35  1  0.798306  0.374387  0.250000  1
