# generated using pymatgen
data_DyCrFe(PRh)3
_symmetry_space_group_name_H-M   'P 1'
_cell_length_a   3.79533500
_cell_length_b   10.65623700
_cell_length_c   12.42898700
_cell_angle_alpha   90.00000000
_cell_angle_beta   90.00000000
_cell_angle_gamma   90.00000000
_symmetry_Int_Tables_number   1
_chemical_formula_structural   DyCrFe(PRh)3
_chemical_formula_sum   'Dy4 Cr4 Fe4 P12 Rh12'
_cell_volume   502.67781667
_cell_formula_units_Z   4
loop_
 _symmetry_equiv_pos_site_id
 _symmetry_equiv_pos_as_xyz
  1  'x, y, z'
loop_
 _atom_site_type_symbol
 _atom_site_label
 _atom_site_symmetry_multiplicity
 _atom_site_fract_x
 _atom_site_fract_y
 _atom_site_fract_z
 _atom_site_occupancy
  Dy  Dy0  1  0.250000  0.581377  0.709787  1
  Dy  Dy1  1  0.250000  0.918623  0.209787  1
  Dy  Dy2  1  0.750000  0.418623  0.290213  1
  Dy  Dy3  1  0.750000  0.081377  0.790213  1
  Cr  Cr4  1  0.250000  0.702958  0.988836  1
  Cr  Cr5  1  0.250000  0.797042  0.488836  1
  Cr  Cr6  1  0.750000  0.297042  0.011164  1
  Cr  Cr7  1  0.750000  0.202958  0.511164  1
  Fe  Fe8  1  0.250000  0.463459  0.936330  1
  Fe  Fe9  1  0.250000  0.036541  0.436330  1
  Fe  Fe10  1  0.750000  0.536541  0.063670  1
  Fe  Fe11  1  0.750000  0.963459  0.563670  1
  P  P12  1  0.250000  0.425637  0.105733  1
  P  P13  1  0.250000  0.074363  0.605733  1
  P  P14  1  0.750000  0.574363  0.894267  1
  P  P15  1  0.750000  0.925637  0.394267  1
  P  P16  1  0.250000  0.270471  0.871379  1
  P  P17  1  0.250000  0.229529  0.371379  1
  P  P18  1  0.750000  0.729529  0.128621  1
  P  P19  1  0.750000  0.770471  0.628621  1
  P  P20  1  0.250000  0.602716  0.391275  1
  P  P21  1  0.250000  0.897284  0.891275  1
  P  P22  1  0.750000  0.397284  0.608725  1
  P  P23  1  0.750000  0.102716  0.108725  1
  Rh  Rh24  1  0.250000  0.404360  0.484097  1
  Rh  Rh25  1  0.250000  0.095640  0.984097  1
  Rh  Rh26  1  0.750000  0.595640  0.515903  1
  Rh  Rh27  1  0.750000  0.904360  0.015903  1
  Rh  Rh28  1  0.250000  0.229757  0.176020  1
  Rh  Rh29  1  0.250000  0.270243  0.676020  1
  Rh  Rh30  1  0.750000  0.770243  0.823980  1
  Rh  Rh31  1  0.750000  0.729757  0.323980  1
  Rh  Rh32  1  0.250000  0.884382  0.698930  1
  Rh  Rh33  1  0.250000  0.615618  0.198930  1
  Rh  Rh34  1  0.750000  0.115618  0.301070  1
  Rh  Rh35  1  0.750000  0.384382  0.801070  1
