# generated using pymatgen
data_Yb3Ta11TiO24
_symmetry_space_group_name_H-M   'P 1'
_cell_length_a   7.07152808
_cell_length_b   7.05871107
_cell_length_c   9.67781981
_cell_angle_alpha   86.88591102
_cell_angle_beta   93.17345752
_cell_angle_gamma   86.61122466
_symmetry_Int_Tables_number   1
_chemical_formula_structural   Yb3Ta11TiO24
_chemical_formula_sum   'Yb3 Ta11 Ti1 O24'
_cell_volume   480.68805819
_cell_formula_units_Z   1
loop_
 _symmetry_equiv_pos_site_id
 _symmetry_equiv_pos_as_xyz
  1  'x, y, z'
loop_
 _atom_site_type_symbol
 _atom_site_label
 _atom_site_symmetry_multiplicity
 _atom_site_fract_x
 _atom_site_fract_y
 _atom_site_fract_z
 _atom_site_occupancy
  Yb  Yb0  1  0.622789  0.376073  0.121575  1
  Yb  Yb1  1  0.892655  0.102501  0.397249  1
  Yb  Yb2  1  0.373701  0.629457  0.870570  1
  Ta  Ta3  1  0.099596  0.900238  0.098147  1
  Ta  Ta4  1  0.598368  0.403075  0.600317  1
  Ta  Ta5  1  0.397681  0.605198  0.399965  1
  Ta  Ta6  1  0.900925  0.099141  0.897885  1
  Ta  Ta7  1  0.106814  0.331048  0.114090  1
  Ta  Ta8  1  0.669379  0.893685  0.113674  1
  Ta  Ta9  1  0.167552  0.397725  0.613274  1
  Ta  Ta10  1  0.332078  0.102280  0.880539  1
  Ta  Ta11  1  0.833088  0.604829  0.390963  1
  Ta  Ta12  1  0.399560  0.163219  0.392786  1
  Ta  Ta13  1  0.890819  0.671746  0.879857  1
  Ti  Ti14  1  0.603669  0.833792  0.613204  1
  O  O15  1  0.599725  0.090773  0.251586  1
  O  O16  1  0.085918  0.583014  0.753366  1
  O  O17  1  0.416221  0.915356  0.754899  1
  O  O18  1  0.909475  0.400636  0.251618  1
  O  O19  1  0.824648  0.824095  0.500331  1
  O  O20  1  0.333910  0.335284  0.999937  1
  O  O21  1  0.172099  0.171147  0.500487  1
  O  O22  1  0.663807  0.664866  0.999880  1
  O  O23  1  0.176012  0.092258  0.238515  1
  O  O24  1  0.667616  0.595027  0.738872  1
  O  O25  1  0.127093  0.592168  0.452084  1
  O  O26  1  0.628642  0.108138  0.963622  1
  O  O27  1  0.092240  0.187815  0.766348  1
  O  O28  1  0.596973  0.668165  0.261304  1
  O  O29  1  0.610275  0.130424  0.541101  1
  O  O30  1  0.102943  0.627882  0.037491  1
  O  O31  1  0.813552  0.908740  0.766898  1
  O  O32  1  0.331804  0.401501  0.262749  1
  O  O33  1  0.871663  0.392911  0.541741  1
  O  O34  1  0.372898  0.894576  0.039672  1
  O  O35  1  0.907373  0.824061  0.238849  1
  O  O36  1  0.406223  0.331368  0.740171  1
  O  O37  1  0.410081  0.872335  0.453235  1
  O  O38  1  0.892637  0.370953  0.963648  1
