# generated using pymatgen
data_Tb2Hf4Sn5
_symmetry_space_group_name_H-M   'P 1'
_cell_length_a   11.11832508
_cell_length_b   11.11832456
_cell_length_c   11.11832460
_cell_angle_alpha   148.93071204
_cell_angle_beta   131.87820562
_cell_angle_gamma   58.39278303
_symmetry_Int_Tables_number   1
_chemical_formula_structural   Tb2Hf4Sn5
_chemical_formula_sum   'Tb4 Hf8 Sn10'
_cell_volume   524.03705798
_cell_formula_units_Z   2
loop_
 _symmetry_equiv_pos_site_id
 _symmetry_equiv_pos_as_xyz
  1  'x, y, z'
loop_
 _atom_site_type_symbol
 _atom_site_label
 _atom_site_symmetry_multiplicity
 _atom_site_fract_x
 _atom_site_fract_y
 _atom_site_fract_z
 _atom_site_occupancy
  Tb  Tb0  1  0.256545  0.143227  0.113318  1
  Tb  Tb1  1  0.743455  0.856773  0.886682  1
  Tb  Tb2  1  0.029909  0.643227  0.386682  1
  Tb  Tb3  1  0.970091  0.356773  0.613318  1
  Hf  Hf4  1  0.311226  0.561226  0.250000  1
  Hf  Hf5  1  0.688774  0.438774  0.750000  1
  Hf  Hf6  1  0.688774  0.938774  0.250000  1
  Hf  Hf7  1  0.311226  0.061226  0.750000  1
  Hf  Hf8  1  0.674169  0.435825  0.238345  1
  Hf  Hf9  1  0.325831  0.564175  0.761655  1
  Hf  Hf10  1  0.197480  0.935825  0.261655  1
  Hf  Hf11  1  0.802520  0.064175  0.738345  1
  Sn  Sn12  1  0.587642  0.289029  0.298612  1
  Sn  Sn13  1  0.412358  0.710971  0.701388  1
  Sn  Sn14  1  0.990417  0.789029  0.201388  1
  Sn  Sn15  1  0.009583  0.210971  0.798612  1
  Sn  Sn16  1  0.000000  0.250000  0.250000  1
  Sn  Sn17  1  0.000000  0.750000  0.750000  1
  Sn  Sn18  1  0.468481  0.066737  0.401742  1
  Sn  Sn19  1  0.531519  0.933263  0.598258  1
  Sn  Sn20  1  0.664996  0.566737  0.098258  1
  Sn  Sn21  1  0.335004  0.433263  0.901742  1
