# generated using pymatgen
data_Ba2CaCr2FeF14
_symmetry_space_group_name_H-M   'P 1'
_cell_length_a   7.50257641
_cell_length_b   7.50257583
_cell_length_c   15.14547937
_cell_angle_alpha   88.64565274
_cell_angle_beta   88.64565252
_cell_angle_gamma   42.47983193
_symmetry_Int_Tables_number   1
_chemical_formula_structural   Ba2CaCr2FeF14
_chemical_formula_sum   'Ba4 Ca2 Cr4 Fe2 F28'
_cell_volume   575.54677256
_cell_formula_units_Z   2
loop_
 _symmetry_equiv_pos_site_id
 _symmetry_equiv_pos_as_xyz
  1  'x, y, z'
loop_
 _atom_site_type_symbol
 _atom_site_label
 _atom_site_symmetry_multiplicity
 _atom_site_fract_x
 _atom_site_fract_y
 _atom_site_fract_z
 _atom_site_occupancy
  Ba  Ba0  1  0.644201  0.736846  0.879738  1
  Ba  Ba1  1  0.355799  0.263154  0.120262  1
  Ba  Ba2  1  0.263154  0.355799  0.620262  1
  Ba  Ba3  1  0.736846  0.644201  0.379738  1
  Ca  Ca4  1  0.942914  0.057086  0.750000  1
  Ca  Ca5  1  0.057086  0.942914  0.250000  1
  Cr  Cr6  1  0.617382  0.621053  0.623439  1
  Cr  Cr7  1  0.382618  0.378947  0.376561  1
  Cr  Cr8  1  0.378947  0.382618  0.876561  1
  Cr  Cr9  1  0.621053  0.617382  0.123439  1
  Fe  Fe10  1  0.000000  0.000000  0.500000  1
  Fe  Fe11  1  0.000000  0.000000  0.000000  1
  F  F12  1  0.340028  0.909485  0.701897  1
  F  F13  1  0.659972  0.090515  0.298103  1
  F  F14  1  0.090515  0.659972  0.798103  1
  F  F15  1  0.909485  0.340028  0.201897  1
  F  F16  1  0.401489  0.765836  0.517829  1
  F  F17  1  0.598511  0.234164  0.482171  1
  F  F18  1  0.234164  0.598511  0.982171  1
  F  F19  1  0.765836  0.401489  0.017829  1
  F  F20  1  0.691593  0.808663  0.586830  1
  F  F21  1  0.308407  0.191337  0.413170  1
  F  F22  1  0.191337  0.308407  0.913170  1
  F  F23  1  0.808663  0.691593  0.086830  1
  F  F24  1  0.859967  0.026867  0.120063  1
  F  F25  1  0.140033  0.973133  0.879937  1
  F  F26  1  0.973133  0.140033  0.379937  1
  F  F27  1  0.026867  0.859967  0.620063  1
  F  F28  1  0.577973  0.401159  0.658257  1
  F  F29  1  0.422027  0.598841  0.341743  1
  F  F30  1  0.598841  0.422027  0.841743  1
  F  F31  1  0.401159  0.577973  0.158257  1
  F  F32  1  0.545498  0.131155  0.778709  1
  F  F33  1  0.454502  0.868845  0.221291  1
  F  F34  1  0.868845  0.454502  0.721291  1
  F  F35  1  0.131155  0.545498  0.278709  1
  F  F36  1  0.667927  0.080927  0.952011  1
  F  F37  1  0.332073  0.919073  0.047989  1
  F  F38  1  0.919073  0.332073  0.547989  1
  F  F39  1  0.080927  0.667927  0.452011  1
