# generated using pymatgen
data_HoLu(Co5As3)2
_symmetry_space_group_name_H-M   'P 1'
_cell_length_a   3.76693900
_cell_length_b   12.14730665
_cell_length_c   10.64732878
_cell_angle_alpha   90.07815022
_cell_angle_beta   90.00000000
_cell_angle_gamma   90.00000000
_symmetry_Int_Tables_number   1
_chemical_formula_structural   HoLu(Co5As3)2
_chemical_formula_sum   'Ho2 Lu2 Co20 As12'
_cell_volume   487.20175449
_cell_formula_units_Z   2
loop_
 _symmetry_equiv_pos_site_id
 _symmetry_equiv_pos_as_xyz
  1  'x, y, z'
loop_
 _atom_site_type_symbol
 _atom_site_label
 _atom_site_symmetry_multiplicity
 _atom_site_fract_x
 _atom_site_fract_y
 _atom_site_fract_z
 _atom_site_occupancy
  Ho  Ho0  1  0.750000  0.701580  0.081556  1
  Ho  Ho1  1  0.250000  0.298420  0.918444  1
  Lu  Lu2  1  0.250000  0.798729  0.581140  1
  Lu  Lu3  1  0.750000  0.201271  0.418860  1
  Co  Co4  1  0.750000  0.697551  0.384931  1
  Co  Co5  1  0.250000  0.302449  0.615069  1
  Co  Co6  1  0.250000  0.802779  0.883731  1
  Co  Co7  1  0.750000  0.197221  0.116269  1
  Co  Co8  1  0.750000  0.991239  0.212564  1
  Co  Co9  1  0.250000  0.008761  0.787436  1
  Co  Co10  1  0.250000  0.508482  0.712313  1
  Co  Co11  1  0.750000  0.491518  0.287687  1
  Co  Co12  1  0.750000  0.677862  0.783419  1
  Co  Co13  1  0.250000  0.322138  0.216581  1
  Co  Co14  1  0.250000  0.822411  0.284423  1
  Co  Co15  1  0.750000  0.177589  0.715577  1
  Co  Co16  1  0.750000  0.931910  0.969020  1
  Co  Co17  1  0.250000  0.068090  0.030980  1
  Co  Co18  1  0.250000  0.568294  0.469620  1
  Co  Co19  1  0.750000  0.431706  0.530380  1
  Co  Co20  1  0.750000  0.986940  0.592650  1
  Co  Co21  1  0.250000  0.013060  0.407350  1
  Co  Co22  1  0.250000  0.512109  0.092830  1
  Co  Co23  1  0.750000  0.487890  0.907170  1
  As  As24  1  0.750000  0.615043  0.584755  1
  As  As25  1  0.250000  0.384957  0.415245  1
  As  As26  1  0.250000  0.885730  0.084906  1
  As  As27  1  0.750000  0.114270  0.915094  1
  As  As28  1  0.750000  0.890112  0.400384  1
  As  As29  1  0.250000  0.109888  0.599616  1
  As  As30  1  0.250000  0.609433  0.899421  1
  As  As31  1  0.750000  0.390567  0.100579  1
  As  As32  1  0.750000  0.869950  0.767680  1
  As  As33  1  0.250000  0.130050  0.232320  1
  As  As34  1  0.250000  0.629542  0.268898  1
  As  As35  1  0.750000  0.370458  0.731102  1
