# generated using pymatgen
data_Yb2GdYAl8
_symmetry_space_group_name_H-M   'P 1'
_cell_length_a   9.58539921
_cell_length_b   9.58539824
_cell_length_c   9.58539900
_cell_angle_alpha   34.13485976
_cell_angle_beta   34.13484701
_cell_angle_gamma   34.13485524
_symmetry_Int_Tables_number   1
_chemical_formula_structural   Yb2GdYAl8
_chemical_formula_sum   'Yb2 Gd1 Y1 Al8'
_cell_volume   247.24966371
_cell_formula_units_Z   1
loop_
 _symmetry_equiv_pos_site_id
 _symmetry_equiv_pos_as_xyz
  1  'x, y, z'
loop_
 _atom_site_type_symbol
 _atom_site_label
 _atom_site_symmetry_multiplicity
 _atom_site_fract_x
 _atom_site_fract_y
 _atom_site_fract_z
 _atom_site_occupancy
  Yb  Yb0  1  0.186269  0.186269  0.186269  1
  Yb  Yb1  1  0.813389  0.813389  0.813389  1
  Gd  Gd2  1  0.688515  0.688515  0.688515  1
  Y  Y3  1  0.311971  0.311971  0.311971  1
  Al  Al4  1  0.999933  0.999933  0.999933  1
  Al  Al5  1  0.500082  0.500082  0.500082  1
  Al  Al6  1  0.746534  0.249508  0.249508  1
  Al  Al7  1  0.253647  0.750322  0.750322  1
  Al  Al8  1  0.249508  0.746534  0.249508  1
  Al  Al9  1  0.750322  0.253647  0.750322  1
  Al  Al10  1  0.249508  0.249508  0.746534  1
  Al  Al11  1  0.750322  0.750322  0.253647  1
