# generated using pymatgen
data_Gd2PSe
_symmetry_space_group_name_H-M   'P 1'
_cell_length_a   7.16305474
_cell_length_b   7.16305463
_cell_length_c   7.16305447
_cell_angle_alpha   33.07496872
_cell_angle_beta   33.07497141
_cell_angle_gamma   33.07497511
_symmetry_Int_Tables_number   1
_chemical_formula_structural   Gd2PSe
_chemical_formula_sum   'Gd2 P1 Se1'
_cell_volume   97.42281294
_cell_formula_units_Z   1
loop_
 _symmetry_equiv_pos_site_id
 _symmetry_equiv_pos_as_xyz
  1  'x, y, z'
loop_
 _atom_site_type_symbol
 _atom_site_label
 _atom_site_symmetry_multiplicity
 _atom_site_fract_x
 _atom_site_fract_y
 _atom_site_fract_z
 _atom_site_occupancy
  Gd  Gd0  1  0.256394  0.256394  0.256394  1
  Gd  Gd1  1  0.743606  0.743606  0.743606  1
  P  P2  1  0.000000  0.000000  0.000000  1
  Se  Se3  1  0.500000  0.500000  0.500000  1
