# generated using pymatgen
data_Li3La3Sn4Au
_symmetry_space_group_name_H-M   'P 1'
_cell_length_a   4.75730064
_cell_length_b   7.34860990
_cell_length_c   8.98376600
_cell_angle_alpha   114.65203484
_cell_angle_beta   105.35343035
_cell_angle_gamma   89.99999423
_symmetry_Int_Tables_number   1
_chemical_formula_structural   Li3La3Sn4Au
_chemical_formula_sum   'Li3 La3 Sn4 Au1'
_cell_volume   273.06216407
_cell_formula_units_Z   1
loop_
 _symmetry_equiv_pos_site_id
 _symmetry_equiv_pos_as_xyz
  1  'x, y, z'
loop_
 _atom_site_type_symbol
 _atom_site_label
 _atom_site_symmetry_multiplicity
 _atom_site_fract_x
 _atom_site_fract_y
 _atom_site_fract_z
 _atom_site_occupancy
  Li  Li0  1  0.329800  0.017965  0.659600  1
  Li  Li1  1  0.328040  0.641769  0.656079  1
  Li  Li2  1  0.668800  0.353873  0.337599  1
  La  La3  1  0.002769  0.002723  0.005538  1
  La  La4  1  0.131298  0.636072  0.262597  1
  La  La5  1  0.867545  0.359360  0.735090  1
  Sn  Sn6  1  0.497743  0.692226  0.995486  1
  Sn  Sn7  1  0.500023  0.305068  0.000047  1
  Sn  Sn8  1  0.786927  0.788194  0.573854  1
  Sn  Sn9  1  0.216026  0.220895  0.432053  1
  Au  Au10  1  0.671030  0.981855  0.342058  1
