# generated using pymatgen
data_SrZn4Cu
_symmetry_space_group_name_H-M   'P 1'
_cell_length_a   5.16021100
_cell_length_b   6.80805500
_cell_length_c   12.96114800
_cell_angle_alpha   90.00000000
_cell_angle_beta   90.00000000
_cell_angle_gamma   90.00000000
_symmetry_Int_Tables_number   1
_chemical_formula_structural   SrZn4Cu
_chemical_formula_sum   'Sr4 Zn16 Cu4'
_cell_volume   455.33809427
_cell_formula_units_Z   4
loop_
 _symmetry_equiv_pos_site_id
 _symmetry_equiv_pos_as_xyz
  1  'x, y, z'
loop_
 _atom_site_type_symbol
 _atom_site_label
 _atom_site_symmetry_multiplicity
 _atom_site_fract_x
 _atom_site_fract_y
 _atom_site_fract_z
 _atom_site_occupancy
  Sr  Sr0  1  0.252105  0.644796  0.913349  1
  Sr  Sr1  1  0.247895  0.855204  0.413349  1
  Sr  Sr2  1  0.752105  0.355204  0.086651  1
  Sr  Sr3  1  0.747895  0.144796  0.586651  1
  Zn  Zn4  1  0.240368  0.344182  0.716321  1
  Zn  Zn5  1  0.259632  0.155818  0.216321  1
  Zn  Zn6  1  0.740368  0.655818  0.283679  1
  Zn  Zn7  1  0.759632  0.844182  0.783679  1
  Zn  Zn8  1  0.241627  0.954932  0.709539  1
  Zn  Zn9  1  0.258373  0.545068  0.209539  1
  Zn  Zn10  1  0.741627  0.045068  0.290461  1
  Zn  Zn11  1  0.758373  0.454932  0.790461  1
  Zn  Zn12  1  0.002731  0.843827  0.145597  1
  Zn  Zn13  1  0.497269  0.656173  0.645597  1
  Zn  Zn14  1  0.502731  0.156173  0.854403  1
  Zn  Zn15  1  0.997269  0.343827  0.354403  1
  Zn  Zn16  1  0.251183  0.416517  0.518614  1
  Zn  Zn17  1  0.248817  0.083483  0.018614  1
  Zn  Zn18  1  0.751183  0.583483  0.481386  1
  Zn  Zn19  1  0.748817  0.916517  0.981386  1
  Cu  Cu20  1  0.998065  0.150583  0.856160  1
  Cu  Cu21  1  0.501935  0.349417  0.356160  1
  Cu  Cu22  1  0.498065  0.849417  0.143840  1
  Cu  Cu23  1  0.001935  0.650583  0.643840  1
