# generated using pymatgen
data_Tb6PrS8
_symmetry_space_group_name_H-M   'P 1'
_cell_length_a   7.88215900
_cell_length_b   7.89571890
_cell_length_c   7.91673000
_cell_angle_alpha   120.08806675
_cell_angle_beta   90.00000000
_cell_angle_gamma   119.94321016
_symmetry_Int_Tables_number   1
_chemical_formula_structural   Tb6PrS8
_chemical_formula_sum   'Tb6 Pr1 S8'
_cell_volume   348.22630061
_cell_formula_units_Z   1
loop_
 _symmetry_equiv_pos_site_id
 _symmetry_equiv_pos_as_xyz
  1  'x, y, z'
loop_
 _atom_site_type_symbol
 _atom_site_label
 _atom_site_symmetry_multiplicity
 _atom_site_fract_x
 _atom_site_fract_y
 _atom_site_fract_z
 _atom_site_occupancy
  Tb  Tb0  1  0.249992  0.000004  0.249993  1
  Tb  Tb1  1  0.750013  0.000004  0.249994  1
  Tb  Tb2  1  0.249999  0.499997  0.750000  1
  Tb  Tb3  1  0.249993  0.000004  0.750012  1
  Tb  Tb4  1  0.750013  0.000004  0.750012  1
  Tb  Tb5  1  0.750007  0.500015  0.750007  1
  Pr  Pr6  1  0.249987  0.499974  0.249987  1
  S  S7  1  0.995012  0.990024  0.995012  1
  S  S8  1  0.504984  0.009967  0.504984  1
  S  S9  1  0.000265  0.000531  0.500267  1
  S  S10  1  0.995768  0.500005  0.505817  1
  S  S11  1  0.504237  0.500005  0.505817  1
  S  S12  1  0.995770  0.500005  0.994189  1
  S  S13  1  0.504235  0.500005  0.994189  1
  S  S14  1  0.499728  0.999456  0.999729  1
