# generated using pymatgen
data_Tb2Ho8InBi5
_symmetry_space_group_name_H-M   'P 1'
_cell_length_a   9.11658429
_cell_length_b   9.12880226
_cell_length_c   6.45226300
_cell_angle_alpha   90.00000000
_cell_angle_beta   90.00000000
_cell_angle_gamma   120.04434493
_symmetry_Int_Tables_number   1
_chemical_formula_structural   Tb2Ho8InBi5
_chemical_formula_sum   'Tb2 Ho8 In1 Bi5'
_cell_volume   464.83027577
_cell_formula_units_Z   1
loop_
 _symmetry_equiv_pos_site_id
 _symmetry_equiv_pos_as_xyz
  1  'x, y, z'
loop_
 _atom_site_type_symbol
 _atom_site_label
 _atom_site_symmetry_multiplicity
 _atom_site_fract_x
 _atom_site_fract_y
 _atom_site_fract_z
 _atom_site_occupancy
  Tb  Tb0  1  0.758804  0.757213  0.750000  1
  Tb  Tb1  1  0.241196  0.998409  0.750000  1
  Ho  Ho2  1  0.671949  0.334155  0.000250  1
  Ho  Ho3  1  0.328051  0.662207  0.000250  1
  Ho  Ho4  1  0.328051  0.662207  0.499750  1
  Ho  Ho5  1  0.671949  0.334155  0.499750  1
  Ho  Ho6  1  0.000000  0.241092  0.750000  1
  Ho  Ho7  1  0.234796  0.243146  0.250000  1
  Ho  Ho8  1  0.765204  0.008350  0.250000  1
  Ho  Ho9  1  0.000000  0.755032  0.250000  1
  In  In10  1  0.000000  0.395919  0.250000  1
  Bi  Bi11  1  0.391139  0.389432  0.750000  1
  Bi  Bi12  1  0.608861  0.998293  0.750000  1
  Bi  Bi13  1  0.000000  0.607581  0.750000  1
  Bi  Bi14  1  0.610507  0.611657  0.250000  1
  Bi  Bi15  1  0.389493  0.001150  0.250000  1
