# generated using pymatgen
data_Rb6CaTe4
_symmetry_space_group_name_H-M   'P 1'
_cell_length_a   11.74575300
_cell_length_b   11.74575283
_cell_length_c   8.97361800
_cell_angle_alpha   90.00000000
_cell_angle_beta   90.00000000
_cell_angle_gamma   120.00000329
_symmetry_Int_Tables_number   1
_chemical_formula_structural   Rb6CaTe4
_chemical_formula_sum   'Rb12 Ca2 Te8'
_cell_volume   1072.16078057
_cell_formula_units_Z   2
loop_
 _symmetry_equiv_pos_site_id
 _symmetry_equiv_pos_as_xyz
  1  'x, y, z'
loop_
 _atom_site_type_symbol
 _atom_site_label
 _atom_site_symmetry_multiplicity
 _atom_site_fract_x
 _atom_site_fract_y
 _atom_site_fract_z
 _atom_site_occupancy
  Rb  Rb0  1  0.147439  0.852561  0.544536  1
  Rb  Rb1  1  0.294879  0.147439  0.044536  1
  Rb  Rb2  1  0.852561  0.705121  0.044536  1
  Rb  Rb3  1  0.147439  0.294879  0.544536  1
  Rb  Rb4  1  0.705121  0.852561  0.544536  1
  Rb  Rb5  1  0.852561  0.147439  0.044536  1
  Rb  Rb6  1  0.527544  0.472456  0.364841  1
  Rb  Rb7  1  0.055087  0.527544  0.864841  1
  Rb  Rb8  1  0.472456  0.944913  0.864841  1
  Rb  Rb9  1  0.527544  0.055087  0.364841  1
  Rb  Rb10  1  0.944913  0.472456  0.364841  1
  Rb  Rb11  1  0.472456  0.527544  0.864841  1
  Ca  Ca12  1  0.333333  0.666667  0.247377  1
  Ca  Ca13  1  0.666667  0.333333  0.747377  1
  Te  Te14  1  0.333333  0.666667  0.590402  1
  Te  Te15  1  0.666667  0.333333  0.090402  1
  Te  Te16  1  0.189496  0.810504  0.145196  1
  Te  Te17  1  0.378991  0.189496  0.645196  1
  Te  Te18  1  0.810504  0.621009  0.645196  1
  Te  Te19  1  0.189496  0.378991  0.145196  1
  Te  Te20  1  0.621009  0.810504  0.145196  1
  Te  Te21  1  0.810504  0.189496  0.645196  1
