# generated using pymatgen
data_TbY9Si5Pb
_symmetry_space_group_name_H-M   'P 1'
_cell_length_a   8.55162302
_cell_length_b   8.58803492
_cell_length_c   6.45082304
_cell_angle_alpha   89.98946296
_cell_angle_beta   89.99922101
_cell_angle_gamma   119.86745569
_symmetry_Int_Tables_number   1
_chemical_formula_structural   TbY9Si5Pb
_chemical_formula_sum   'Tb1 Y9 Si5 Pb1'
_cell_volume   410.83420644
_cell_formula_units_Z   1
loop_
 _symmetry_equiv_pos_site_id
 _symmetry_equiv_pos_as_xyz
  1  'x, y, z'
loop_
 _atom_site_type_symbol
 _atom_site_label
 _atom_site_symmetry_multiplicity
 _atom_site_fract_x
 _atom_site_fract_y
 _atom_site_fract_z
 _atom_site_occupancy
  Tb  Tb0  1  0.330981  0.655863  0.496185  1
  Y  Y1  1  0.987891  0.746784  0.750047  1
  Y  Y2  1  0.998020  0.242892  0.249920  1
  Y  Y3  1  0.755179  0.757051  0.249938  1
  Y  Y4  1  0.766495  0.000069  0.750089  1
  Y  Y5  1  0.241214  0.253232  0.750062  1
  Y  Y6  1  0.241268  0.000066  0.249906  1
  Y  Y7  1  0.675062  0.344004  0.003746  1
  Y  Y8  1  0.675027  0.344015  0.496288  1
  Y  Y9  1  0.331034  0.655999  0.003787  1
  Si  Si10  1  0.393381  0.391515  0.249787  1
  Si  Si11  1  0.001432  0.608311  0.249831  1
  Si  Si12  1  0.998081  0.394184  0.750187  1
  Si  Si13  1  0.604129  0.605635  0.750205  1
  Si  Si14  1  0.605841  0.000165  0.249835  1
  Pb  Pb15  1  0.394964  0.000216  0.750186  1
