# generated using pymatgen
data_Y16In4Ir3Pd
_symmetry_space_group_name_H-M   'P 1'
_cell_length_a   9.70395857
_cell_length_b   9.70395727
_cell_length_c   9.70395753
_cell_angle_alpha   60.35359157
_cell_angle_beta   60.35358808
_cell_angle_gamma   60.35358539
_symmetry_Int_Tables_number   1
_chemical_formula_structural   Y16In4Ir3Pd
_chemical_formula_sum   'Y16 In4 Ir3 Pd1'
_cell_volume   651.31586222
_cell_formula_units_Z   1
loop_
 _symmetry_equiv_pos_site_id
 _symmetry_equiv_pos_as_xyz
  1  'x, y, z'
loop_
 _atom_site_type_symbol
 _atom_site_label
 _atom_site_symmetry_multiplicity
 _atom_site_fract_x
 _atom_site_fract_y
 _atom_site_fract_z
 _atom_site_occupancy
  Y  Y0  1  0.103879  0.696882  0.103879  1
  Y  Y1  1  0.941390  0.941390  0.552988  1
  Y  Y2  1  0.941390  0.552988  0.941390  1
  Y  Y3  1  0.311706  0.689781  0.311706  1
  Y  Y4  1  0.941637  0.559170  0.559170  1
  Y  Y5  1  0.311706  0.311706  0.689781  1
  Y  Y6  1  0.096831  0.096831  0.096831  1
  Y  Y7  1  0.559170  0.559170  0.941637  1
  Y  Y8  1  0.103879  0.103879  0.696882  1
  Y  Y9  1  0.689924  0.314103  0.689924  1
  Y  Y10  1  0.689924  0.689924  0.314103  1
  Y  Y11  1  0.689781  0.311706  0.311706  1
  Y  Y12  1  0.314103  0.689924  0.689924  1
  Y  Y13  1  0.559170  0.941637  0.559170  1
  Y  Y14  1  0.696882  0.103879  0.103879  1
  Y  Y15  1  0.552988  0.941390  0.941390  1
  In  In16  1  0.333418  0.333418  0.333418  1
  In  In17  1  0.001310  0.332484  0.332484  1
  In  In18  1  0.332484  0.001310  0.332484  1
  In  In19  1  0.332484  0.332484  0.001310  1
  Ir  Ir20  1  0.889381  0.889381  0.324815  1
  Ir  Ir21  1  0.324815  0.889381  0.889381  1
  Ir  Ir22  1  0.889381  0.324815  0.889381  1
  Pd  Pd23  1  0.892370  0.892370  0.892370  1
