# generated using pymatgen
data_Ho3Hg3IrPd
_symmetry_space_group_name_H-M   'P 1'
_cell_length_a   7.69560900
_cell_length_b   7.69560834
_cell_length_c   3.53624300
_cell_angle_alpha   90.00000000
_cell_angle_beta   90.00000000
_cell_angle_gamma   119.99998992
_symmetry_Int_Tables_number   1
_chemical_formula_structural   Ho3Hg3IrPd
_chemical_formula_sum   'Ho3 Hg3 Ir1 Pd1'
_cell_volume   181.36719123
_cell_formula_units_Z   1
loop_
 _symmetry_equiv_pos_site_id
 _symmetry_equiv_pos_as_xyz
  1  'x, y, z'
loop_
 _atom_site_type_symbol
 _atom_site_label
 _atom_site_symmetry_multiplicity
 _atom_site_fract_x
 _atom_site_fract_y
 _atom_site_fract_z
 _atom_site_occupancy
  Ho  Ho0  1  0.586344  0.012916  0.500000  1
  Ho  Ho1  1  0.426570  0.413655  0.500000  1
  Ho  Ho2  1  0.987084  0.573430  0.500000  1
  Hg  Hg3  1  0.231429  0.992894  0.000000  1
  Hg  Hg4  1  0.007106  0.238536  0.000000  1
  Hg  Hg5  1  0.761464  0.768571  0.000000  1
  Ir  Ir6  1  0.666666  0.333333  0.000000  1
  Pd  Pd7  1  0.333334  0.666667  0.000000  1
