# generated using pymatgen
data_Pr6Ti5S16
_symmetry_space_group_name_H-M   'P 1'
_cell_length_a   9.03420833
_cell_length_b   9.03420811
_cell_length_c   11.26033090
_cell_angle_alpha   88.35122705
_cell_angle_beta   88.35122446
_cell_angle_gamma   142.27959464
_symmetry_Int_Tables_number   1
_chemical_formula_structural   Pr6Ti5S16
_chemical_formula_sum   'Pr6 Ti5 S16'
_cell_volume   560.04109189
_cell_formula_units_Z   1
loop_
 _symmetry_equiv_pos_site_id
 _symmetry_equiv_pos_as_xyz
  1  'x, y, z'
loop_
 _atom_site_type_symbol
 _atom_site_label
 _atom_site_symmetry_multiplicity
 _atom_site_fract_x
 _atom_site_fract_y
 _atom_site_fract_z
 _atom_site_occupancy
  Pr  Pr0  1  0.067244  0.401009  0.828247  1
  Pr  Pr1  1  0.401009  0.067244  0.828247  1
  Pr  Pr2  1  0.764483  0.764483  0.824057  1
  Pr  Pr3  1  0.847711  0.514445  0.145248  1
  Pr  Pr4  1  0.514445  0.847711  0.145248  1
  Pr  Pr5  1  0.210485  0.210485  0.148196  1
  Ti  Ti6  1  0.614724  0.817319  0.486382  1
  Ti  Ti7  1  0.817319  0.614724  0.486382  1
  Ti  Ti8  1  0.012129  0.404935  0.486985  1
  Ti  Ti9  1  0.404935  0.012129  0.486985  1
  Ti  Ti10  1  0.221319  0.221319  0.486297  1
  S  S11  1  0.929171  0.124023  0.622239  1
  S  S12  1  0.124023  0.929171  0.622239  1
  S  S13  1  0.527617  0.527617  0.614226  1
  S  S14  1  0.323864  0.727106  0.615686  1
  S  S15  1  0.727106  0.323864  0.615686  1
  S  S16  1  0.243850  0.243850  0.886548  1
  S  S17  1  0.029305  0.362184  0.087878  1
  S  S18  1  0.362184  0.029305  0.087878  1
  S  S19  1  0.697824  0.103822  0.356517  1
  S  S20  1  0.103822  0.697824  0.356517  1
  S  S21  1  0.903259  0.903259  0.360299  1
  S  S22  1  0.302859  0.501397  0.351351  1
  S  S23  1  0.501397  0.302859  0.351351  1
  S  S24  1  0.897003  0.563512  0.885512  1
  S  S25  1  0.563512  0.897003  0.885512  1
  S  S26  1  0.709999  0.709999  0.086291  1
