# generated using pymatgen
data_Tb4EuEr2PtI12
_symmetry_space_group_name_H-M   'P 1'
_cell_length_a   9.79562473
_cell_length_b   9.81375189
_cell_length_c   9.79145292
_cell_angle_alpha   106.57699585
_cell_angle_beta   106.41326476
_cell_angle_gamma   106.46608401
_symmetry_Int_Tables_number   1
_chemical_formula_structural   Tb4EuEr2PtI12
_chemical_formula_sum   'Tb4 Eu1 Er2 Pt1 I12'
_cell_volume   794.64401622
_cell_formula_units_Z   1
loop_
 _symmetry_equiv_pos_site_id
 _symmetry_equiv_pos_as_xyz
  1  'x, y, z'
loop_
 _atom_site_type_symbol
 _atom_site_label
 _atom_site_symmetry_multiplicity
 _atom_site_fract_x
 _atom_site_fract_y
 _atom_site_fract_z
 _atom_site_occupancy
  Tb  Tb0  1  0.023311  0.300621  0.097395  1
  Tb  Tb1  1  0.904653  0.976600  0.699466  1
  Tb  Tb2  1  0.699493  0.903643  0.976885  1
  Tb  Tb3  1  0.977239  0.700050  0.904419  1
  Eu  Eu4  1  0.500369  0.499914  0.499984  1
  Er  Er5  1  0.096198  0.024071  0.297294  1
  Er  Er6  1  0.296860  0.095589  0.023359  1
  Pt  Pt7  1  0.999921  0.000582  0.000129  1
  I  I8  1  0.075321  0.679517  0.227243  1
  I  I9  1  0.225713  0.074188  0.676280  1
  I  I10  1  0.672609  0.223350  0.073588  1
  I  I11  1  0.925877  0.323969  0.775914  1
  I  I12  1  0.780390  0.927247  0.324974  1
  I  I13  1  0.325062  0.779977  0.927117  1
  I  I14  1  0.450356  0.138994  0.371422  1
  I  I15  1  0.374758  0.450528  0.139249  1
  I  I16  1  0.140749  0.371140  0.454894  1
  I  I17  1  0.546053  0.859119  0.625626  1
  I  I18  1  0.625616  0.545542  0.859153  1
  I  I19  1  0.859453  0.625359  0.545606  1
