# generated using pymatgen
data_Ho16MgIn3Co4
_symmetry_space_group_name_H-M   'P 1'
_cell_length_a   9.51755677
_cell_length_b   9.49057845
_cell_length_c   9.49057800
_cell_angle_alpha   60.00000158
_cell_angle_beta   60.09372465
_cell_angle_gamma   60.09372413
_symmetry_Int_Tables_number   1
_chemical_formula_structural   Ho16MgIn3Co4
_chemical_formula_sum   'Ho16 Mg1 In3 Co4'
_cell_volume   607.02925218
_cell_formula_units_Z   1
loop_
 _symmetry_equiv_pos_site_id
 _symmetry_equiv_pos_as_xyz
  1  'x, y, z'
loop_
 _atom_site_type_symbol
 _atom_site_label
 _atom_site_symmetry_multiplicity
 _atom_site_fract_x
 _atom_site_fract_y
 _atom_site_fract_z
 _atom_site_occupancy
  Ho  Ho0  1  0.346994  0.345431  0.345431  1
  Ho  Ho1  1  0.346994  0.345431  0.962146  1
  Ho  Ho2  1  0.346994  0.962146  0.345431  1
  Ho  Ho3  1  0.959154  0.346949  0.346949  1
  Ho  Ho4  1  0.810279  0.189101  0.189101  1
  Ho  Ho5  1  0.185696  0.813561  0.813561  1
  Ho  Ho6  1  0.185696  0.813561  0.187182  1
  Ho  Ho7  1  0.810279  0.189101  0.811520  1
  Ho  Ho8  1  0.185696  0.187182  0.813561  1
  Ho  Ho9  1  0.810279  0.811520  0.189101  1
  Ho  Ho10  1  0.938525  0.561502  0.561502  1
  Ho  Ho11  1  0.561885  0.938911  0.938911  1
  Ho  Ho12  1  0.561885  0.938911  0.560292  1
  Ho  Ho13  1  0.938525  0.561502  0.938470  1
  Ho  Ho14  1  0.561885  0.560292  0.938911  1
  Ho  Ho15  1  0.938525  0.938470  0.561502  1
  Mg  Mg16  1  0.268597  0.577134  0.577134  1
  In  In17  1  0.581672  0.582719  0.582719  1
  In  In18  1  0.581672  0.582719  0.252890  1
  In  In19  1  0.581672  0.252890  0.582719  1
  Co  Co20  1  0.139400  0.140953  0.140953  1
  Co  Co21  1  0.139400  0.140953  0.578694  1
  Co  Co22  1  0.139400  0.578694  0.140953  1
  Co  Co23  1  0.578897  0.140368  0.140368  1
