# generated using pymatgen
data_Ba2YbWN4
_symmetry_space_group_name_H-M   'P 1'
_cell_length_a   10.82560811
_cell_length_b   10.51301963
_cell_length_c   8.13455893
_cell_angle_alpha   69.64219394
_cell_angle_beta   65.56997644
_cell_angle_gamma   44.78782410
_symmetry_Int_Tables_number   1
_chemical_formula_structural   Ba2YbWN4
_chemical_formula_sum   'Ba8 Yb4 W4 N16'
_cell_volume   591.67576461
_cell_formula_units_Z   4
loop_
 _symmetry_equiv_pos_site_id
 _symmetry_equiv_pos_as_xyz
  1  'x, y, z'
loop_
 _atom_site_type_symbol
 _atom_site_label
 _atom_site_symmetry_multiplicity
 _atom_site_fract_x
 _atom_site_fract_y
 _atom_site_fract_z
 _atom_site_occupancy
  Ba  Ba0  1  0.571353  0.928647  0.928647  1
  Ba  Ba1  1  0.928647  0.571353  0.571353  1
  Ba  Ba2  1  0.321353  0.678647  0.678647  1
  Ba  Ba3  1  0.111443  0.111443  0.888557  1
  Ba  Ba4  1  0.138557  0.138557  0.361443  1
  Ba  Ba5  1  0.361443  0.361443  0.138557  1
  Ba  Ba6  1  0.678647  0.321353  0.321353  1
  Ba  Ba7  1  0.888557  0.888557  0.111443  1
  Yb  Yb8  1  0.338275  0.338275  0.661725  1
  Yb  Yb9  1  0.911725  0.911725  0.588275  1
  Yb  Yb10  1  0.661725  0.661725  0.338275  1
  Yb  Yb11  1  0.588275  0.588275  0.911725  1
  W  W12  1  0.493505  0.006495  0.493505  1
  W  W13  1  0.006495  0.493505  0.006495  1
  W  W14  1  0.756495  0.243505  0.756495  1
  W  W15  1  0.243505  0.756495  0.243505  1
  N  N16  1  0.011358  0.659173  0.820133  1
  N  N17  1  0.699876  0.285229  0.995787  1
  N  N18  1  0.659173  0.011358  0.509337  1
  N  N19  1  0.509337  0.820133  0.659173  1
  N  N20  1  0.238642  0.590827  0.429867  1
  N  N21  1  0.740663  0.429867  0.590827  1
  N  N22  1  0.995787  0.019107  0.699876  1
  N  N23  1  0.550124  0.964771  0.254213  1
  N  N24  1  0.429867  0.740663  0.238642  1
  N  N25  1  0.964771  0.550124  0.230893  1
  N  N26  1  0.285229  0.699876  0.019107  1
  N  N27  1  0.820133  0.509337  0.011358  1
  N  N28  1  0.230893  0.254213  0.964771  1
  N  N29  1  0.590827  0.238642  0.740663  1
  N  N30  1  0.254213  0.230893  0.550124  1
  N  N31  1  0.019107  0.995787  0.285229  1
