# generated using pymatgen
data_Y6HoSn23Ir6
_symmetry_space_group_name_H-M   'P 1'
_cell_length_a   9.87227302
_cell_length_b   9.87224796
_cell_length_c   10.12441402
_cell_angle_alpha   90.00551503
_cell_angle_beta   89.99440128
_cell_angle_gamma   120.00330250
_symmetry_Int_Tables_number   1
_chemical_formula_structural   Y6HoSn23Ir6
_chemical_formula_sum   'Y6 Ho1 Sn23 Ir6'
_cell_volume   854.51419956
_cell_formula_units_Z   1
loop_
 _symmetry_equiv_pos_site_id
 _symmetry_equiv_pos_as_xyz
  1  'x, y, z'
loop_
 _atom_site_type_symbol
 _atom_site_label
 _atom_site_symmetry_multiplicity
 _atom_site_fract_x
 _atom_site_fract_y
 _atom_site_fract_z
 _atom_site_occupancy
  Y  Y0  1  0.999994  0.000006  0.999998  1
  Y  Y1  1  0.520076  0.479925  0.692900  1
  Y  Y2  1  0.520072  0.040164  0.692999  1
  Y  Y3  1  0.959835  0.479927  0.692998  1
  Y  Y4  1  0.040160  0.520074  0.307000  1
  Y  Y5  1  0.479927  0.959843  0.307002  1
  Ho  Ho6  1  0.480229  0.519773  0.306813  1
  Sn  Sn7  1  0.666621  0.333380  0.173950  1
  Sn  Sn8  1  0.666667  0.333332  0.877477  1
  Sn  Sn9  1  0.333569  0.666432  0.122824  1
  Sn  Sn10  1  0.352369  0.352434  0.000063  1
  Sn  Sn11  1  0.999973  0.647711  0.000035  1
  Sn  Sn12  1  0.647719  0.999994  0.000005  1
  Sn  Sn13  1  0.647566  0.647632  0.000062  1
  Sn  Sn14  1  0.333337  0.666661  0.826062  1
  Sn  Sn15  1  0.445133  0.222827  0.455631  1
  Sn  Sn16  1  0.222542  0.777460  0.544279  1
  Sn  Sn17  1  0.222738  0.445139  0.544085  1
  Sn  Sn18  1  0.554859  0.777262  0.544084  1
  Sn  Sn19  1  0.119092  0.880909  0.283858  1
  Sn  Sn20  1  0.777175  0.554867  0.455630  1
  Sn  Sn21  1  0.777461  0.222539  0.455698  1
  Sn  Sn22  1  0.352289  0.000027  0.000035  1
  Sn  Sn23  1  0.119307  0.238420  0.283914  1
  Sn  Sn24  1  0.761581  0.880692  0.283914  1
  Sn  Sn25  1  0.238193  0.119109  0.716131  1
  Sn  Sn26  1  0.880890  0.761807  0.716132  1
  Sn  Sn27  1  0.880904  0.119096  0.716143  1
  Sn  Sn28  1  0.000003  0.999997  0.499991  1
  Sn  Sn29  1  0.000005  0.352280  0.000005  1
  Ir  Ir30  1  0.168638  0.831361  0.801930  1
  Ir  Ir31  1  0.168647  0.337281  0.801904  1
  Ir  Ir32  1  0.662718  0.831352  0.801903  1
  Ir  Ir33  1  0.337478  0.169137  0.198226  1
  Ir  Ir34  1  0.830863  0.662521  0.198225  1
  Ir  Ir35  1  0.831370  0.168631  0.198097  1
