# generated using pymatgen
data_Ho2Ga2PtRh
_symmetry_space_group_name_H-M   'P 1'
_cell_length_a   4.41646000
_cell_length_b   6.85122500
_cell_length_c   7.64416100
_cell_angle_alpha   90.00000000
_cell_angle_beta   90.00000000
_cell_angle_gamma   90.00000000
_symmetry_Int_Tables_number   1
_chemical_formula_structural   Ho2Ga2PtRh
_chemical_formula_sum   'Ho4 Ga4 Pt2 Rh2'
_cell_volume   231.29825550
_cell_formula_units_Z   2
loop_
 _symmetry_equiv_pos_site_id
 _symmetry_equiv_pos_as_xyz
  1  'x, y, z'
loop_
 _atom_site_type_symbol
 _atom_site_label
 _atom_site_symmetry_multiplicity
 _atom_site_fract_x
 _atom_site_fract_y
 _atom_site_fract_z
 _atom_site_occupancy
  Ho  Ho0  1  0.250000  0.020936  0.808940  1
  Ho  Ho1  1  0.250000  0.520936  0.691060  1
  Ho  Ho2  1  0.750000  0.984901  0.198578  1
  Ho  Ho3  1  0.750000  0.484901  0.301422  1
  Ga  Ga4  1  0.250000  0.168455  0.420742  1
  Ga  Ga5  1  0.250000  0.668455  0.079258  1
  Ga  Ga6  1  0.750000  0.826671  0.574599  1
  Ga  Ga7  1  0.750000  0.326671  0.925401  1
  Pt  Pt8  1  0.750000  0.220689  0.597229  1
  Pt  Pt9  1  0.750000  0.720689  0.902771  1
  Rh  Rh10  1  0.250000  0.778348  0.403062  1
  Rh  Rh11  1  0.250000  0.278348  0.096938  1
