# generated using pymatgen
data_Pr8Ho11ScGa11Si5
_symmetry_space_group_name_H-M   'P 1'
_cell_length_a   7.55115184
_cell_length_b   7.96532637
_cell_length_c   15.09171639
_cell_angle_alpha   89.97131235
_cell_angle_beta   90.14078084
_cell_angle_gamma   90.20016749
_symmetry_Int_Tables_number   1
_chemical_formula_structural   Pr8Ho11ScGa11Si5
_chemical_formula_sum   'Pr8 Ho11 Sc1 Ga11 Si5'
_cell_volume   907.71894482
_cell_formula_units_Z   1
loop_
 _symmetry_equiv_pos_site_id
 _symmetry_equiv_pos_as_xyz
  1  'x, y, z'
loop_
 _atom_site_type_symbol
 _atom_site_label
 _atom_site_symmetry_multiplicity
 _atom_site_fract_x
 _atom_site_fract_y
 _atom_site_fract_z
 _atom_site_occupancy
  Pr  Pr0  1  0.017752  0.179023  0.405830  1
  Pr  Pr1  1  0.516299  0.322367  0.406732  1
  Pr  Pr2  1  0.484555  0.678439  0.903794  1
  Pr  Pr3  1  0.484252  0.681212  0.595160  1
  Pr  Pr4  1  0.986616  0.814803  0.595384  1
  Pr  Pr5  1  0.984592  0.819908  0.903558  1
  Pr  Pr6  1  0.513673  0.319947  0.094995  1
  Pr  Pr7  1  0.013922  0.181437  0.094916  1
  Ho  Ho8  1  0.326067  0.174839  0.621642  1
  Ho  Ho9  1  0.673039  0.821906  0.379235  1
  Ho  Ho10  1  0.666441  0.983948  0.751711  1
  Ho  Ho11  1  0.174993  0.676198  0.378577  1
  Ho  Ho12  1  0.823173  0.326892  0.876867  1
  Ho  Ho13  1  0.824523  0.329657  0.622741  1
  Ho  Ho14  1  0.838679  0.488092  0.251188  1
  Ho  Ho15  1  0.335602  0.014934  0.251368  1
  Ho  Ho16  1  0.328253  0.176969  0.876315  1
  Ho  Ho17  1  0.173838  0.672097  0.122731  1
  Ho  Ho18  1  0.672786  0.825464  0.121384  1
  Sc  Sc19  1  0.157880  0.508441  0.750694  1
  Ga  Ga20  1  0.274769  0.871749  0.749291  1
  Ga  Ga21  1  0.467011  0.609270  0.251228  1
  Ga  Ga22  1  0.034011  0.118210  0.748557  1
  Ga  Ga23  1  0.525599  0.397602  0.748830  1
  Ga  Ga24  1  0.154515  0.468491  0.541693  1
  Ga  Ga25  1  0.966253  0.885318  0.250517  1
  Ga  Ga26  1  0.723505  0.122338  0.251249  1
  Ga  Ga27  1  0.844294  0.532086  0.040588  1
  Ga  Ga28  1  0.344563  0.965317  0.039434  1
  Ga  Ga29  1  0.155252  0.468582  0.956234  1
  Ga  Ga30  1  0.655705  0.034833  0.540147  1
  Si  Si31  1  0.347876  0.967009  0.459214  1
  Si  Si32  1  0.849834  0.530557  0.458334  1
  Si  Si33  1  0.784523  0.616441  0.749332  1
  Si  Si34  1  0.222875  0.382008  0.251537  1
  Si  Si35  1  0.652481  0.033616  0.958993  1
