# generated using pymatgen
data_DyHo19Bi7Sb5
_symmetry_space_group_name_H-M   'P 1'
_cell_length_a   8.15342270
_cell_length_b   9.41922258
_cell_length_c   11.93414602
_cell_angle_alpha   90.04504544
_cell_angle_beta   89.93955463
_cell_angle_gamma   89.99059304
_symmetry_Int_Tables_number   1
_chemical_formula_structural   DyHo19Bi7Sb5
_chemical_formula_sum   'Dy1 Ho19 Bi7 Sb5'
_cell_volume   916.52851964
_cell_formula_units_Z   1
loop_
 _symmetry_equiv_pos_site_id
 _symmetry_equiv_pos_as_xyz
  1  'x, y, z'
loop_
 _atom_site_type_symbol
 _atom_site_label
 _atom_site_symmetry_multiplicity
 _atom_site_fract_x
 _atom_site_fract_y
 _atom_site_fract_z
 _atom_site_occupancy
  Dy  Dy0  1  0.184453  0.749944  0.717958  1
  Ho  Ho1  1  0.355971  0.753048  0.214231  1
  Ho  Ho2  1  0.850125  0.752470  0.287329  1
  Ho  Ho3  1  0.647045  0.250227  0.786700  1
  Ho  Ho4  1  0.147070  0.249954  0.713078  1
  Ho  Ho5  1  0.689330  0.563222  0.057733  1
  Ho  Ho6  1  0.191472  0.937727  0.441551  1
  Ho  Ho7  1  0.310567  0.062886  0.942333  1
  Ho  Ho8  1  0.810249  0.436883  0.557336  1
  Ho  Ho9  1  0.310906  0.436978  0.942487  1
  Ho  Ho10  1  0.809448  0.062309  0.555976  1
  Ho  Ho11  1  0.688031  0.937380  0.059932  1
  Ho  Ho12  1  0.189834  0.562986  0.442031  1
  Ho  Ho13  1  0.472738  0.247781  0.486448  1
  Ho  Ho14  1  0.971947  0.250017  0.012505  1
  Ho  Ho15  1  0.528687  0.752194  0.510505  1
  Ho  Ho16  1  0.027638  0.750150  0.987904  1
  Ho  Ho17  1  0.317338  0.247731  0.218770  1
  Ho  Ho18  1  0.812599  0.246644  0.282548  1
  Ho  Ho19  1  0.684516  0.750053  0.781958  1
  Bi  Bi20  1  0.065075  0.504323  0.175305  1
  Bi  Bi21  1  0.435404  0.495669  0.674193  1
  Bi  Bi22  1  0.934731  0.004332  0.825008  1
  Bi  Bi23  1  0.435114  0.004412  0.675105  1
  Bi  Bi24  1  0.934870  0.495591  0.825092  1
  Bi  Bi25  1  0.564933  0.504095  0.325012  1
  Bi  Bi26  1  0.065210  0.995743  0.174768  1
  Sb  Sb27  1  0.407792  0.750032  0.958189  1
  Sb  Sb28  1  0.908285  0.749867  0.541895  1
  Sb  Sb29  1  0.592261  0.250057  0.041981  1
  Sb  Sb30  1  0.091948  0.249991  0.457654  1
  Sb  Sb31  1  0.564409  0.995306  0.326485  1
