# generated using pymatgen
data_Dy5Th3(Ta3Si4)4
_symmetry_space_group_name_H-M   'P 1'
_cell_length_a   7.08789984
_cell_length_b   7.09168698
_cell_length_c   13.16077639
_cell_angle_alpha   89.87338183
_cell_angle_beta   90.02453375
_cell_angle_gamma   90.07886412
_symmetry_Int_Tables_number   1
_chemical_formula_structural   Dy5Th3(Ta3Si4)4
_chemical_formula_sum   'Dy5 Th3 Ta12 Si16'
_cell_volume   661.52632117
_cell_formula_units_Z   1
loop_
 _symmetry_equiv_pos_site_id
 _symmetry_equiv_pos_as_xyz
  1  'x, y, z'
loop_
 _atom_site_type_symbol
 _atom_site_label
 _atom_site_symmetry_multiplicity
 _atom_site_fract_x
 _atom_site_fract_y
 _atom_site_fract_z
 _atom_site_occupancy
  Dy  Dy0  1  0.999353  0.340116  0.216793  1
  Dy  Dy1  1  0.999651  0.660707  0.718958  1
  Dy  Dy2  1  0.160453  0.500150  0.467846  1
  Dy  Dy3  1  0.500198  0.838702  0.031600  1
  Dy  Dy4  1  0.838902  0.500308  0.968471  1
  Th  Th5  1  0.497523  0.162946  0.531878  1
  Th  Th6  1  0.337377  0.996519  0.782399  1
  Th  Th7  1  0.662944  0.003577  0.281495  1
  Ta  Ta8  1  0.168104  0.169139  0.999264  1
  Ta  Ta9  1  0.830212  0.832353  0.499495  1
  Ta  Ta10  1  0.331766  0.670072  0.248996  1
  Ta  Ta11  1  0.667364  0.330418  0.750805  1
  Ta  Ta12  1  0.157504  0.991051  0.373739  1
  Ta  Ta13  1  0.844451  0.007159  0.875606  1
  Ta  Ta14  1  0.508828  0.656857  0.625696  1
  Ta  Ta15  1  0.343787  0.493642  0.876075  1
  Ta  Ta16  1  0.492084  0.344079  0.124934  1
  Ta  Ta17  1  0.657040  0.504143  0.374388  1
  Ta  Ta18  1  0.996132  0.157596  0.625658  1
  Ta  Ta19  1  0.005024  0.843112  0.125213  1
  Si  Si20  1  0.289188  0.042657  0.183216  1
  Si  Si21  1  0.713920  0.955246  0.686973  1
  Si  Si22  1  0.455255  0.786115  0.436113  1
  Si  Si23  1  0.204576  0.541401  0.063958  1
  Si  Si24  1  0.544394  0.207714  0.938389  1
  Si  Si25  1  0.798511  0.462252  0.564504  1
  Si  Si26  1  0.037161  0.299039  0.814875  1
  Si  Si27  1  0.960693  0.701073  0.313737  1
  Si  Si28  1  0.364575  0.300663  0.315112  1
  Si  Si29  1  0.634408  0.700021  0.817962  1
  Si  Si30  1  0.198801  0.865150  0.565665  1
  Si  Si31  1  0.126454  0.792185  0.935694  1
  Si  Si32  1  0.798172  0.132026  0.065514  1
  Si  Si33  1  0.879104  0.207499  0.433889  1
  Si  Si34  1  0.291779  0.378287  0.684378  1
  Si  Si35  1  0.704315  0.626026  0.180710  1
