# generated using pymatgen
data_TbPrFe3Re14C3
_symmetry_space_group_name_H-M   'P 1'
_cell_length_a   6.93638413
_cell_length_b   6.93638333
_cell_length_c   6.93638258
_cell_angle_alpha   82.65451758
_cell_angle_beta   82.65451893
_cell_angle_gamma   82.65450417
_symmetry_Int_Tables_number   1
_chemical_formula_structural   TbPrFe3Re14C3
_chemical_formula_sum   'Tb1 Pr1 Fe3 Re14 C3'
_cell_volume   326.16179298
_cell_formula_units_Z   1
loop_
 _symmetry_equiv_pos_site_id
 _symmetry_equiv_pos_as_xyz
  1  'x, y, z'
loop_
 _atom_site_type_symbol
 _atom_site_label
 _atom_site_symmetry_multiplicity
 _atom_site_fract_x
 _atom_site_fract_y
 _atom_site_fract_z
 _atom_site_occupancy
  Tb  Tb0  1  0.350912  0.350912  0.350912  1
  Pr  Pr1  1  0.647930  0.647930  0.647930  1
  Fe  Fe2  1  0.998923  0.998923  0.500782  1
  Fe  Fe3  1  0.500782  0.998923  0.998923  1
  Fe  Fe4  1  0.998923  0.500782  0.998923  1
  Re  Re5  1  0.722196  0.277316  0.000470  1
  Re  Re6  1  0.000470  0.722196  0.277316  1
  Re  Re7  1  0.277316  0.000470  0.722196  1
  Re  Re8  1  0.000470  0.277316  0.722196  1
  Re  Re9  1  0.722196  0.000470  0.277316  1
  Re  Re10  1  0.277316  0.722196  0.000470  1
  Re  Re11  1  0.344675  0.344675  0.864232  1
  Re  Re12  1  0.864232  0.344675  0.344675  1
  Re  Re13  1  0.344675  0.864232  0.344675  1
  Re  Re14  1  0.653893  0.653893  0.139429  1
  Re  Re15  1  0.139429  0.653893  0.653893  1
  Re  Re16  1  0.653893  0.139429  0.653893  1
  Re  Re17  1  0.898684  0.898684  0.898684  1
  Re  Re18  1  0.101967  0.101967  0.101967  1
  C  C19  1  0.496640  0.496640  0.007840  1
  C  C20  1  0.007840  0.496640  0.496640  1
  C  C21  1  0.496640  0.007840  0.496640  1
