# generated using pymatgen
data_Tm8Sc12Sn13Ge3
_symmetry_space_group_name_H-M   'P 1'
_cell_length_a   7.53593717
_cell_length_b   7.82459339
_cell_length_c   14.71653200
_cell_angle_alpha   90.00000000
_cell_angle_beta   90.00000000
_cell_angle_gamma   89.59370639
_symmetry_Int_Tables_number   1
_chemical_formula_structural   Tm8Sc12Sn13Ge3
_chemical_formula_sum   'Tm8 Sc12 Sn13 Ge3'
_cell_volume   867.74797141
_cell_formula_units_Z   1
loop_
 _symmetry_equiv_pos_site_id
 _symmetry_equiv_pos_as_xyz
  1  'x, y, z'
loop_
 _atom_site_type_symbol
 _atom_site_label
 _atom_site_symmetry_multiplicity
 _atom_site_fract_x
 _atom_site_fract_y
 _atom_site_fract_z
 _atom_site_occupancy
  Tm  Tm0  1  0.989197  0.171117  0.097917  1
  Tm  Tm1  1  0.009468  0.828917  0.903387  1
  Tm  Tm2  1  0.509096  0.679210  0.906322  1
  Tm  Tm3  1  0.009468  0.828917  0.596613  1
  Tm  Tm4  1  0.492251  0.328628  0.097173  1
  Tm  Tm5  1  0.989197  0.171117  0.402083  1
  Tm  Tm6  1  0.492251  0.328628  0.402827  1
  Tm  Tm7  1  0.509096  0.679210  0.593678  1
  Sc  Sc8  1  0.169055  0.492238  0.750000  1
  Sc  Sc9  1  0.821281  0.509945  0.250000  1
  Sc  Sc10  1  0.321193  0.990717  0.250000  1
  Sc  Sc11  1  0.679288  0.006643  0.750000  1
  Sc  Sc12  1  0.329350  0.159318  0.628709  1
  Sc  Sc13  1  0.660509  0.833020  0.367130  1
  Sc  Sc14  1  0.159314  0.667920  0.366192  1
  Sc  Sc15  1  0.660509  0.833020  0.132870  1
  Sc  Sc16  1  0.852195  0.328811  0.630565  1
  Sc  Sc17  1  0.329350  0.159318  0.871291  1
  Sc  Sc18  1  0.852195  0.328811  0.869435  1
  Sc  Sc19  1  0.159314  0.667920  0.133808  1
  Sn  Sn20  1  0.532863  0.375572  0.750000  1
  Sn  Sn21  1  0.311634  0.848965  0.750000  1
  Sn  Sn22  1  0.687624  0.149011  0.250000  1
  Sn  Sn23  1  0.188940  0.351067  0.250000  1
  Sn  Sn24  1  0.812048  0.650495  0.750000  1
  Sn  Sn25  1  0.184222  0.460098  0.539314  1
  Sn  Sn26  1  0.819741  0.541609  0.459617  1
  Sn  Sn27  1  0.317321  0.957479  0.457785  1
  Sn  Sn28  1  0.819741  0.541609  0.040383  1
  Sn  Sn29  1  0.682271  0.043468  0.539964  1
  Sn  Sn30  1  0.184222  0.460098  0.960686  1
  Sn  Sn31  1  0.682271  0.043468  0.960036  1
  Sn  Sn32  1  0.317321  0.957479  0.042215  1
  Ge  Ge33  1  0.034497  0.127165  0.750000  1
  Ge  Ge34  1  0.964304  0.869812  0.250000  1
  Ge  Ge35  1  0.467405  0.629179  0.250000  1
