# generated using pymatgen
data_Ta12Al9Co3N4
_symmetry_space_group_name_H-M   'P 1'
_cell_length_a   8.20090106
_cell_length_b   8.20090135
_cell_length_c   8.19791904
_cell_angle_alpha   59.98796379
_cell_angle_beta   59.98796587
_cell_angle_gamma   60.00000344
_symmetry_Int_Tables_number   1
_chemical_formula_structural   Ta12Al9Co3N4
_chemical_formula_sum   'Ta12 Al9 Co3 N4'
_cell_volume   389.79186532
_cell_formula_units_Z   1
loop_
 _symmetry_equiv_pos_site_id
 _symmetry_equiv_pos_as_xyz
  1  'x, y, z'
loop_
 _atom_site_type_symbol
 _atom_site_label
 _atom_site_symmetry_multiplicity
 _atom_site_fract_x
 _atom_site_fract_y
 _atom_site_fract_z
 _atom_site_occupancy
  Ta  Ta0  1  0.808873  0.808873  0.186718  1
  Ta  Ta1  1  0.186040  0.186040  0.815498  1
  Ta  Ta2  1  0.812423  0.186040  0.815498  1
  Ta  Ta3  1  0.195535  0.808873  0.186718  1
  Ta  Ta4  1  0.186040  0.812423  0.815498  1
  Ta  Ta5  1  0.808873  0.195535  0.186718  1
  Ta  Ta6  1  0.441127  0.441127  0.063282  1
  Ta  Ta7  1  0.063960  0.063960  0.434502  1
  Ta  Ta8  1  0.437577  0.063960  0.434502  1
  Ta  Ta9  1  0.054465  0.441127  0.063282  1
  Ta  Ta10  1  0.063960  0.437577  0.434502  1
  Ta  Ta11  1  0.441127  0.054465  0.063282  1
  Al  Al12  1  0.625000  0.625000  0.125000  1
  Al  Al13  1  0.748215  0.409918  0.431951  1
  Al  Al14  1  0.409918  0.748215  0.431951  1
  Al  Al15  1  0.415858  0.415858  0.752427  1
  Al  Al16  1  0.409918  0.409918  0.431951  1
  Al  Al17  1  0.501785  0.840082  0.818049  1
  Al  Al18  1  0.840082  0.501785  0.818049  1
  Al  Al19  1  0.834142  0.834142  0.497573  1
  Al  Al20  1  0.840082  0.840082  0.818049  1
  Co  Co21  1  0.125000  0.625000  0.625000  1
  Co  Co22  1  0.625000  0.125000  0.625000  1
  Co  Co23  1  0.625000  0.625000  0.625000  1
  N  N24  1  0.625000  0.125000  0.125000  1
  N  N25  1  0.125000  0.625000  0.125000  1
  N  N26  1  0.125000  0.125000  0.625000  1
  N  N27  1  0.125000  0.125000  0.125000  1
