# generated using pymatgen
data_Tb2YTh(Al8Pt3)3
_symmetry_space_group_name_H-M   'P 1'
_cell_length_a   7.56812367
_cell_length_b   7.58531234
_cell_length_c   13.19385400
_cell_angle_alpha   84.52546607
_cell_angle_beta   78.99770227
_cell_angle_gamma   59.90641142
_symmetry_Int_Tables_number   1
_chemical_formula_structural   Tb2YTh(Al8Pt3)3
_chemical_formula_sum   'Tb2 Y1 Th1 Al24 Pt9'
_cell_volume   643.27521715
_cell_formula_units_Z   1
loop_
 _symmetry_equiv_pos_site_id
 _symmetry_equiv_pos_as_xyz
  1  'x, y, z'
loop_
 _atom_site_type_symbol
 _atom_site_label
 _atom_site_symmetry_multiplicity
 _atom_site_fract_x
 _atom_site_fract_y
 _atom_site_fract_z
 _atom_site_occupancy
  Tb  Tb0  1  0.733454  0.498999  0.807744  1
  Tb  Tb1  1  0.266245  0.501287  0.192867  1
  Y  Y2  1  0.606184  0.831529  0.192733  1
  Th  Th3  1  0.394225  0.167956  0.807026  1
  Al  Al4  1  0.687128  0.830517  0.946637  1
  Al  Al5  1  0.314765  0.166208  0.057856  1
  Al  Al6  1  0.146767  0.832636  0.560638  1
  Al  Al7  1  0.854009  0.167444  0.438010  1
  Al  Al8  1  0.480957  0.166486  0.556809  1
  Al  Al9  1  0.520170  0.832586  0.440814  1
  Al  Al10  1  0.217308  0.165418  0.330240  1
  Al  Al11  1  0.787419  0.830961  0.667240  1
  Al  Al12  1  0.438259  0.510448  0.667579  1
  Al  Al13  1  0.562502  0.493646  0.329929  1
  Al  Al14  1  0.106763  0.159853  0.666110  1
  Al  Al15  1  0.890213  0.839840  0.331263  1
  Al  Al16  1  0.351736  0.502936  0.946654  1
  Al  Al17  1  0.647073  0.500579  0.056097  1
  Al  Al18  1  0.011693  0.167336  0.955964  1
  Al  Al19  1  0.984238  0.832425  0.047722  1
  Al  Al20  1  0.185780  0.500264  0.440918  1
  Al  Al21  1  0.813663  0.500443  0.558363  1
  Al  Al22  1  0.734428  0.163951  0.183713  1
  Al  Al23  1  0.264291  0.833002  0.816458  1
  Al  Al24  1  0.058946  0.635144  0.815261  1
  Al  Al25  1  0.937897  0.369228  0.185062  1
  Al  Al26  1  0.859642  0.040275  0.816150  1
  Al  Al27  1  0.144227  0.958255  0.184359  1
  Pt  Pt28  1  0.121492  0.491108  0.638738  1
  Pt  Pt29  1  0.879630  0.507794  0.361581  1
  Pt  Pt30  1  0.656639  0.171421  0.999610  1
  Pt  Pt31  1  0.342913  0.829379  0.999731  1
  Pt  Pt32  1  0.537692  0.166870  0.361476  1
  Pt  Pt33  1  0.461915  0.834401  0.638623  1
  Pt  Pt34  1  0.778055  0.174886  0.637496  1
  Pt  Pt35  1  0.220745  0.825251  0.362899  1
  Pt  Pt36  1  0.000935  0.499239  0.999631  1
