# generated using pymatgen
data_Nd2CuHgPd
_symmetry_space_group_name_H-M   'P 1'
_cell_length_a   7.80610200
_cell_length_b   7.79532000
_cell_length_c   3.86061200
_cell_angle_alpha   90.00000000
_cell_angle_beta   90.00000000
_cell_angle_gamma   90.00000000
_symmetry_Int_Tables_number   1
_chemical_formula_structural   Nd2CuHgPd
_chemical_formula_sum   'Nd4 Cu2 Hg2 Pd2'
_cell_volume   234.92234420
_cell_formula_units_Z   2
loop_
 _symmetry_equiv_pos_site_id
 _symmetry_equiv_pos_as_xyz
  1  'x, y, z'
loop_
 _atom_site_type_symbol
 _atom_site_label
 _atom_site_symmetry_multiplicity
 _atom_site_fract_x
 _atom_site_fract_y
 _atom_site_fract_z
 _atom_site_occupancy
  Nd  Nd0  1  0.323144  0.818217  0.500000  1
  Nd  Nd1  1  0.823144  0.681783  0.500000  1
  Nd  Nd2  1  0.178271  0.325970  0.500000  1
  Nd  Nd3  1  0.678271  0.174030  0.500000  1
  Cu  Cu4  1  0.378584  0.119791  0.000000  1
  Cu  Cu5  1  0.878584  0.380209  0.000000  1
  Hg  Hg6  1  0.002921  0.006346  0.000000  1
  Hg  Hg7  1  0.502921  0.493654  0.000000  1
  Pd  Pd8  1  0.117080  0.618114  0.000000  1
  Pd  Pd9  1  0.617080  0.881886  0.000000  1
