# generated using pymatgen
data_Th3ZnPt4Au
_symmetry_space_group_name_H-M   'P 1'
_cell_length_a   8.43217553
_cell_length_b   8.43217580
_cell_length_c   13.64042600
_cell_angle_alpha   90.00000000
_cell_angle_beta   90.00000000
_cell_angle_gamma   127.66723641
_symmetry_Int_Tables_number   1
_chemical_formula_structural   Th3ZnPt4Au
_chemical_formula_sum   'Th12 Zn4 Pt16 Au4'
_cell_volume   767.71185854
_cell_formula_units_Z   4
loop_
 _symmetry_equiv_pos_site_id
 _symmetry_equiv_pos_as_xyz
  1  'x, y, z'
loop_
 _atom_site_type_symbol
 _atom_site_label
 _atom_site_symmetry_multiplicity
 _atom_site_fract_x
 _atom_site_fract_y
 _atom_site_fract_z
 _atom_site_occupancy
  Th  Th0  1  0.927385  0.072615  0.250000  1
  Th  Th1  1  0.072615  0.927385  0.750000  1
  Th  Th2  1  0.323611  0.676389  0.250000  1
  Th  Th3  1  0.676389  0.323611  0.750000  1
  Th  Th4  1  0.628111  0.371889  0.464328  1
  Th  Th5  1  0.371889  0.628111  0.535672  1
  Th  Th6  1  0.628111  0.371889  0.035672  1
  Th  Th7  1  0.371889  0.628111  0.964328  1
  Th  Th8  1  0.881062  0.118938  0.955978  1
  Th  Th9  1  0.118938  0.881062  0.044022  1
  Th  Th10  1  0.881062  0.118938  0.544022  1
  Th  Th11  1  0.118938  0.881062  0.455978  1
  Zn  Zn12  1  0.724615  0.275385  0.250000  1
  Zn  Zn13  1  0.275385  0.724615  0.750000  1
  Zn  Zn14  1  0.528919  0.471081  0.250000  1
  Zn  Zn15  1  0.471081  0.528919  0.750000  1
  Pt  Pt16  1  0.566644  0.001165  0.396422  1
  Pt  Pt17  1  0.001165  0.566644  0.603578  1
  Pt  Pt18  1  0.566644  0.001165  0.103578  1
  Pt  Pt19  1  0.001165  0.566644  0.896422  1
  Pt  Pt20  1  0.433356  0.998835  0.603578  1
  Pt  Pt21  1  0.998835  0.433356  0.396422  1
  Pt  Pt22  1  0.433356  0.998835  0.896422  1
  Pt  Pt23  1  0.998835  0.433356  0.103578  1
  Pt  Pt24  1  0.691007  0.745125  0.394133  1
  Pt  Pt25  1  0.745125  0.691007  0.605867  1
  Pt  Pt26  1  0.691007  0.745125  0.105867  1
  Pt  Pt27  1  0.745125  0.691007  0.894133  1
  Pt  Pt28  1  0.308993  0.254875  0.605867  1
  Pt  Pt29  1  0.254875  0.308993  0.394133  1
  Pt  Pt30  1  0.308993  0.254875  0.894133  1
  Pt  Pt31  1  0.254875  0.308993  0.105867  1
  Au  Au32  1  0.322403  0.067548  0.250000  1
  Au  Au33  1  0.067548  0.322403  0.750000  1
  Au  Au34  1  0.677597  0.932452  0.750000  1
  Au  Au35  1  0.932452  0.677597  0.250000  1
