# generated using pymatgen
data_CaCe(Co5As3)2
_symmetry_space_group_name_H-M   'P 1'
_cell_length_a   3.80639500
_cell_length_b   10.76980700
_cell_length_c   12.19465700
_cell_angle_alpha   90.00000000
_cell_angle_beta   90.00000000
_cell_angle_gamma   90.00000000
_symmetry_Int_Tables_number   1
_chemical_formula_structural   CaCe(Co5As3)2
_chemical_formula_sum   'Ca2 Ce2 Co20 As12'
_cell_volume   499.90947040
_cell_formula_units_Z   2
loop_
 _symmetry_equiv_pos_site_id
 _symmetry_equiv_pos_as_xyz
  1  'x, y, z'
loop_
 _atom_site_type_symbol
 _atom_site_label
 _atom_site_symmetry_multiplicity
 _atom_site_fract_x
 _atom_site_fract_y
 _atom_site_fract_z
 _atom_site_occupancy
  Ca  Ca0  1  0.750000  0.417535  0.298247  1
  Ca  Ca1  1  0.750000  0.082465  0.798247  1
  Ce  Ce2  1  0.250000  0.581252  0.700535  1
  Ce  Ce3  1  0.250000  0.918748  0.200535  1
  Co  Co4  1  0.250000  0.712082  0.988973  1
  Co  Co5  1  0.250000  0.787918  0.488973  1
  Co  Co6  1  0.750000  0.290698  0.006209  1
  Co  Co7  1  0.750000  0.209302  0.506209  1
  Co  Co8  1  0.250000  0.407670  0.489800  1
  Co  Co9  1  0.250000  0.092330  0.989800  1
  Co  Co10  1  0.750000  0.594500  0.515121  1
  Co  Co11  1  0.750000  0.905500  0.015121  1
  Co  Co12  1  0.250000  0.215464  0.176641  1
  Co  Co13  1  0.250000  0.284536  0.676641  1
  Co  Co14  1  0.750000  0.784169  0.824319  1
  Co  Co15  1  0.750000  0.715831  0.324319  1
  Co  Co16  1  0.250000  0.882344  0.696104  1
  Co  Co17  1  0.250000  0.617656  0.196104  1
  Co  Co18  1  0.750000  0.113307  0.302556  1
  Co  Co19  1  0.750000  0.386693  0.802556  1
  Co  Co20  1  0.250000  0.468191  0.932314  1
  Co  Co21  1  0.250000  0.031809  0.432314  1
  Co  Co22  1  0.750000  0.528303  0.067919  1
  Co  Co23  1  0.750000  0.971697  0.567919  1
  As  As24  1  0.250000  0.415367  0.115371  1
  As  As25  1  0.250000  0.084633  0.615371  1
  As  As26  1  0.750000  0.585226  0.888447  1
  As  As27  1  0.750000  0.914774  0.388447  1
  As  As28  1  0.250000  0.268370  0.869683  1
  As  As29  1  0.250000  0.231630  0.369683  1
  As  As30  1  0.750000  0.725894  0.130031  1
  As  As31  1  0.750000  0.774106  0.630031  1
  As  As32  1  0.250000  0.599598  0.390558  1
  As  As33  1  0.250000  0.900402  0.890558  1
  As  As34  1  0.750000  0.394615  0.607172  1
  As  As35  1  0.750000  0.105385  0.107172  1
