# generated using pymatgen
data_Cr2Sb12PdRh
_symmetry_space_group_name_H-M   'P 1'
_cell_length_a   8.23563733
_cell_length_b   8.17526015
_cell_length_c   8.19033889
_cell_angle_alpha   109.31094271
_cell_angle_beta   109.63003660
_cell_angle_gamma   109.39113669
_symmetry_Int_Tables_number   1
_chemical_formula_structural   Cr2Sb12PdRh
_chemical_formula_sum   'Cr2 Sb12 Pd1 Rh1'
_cell_volume   424.92505471
_cell_formula_units_Z   1
loop_
 _symmetry_equiv_pos_site_id
 _symmetry_equiv_pos_as_xyz
  1  'x, y, z'
loop_
 _atom_site_type_symbol
 _atom_site_label
 _atom_site_symmetry_multiplicity
 _atom_site_fract_x
 _atom_site_fract_y
 _atom_site_fract_z
 _atom_site_occupancy
  Cr  Cr0  1  0.000000  0.000000  0.500000  1
  Cr  Cr1  1  0.000000  0.500000  0.000000  1
  Sb  Sb2  1  0.157726  0.814775  0.662671  1
  Sb  Sb3  1  0.842274  0.185225  0.337329  1
  Sb  Sb4  1  0.847083  0.502714  0.656064  1
  Sb  Sb5  1  0.152917  0.497286  0.343936  1
  Sb  Sb6  1  0.813221  0.656622  0.155956  1
  Sb  Sb7  1  0.186779  0.343378  0.844044  1
  Sb  Sb8  1  0.506931  0.662292  0.851122  1
  Sb  Sb9  1  0.493069  0.337708  0.148878  1
  Sb  Sb10  1  0.657344  0.152334  0.814461  1
  Sb  Sb11  1  0.342656  0.847666  0.185539  1
  Sb  Sb12  1  0.657960  0.849198  0.503535  1
  Sb  Sb13  1  0.342040  0.150802  0.496465  1
  Pd  Pd14  1  0.500000  0.500000  0.500000  1
  Rh  Rh15  1  0.500000  0.000000  0.000000  1
