# generated using pymatgen
data_Nb4VCo5Os2
_symmetry_space_group_name_H-M   'P 1'
_cell_length_a   4.85591455
_cell_length_b   4.85591254
_cell_length_c   8.15114600
_cell_angle_alpha   90.00000000
_cell_angle_beta   90.00000000
_cell_angle_gamma   119.47200801
_symmetry_Int_Tables_number   1
_chemical_formula_structural   Nb4VCo5Os2
_chemical_formula_sum   'Nb4 V1 Co5 Os2'
_cell_volume   167.33134960
_cell_formula_units_Z   1
loop_
 _symmetry_equiv_pos_site_id
 _symmetry_equiv_pos_as_xyz
  1  'x, y, z'
loop_
 _atom_site_type_symbol
 _atom_site_label
 _atom_site_symmetry_multiplicity
 _atom_site_fract_x
 _atom_site_fract_y
 _atom_site_fract_z
 _atom_site_occupancy
  Nb  Nb0  1  0.333390  0.666610  0.436409  1
  Nb  Nb1  1  0.668279  0.331721  0.574737  1
  Nb  Nb2  1  0.668279  0.331721  0.925263  1
  Nb  Nb3  1  0.333390  0.666610  0.063591  1
  V  V4  1  0.821983  0.178017  0.250000  1
  Co  Co5  1  0.833147  0.654894  0.250000  1
  Co  Co6  1  0.345106  0.166853  0.250000  1
  Co  Co7  1  0.169543  0.830457  0.750000  1
  Co  Co8  1  0.169639  0.343742  0.750000  1
  Co  Co9  1  0.656258  0.830361  0.750000  1
  Os  Os10  1  0.000493  0.999507  0.502057  1
  Os  Os11  1  0.000493  0.999507  0.997943  1
