# generated using pymatgen
data_Ho6Co4P12Ir13Rh
_symmetry_space_group_name_H-M   'P 1'
_cell_length_a   3.87337700
_cell_length_b   11.04342600
_cell_length_c   12.72866500
_cell_angle_alpha   90.00000000
_cell_angle_beta   90.00000000
_cell_angle_gamma   90.00000000
_symmetry_Int_Tables_number   1
_chemical_formula_structural   Ho6Co4P12Ir13Rh
_chemical_formula_sum   'Ho6 Co4 P12 Ir13 Rh1'
_cell_volume   544.47312930
_cell_formula_units_Z   1
loop_
 _symmetry_equiv_pos_site_id
 _symmetry_equiv_pos_as_xyz
  1  'x, y, z'
loop_
 _atom_site_type_symbol
 _atom_site_label
 _atom_site_symmetry_multiplicity
 _atom_site_fract_x
 _atom_site_fract_y
 _atom_site_fract_z
 _atom_site_occupancy
  Ho  Ho0  1  0.000000  0.500000  0.522256  1
  Ho  Ho1  1  0.500000  0.000000  0.477576  1
  Ho  Ho2  1  0.500000  0.820873  0.198734  1
  Ho  Ho3  1  0.500000  0.179127  0.198734  1
  Ho  Ho4  1  0.000000  0.685349  0.801313  1
  Ho  Ho5  1  0.000000  0.314651  0.801313  1
  Co  Co6  1  0.000000  0.500000  0.983450  1
  Co  Co7  1  0.500000  0.000000  0.016673  1
  Co  Co8  1  0.000000  0.159115  0.003658  1
  Co  Co9  1  0.000000  0.840885  0.003658  1
  P  P10  1  0.500000  0.315970  0.620201  1
  P  P11  1  0.500000  0.684030  0.620201  1
  P  P12  1  0.000000  0.183458  0.379495  1
  P  P13  1  0.000000  0.816542  0.379495  1
  P  P14  1  0.500000  0.500000  0.883816  1
  P  P15  1  0.000000  0.000000  0.111677  1
  P  P16  1  0.500000  0.851442  0.900530  1
  P  P17  1  0.500000  0.148558  0.900530  1
  P  P18  1  0.000000  0.658718  0.102199  1
  P  P19  1  0.000000  0.341282  0.102199  1
  P  P20  1  0.500000  0.500000  0.352861  1
  P  P21  1  0.000000  0.000000  0.645987  1
  Ir  Ir22  1  0.500000  0.293827  0.429212  1
  Ir  Ir23  1  0.500000  0.706173  0.429212  1
  Ir  Ir24  1  0.000000  0.204886  0.570768  1
  Ir  Ir25  1  0.000000  0.795114  0.570768  1
  Ir  Ir26  1  0.500000  0.871117  0.716823  1
  Ir  Ir27  1  0.500000  0.128883  0.716823  1
  Ir  Ir28  1  0.000000  0.629234  0.283915  1
  Ir  Ir29  1  0.000000  0.370766  0.283915  1
  Ir  Ir30  1  0.500000  0.332005  0.995653  1
  Ir  Ir31  1  0.500000  0.667995  0.995653  1
  Ir  Ir32  1  0.000000  0.000000  0.830971  1
  Ir  Ir33  1  0.500000  0.500000  0.704883  1
  Ir  Ir34  1  0.000000  0.000000  0.294233  1
  Rh  Rh35  1  0.500000  0.500000  0.170619  1
