# generated using pymatgen
data_TbDy3(As4O9)2
_symmetry_space_group_name_H-M   'P 1'
_cell_length_a   6.76393624
_cell_length_b   7.56505957
_cell_length_c   9.83564395
_cell_angle_alpha   94.95183990
_cell_angle_beta   104.17644414
_cell_angle_gamma   104.71912698
_symmetry_Int_Tables_number   1
_chemical_formula_structural   TbDy3(As4O9)2
_chemical_formula_sum   'Tb1 Dy3 As8 O18'
_cell_volume   465.98641300
_cell_formula_units_Z   1
loop_
 _symmetry_equiv_pos_site_id
 _symmetry_equiv_pos_as_xyz
  1  'x, y, z'
loop_
 _atom_site_type_symbol
 _atom_site_label
 _atom_site_symmetry_multiplicity
 _atom_site_fract_x
 _atom_site_fract_y
 _atom_site_fract_z
 _atom_site_occupancy
  Tb  Tb0  1  0.244201  0.939659  0.615510  1
  Dy  Dy1  1  0.755569  0.060738  0.384476  1
  Dy  Dy2  1  0.720874  0.530108  0.409411  1
  Dy  Dy3  1  0.279010  0.469771  0.590496  1
  As  As4  1  0.681493  0.775027  0.078003  1
  As  As5  1  0.318559  0.225188  0.922222  1
  As  As6  1  0.171916  0.752734  0.912562  1
  As  As7  1  0.828025  0.247150  0.087549  1
  As  As8  1  0.744046  0.915619  0.709201  1
  As  As9  1  0.256168  0.084398  0.290675  1
  As  As10  1  0.809342  0.350666  0.701121  1
  As  As11  1  0.190773  0.649241  0.298754  1
  O  O12  1  0.722392  0.749663  0.258255  1
  O  O13  1  0.277709  0.250930  0.742003  1
  O  O14  1  0.316002  0.978711  0.870594  1
  O  O15  1  0.684262  0.021424  0.130072  1
  O  O16  1  0.607636  0.323701  0.985586  1
  O  O17  1  0.392338  0.676289  0.014406  1
  O  O18  1  0.128646  0.646557  0.737991  1
  O  O19  1  0.871313  0.353283  0.262030  1
  O  O20  1  0.845836  0.874690  0.558900  1
  O  O21  1  0.153154  0.125800  0.440365  1
  O  O22  1  0.484349  0.768220  0.666484  1
  O  O23  1  0.516304  0.231232  0.333711  1
  O  O24  1  0.372590  0.534155  0.379482  1
  O  O25  1  0.627460  0.465753  0.620478  1
  O  O26  1  0.089322  0.669008  0.453271  1
  O  O27  1  0.910209  0.330113  0.546309  1
  O  O28  1  0.376364  0.899288  0.359107  1
  O  O29  1  0.624139  0.100884  0.640976  1
