# generated using pymatgen
data_Ce3Tm9Tc3Os
_symmetry_space_group_name_H-M   'P 1'
_cell_length_a   7.19953881
_cell_length_b   9.28454200
_cell_length_c   6.32305085
_cell_angle_alpha   90.00000000
_cell_angle_beta   89.01851604
_cell_angle_gamma   90.00000000
_symmetry_Int_Tables_number   1
_chemical_formula_structural   Ce3Tm9Tc3Os
_chemical_formula_sum   'Ce3 Tm9 Tc3 Os1'
_cell_volume   422.59865813
_cell_formula_units_Z   1
loop_
 _symmetry_equiv_pos_site_id
 _symmetry_equiv_pos_as_xyz
  1  'x, y, z'
loop_
 _atom_site_type_symbol
 _atom_site_label
 _atom_site_symmetry_multiplicity
 _atom_site_fract_x
 _atom_site_fract_y
 _atom_site_fract_z
 _atom_site_occupancy
  Ce  Ce0  1  0.059757  0.250000  0.633905  1
  Ce  Ce1  1  0.942068  0.750000  0.370801  1
  Ce  Ce2  1  0.444520  0.750000  0.127262  1
  Tm  Tm3  1  0.535837  0.250000  0.874487  1
  Tm  Tm4  1  0.172884  0.064706  0.163611  1
  Tm  Tm5  1  0.821497  0.941873  0.836124  1
  Tm  Tm6  1  0.323750  0.936799  0.660899  1
  Tm  Tm7  1  0.821497  0.558127  0.836124  1
  Tm  Tm8  1  0.680794  0.068140  0.332448  1
  Tm  Tm9  1  0.172884  0.435294  0.163611  1
  Tm  Tm10  1  0.680794  0.431860  0.332448  1
  Tm  Tm11  1  0.323750  0.563201  0.660899  1
  Tc  Tc12  1  0.357621  0.250000  0.478190  1
  Tc  Tc13  1  0.637822  0.750000  0.510503  1
  Tc  Tc14  1  0.141677  0.750000  0.991397  1
  Os  Os15  1  0.882849  0.250000  0.027291  1
