# generated using pymatgen
data_Er2Pu3Re2C7
_symmetry_space_group_name_H-M   'P 1'
_cell_length_a   8.37842045
_cell_length_b   8.35740959
_cell_length_c   3.41087900
_cell_angle_alpha   90.00000000
_cell_angle_beta   90.00000000
_cell_angle_gamma   124.10340504
_symmetry_Int_Tables_number   1
_chemical_formula_structural   Er2Pu3Re2C7
_chemical_formula_sum   'Er2 Pu3 Re2 C7'
_cell_volume   197.76282491
_cell_formula_units_Z   1
loop_
 _symmetry_equiv_pos_site_id
 _symmetry_equiv_pos_as_xyz
  1  'x, y, z'
loop_
 _atom_site_type_symbol
 _atom_site_label
 _atom_site_symmetry_multiplicity
 _atom_site_fract_x
 _atom_site_fract_y
 _atom_site_fract_z
 _atom_site_occupancy
  Er  Er0  1  0.496279  0.497964  0.000000  1
  Er  Er1  1  0.331552  0.071272  0.500000  1
  Pu  Pu2  1  0.062338  0.321963  0.500000  1
  Pu  Pu3  1  0.931222  0.672189  0.500000  1
  Pu  Pu4  1  0.677739  0.938092  0.500000  1
  Re  Re5  1  0.710359  0.288725  0.000000  1
  Re  Re6  1  0.288853  0.713694  0.000000  1
  C  C7  1  0.627373  0.378873  0.500000  1
  C  C8  1  0.373310  0.625857  0.500000  1
  C  C9  1  0.001036  0.996364  0.000000  1
  C  C10  1  0.175426  0.169246  0.000000  1
  C  C11  1  0.825469  0.824289  0.000000  1
  C  C12  1  0.999625  0.501497  0.000000  1
  C  C13  1  0.499418  0.999977  0.000000  1
