# generated using pymatgen
data_SmTmCo6(SiB)2
_symmetry_space_group_name_H-M   'P 1'
_cell_length_a   5.14388600
_cell_length_b   5.14405804
_cell_length_c   6.44649900
_cell_angle_alpha   90.00000000
_cell_angle_beta   90.00000000
_cell_angle_gamma   119.99791586
_symmetry_Int_Tables_number   1
_chemical_formula_structural   SmTmCo6(SiB)2
_chemical_formula_sum   'Sm1 Tm1 Co6 Si2 B2'
_cell_volume   147.72733633
_cell_formula_units_Z   1
loop_
 _symmetry_equiv_pos_site_id
 _symmetry_equiv_pos_as_xyz
  1  'x, y, z'
loop_
 _atom_site_type_symbol
 _atom_site_label
 _atom_site_symmetry_multiplicity
 _atom_site_fract_x
 _atom_site_fract_y
 _atom_site_fract_z
 _atom_site_occupancy
  Sm  Sm0  1  0.999974  0.000000  0.000000  1
  Tm  Tm1  1  0.999988  0.999998  0.500000  1
  Co  Co2  1  0.499986  0.000001  0.285109  1
  Co  Co3  1  0.499986  0.500001  0.285079  1
  Co  Co4  1  0.999985  0.499999  0.285074  1
  Co  Co5  1  0.499986  0.000001  0.714891  1
  Co  Co6  1  0.499986  0.500001  0.714920  1
  Co  Co7  1  0.999985  0.499999  0.714925  1
  Si  Si8  1  0.333338  0.666692  0.000000  1
  Si  Si9  1  0.666618  0.333309  0.000000  1
  B  B10  1  0.333296  0.666626  0.500000  1
  B  B11  1  0.666672  0.333374  0.500000  1
