# generated using pymatgen
data_Tb10Bi5PbC2
_symmetry_space_group_name_H-M   'P 1'
_cell_length_a   9.17915628
_cell_length_b   9.17915752
_cell_length_c   6.54361700
_cell_angle_alpha   90.00000000
_cell_angle_beta   90.00000000
_cell_angle_gamma   120.06048433
_symmetry_Int_Tables_number   1
_chemical_formula_structural   Tb10Bi5PbC2
_chemical_formula_sum   'Tb10 Bi5 Pb1 C2'
_cell_volume   477.18751647
_cell_formula_units_Z   1
loop_
 _symmetry_equiv_pos_site_id
 _symmetry_equiv_pos_as_xyz
  1  'x, y, z'
loop_
 _atom_site_type_symbol
 _atom_site_label
 _atom_site_symmetry_multiplicity
 _atom_site_fract_x
 _atom_site_fract_y
 _atom_site_fract_z
 _atom_site_occupancy
  Tb  Tb0  1  0.664997  0.333855  0.998766  1
  Tb  Tb1  1  0.333855  0.664997  0.998766  1
  Tb  Tb2  1  0.333855  0.664997  0.501234  1
  Tb  Tb3  1  0.664997  0.333855  0.501234  1
  Tb  Tb4  1  0.790219  0.790219  0.750000  1
  Tb  Tb5  1  0.209324  0.002497  0.750000  1
  Tb  Tb6  1  0.002497  0.209324  0.750000  1
  Tb  Tb7  1  0.209996  0.209996  0.250000  1
  Tb  Tb8  1  0.792172  0.999976  0.250000  1
  Tb  Tb9  1  0.999976  0.792172  0.250000  1
  Bi  Bi10  1  0.598901  0.000248  0.750000  1
  Bi  Bi11  1  0.000248  0.598901  0.750000  1
  Bi  Bi12  1  0.598196  0.598196  0.250000  1
  Bi  Bi13  1  0.400840  0.999347  0.250000  1
  Bi  Bi14  1  0.999347  0.400840  0.250000  1
  Pb  Pb15  1  0.402369  0.402369  0.750000  1
  C  C16  1  0.999105  0.999105  0.000389  1
  C  C17  1  0.999105  0.999105  0.499611  1
