# generated using pymatgen
data_Tb2DyHo3(SbO7)2
_symmetry_space_group_name_H-M   'P 1'
_cell_length_a   6.46403864
_cell_length_b   6.46641302
_cell_length_c   7.52080400
_cell_angle_alpha   90.00000000
_cell_angle_beta   90.00000000
_cell_angle_gamma   109.37488635
_symmetry_Int_Tables_number   1
_chemical_formula_structural   Tb2DyHo3(SbO7)2
_chemical_formula_sum   'Tb2 Dy1 Ho3 Sb2 O14'
_cell_volume   296.56020147
_cell_formula_units_Z   1
loop_
 _symmetry_equiv_pos_site_id
 _symmetry_equiv_pos_as_xyz
  1  'x, y, z'
loop_
 _atom_site_type_symbol
 _atom_site_label
 _atom_site_symmetry_multiplicity
 _atom_site_fract_x
 _atom_site_fract_y
 _atom_site_fract_z
 _atom_site_occupancy
  Tb  Tb0  1  0.500264  0.500116  0.499834  1
  Tb  Tb1  1  0.500264  0.500116  0.000166  1
  Dy  Dy2  1  0.999605  0.468432  0.750000  1
  Ho  Ho3  1  0.531313  0.000621  0.750000  1
  Ho  Ho4  1  0.000603  0.531501  0.250000  1
  Ho  Ho5  1  0.468651  0.999346  0.250000  1
  Sb  Sb6  1  0.999940  0.999999  0.499756  1
  Sb  Sb7  1  0.999940  0.999999  0.000244  1
  O  O8  1  0.676943  0.928113  0.469923  1
  O  O9  1  0.927358  0.677003  0.529295  1
  O  O10  1  0.676943  0.928113  0.030077  1
  O  O11  1  0.927358  0.677003  0.970705  1
  O  O12  1  0.322893  0.071963  0.530021  1
  O  O13  1  0.072370  0.322861  0.469344  1
  O  O14  1  0.322893  0.071963  0.969979  1
  O  O15  1  0.072370  0.322861  0.030656  1
  O  O16  1  0.929297  0.069888  0.750000  1
  O  O17  1  0.070794  0.929519  0.250000  1
  O  O18  1  0.369736  0.632442  0.750000  1
  O  O19  1  0.631794  0.368190  0.250000  1
  O  O20  1  0.637122  0.361414  0.750000  1
  O  O21  1  0.361546  0.638537  0.250000  1
