# generated using pymatgen
data_Hf2Be2ZnIr5
_symmetry_space_group_name_H-M   'P 1'
_cell_length_a   9.35595900
_cell_length_b   9.35595900
_cell_length_c   3.23083300
_cell_angle_alpha   90.00000000
_cell_angle_beta   90.00000000
_cell_angle_gamma   90.00000000
_symmetry_Int_Tables_number   1
_chemical_formula_structural   Hf2Be2ZnIr5
_chemical_formula_sum   'Hf4 Be4 Zn2 Ir10'
_cell_volume   282.80763505
_cell_formula_units_Z   2
loop_
 _symmetry_equiv_pos_site_id
 _symmetry_equiv_pos_as_xyz
  1  'x, y, z'
loop_
 _atom_site_type_symbol
 _atom_site_label
 _atom_site_symmetry_multiplicity
 _atom_site_fract_x
 _atom_site_fract_y
 _atom_site_fract_z
 _atom_site_occupancy
  Hf  Hf0  1  0.177734  0.677734  0.000000  1
  Hf  Hf1  1  0.322266  0.177734  0.000000  1
  Hf  Hf2  1  0.822266  0.322266  0.000000  1
  Hf  Hf3  1  0.677734  0.822266  0.000000  1
  Be  Be4  1  0.377252  0.877252  0.000000  1
  Be  Be5  1  0.122748  0.377252  0.000000  1
  Be  Be6  1  0.877252  0.622748  0.000000  1
  Be  Be7  1  0.622748  0.122748  0.000000  1
  Zn  Zn8  1  0.500000  0.500000  0.000000  1
  Zn  Zn9  1  0.000000  0.000000  0.000000  1
  Ir  Ir10  1  0.211460  0.929405  0.500000  1
  Ir  Ir11  1  0.929405  0.788540  0.500000  1
  Ir  Ir12  1  0.429405  0.711460  0.500000  1
  Ir  Ir13  1  0.570595  0.288540  0.500000  1
  Ir  Ir14  1  0.711460  0.570595  0.500000  1
  Ir  Ir15  1  0.288540  0.429405  0.500000  1
  Ir  Ir16  1  0.070595  0.211460  0.500000  1
  Ir  Ir17  1  0.000000  0.500000  0.500000  1
  Ir  Ir18  1  0.500000  0.000000  0.500000  1
  Ir  Ir19  1  0.788540  0.070595  0.500000  1
