# generated using pymatgen
data_NiPtRhO6
_symmetry_space_group_name_H-M   'P 1'
_cell_length_a   4.56119600
_cell_length_b   4.56119600
_cell_length_c   9.39125100
_cell_angle_alpha   90.00000000
_cell_angle_beta   90.00000000
_cell_angle_gamma   90.00000000
_symmetry_Int_Tables_number   1
_chemical_formula_structural   NiPtRhO6
_chemical_formula_sum   'Ni2 Pt2 Rh2 O12'
_cell_volume   195.38036549
_cell_formula_units_Z   2
loop_
 _symmetry_equiv_pos_site_id
 _symmetry_equiv_pos_as_xyz
  1  'x, y, z'
loop_
 _atom_site_type_symbol
 _atom_site_label
 _atom_site_symmetry_multiplicity
 _atom_site_fract_x
 _atom_site_fract_y
 _atom_site_fract_z
 _atom_site_occupancy
  Ni  Ni0  1  0.500000  0.500000  0.166094  1
  Ni  Ni1  1  0.000000  0.000000  0.666094  1
  Pt  Pt2  1  0.500000  0.500000  0.498835  1
  Pt  Pt3  1  0.000000  0.000000  0.998835  1
  Rh  Rh4  1  0.500000  0.500000  0.834603  1
  Rh  Rh5  1  0.000000  0.000000  0.334603  1
  O  O6  1  0.194489  0.805511  0.499377  1
  O  O7  1  0.805511  0.194489  0.499377  1
  O  O8  1  0.305511  0.305511  0.999377  1
  O  O9  1  0.694489  0.694489  0.999377  1
  O  O10  1  0.190265  0.809735  0.167764  1
  O  O11  1  0.809735  0.190265  0.167764  1
  O  O12  1  0.309735  0.309735  0.667764  1
  O  O13  1  0.690265  0.690265  0.667764  1
  O  O14  1  0.803715  0.196285  0.833094  1
  O  O15  1  0.196285  0.803715  0.833094  1
  O  O16  1  0.696285  0.696285  0.333094  1
  O  O17  1  0.303715  0.303715  0.333094  1
