# generated using pymatgen
data_DyScNb2(SbRh)4
_symmetry_space_group_name_H-M   'P 1'
_cell_length_a   6.32325786
_cell_length_b   4.46636200
_cell_length_c   8.93060311
_cell_angle_alpha   90.00000000
_cell_angle_beta   90.15879019
_cell_angle_gamma   90.00000000
_symmetry_Int_Tables_number   1
_chemical_formula_structural   DyScNb2(SbRh)4
_chemical_formula_sum   'Dy1 Sc1 Nb2 Sb4 Rh4'
_cell_volume   252.21675495
_cell_formula_units_Z   1
loop_
 _symmetry_equiv_pos_site_id
 _symmetry_equiv_pos_as_xyz
  1  'x, y, z'
loop_
 _atom_site_type_symbol
 _atom_site_label
 _atom_site_symmetry_multiplicity
 _atom_site_fract_x
 _atom_site_fract_y
 _atom_site_fract_z
 _atom_site_occupancy
  Dy  Dy0  1  0.005878  0.499999  0.376155  1
  Sc  Sc1  1  0.506522  0.000000  0.623745  1
  Nb  Nb2  1  0.495681  0.000000  0.122754  1
  Nb  Nb3  1  0.993892  0.499999  0.876768  1
  Sb  Sb4  1  0.988639  0.000000  0.123418  1
  Sb  Sb5  1  0.510962  0.499999  0.377295  1
  Sb  Sb6  1  0.009131  0.000000  0.628602  1
  Sb  Sb7  1  0.485326  0.499999  0.871092  1
  Rh  Rh8  1  0.734446  0.499999  0.110889  1
  Rh  Rh9  1  0.272708  0.000000  0.359613  1
  Rh  Rh10  1  0.759123  0.499999  0.643962  1
  Rh  Rh11  1  0.237697  0.000000  0.885713  1
