# generated using pymatgen
data_Mn3Ni2RhS8
_symmetry_space_group_name_H-M   'P 1'
_cell_length_a   6.86745852
_cell_length_b   6.80156438
_cell_length_c   6.80156400
_cell_angle_alpha   60.00000183
_cell_angle_beta   60.31690175
_cell_angle_gamma   60.31689772
_symmetry_Int_Tables_number   1
_chemical_formula_structural   Mn3Ni2RhS8
_chemical_formula_sum   'Mn3 Ni2 Rh1 S8'
_cell_volume   225.71601589
_cell_formula_units_Z   1
loop_
 _symmetry_equiv_pos_site_id
 _symmetry_equiv_pos_as_xyz
  1  'x, y, z'
loop_
 _atom_site_type_symbol
 _atom_site_label
 _atom_site_symmetry_multiplicity
 _atom_site_fract_x
 _atom_site_fract_y
 _atom_site_fract_z
 _atom_site_occupancy
  Mn  Mn0  1  0.000000  0.000000  0.500000  1
  Mn  Mn1  1  0.000000  0.500000  0.000000  1
  Mn  Mn2  1  0.000000  0.000000  0.000000  1
  Ni  Ni3  1  0.376754  0.374415  0.374415  1
  Ni  Ni4  1  0.623246  0.625585  0.625585  1
  Rh  Rh5  1  0.500000  0.000000  0.000000  1
  S  S6  1  0.240562  0.246701  0.766036  1
  S  S7  1  0.240562  0.766036  0.246701  1
  S  S8  1  0.765966  0.244678  0.244678  1
  S  S9  1  0.240562  0.246701  0.246701  1
  S  S10  1  0.759438  0.753299  0.233964  1
  S  S11  1  0.759438  0.233964  0.753299  1
  S  S12  1  0.234034  0.755322  0.755322  1
  S  S13  1  0.759438  0.753299  0.753299  1
