# generated using pymatgen
data_Th2Mn7Fe4CoP7
_symmetry_space_group_name_H-M   'P 1'
_cell_length_a   9.21410666
_cell_length_b   9.18892906
_cell_length_c   3.73384100
_cell_angle_alpha   90.00000000
_cell_angle_beta   90.00000000
_cell_angle_gamma   120.43217219
_symmetry_Int_Tables_number   1
_chemical_formula_structural   Th2Mn7Fe4CoP7
_chemical_formula_sum   'Th2 Mn7 Fe4 Co1 P7'
_cell_volume   272.58175038
_cell_formula_units_Z   1
loop_
 _symmetry_equiv_pos_site_id
 _symmetry_equiv_pos_as_xyz
  1  'x, y, z'
loop_
 _atom_site_type_symbol
 _atom_site_label
 _atom_site_symmetry_multiplicity
 _atom_site_fract_x
 _atom_site_fract_y
 _atom_site_fract_z
 _atom_site_occupancy
  Th  Th0  1  0.333899  0.661420  0.000000  1
  Th  Th1  1  0.995813  0.001029  0.500000  1
  Mn  Mn2  1  0.248730  0.968738  0.000000  1
  Mn  Mn3  1  0.542179  0.057068  0.000000  1
  Mn  Mn4  1  0.942347  0.486568  0.000000  1
  Mn  Mn5  1  0.515772  0.455679  0.000000  1
  Mn  Mn6  1  0.777364  0.227908  0.500000  1
  Mn  Mn7  1  0.773021  0.550652  0.500000  1
  Mn  Mn8  1  0.444804  0.219807  0.500000  1
  Fe  Fe9  1  0.724585  0.756872  0.000000  1
  Fe  Fe10  1  0.616334  0.897745  0.500000  1
  Fe  Fe11  1  0.106364  0.725836  0.500000  1
  Fe  Fe12  1  0.281857  0.386761  0.500000  1
  Co  Co13  1  0.030113  0.272254  0.000000  1
  P  P14  1  0.765569  0.024420  0.000000  1
  P  P15  1  0.965771  0.739013  0.000000  1
  P  P16  1  0.257229  0.234329  0.000000  1
  P  P17  1  0.385428  0.929669  0.500000  1
  P  P18  1  0.065388  0.445603  0.500000  1
  P  P19  1  0.560145  0.625654  0.500000  1
  P  P20  1  0.667287  0.332973  0.000000  1
