# generated using pymatgen
data_TbDy3Tm4(ReC2)4
_symmetry_space_group_name_H-M   'P 1'
_cell_length_a   5.07593700
_cell_length_b   6.57112966
_cell_length_c   9.79844799
_cell_angle_alpha   89.94861618
_cell_angle_beta   90.00000000
_cell_angle_gamma   90.00000000
_symmetry_Int_Tables_number   1
_chemical_formula_structural   TbDy3Tm4(ReC2)4
_chemical_formula_sum   'Tb1 Dy3 Tm4 Re4 C8'
_cell_volume   326.82357540
_cell_formula_units_Z   1
loop_
 _symmetry_equiv_pos_site_id
 _symmetry_equiv_pos_as_xyz
  1  'x, y, z'
loop_
 _atom_site_type_symbol
 _atom_site_label
 _atom_site_symmetry_multiplicity
 _atom_site_fract_x
 _atom_site_fract_y
 _atom_site_fract_z
 _atom_site_occupancy
  Tb  Tb0  1  0.250000  0.466450  0.214938  1
  Dy  Dy1  1  0.250000  0.966460  0.284797  1
  Dy  Dy2  1  0.750000  0.533647  0.784773  1
  Dy  Dy3  1  0.750000  0.033625  0.715311  1
  Tm  Tm4  1  0.250000  0.823572  0.942316  1
  Tm  Tm5  1  0.250000  0.323771  0.557665  1
  Tm  Tm6  1  0.750000  0.176181  0.057477  1
  Tm  Tm7  1  0.750000  0.676443  0.442520  1
  Re  Re8  1  0.250000  0.279133  0.866782  1
  Re  Re9  1  0.250000  0.779465  0.633249  1
  Re  Re10  1  0.750000  0.720949  0.133116  1
  Re  Re11  1  0.750000  0.220607  0.366979  1
  C  C12  1  0.250000  0.047484  0.740120  1
  C  C13  1  0.250000  0.547450  0.759869  1
  C  C14  1  0.750000  0.952652  0.259850  1
  C  C15  1  0.750000  0.452632  0.240358  1
  C  C16  1  0.250000  0.673215  0.449915  1
  C  C17  1  0.250000  0.171757  0.050004  1
  C  C18  1  0.750000  0.327219  0.550382  1
  C  C19  1  0.750000  0.827289  0.949578  1
