# generated using pymatgen
data_Hf3ScV4SiP3
_symmetry_space_group_name_H-M   'P 1'
_cell_length_a   3.48331300
_cell_length_b   6.66558323
_cell_length_c   7.93846415
_cell_angle_alpha   89.95617513
_cell_angle_beta   90.00000000
_cell_angle_gamma   90.00000000
_symmetry_Int_Tables_number   1
_chemical_formula_structural   Hf3ScV4SiP3
_chemical_formula_sum   'Hf3 Sc1 V4 Si1 P3'
_cell_volume   184.31768912
_cell_formula_units_Z   1
loop_
 _symmetry_equiv_pos_site_id
 _symmetry_equiv_pos_as_xyz
  1  'x, y, z'
loop_
 _atom_site_type_symbol
 _atom_site_label
 _atom_site_symmetry_multiplicity
 _atom_site_fract_x
 _atom_site_fract_y
 _atom_site_fract_z
 _atom_site_occupancy
  Hf  Hf0  1  0.250000  0.540172  0.667784  1
  Hf  Hf1  1  0.750000  0.960227  0.165084  1
  Hf  Hf2  1  0.750000  0.454521  0.332131  1
  Sc  Sc3  1  0.250000  0.040494  0.832261  1
  V  V4  1  0.250000  0.132558  0.442944  1
  V  V5  1  0.250000  0.626208  0.054907  1
  V  V6  1  0.750000  0.874386  0.560381  1
  V  V7  1  0.750000  0.372016  0.942634  1
  Si  Si8  1  0.250000  0.760419  0.363882  1
  P  P9  1  0.250000  0.261179  0.136098  1
  P  P10  1  0.750000  0.239817  0.639627  1
  P  P11  1  0.750000  0.738002  0.862269  1
