# generated using pymatgen
data_Ho2Tm(AgGe)3
_symmetry_space_group_name_H-M   'P 1'
_cell_length_a   7.14911990
_cell_length_b   7.15535011
_cell_length_c   4.18399800
_cell_angle_alpha   90.00000000
_cell_angle_beta   90.00000000
_cell_angle_gamma   120.02882723
_symmetry_Int_Tables_number   1
_chemical_formula_structural   Ho2Tm(AgGe)3
_chemical_formula_sum   'Ho2 Tm1 Ag3 Ge3'
_cell_volume   185.30167348
_cell_formula_units_Z   1
loop_
 _symmetry_equiv_pos_site_id
 _symmetry_equiv_pos_as_xyz
  1  'x, y, z'
loop_
 _atom_site_type_symbol
 _atom_site_label
 _atom_site_symmetry_multiplicity
 _atom_site_fract_x
 _atom_site_fract_y
 _atom_site_fract_z
 _atom_site_occupancy
  Ho  Ho0  1  0.416869  0.416988  0.500000  1
  Ho  Ho1  1  0.583131  0.000119  0.500000  1
  Tm  Tm2  1  0.000000  0.583209  0.500000  1
  Ag  Ag3  1  0.748603  0.748309  0.000000  1
  Ag  Ag4  1  0.251397  0.999706  0.000000  1
  Ag  Ag5  1  0.000000  0.252006  0.000000  1
  Ge  Ge6  1  0.667441  0.333804  0.000000  1
  Ge  Ge7  1  0.332559  0.666363  0.000000  1
  Ge  Ge8  1  0.000000  0.999496  0.500000  1
