# generated using pymatgen
data_NdBPd3Au
_symmetry_space_group_name_H-M   'P 1'
_cell_length_a   5.56855800
_cell_length_b   5.56855690
_cell_length_c   7.65120100
_cell_angle_alpha   90.00000000
_cell_angle_beta   90.00000000
_cell_angle_gamma   119.99999464
_symmetry_Int_Tables_number   1
_chemical_formula_structural   NdBPd3Au
_chemical_formula_sum   'Nd2 B2 Pd6 Au2'
_cell_volume   205.46870118
_cell_formula_units_Z   2
loop_
 _symmetry_equiv_pos_site_id
 _symmetry_equiv_pos_as_xyz
  1  'x, y, z'
loop_
 _atom_site_type_symbol
 _atom_site_label
 _atom_site_symmetry_multiplicity
 _atom_site_fract_x
 _atom_site_fract_y
 _atom_site_fract_z
 _atom_site_occupancy
  Nd  Nd0  1  0.000000  0.000000  0.500000  1
  Nd  Nd1  1  0.000000  0.000000  0.000000  1
  B  B2  1  0.333333  0.666667  0.000000  1
  B  B3  1  0.666667  0.333333  0.000000  1
  Pd  Pd4  1  0.500000  0.000000  0.192565  1
  Pd  Pd5  1  0.500000  0.000000  0.807435  1
  Pd  Pd6  1  0.000000  0.500000  0.192565  1
  Pd  Pd7  1  0.000000  0.500000  0.807435  1
  Pd  Pd8  1  0.500000  0.500000  0.192565  1
  Pd  Pd9  1  0.500000  0.500000  0.807435  1
  Au  Au10  1  0.333333  0.666667  0.500000  1
  Au  Au11  1  0.666667  0.333333  0.500000  1
