# generated using pymatgen
data_La3Th7(Bi3Se)2
_symmetry_space_group_name_H-M   'P 1'
_cell_length_a   9.66027100
_cell_length_b   9.66027167
_cell_length_c   6.77974600
_cell_angle_alpha   90.00000000
_cell_angle_beta   90.00000000
_cell_angle_gamma   120.00000798
_symmetry_Int_Tables_number   1
_chemical_formula_structural   La3Th7(Bi3Se)2
_chemical_formula_sum   'La3 Th7 Bi6 Se2'
_cell_volume   547.92696036
_cell_formula_units_Z   1
loop_
 _symmetry_equiv_pos_site_id
 _symmetry_equiv_pos_as_xyz
  1  'x, y, z'
loop_
 _atom_site_type_symbol
 _atom_site_label
 _atom_site_symmetry_multiplicity
 _atom_site_fract_x
 _atom_site_fract_y
 _atom_site_fract_z
 _atom_site_occupancy
  La  La0  1  0.262452  0.262452  0.250000  1
  La  La1  1  0.737548  0.000000  0.250000  1
  La  La2  1  0.000000  0.737548  0.250000  1
  Th  Th3  1  0.737527  0.737527  0.750000  1
  Th  Th4  1  0.262473  0.000000  0.750000  1
  Th  Th5  1  0.000000  0.262473  0.750000  1
  Th  Th6  1  0.666667  0.333333  0.998064  1
  Th  Th7  1  0.333333  0.666667  0.998064  1
  Th  Th8  1  0.333333  0.666667  0.501936  1
  Th  Th9  1  0.666667  0.333333  0.501936  1
  Bi  Bi10  1  0.388815  0.388815  0.750000  1
  Bi  Bi11  1  0.611185  0.000000  0.750000  1
  Bi  Bi12  1  0.000000  0.611185  0.750000  1
  Bi  Bi13  1  0.611518  0.611518  0.250000  1
  Bi  Bi14  1  0.388482  0.000000  0.250000  1
  Bi  Bi15  1  0.000000  0.388482  0.250000  1
  Se  Se16  1  0.000000  0.000000  0.995687  1
  Se  Se17  1  0.000000  0.000000  0.504313  1
