# generated using pymatgen
data_TbPr2Y2(Sn5Rh2)2
_symmetry_space_group_name_H-M   'P 1'
_cell_length_a   14.16633700
_cell_length_b   14.16633700
_cell_length_c   4.57466300
_cell_angle_alpha   90.00000000
_cell_angle_beta   90.00000000
_cell_angle_gamma   90.00000000
_symmetry_Int_Tables_number   1
_chemical_formula_structural   TbPr2Y2(Sn5Rh2)2
_chemical_formula_sum   'Tb2 Pr4 Y4 Sn20 Rh8'
_cell_volume   918.06671991
_cell_formula_units_Z   2
loop_
 _symmetry_equiv_pos_site_id
 _symmetry_equiv_pos_as_xyz
  1  'x, y, z'
loop_
 _atom_site_type_symbol
 _atom_site_label
 _atom_site_symmetry_multiplicity
 _atom_site_fract_x
 _atom_site_fract_y
 _atom_site_fract_z
 _atom_site_occupancy
  Tb  Tb0  1  0.500000  0.500000  0.000000  1
  Tb  Tb1  1  0.000000  0.000000  0.000000  1
  Pr  Pr2  1  0.888060  0.388060  0.500000  1
  Pr  Pr3  1  0.111940  0.611940  0.500000  1
  Pr  Pr4  1  0.388060  0.111940  0.500000  1
  Pr  Pr5  1  0.611940  0.888060  0.500000  1
  Y  Y6  1  0.677305  0.177305  0.500000  1
  Y  Y7  1  0.322695  0.822695  0.500000  1
  Y  Y8  1  0.177305  0.322695  0.500000  1
  Y  Y9  1  0.822695  0.677305  0.500000  1
  Sn  Sn10  1  0.570353  0.070353  0.000000  1
  Sn  Sn11  1  0.429647  0.929647  0.000000  1
  Sn  Sn12  1  0.070353  0.429647  0.000000  1
  Sn  Sn13  1  0.929647  0.570353  0.000000  1
  Sn  Sn14  1  0.654191  0.698056  0.000000  1
  Sn  Sn15  1  0.345809  0.301944  0.000000  1
  Sn  Sn16  1  0.154191  0.801944  0.000000  1
  Sn  Sn17  1  0.845809  0.198056  0.000000  1
  Sn  Sn18  1  0.301944  0.654191  0.000000  1
  Sn  Sn19  1  0.698056  0.345809  0.000000  1
  Sn  Sn20  1  0.198056  0.154191  0.000000  1
  Sn  Sn21  1  0.801944  0.845809  0.000000  1
  Sn  Sn22  1  0.661542  0.505733  0.500000  1
  Sn  Sn23  1  0.338458  0.494267  0.500000  1
  Sn  Sn24  1  0.161542  0.994267  0.500000  1
  Sn  Sn25  1  0.838458  0.005733  0.500000  1
  Sn  Sn26  1  0.494267  0.661542  0.500000  1
  Sn  Sn27  1  0.505733  0.338458  0.500000  1
  Sn  Sn28  1  0.005733  0.161542  0.500000  1
  Sn  Sn29  1  0.994267  0.838458  0.500000  1
  Rh  Rh30  1  0.746035  0.529334  0.000000  1
  Rh  Rh31  1  0.253965  0.470666  0.000000  1
  Rh  Rh32  1  0.246035  0.970666  0.000000  1
  Rh  Rh33  1  0.753965  0.029334  0.000000  1
  Rh  Rh34  1  0.470666  0.746035  0.000000  1
  Rh  Rh35  1  0.529334  0.253965  0.000000  1
  Rh  Rh36  1  0.029334  0.246035  0.000000  1
  Rh  Rh37  1  0.970666  0.753965  0.000000  1
