# generated using pymatgen
data_Pr2NdY3OsI10
_symmetry_space_group_name_H-M   'P 1'
_cell_length_a   7.88719655
_cell_length_b   9.97854009
_cell_length_c   9.90031188
_cell_angle_alpha   106.78492381
_cell_angle_beta   96.02874925
_cell_angle_gamma   104.96076944
_symmetry_Int_Tables_number   1
_chemical_formula_structural   Pr2NdY3OsI10
_chemical_formula_sum   'Pr2 Nd1 Y3 Os1 I10'
_cell_volume   706.98430377
_cell_formula_units_Z   1
loop_
 _symmetry_equiv_pos_site_id
 _symmetry_equiv_pos_as_xyz
  1  'x, y, z'
loop_
 _atom_site_type_symbol
 _atom_site_label
 _atom_site_symmetry_multiplicity
 _atom_site_fract_x
 _atom_site_fract_y
 _atom_site_fract_z
 _atom_site_occupancy
  Pr  Pr0  1  0.114205  0.041987  0.767029  1
  Pr  Pr1  1  0.885586  0.956123  0.231921  1
  Nd  Nd2  1  0.967101  0.292329  0.087668  1
  Y  Y3  1  0.030464  0.711865  0.913107  1
  Y  Y4  1  0.351652  0.125183  0.167327  1
  Y  Y5  1  0.649145  0.872354  0.832596  1
  Os  Os6  1  0.000190  0.998892  0.999486  1
  I  I7  1  0.354204  0.445568  0.271482  1
  I  I8  1  0.654682  0.555062  0.731635  1
  I  I9  1  0.263249  0.087624  0.453038  1
  I  I10  1  0.736150  0.912025  0.547162  1
  I  I11  1  0.086917  0.377597  0.819345  1
  I  I12  1  0.915253  0.628296  0.175252  1
  I  I13  1  0.451589  0.819008  0.088295  1
  I  I14  1  0.544396  0.178953  0.909338  1
  I  I15  1  0.770883  0.256451  0.345740  1
  I  I16  1  0.224332  0.740684  0.659579  1
