# generated using pymatgen
data_Al2V3Re2Mo
_symmetry_space_group_name_H-M   'P 1'
_cell_length_a   4.86148383
_cell_length_b   4.86148279
_cell_length_c   4.80987684
_cell_angle_alpha   90.05009741
_cell_angle_beta   89.94989133
_cell_angle_gamma   89.97058365
_symmetry_Int_Tables_number   1
_chemical_formula_structural   Al2V3Re2Mo
_chemical_formula_sum   'Al2 V3 Re2 Mo1'
_cell_volume   113.67662349
_cell_formula_units_Z   1
loop_
 _symmetry_equiv_pos_site_id
 _symmetry_equiv_pos_as_xyz
  1  'x, y, z'
loop_
 _atom_site_type_symbol
 _atom_site_label
 _atom_site_symmetry_multiplicity
 _atom_site_fract_x
 _atom_site_fract_y
 _atom_site_fract_z
 _atom_site_occupancy
  Al  Al0  1  0.504175  0.495232  0.494853  1
  Al  Al1  1  0.995232  0.004175  0.005147  1
  V  V2  1  0.498938  0.249870  0.998805  1
  V  V3  1  0.749870  0.998938  0.501195  1
  V  V4  1  0.001352  0.501352  0.250000  1
  Re  Re5  1  0.499562  0.749912  0.999084  1
  Re  Re6  1  0.249912  0.999562  0.500916  1
  Mo  Mo7  1  0.000958  0.500958  0.750000  1
