# generated using pymatgen
data_Sn4Pd7Rh
_symmetry_space_group_name_H-M   'P 1'
_cell_length_a   4.30708600
_cell_length_b   5.80280237
_cell_length_c   8.25498646
_cell_angle_alpha   90.03972655
_cell_angle_beta   90.00000000
_cell_angle_gamma   90.00000000
_symmetry_Int_Tables_number   1
_chemical_formula_structural   Sn4Pd7Rh
_chemical_formula_sum   'Sn4 Pd7 Rh1'
_cell_volume   206.31822102
_cell_formula_units_Z   1
loop_
 _symmetry_equiv_pos_site_id
 _symmetry_equiv_pos_as_xyz
  1  'x, y, z'
loop_
 _atom_site_type_symbol
 _atom_site_label
 _atom_site_symmetry_multiplicity
 _atom_site_fract_x
 _atom_site_fract_y
 _atom_site_fract_z
 _atom_site_occupancy
  Sn  Sn0  1  0.750000  0.284799  0.612660  1
  Sn  Sn1  1  0.750000  0.810663  0.890393  1
  Sn  Sn2  1  0.250000  0.700116  0.391271  1
  Sn  Sn3  1  0.250000  0.202887  0.103994  1
  Pd  Pd4  1  0.250000  0.668454  0.063258  1
  Pd  Pd5  1  0.750000  0.949310  0.213311  1
  Pd  Pd6  1  0.750000  0.448298  0.290052  1
  Pd  Pd7  1  0.750000  0.348576  0.935442  1
  Pd  Pd8  1  0.750000  0.825195  0.563734  1
  Pd  Pd9  1  0.250000  0.164272  0.433528  1
  Pd  Pd10  1  0.250000  0.548003  0.710306  1
  Rh  Rh11  1  0.250000  0.049426  0.792051  1
