# generated using pymatgen
data_Y4Er8IrOs3
_symmetry_space_group_name_H-M   'P 1'
_cell_length_a   6.35753904
_cell_length_b   7.36733851
_cell_length_c   8.98162500
_cell_angle_alpha   90.00000000
_cell_angle_beta   90.00000000
_cell_angle_gamma   90.08577483
_symmetry_Int_Tables_number   1
_chemical_formula_structural   Y4Er8IrOs3
_chemical_formula_sum   'Y4 Er8 Ir1 Os3'
_cell_volume   420.68215735
_cell_formula_units_Z   1
loop_
 _symmetry_equiv_pos_site_id
 _symmetry_equiv_pos_as_xyz
  1  'x, y, z'
loop_
 _atom_site_type_symbol
 _atom_site_label
 _atom_site_symmetry_multiplicity
 _atom_site_fract_x
 _atom_site_fract_y
 _atom_site_fract_z
 _atom_site_occupancy
  Y  Y0  1  0.873698  0.537372  0.250000  1
  Y  Y1  1  0.627337  0.038566  0.250000  1
  Y  Y2  1  0.126614  0.462289  0.750000  1
  Y  Y3  1  0.371522  0.962052  0.750000  1
  Er  Er4  1  0.332626  0.673227  0.061983  1
  Er  Er5  1  0.169827  0.176262  0.438277  1
  Er  Er6  1  0.669274  0.325317  0.562824  1
  Er  Er7  1  0.828001  0.824830  0.935405  1
  Er  Er8  1  0.669274  0.325317  0.937176  1
  Er  Er9  1  0.828001  0.824830  0.564595  1
  Er  Er10  1  0.332626  0.673227  0.438017  1
  Er  Er11  1  0.169827  0.176262  0.061723  1
  Ir  Ir12  1  0.042201  0.884833  0.250000  1
  Os  Os13  1  0.459964  0.384057  0.250000  1
  Os  Os14  1  0.960276  0.115319  0.750000  1
  Os  Os15  1  0.538936  0.616243  0.750000  1
