# generated using pymatgen
data_LaEu6Dy3Si8O3
_symmetry_space_group_name_H-M   'P 1'
_cell_length_a   10.69300900
_cell_length_b   10.69300887
_cell_length_c   4.54020700
_cell_angle_alpha   90.00000000
_cell_angle_beta   90.00000000
_cell_angle_gamma   120.00000349
_symmetry_Int_Tables_number   1
_chemical_formula_structural   LaEu6Dy3Si8O3
_chemical_formula_sum   'La1 Eu6 Dy3 Si8 O3'
_cell_volume   449.57911685
_cell_formula_units_Z   1
loop_
 _symmetry_equiv_pos_site_id
 _symmetry_equiv_pos_as_xyz
  1  'x, y, z'
loop_
 _atom_site_type_symbol
 _atom_site_label
 _atom_site_symmetry_multiplicity
 _atom_site_fract_x
 _atom_site_fract_y
 _atom_site_fract_z
 _atom_site_occupancy
  La  La0  1  0.000000  0.000000  0.000000  1
  Eu  Eu1  1  0.214305  0.785695  0.000000  1
  Eu  Eu2  1  0.571391  0.785695  0.000000  1
  Eu  Eu3  1  0.785695  0.571391  0.000000  1
  Eu  Eu4  1  0.214305  0.428609  0.000000  1
  Eu  Eu5  1  0.428609  0.214305  0.000000  1
  Eu  Eu6  1  0.785695  0.214305  0.000000  1
  Dy  Dy7  1  0.000000  0.500000  0.500000  1
  Dy  Dy8  1  0.500000  0.500000  0.500000  1
  Dy  Dy9  1  0.500000  0.000000  0.500000  1
  Si  Si10  1  0.000000  0.780622  0.500000  1
  Si  Si11  1  0.000000  0.219378  0.500000  1
  Si  Si12  1  0.219378  0.219378  0.500000  1
  Si  Si13  1  0.780622  0.000000  0.500000  1
  Si  Si14  1  0.333333  0.666667  0.500000  1
  Si  Si15  1  0.219378  0.000000  0.500000  1
  Si  Si16  1  0.666667  0.333333  0.500000  1
  Si  Si17  1  0.780622  0.780622  0.500000  1
  O  O18  1  0.000000  0.500000  0.000000  1
  O  O19  1  0.500000  0.500000  0.000000  1
  O  O20  1  0.500000  0.000000  0.000000  1
