# generated using pymatgen
data_TbThSc2(Ga3Ir)6
_symmetry_space_group_name_H-M   'P 1'
_cell_length_a   7.56538100
_cell_length_b   7.56929226
_cell_length_c   9.46504200
_cell_angle_alpha   90.00000000
_cell_angle_beta   90.00000000
_cell_angle_gamma   119.70581726
_symmetry_Int_Tables_number   1
_chemical_formula_structural   TbThSc2(Ga3Ir)6
_chemical_formula_sum   'Tb1 Th1 Sc2 Ga18 Ir6'
_cell_volume   470.78113556
_cell_formula_units_Z   1
loop_
 _symmetry_equiv_pos_site_id
 _symmetry_equiv_pos_as_xyz
  1  'x, y, z'
loop_
 _atom_site_type_symbol
 _atom_site_label
 _atom_site_symmetry_multiplicity
 _atom_site_fract_x
 _atom_site_fract_y
 _atom_site_fract_z
 _atom_site_occupancy
  Tb  Tb0  1  0.670465  0.997098  0.250000  1
  Th  Th1  1  0.996794  0.669241  0.250000  1
  Sc  Sc2  1  0.000742  0.330382  0.750000  1
  Sc  Sc3  1  0.328402  0.000518  0.750000  1
  Ga  Ga4  1  0.130642  0.133059  0.250000  1
  Ga  Ga5  1  0.878471  0.881268  0.750000  1
  Ga  Ga6  1  0.001356  0.329678  0.072878  1
  Ga  Ga7  1  0.004172  0.664829  0.907749  1
  Ga  Ga8  1  0.004172  0.664829  0.592251  1
  Ga  Ga9  1  0.340491  0.005655  0.427017  1
  Ga  Ga10  1  0.001356  0.329678  0.427122  1
  Ga  Ga11  1  0.665109  0.005318  0.587331  1
  Ga  Ga12  1  0.665109  0.005318  0.912669  1
  Ga  Ga13  1  0.340491  0.005655  0.072983  1
  Ga  Ga14  1  0.327410  0.327298  0.574553  1
  Ga  Ga15  1  0.662160  0.667016  0.443288  1
  Ga  Ga16  1  0.662160  0.667016  0.056712  1
  Ga  Ga17  1  0.327410  0.327298  0.925447  1
  Ga  Ga18  1  0.343076  0.546234  0.250000  1
  Ga  Ga19  1  0.657700  0.445587  0.750000  1
  Ga  Ga20  1  0.541638  0.335693  0.250000  1
  Ga  Ga21  1  0.446528  0.660609  0.750000  1
  Ir  Ir22  1  0.675036  0.332005  0.999803  1
  Ir  Ir23  1  0.326407  0.671404  0.999526  1
  Ir  Ir24  1  0.326407  0.671404  0.500474  1
  Ir  Ir25  1  0.675036  0.332005  0.500197  1
  Ir  Ir26  1  0.000630  0.996952  0.999886  1
  Ir  Ir27  1  0.000630  0.996952  0.500114  1
