# generated using pymatgen
data_Tm4MgIn(Ni7B2)2
_symmetry_space_group_name_H-M   'P 1'
_cell_length_a   4.96600900
_cell_length_b   4.96600929
_cell_length_c   14.19615700
_cell_angle_alpha   90.00000000
_cell_angle_beta   90.00000000
_cell_angle_gamma   120.00000470
_symmetry_Int_Tables_number   1
_chemical_formula_structural   Tm4MgIn(Ni7B2)2
_chemical_formula_sum   'Tm4 Mg1 In1 Ni14 B4'
_cell_volume   303.19109053
_cell_formula_units_Z   1
loop_
 _symmetry_equiv_pos_site_id
 _symmetry_equiv_pos_as_xyz
  1  'x, y, z'
loop_
 _atom_site_type_symbol
 _atom_site_label
 _atom_site_symmetry_multiplicity
 _atom_site_fract_x
 _atom_site_fract_y
 _atom_site_fract_z
 _atom_site_occupancy
  Tm  Tm0  1  0.666667  0.333333  0.468561  1
  Tm  Tm1  1  0.333333  0.666667  0.969737  1
  Tm  Tm2  1  0.333333  0.666667  0.746145  1
  Tm  Tm3  1  0.666667  0.333333  0.244731  1
  Mg  Mg4  1  0.666667  0.333333  0.033039  1
  In  In5  1  0.333333  0.666667  0.531985  1
  Ni  Ni6  1  0.000000  0.000000  0.001154  1
  Ni  Ni7  1  0.000000  0.000000  0.500482  1
  Ni  Ni8  1  0.165611  0.331221  0.146595  1
  Ni  Ni9  1  0.833936  0.667872  0.647507  1
  Ni  Ni10  1  0.668779  0.834389  0.146595  1
  Ni  Ni11  1  0.165611  0.834389  0.146595  1
  Ni  Ni12  1  0.833936  0.166064  0.647507  1
  Ni  Ni13  1  0.332128  0.166064  0.647507  1
  Ni  Ni14  1  0.833634  0.667267  0.853513  1
  Ni  Ni15  1  0.833634  0.166366  0.853513  1
  Ni  Ni16  1  0.332733  0.166366  0.853513  1
  Ni  Ni17  1  0.667139  0.833569  0.352330  1
  Ni  Ni18  1  0.166431  0.833569  0.352330  1
  Ni  Ni19  1  0.166431  0.332861  0.352330  1
  B  B20  1  0.333333  0.666667  0.249376  1
  B  B21  1  0.666667  0.333333  0.750692  1
  B  B22  1  0.000000  0.000000  0.251956  1
  B  B23  1  0.000000  0.000000  0.752306  1
