# generated using pymatgen
data_Ho2Mn3Re14C3
_symmetry_space_group_name_H-M   'P 1'
_cell_length_a   6.93961494
_cell_length_b   6.93961593
_cell_length_c   6.93961543
_cell_angle_alpha   82.32474149
_cell_angle_beta   82.32473378
_cell_angle_gamma   82.32474202
_symmetry_Int_Tables_number   1
_chemical_formula_structural   Ho2Mn3Re14C3
_chemical_formula_sum   'Ho2 Mn3 Re14 C3'
_cell_volume   325.95214999
_cell_formula_units_Z   1
loop_
 _symmetry_equiv_pos_site_id
 _symmetry_equiv_pos_as_xyz
  1  'x, y, z'
loop_
 _atom_site_type_symbol
 _atom_site_label
 _atom_site_symmetry_multiplicity
 _atom_site_fract_x
 _atom_site_fract_y
 _atom_site_fract_z
 _atom_site_occupancy
  Ho  Ho0  1  0.648411  0.648411  0.648411  1
  Ho  Ho1  1  0.351589  0.351589  0.351589  1
  Mn  Mn2  1  0.000000  0.000000  0.500000  1
  Mn  Mn3  1  0.500000  0.000000  0.000000  1
  Mn  Mn4  1  0.000000  0.500000  0.000000  1
  Re  Re5  1  0.721638  0.278362  0.000000  1
  Re  Re6  1  0.000000  0.721638  0.278362  1
  Re  Re7  1  0.278362  0.000000  0.721638  1
  Re  Re8  1  0.000000  0.278362  0.721638  1
  Re  Re9  1  0.721638  0.000000  0.278362  1
  Re  Re10  1  0.278362  0.721638  0.000000  1
  Re  Re11  1  0.346637  0.859825  0.346637  1
  Re  Re12  1  0.346637  0.346637  0.859825  1
  Re  Re13  1  0.859825  0.346637  0.346637  1
  Re  Re14  1  0.653363  0.140175  0.653363  1
  Re  Re15  1  0.653363  0.653363  0.140175  1
  Re  Re16  1  0.140175  0.653363  0.653363  1
  Re  Re17  1  0.898817  0.898817  0.898817  1
  Re  Re18  1  0.101183  0.101183  0.101183  1
  C  C19  1  0.500000  0.500000  0.000000  1
  C  C20  1  0.000000  0.500000  0.500000  1
  C  C21  1  0.500000  0.000000  0.500000  1
