# generated using pymatgen
data_CaNd9Si5Ge
_symmetry_space_group_name_H-M   'P 1'
_cell_length_a   8.94098852
_cell_length_b   8.94098715
_cell_length_c   8.94097742
_cell_angle_alpha   128.47369380
_cell_angle_beta   128.47355925
_cell_angle_gamma   75.85907053
_symmetry_Int_Tables_number   1
_chemical_formula_structural   CaNd9Si5Ge
_chemical_formula_sum   'Ca1 Nd9 Si5 Ge1'
_cell_volume   426.03900169
_cell_formula_units_Z   1
loop_
 _symmetry_equiv_pos_site_id
 _symmetry_equiv_pos_as_xyz
  1  'x, y, z'
loop_
 _atom_site_type_symbol
 _atom_site_label
 _atom_site_symmetry_multiplicity
 _atom_site_fract_x
 _atom_site_fract_y
 _atom_site_fract_z
 _atom_site_occupancy
  Ca  Ca0  1  0.499543  0.499543  0.999998  1
  Nd  Nd1  1  0.533615  0.031574  0.855317  1
  Nd  Nd2  1  0.176253  0.678298  0.144680  1
  Nd  Nd3  1  0.031573  0.176253  0.497955  1
  Nd  Nd4  1  0.678297  0.533619  0.502047  1
  Nd  Nd5  1  0.468204  0.966665  0.144747  1
  Nd  Nd6  1  0.821924  0.323457  0.855257  1
  Nd  Nd7  1  0.966663  0.821918  0.498460  1
  Nd  Nd8  1  0.323451  0.468201  0.501538  1
  Nd  Nd9  1  0.999324  0.999319  0.000002  1
  Si  Si10  1  0.753676  0.753679  0.000000  1
  Si  Si11  1  0.887335  0.384753  0.271873  1
  Si  Si12  1  0.112882  0.615464  0.728127  1
  Si  Si13  1  0.384755  0.112880  0.497417  1
  Si  Si14  1  0.615465  0.887337  0.502583  1
  Ge  Ge15  1  0.247039  0.247038  0.999998  1
