# generated using pymatgen
data_Cs4K8Bi3SbSe12
_symmetry_space_group_name_H-M   'P 1'
_cell_length_a   10.25780431
_cell_length_b   10.25780431
_cell_length_c   10.25780431
_cell_angle_alpha   89.69116116
_cell_angle_beta   89.69116116
_cell_angle_gamma   89.69116116
_symmetry_Int_Tables_number   1
_chemical_formula_structural   Cs4K8Bi3SbSe12
_chemical_formula_sum   'Cs4 K8 Bi3 Sb1 Se12'
_cell_volume   1079.30544725
_cell_formula_units_Z   1
loop_
 _symmetry_equiv_pos_site_id
 _symmetry_equiv_pos_as_xyz
  1  'x, y, z'
loop_
 _atom_site_type_symbol
 _atom_site_label
 _atom_site_symmetry_multiplicity
 _atom_site_fract_x
 _atom_site_fract_y
 _atom_site_fract_z
 _atom_site_occupancy
  Cs  Cs0  1  0.930972  0.424332  0.071659  1
  Cs  Cs1  1  0.424332  0.071659  0.930972  1
  Cs  Cs2  1  0.071659  0.930972  0.424332  1
  Cs  Cs3  1  0.571177  0.571177  0.571177  1
  K  K4  1  0.184149  0.683587  0.816061  1
  K  K5  1  0.683587  0.816061  0.184149  1
  K  K6  1  0.816061  0.184149  0.683587  1
  K  K7  1  0.315488  0.315488  0.315488  1
  K  K8  1  0.689895  0.188254  0.311562  1
  K  K9  1  0.188254  0.311562  0.689895  1
  K  K10  1  0.311562  0.689895  0.188254  1
  K  K11  1  0.810808  0.810808  0.810808  1
  Bi  Bi12  1  0.474543  0.972586  0.528107  1
  Bi  Bi13  1  0.972586  0.528107  0.474543  1
  Bi  Bi14  1  0.528107  0.474543  0.972586  1
  Sb  Sb15  1  0.022752  0.022752  0.022752  1
  Se  Se16  1  0.003026  0.779779  0.091918  1
  Se  Se17  1  0.902853  0.502968  0.726146  1
  Se  Se18  1  0.276890  0.406320  0.996680  1
  Se  Se19  1  0.502968  0.726146  0.902853  1
  Se  Se20  1  0.406320  0.996680  0.276890  1
  Se  Se21  1  0.779779  0.091918  0.003026  1
  Se  Se22  1  0.996680  0.276890  0.406320  1
  Se  Se23  1  0.091918  0.003026  0.779779  1
  Se  Se24  1  0.726146  0.902853  0.502968  1
  Se  Se25  1  0.496542  0.224221  0.596726  1
  Se  Se26  1  0.596726  0.496542  0.224221  1
  Se  Se27  1  0.224221  0.596726  0.496542  1
