# generated using pymatgen
data_YbZn(Se2O7)2
_symmetry_space_group_name_H-M   'P 1'
_cell_length_a   5.31294548
_cell_length_b   7.82410890
_cell_length_c   8.91704572
_cell_angle_alpha   92.22425474
_cell_angle_beta   93.11883470
_cell_angle_gamma   105.19916792
_symmetry_Int_Tables_number   1
_chemical_formula_structural   YbZn(Se2O7)2
_chemical_formula_sum   'Yb1 Zn1 Se4 O14'
_cell_volume   356.63516118
_cell_formula_units_Z   1
loop_
 _symmetry_equiv_pos_site_id
 _symmetry_equiv_pos_as_xyz
  1  'x, y, z'
loop_
 _atom_site_type_symbol
 _atom_site_label
 _atom_site_symmetry_multiplicity
 _atom_site_fract_x
 _atom_site_fract_y
 _atom_site_fract_z
 _atom_site_occupancy
  Yb  Yb0  1  0.500000  0.000000  0.500000  1
  Zn  Zn1  1  0.000000  0.500000  0.000000  1
  Se  Se2  1  0.509842  0.642152  0.777087  1
  Se  Se3  1  0.490158  0.357848  0.222913  1
  Se  Se4  1  0.129532  0.259014  0.698540  1
  Se  Se5  1  0.870468  0.740986  0.301460  1
  O  O6  1  0.749874  0.552255  0.820605  1
  O  O7  1  0.250126  0.447745  0.179395  1
  O  O8  1  0.329697  0.676243  0.914869  1
  O  O9  1  0.670303  0.323757  0.085131  1
  O  O10  1  0.598528  0.812090  0.672124  1
  O  O11  1  0.401472  0.187910  0.327876  1
  O  O12  1  0.289987  0.481396  0.641083  1
  O  O13  1  0.710013  0.518604  0.358917  1
  O  O14  1  0.893421  0.200731  0.565408  1
  O  O15  1  0.106579  0.799269  0.434592  1
  O  O16  1  0.342776  0.141526  0.691727  1
  O  O17  1  0.657224  0.858474  0.308273  1
  O  O18  1  0.042835  0.281995  0.872060  1
  O  O19  1  0.957165  0.718005  0.127940  1
