# generated using pymatgen
data_La3Th(Ni12P5)2
_symmetry_space_group_name_H-M   'P 1'
_cell_length_a   3.69024600
_cell_length_b   10.83345134
_cell_length_c   13.14414200
_cell_angle_alpha   71.86039558
_cell_angle_beta   90.00000000
_cell_angle_gamma   90.00000000
_symmetry_Int_Tables_number   1
_chemical_formula_structural   La3Th(Ni12P5)2
_chemical_formula_sum   'La3 Th1 Ni24 P10'
_cell_volume   499.36197872
_cell_formula_units_Z   1
loop_
 _symmetry_equiv_pos_site_id
 _symmetry_equiv_pos_as_xyz
  1  'x, y, z'
loop_
 _atom_site_type_symbol
 _atom_site_label
 _atom_site_symmetry_multiplicity
 _atom_site_fract_x
 _atom_site_fract_y
 _atom_site_fract_z
 _atom_site_occupancy
  La  La0  1  0.750000  0.719759  0.316886  1
  La  La1  1  0.250000  0.247908  0.187060  1
  La  La2  1  0.750000  0.751793  0.812667  1
  Th  Th3  1  0.250000  0.279476  0.682781  1
  Ni  Ni4  1  0.250000  0.842876  0.135620  1
  Ni  Ni5  1  0.750000  0.162287  0.860342  1
  Ni  Ni6  1  0.250000  0.285808  0.439927  1
  Ni  Ni7  1  0.750000  0.713927  0.561588  1
  Ni  Ni8  1  0.250000  0.071362  0.015209  1
  Ni  Ni9  1  0.750000  0.929982  0.984557  1
  Ni  Ni10  1  0.250000  0.064850  0.446810  1
  Ni  Ni11  1  0.750000  0.936269  0.552548  1
  Ni  Ni12  1  0.250000  0.595987  0.695878  1
  Ni  Ni13  1  0.750000  0.403681  0.305241  1
  Ni  Ni14  1  0.250000  0.581765  0.009307  1
  Ni  Ni15  1  0.750000  0.418493  0.990541  1
  Ni  Ni16  1  0.250000  0.577481  0.510458  1
  Ni  Ni17  1  0.750000  0.418393  0.492564  1
  Ni  Ni18  1  0.250000  0.298100  0.916855  1
  Ni  Ni19  1  0.750000  0.702184  0.081623  1
  Ni  Ni20  1  0.250000  0.994063  0.659409  1
  Ni  Ni21  1  0.750000  0.006671  0.340513  1
  Ni  Ni22  1  0.250000  0.842093  0.437629  1
  Ni  Ni23  1  0.750000  0.160545  0.563884  1
  Ni  Ni24  1  0.250000  0.988918  0.849239  1
  Ni  Ni25  1  0.750000  0.010450  0.150333  1
  Ni  Ni26  1  0.250000  0.560790  0.203458  1
  Ni  Ni27  1  0.750000  0.434523  0.795906  1
  P  P28  1  0.250000  0.507873  0.871700  1
  P  P29  1  0.750000  0.491906  0.128808  1
  P  P30  1  0.250000  0.799715  0.984597  1
  P  P31  1  0.750000  0.200163  0.014586  1
  P  P32  1  0.250000  0.492852  0.378375  1
  P  P33  1  0.750000  0.506872  0.621673  1
  P  P34  1  0.250000  0.812583  0.610147  1
  P  P35  1  0.750000  0.187444  0.390690  1
  P  P36  1  0.250000  0.951867  0.258971  1
  P  P37  1  0.750000  0.048294  0.741621  1
