# generated using pymatgen
data_Ca9YbIr3Pd
_symmetry_space_group_name_H-M   'P 1'
_cell_length_a   8.62485586
_cell_length_b   8.59906311
_cell_length_c   7.67597025
_cell_angle_alpha   82.66463964
_cell_angle_beta   82.86507361
_cell_angle_gamma   44.11805653
_symmetry_Int_Tables_number   1
_chemical_formula_structural   Ca9YbIr3Pd
_chemical_formula_sum   'Ca9 Yb1 Ir3 Pd1'
_cell_volume   392.62709867
_cell_formula_units_Z   1
loop_
 _symmetry_equiv_pos_site_id
 _symmetry_equiv_pos_as_xyz
  1  'x, y, z'
loop_
 _atom_site_type_symbol
 _atom_site_label
 _atom_site_symmetry_multiplicity
 _atom_site_fract_x
 _atom_site_fract_y
 _atom_site_fract_z
 _atom_site_occupancy
  Ca  Ca0  1  0.041407  0.787877  0.916544  1
  Ca  Ca1  1  0.205585  0.969811  0.580825  1
  Ca  Ca2  1  0.974274  0.207674  0.080776  1
  Ca  Ca3  1  0.798685  0.031050  0.425259  1
  Ca  Ca4  1  0.361187  0.198285  0.815415  1
  Ca  Ca5  1  0.798665  0.636796  0.677784  1
  Ca  Ca6  1  0.634359  0.794327  0.179057  1
  Ca  Ca7  1  0.190898  0.369024  0.328157  1
  Ca  Ca8  1  0.577008  0.427436  0.742566  1
  Yb  Yb9  1  0.423238  0.579190  0.254619  1
  Ir  Ir10  1  0.179485  0.600318  0.580548  1
  Ir  Ir11  1  0.396873  0.819841  0.921729  1
  Ir  Ir12  1  0.820238  0.397097  0.416214  1
  Pd  Pd13  1  0.598100  0.181277  0.080505  1
