# generated using pymatgen
data_Ta4Be4MoRu
_symmetry_space_group_name_H-M   'P 1'
_cell_length_a   6.35126100
_cell_length_b   6.35126100
_cell_length_c   3.30567000
_cell_angle_alpha   90.00000000
_cell_angle_beta   90.00000000
_cell_angle_gamma   90.00000000
_symmetry_Int_Tables_number   1
_chemical_formula_structural   Ta4Be4MoRu
_chemical_formula_sum   'Ta4 Be4 Mo1 Ru1'
_cell_volume   133.34582314
_cell_formula_units_Z   1
loop_
 _symmetry_equiv_pos_site_id
 _symmetry_equiv_pos_as_xyz
  1  'x, y, z'
loop_
 _atom_site_type_symbol
 _atom_site_label
 _atom_site_symmetry_multiplicity
 _atom_site_fract_x
 _atom_site_fract_y
 _atom_site_fract_z
 _atom_site_occupancy
  Ta  Ta0  1  0.676072  0.178615  0.500000  1
  Ta  Ta1  1  0.323928  0.821385  0.500000  1
  Ta  Ta2  1  0.178615  0.323928  0.500000  1
  Ta  Ta3  1  0.821385  0.676072  0.500000  1
  Be  Be4  1  0.115418  0.620276  0.000000  1
  Be  Be5  1  0.884582  0.379724  0.000000  1
  Be  Be6  1  0.620276  0.884582  0.000000  1
  Be  Be7  1  0.379724  0.115418  0.000000  1
  Mo  Mo8  1  0.500000  0.500000  0.000000  1
  Ru  Ru9  1  0.000000  0.000000  0.000000  1
