# generated using pymatgen
data_Tb16Er3TmPb16
_symmetry_space_group_name_H-M   'P 1'
_cell_length_a   8.21562000
_cell_length_b   8.30491247
_cell_length_c   15.69806700
_cell_angle_alpha   90.00000000
_cell_angle_beta   90.00000000
_cell_angle_gamma   90.01922068
_symmetry_Int_Tables_number   1
_chemical_formula_structural   Tb16Er3TmPb16
_chemical_formula_sum   'Tb16 Er3 Tm1 Pb16'
_cell_volume   1071.07912908
_cell_formula_units_Z   1
loop_
 _symmetry_equiv_pos_site_id
 _symmetry_equiv_pos_as_xyz
  1  'x, y, z'
loop_
 _atom_site_type_symbol
 _atom_site_label
 _atom_site_symmetry_multiplicity
 _atom_site_fract_x
 _atom_site_fract_y
 _atom_site_fract_z
 _atom_site_occupancy
  Tb  Tb0  1  0.377259  0.841078  0.879427  1
  Tb  Tb1  1  0.877416  0.658899  0.620638  1
  Tb  Tb2  1  0.622766  0.158898  0.379521  1
  Tb  Tb3  1  0.122717  0.341073  0.120563  1
  Tb  Tb4  1  0.622766  0.158898  0.120479  1
  Tb  Tb5  1  0.122717  0.341073  0.379437  1
  Tb  Tb6  1  0.377259  0.841078  0.620573  1
  Tb  Tb7  1  0.877416  0.658899  0.879362  1
  Tb  Tb8  1  0.534506  0.323563  0.899951  1
  Tb  Tb9  1  0.034568  0.176436  0.600053  1
  Tb  Tb10  1  0.465508  0.676451  0.400030  1
  Tb  Tb11  1  0.965437  0.823581  0.099959  1
  Tb  Tb12  1  0.465508  0.676451  0.099970  1
  Tb  Tb13  1  0.965437  0.823581  0.400041  1
  Tb  Tb14  1  0.534506  0.323563  0.600049  1
  Tb  Tb15  1  0.034568  0.176436  0.899947  1
  Er  Er16  1  0.709117  0.995976  0.750000  1
  Er  Er17  1  0.790766  0.496088  0.250000  1
  Er  Er18  1  0.290754  0.003924  0.250000  1
  Tm  Tm19  1  0.209367  0.503957  0.750000  1
  Pb  Pb20  1  0.281145  0.033035  0.043281  1
  Pb  Pb21  1  0.781149  0.467060  0.456711  1
  Pb  Pb22  1  0.718871  0.966953  0.543527  1
  Pb  Pb23  1  0.218819  0.532942  0.956422  1
  Pb  Pb24  1  0.718871  0.966953  0.956473  1
  Pb  Pb25  1  0.218819  0.532942  0.543578  1
  Pb  Pb26  1  0.281145  0.033035  0.456719  1
  Pb  Pb27  1  0.781149  0.467060  0.043289  1
  Pb  Pb28  1  0.572373  0.625480  0.750000  1
  Pb  Pb29  1  0.072773  0.874401  0.750000  1
  Pb  Pb30  1  0.427353  0.374443  0.250000  1
  Pb  Pb31  1  0.927242  0.125534  0.250000  1
  Pb  Pb32  1  0.346609  0.153824  0.750000  1
  Pb  Pb33  1  0.846853  0.346432  0.750000  1
  Pb  Pb34  1  0.653244  0.846435  0.250000  1
  Pb  Pb35  1  0.153230  0.653566  0.250000  1
