# generated using pymatgen
data_Dy7Ho3(InSb2)2
_symmetry_space_group_name_H-M   'P 1'
_cell_length_a   8.96886501
_cell_length_b   8.96855287
_cell_length_c   6.44671802
_cell_angle_alpha   90.00948273
_cell_angle_beta   89.99525687
_cell_angle_gamma   119.99884482
_symmetry_Int_Tables_number   1
_chemical_formula_structural   Dy7Ho3(InSb2)2
_chemical_formula_sum   'Dy7 Ho3 In2 Sb4'
_cell_volume   449.09085944
_cell_formula_units_Z   1
loop_
 _symmetry_equiv_pos_site_id
 _symmetry_equiv_pos_as_xyz
  1  'x, y, z'
loop_
 _atom_site_type_symbol
 _atom_site_label
 _atom_site_symmetry_multiplicity
 _atom_site_fract_x
 _atom_site_fract_y
 _atom_site_fract_z
 _atom_site_occupancy
  Dy  Dy0  1  0.334899  0.667450  0.000000  1
  Dy  Dy1  1  0.758587  0.998683  0.749988  1
  Dy  Dy2  1  0.758587  0.759903  0.250012  1
  Dy  Dy3  1  0.001906  0.241875  0.250038  1
  Dy  Dy4  1  0.001906  0.760030  0.749962  1
  Dy  Dy5  1  0.240425  0.237093  0.749953  1
  Dy  Dy6  1  0.240425  0.003332  0.250047  1
  Ho  Ho7  1  0.663454  0.331726  0.500000  1
  Ho  Ho8  1  0.663393  0.331696  0.000000  1
  Ho  Ho9  1  0.334798  0.667399  0.500000  1
  In  In10  1  0.395161  0.998515  0.749825  1
  In  In11  1  0.395161  0.396646  0.250175  1
  Sb  Sb12  1  0.999183  0.607135  0.250156  1
  Sb  Sb13  1  0.999183  0.392048  0.749844  1
  Sb  Sb14  1  0.606467  0.605959  0.749841  1
  Sb  Sb15  1  0.606467  0.000507  0.250159  1
