# generated using pymatgen
data_PrCuPdPt3
_symmetry_space_group_name_H-M   'P 1'
_cell_length_a   5.46963100
_cell_length_b   5.25452618
_cell_length_c   4.45002700
_cell_angle_alpha   90.00000000
_cell_angle_beta   90.00000000
_cell_angle_gamma   121.36369096
_symmetry_Int_Tables_number   1
_chemical_formula_structural   PrCuPdPt3
_chemical_formula_sum   'Pr1 Cu1 Pd1 Pt3'
_cell_volume   109.20725252
_cell_formula_units_Z   1
loop_
 _symmetry_equiv_pos_site_id
 _symmetry_equiv_pos_as_xyz
  1  'x, y, z'
loop_
 _atom_site_type_symbol
 _atom_site_label
 _atom_site_symmetry_multiplicity
 _atom_site_fract_x
 _atom_site_fract_y
 _atom_site_fract_z
 _atom_site_occupancy
  Pr  Pr0  1  0.668842  0.337682  0.000000  1
  Cu  Cu1  1  0.165398  0.330794  0.500000  1
  Pd  Pd2  1  0.005017  0.010034  0.000000  1
  Pt  Pt3  1  0.331817  0.663635  0.000000  1
  Pt  Pt4  1  0.665939  0.828927  0.500000  1
  Pt  Pt5  1  0.162989  0.828927  0.500000  1
