# generated using pymatgen
data_Pr6BSCl6
_symmetry_space_group_name_H-M   'P 1'
_cell_length_a   10.08224665
_cell_length_b   10.08224541
_cell_length_c   9.88792077
_cell_angle_alpha   109.46309163
_cell_angle_beta   109.46309129
_cell_angle_gamma   110.27003409
_symmetry_Int_Tables_number   1
_chemical_formula_structural   Pr6BSCl6
_chemical_formula_sum   'Pr12 B2 S2 Cl12'
_cell_volume   766.14298008
_cell_formula_units_Z   2
loop_
 _symmetry_equiv_pos_site_id
 _symmetry_equiv_pos_as_xyz
  1  'x, y, z'
loop_
 _atom_site_type_symbol
 _atom_site_label
 _atom_site_symmetry_multiplicity
 _atom_site_fract_x
 _atom_site_fract_y
 _atom_site_fract_z
 _atom_site_occupancy
  Pr  Pr0  1  0.474344  0.492051  0.231381  1
  Pr  Pr1  1  0.760671  0.242962  0.268619  1
  Pr  Pr2  1  0.761587  0.016379  0.492869  1
  Pr  Pr3  1  0.231282  0.476492  0.492869  1
  Pr  Pr4  1  0.257038  0.739329  0.231381  1
  Pr  Pr5  1  0.023508  0.268718  0.007131  1
  Pr  Pr6  1  0.007949  0.025656  0.268619  1
  Pr  Pr7  1  0.483621  0.738413  0.007131  1
  Pr  Pr8  1  0.488854  0.238854  0.477709  1
  Pr  Pr9  1  0.014391  0.485609  0.750000  1
  Pr  Pr10  1  0.261146  0.011146  0.022291  1
  Pr  Pr11  1  0.235609  0.264391  0.750000  1
  B  B12  1  0.998492  0.248492  0.496984  1
  B  B13  1  0.251508  0.501508  0.003016  1
  S  S14  1  0.248367  0.251633  0.250000  1
  S  S15  1  0.501633  0.998367  0.250000  1
  Cl  Cl16  1  0.249351  0.754311  0.746031  1
  Cl  Cl17  1  0.508279  0.503320  0.753969  1
  Cl  Cl18  1  0.993284  0.745774  0.996479  1
  Cl  Cl19  1  0.745689  0.250649  0.753969  1
  Cl  Cl20  1  0.996680  0.991721  0.746031  1
  Cl  Cl21  1  0.249295  0.996803  0.503521  1
  Cl  Cl22  1  0.754226  0.506716  0.503521  1
  Cl  Cl23  1  0.503197  0.250705  0.996479  1
  Cl  Cl24  1  0.754361  0.745639  0.250000  1
  Cl  Cl25  1  0.747263  0.997263  0.994527  1
  Cl  Cl26  1  0.995639  0.504361  0.250000  1
  Cl  Cl27  1  0.502737  0.752737  0.505473  1
