# generated using pymatgen
data_Ta12Ga3Au5N4
_symmetry_space_group_name_H-M   'P 1'
_cell_length_a   7.10238278
_cell_length_b   7.10238267
_cell_length_c   7.10238289
_cell_angle_alpha   89.98074682
_cell_angle_beta   90.01925541
_cell_angle_gamma   90.01925348
_symmetry_Int_Tables_number   1
_chemical_formula_structural   Ta12Ga3Au5N4
_chemical_formula_sum   'Ta12 Ga3 Au5 N4'
_cell_volume   358.27140785
_cell_formula_units_Z   1
loop_
 _symmetry_equiv_pos_site_id
 _symmetry_equiv_pos_as_xyz
  1  'x, y, z'
loop_
 _atom_site_type_symbol
 _atom_site_label
 _atom_site_symmetry_multiplicity
 _atom_site_fract_x
 _atom_site_fract_y
 _atom_site_fract_z
 _atom_site_occupancy
  Ta  Ta0  1  0.786405  0.955903  0.376571  1
  Ta  Ta1  1  0.713207  0.044995  0.879083  1
  Ta  Ta2  1  0.212344  0.456609  0.125746  1
  Ta  Ta3  1  0.291401  0.542610  0.625635  1
  Ta  Ta4  1  0.955005  0.379083  0.786793  1
  Ta  Ta5  1  0.044097  0.876571  0.713595  1
  Ta  Ta6  1  0.457390  0.125635  0.208599  1
  Ta  Ta7  1  0.543391  0.625746  0.287656  1
  Ta  Ta8  1  0.374254  0.787656  0.956609  1
  Ta  Ta9  1  0.874365  0.708599  0.042610  1
  Ta  Ta10  1  0.123429  0.213595  0.455903  1
  Ta  Ta11  1  0.620917  0.286793  0.544995  1
  Ga  Ga12  1  0.428856  0.930098  0.567175  1
  Ga  Ga13  1  0.932825  0.571144  0.430098  1
  Ga  Ga14  1  0.069902  0.067175  0.071144  1
  Au  Au15  1  0.179901  0.820099  0.320099  1
  Au  Au16  1  0.310834  0.172155  0.816084  1
  Au  Au17  1  0.827845  0.316084  0.189166  1
  Au  Au18  1  0.683916  0.689166  0.672155  1
  Au  Au19  1  0.568004  0.431996  0.931996  1
  N  N20  1  0.874307  0.125693  0.625693  1
  N  N21  1  0.623629  0.874234  0.121991  1
  N  N22  1  0.125766  0.621991  0.876371  1
  N  N23  1  0.378009  0.376371  0.374234  1
