# generated using pymatgen
data_Pr4TlInCuRh3
_symmetry_space_group_name_H-M   'P 1'
_cell_length_a   7.73534615
_cell_length_b   7.74839520
_cell_length_c   3.92759500
_cell_angle_alpha   90.00000000
_cell_angle_beta   90.00000000
_cell_angle_gamma   89.91501548
_symmetry_Int_Tables_number   1
_chemical_formula_structural   Pr4TlInCuRh3
_chemical_formula_sum   'Pr4 Tl1 In1 Cu1 Rh3'
_cell_volume   235.40611321
_cell_formula_units_Z   1
loop_
 _symmetry_equiv_pos_site_id
 _symmetry_equiv_pos_as_xyz
  1  'x, y, z'
loop_
 _atom_site_type_symbol
 _atom_site_label
 _atom_site_symmetry_multiplicity
 _atom_site_fract_x
 _atom_site_fract_y
 _atom_site_fract_z
 _atom_site_occupancy
  Pr  Pr0  1  0.682106  0.170651  0.500000  1
  Pr  Pr1  1  0.330187  0.816266  0.500000  1
  Pr  Pr2  1  0.163714  0.337186  0.500000  1
  Pr  Pr3  1  0.823888  0.675152  0.500000  1
  Tl  Tl4  1  0.498920  0.496023  0.000000  1
  In  In5  1  0.002587  0.001441  0.000000  1
  Cu  Cu6  1  0.373424  0.118969  0.000000  1
  Rh  Rh7  1  0.122841  0.639137  0.000000  1
  Rh  Rh8  1  0.876705  0.362917  0.000000  1
  Rh  Rh9  1  0.625629  0.882258  0.000000  1
