# generated using pymatgen
data_Ce8HfSi6Mo
_symmetry_space_group_name_H-M   'P 1'
_cell_length_a   5.53517827
_cell_length_b   8.42053243
_cell_length_c   8.42053300
_cell_angle_alpha   83.81832932
_cell_angle_beta   70.84075320
_cell_angle_gamma   70.84076294
_symmetry_Int_Tables_number   1
_chemical_formula_structural   Ce8HfSi6Mo
_chemical_formula_sum   'Ce8 Hf1 Si6 Mo1'
_cell_volume   350.19979985
_cell_formula_units_Z   1
loop_
 _symmetry_equiv_pos_site_id
 _symmetry_equiv_pos_as_xyz
  1  'x, y, z'
loop_
 _atom_site_type_symbol
 _atom_site_label
 _atom_site_symmetry_multiplicity
 _atom_site_fract_x
 _atom_site_fract_y
 _atom_site_fract_z
 _atom_site_occupancy
  Ce  Ce0  1  0.093268  0.133861  0.677821  1
  Ce  Ce1  1  0.905075  0.866256  0.322344  1
  Ce  Ce2  1  0.772803  0.322552  0.133595  1
  Ce  Ce3  1  0.406732  0.322179  0.866139  1
  Ce  Ce4  1  0.228746  0.677407  0.866355  1
  Ce  Ce5  1  0.594925  0.677656  0.133744  1
  Ce  Ce6  1  0.727197  0.866405  0.677448  1
  Ce  Ce7  1  0.271254  0.133645  0.322593  1
  Hf  Hf8  1  0.250000  0.499983  0.500017  1
  Si  Si9  1  0.134805  0.499981  0.210065  1
  Si  Si10  1  0.844734  0.499819  0.790031  1
  Si  Si11  1  0.365195  0.789935  0.500019  1
  Si  Si12  1  0.655266  0.209969  0.500181  1
  Si  Si13  1  0.250000  0.000157  0.999843  1
  Si  Si14  1  0.750000  0.000133  0.999867  1
  Mo  Mo15  1  0.750000  0.500062  0.499938  1
