# generated using pymatgen
data_Dy7Er9Cd4Ru3Pt
_symmetry_space_group_name_H-M   'P 1'
_cell_length_a   9.56958903
_cell_length_b   9.60830306
_cell_length_c   9.63475900
_cell_angle_alpha   59.90843061
_cell_angle_beta   59.77408482
_cell_angle_gamma   59.72833730
_symmetry_Int_Tables_number   1
_chemical_formula_structural   Dy7Er9Cd4Ru3Pt
_chemical_formula_sum   'Dy7 Er9 Cd4 Ru3 Pt1'
_cell_volume   623.62442004
_cell_formula_units_Z   1
loop_
 _symmetry_equiv_pos_site_id
 _symmetry_equiv_pos_as_xyz
  1  'x, y, z'
loop_
 _atom_site_type_symbol
 _atom_site_label
 _atom_site_symmetry_multiplicity
 _atom_site_fract_x
 _atom_site_fract_y
 _atom_site_fract_z
 _atom_site_occupancy
  Dy  Dy0  1  0.814933  0.805619  0.189728  1
  Dy  Dy1  1  0.937497  0.561007  0.562049  1
  Dy  Dy2  1  0.556921  0.939057  0.938470  1
  Dy  Dy3  1  0.556912  0.939072  0.565552  1
  Dy  Dy4  1  0.937488  0.560997  0.939451  1
  Dy  Dy5  1  0.557050  0.565085  0.938930  1
  Dy  Dy6  1  0.937476  0.939443  0.561535  1
  Er  Er7  1  0.345658  0.350558  0.349603  1
  Er  Er8  1  0.345651  0.350553  0.954195  1
  Er  Er9  1  0.345781  0.955475  0.349372  1
  Er  Er10  1  0.964603  0.344811  0.345290  1
  Er  Er11  1  0.814856  0.189268  0.189643  1
  Er  Er12  1  0.186993  0.811554  0.811900  1
  Er  Er13  1  0.186981  0.811566  0.189565  1
  Er  Er14  1  0.814851  0.189250  0.806225  1
  Er  Er15  1  0.187225  0.188270  0.812253  1
  Cd  Cd16  1  0.580379  0.579932  0.580569  1
  Cd  Cd17  1  0.580374  0.579935  0.259117  1
  Cd  Cd18  1  0.580603  0.258650  0.580373  1
  Cd  Cd19  1  0.256198  0.581067  0.581370  1
  Ru  Ru20  1  0.145318  0.138914  0.137773  1
  Ru  Ru21  1  0.145333  0.138913  0.577975  1
  Ru  Ru22  1  0.146112  0.577358  0.138280  1
  Pt  Pt23  1  0.574811  0.143642  0.140777  1
