# generated using pymatgen
data_Li4Tb6PdPt12
_symmetry_space_group_name_H-M   'P 1'
_cell_length_a   8.28599587
_cell_length_b   8.28115587
_cell_length_c   8.28115500
_cell_angle_alpha   109.43161007
_cell_angle_beta   109.47918123
_cell_angle_gamma   109.47918934
_symmetry_Int_Tables_number   1
_chemical_formula_structural   Li4Tb6PdPt12
_chemical_formula_sum   'Li4 Tb6 Pd1 Pt12'
_cell_volume   437.55382089
_cell_formula_units_Z   1
loop_
 _symmetry_equiv_pos_site_id
 _symmetry_equiv_pos_as_xyz
  1  'x, y, z'
loop_
 _atom_site_type_symbol
 _atom_site_label
 _atom_site_symmetry_multiplicity
 _atom_site_fract_x
 _atom_site_fract_y
 _atom_site_fract_z
 _atom_site_occupancy
  Li  Li0  1  0.000009  0.000004  0.500004  1
  Li  Li1  1  0.000009  0.500004  0.000004  1
  Li  Li2  1  0.499784  0.999973  0.999973  1
  Li  Li3  1  0.499784  0.499810  0.499810  1
  Tb  Tb4  1  0.696643  0.695032  0.001612  1
  Tb  Tb5  1  0.304747  0.000155  0.304592  1
  Tb  Tb6  1  0.998984  0.303343  0.303343  1
  Tb  Tb7  1  0.304747  0.304592  0.000155  1
  Tb  Tb8  1  0.696643  0.001612  0.695032  1
  Tb  Tb9  1  0.998984  0.695641  0.695641  1
  Pd  Pd10  1  0.331914  0.665957  0.665957  1
  Pt  Pt11  1  0.333222  0.333830  0.666916  1
  Pt  Pt12  1  0.666824  0.000060  0.332815  1
  Pt  Pt13  1  0.000755  0.666576  0.334179  1
  Pt  Pt14  1  0.666824  0.332815  0.000060  1
  Pt  Pt15  1  0.333222  0.666916  0.333830  1
  Pt  Pt16  1  0.000755  0.334179  0.666576  1
  Pt  Pt17  1  0.333222  0.666307  0.999391  1
  Pt  Pt18  1  0.333222  0.999391  0.666307  1
  Pt  Pt19  1  0.666822  0.333410  0.333410  1
  Pt  Pt20  1  0.666824  0.666764  0.334006  1
  Pt  Pt21  1  0.666824  0.334006  0.666764  1
  Pt  Pt22  1  0.999241  0.999621  0.999621  1
