# generated using pymatgen
data_MgZn20PdPt4
_symmetry_space_group_name_H-M   'P 1'
_cell_length_a   7.96188947
_cell_length_b   7.99331753
_cell_length_c   7.95262315
_cell_angle_alpha   70.85583812
_cell_angle_beta   70.73830277
_cell_angle_gamma   109.52113503
_symmetry_Int_Tables_number   1
_chemical_formula_structural   MgZn20PdPt4
_chemical_formula_sum   'Mg1 Zn20 Pd1 Pt4'
_cell_volume   391.93071192
_cell_formula_units_Z   1
loop_
 _symmetry_equiv_pos_site_id
 _symmetry_equiv_pos_as_xyz
  1  'x, y, z'
loop_
 _atom_site_type_symbol
 _atom_site_label
 _atom_site_symmetry_multiplicity
 _atom_site_fract_x
 _atom_site_fract_y
 _atom_site_fract_z
 _atom_site_occupancy
  Mg  Mg0  1  0.996298  0.354608  0.646236  1
  Zn  Zn1  1  0.004647  0.994156  0.789934  1
  Zn  Zn2  1  0.775470  0.775203  0.224339  1
  Zn  Zn3  1  0.211575  0.999742  0.995817  1
  Zn  Zn4  1  0.000137  0.221425  0.006060  1
  Zn  Zn5  1  0.275093  0.260650  0.386483  1
  Zn  Zn6  1  0.012960  0.738228  0.646162  1
  Zn  Zn7  1  0.724155  0.998408  0.648366  1
  Zn  Zn8  1  0.658075  0.644371  0.627448  1
  Zn  Zn9  1  0.379624  0.649717  0.338352  1
  Zn  Zn10  1  0.647928  0.374397  0.355711  1
  Zn  Zn11  1  0.351248  0.739213  0.987393  1
  Zn  Zn12  1  0.603850  0.255227  0.731552  1
  Zn  Zn13  1  0.350988  0.998692  0.274384  1
  Zn  Zn14  1  0.721402  0.353141  0.993810  1
  Zn  Zn15  1  0.011779  0.357610  0.271266  1
  Zn  Zn16  1  0.273438  0.627886  0.728519  1
  Zn  Zn17  1  0.641492  0.645873  0.995578  1
  Zn  Zn18  1  0.006204  0.652118  0.350155  1
  Zn  Zn19  1  0.645535  0.999157  0.353777  1
  Zn  Zn20  1  0.358488  0.355945  0.004105  1
  Pd  Pd21  1  0.983636  0.639113  0.013113  1
  Pt  Pt22  1  0.366288  0.999356  0.633140  1
  Pt  Pt23  1  0.997858  0.001493  0.344957  1
  Pt  Pt24  1  0.343151  0.361544  0.654577  1
  Pt  Pt25  1  0.658679  0.002728  0.998771  1
