# generated using pymatgen
data_Sc12Co4SnRh
_symmetry_space_group_name_H-M   'P 1'
_cell_length_a   7.72871163
_cell_length_b   7.72871060
_cell_length_c   7.72871076
_cell_angle_alpha   110.98352871
_cell_angle_beta   111.19494504
_cell_angle_gamma   106.28158264
_symmetry_Int_Tables_number   1
_chemical_formula_structural   Sc12Co4SnRh
_chemical_formula_sum   'Sc12 Co4 Sn1 Rh1'
_cell_volume   354.56372365
_cell_formula_units_Z   1
loop_
 _symmetry_equiv_pos_site_id
 _symmetry_equiv_pos_as_xyz
  1  'x, y, z'
loop_
 _atom_site_type_symbol
 _atom_site_label
 _atom_site_symmetry_multiplicity
 _atom_site_fract_x
 _atom_site_fract_y
 _atom_site_fract_z
 _atom_site_occupancy
  Sc  Sc0  1  0.422644  0.222424  0.200219  1
  Sc  Sc1  1  0.577356  0.777576  0.799781  1
  Sc  Sc2  1  0.022205  0.222424  0.799781  1
  Sc  Sc3  1  0.977795  0.777576  0.200219  1
  Sc  Sc4  1  0.312264  0.614199  0.301934  1
  Sc  Sc5  1  0.687736  0.385801  0.698066  1
  Sc  Sc6  1  0.312264  0.010328  0.698066  1
  Sc  Sc7  1  0.687736  0.989672  0.301934  1
  Sc  Sc8  1  0.186249  0.279807  0.466057  1
  Sc  Sc9  1  0.813751  0.720192  0.533943  1
  Sc  Sc10  1  0.186249  0.720192  0.906442  1
  Sc  Sc11  1  0.813751  0.279807  0.093558  1
  Co  Co12  1  0.366356  0.000000  0.366356  1
  Co  Co13  1  0.633644  0.000000  0.633644  1
  Co  Co14  1  0.117742  0.617742  0.500000  1
  Co  Co15  1  0.882258  0.382258  0.500000  1
  Sn  Sn16  1  0.500000  0.500000  0.000000  1
  Rh  Rh17  1  0.000000  0.000000  0.000000  1
