# generated using pymatgen
data_DyEr5(RuI3)2
_symmetry_space_group_name_H-M   'P 1'
_cell_length_a   4.20314200
_cell_length_b   8.86660742
_cell_length_c   12.29610900
_cell_angle_alpha   93.70708932
_cell_angle_beta   90.00000000
_cell_angle_gamma   90.00000000
_symmetry_Int_Tables_number   1
_chemical_formula_structural   DyEr5(RuI3)2
_chemical_formula_sum   'Dy1 Er5 Ru2 I6'
_cell_volume   457.28777197
_cell_formula_units_Z   1
loop_
 _symmetry_equiv_pos_site_id
 _symmetry_equiv_pos_as_xyz
  1  'x, y, z'
loop_
 _atom_site_type_symbol
 _atom_site_label
 _atom_site_symmetry_multiplicity
 _atom_site_fract_x
 _atom_site_fract_y
 _atom_site_fract_z
 _atom_site_occupancy
  Dy  Dy0  1  0.750000  0.260783  0.602519  1
  Er  Er1  1  0.250000  0.743147  0.397912  1
  Er  Er2  1  0.750000  0.869345  0.625781  1
  Er  Er3  1  0.250000  0.131250  0.373431  1
  Er  Er4  1  0.750000  0.899821  0.188204  1
  Er  Er5  1  0.250000  0.098048  0.812284  1
  Ru  Ru6  1  0.750000  0.947781  0.408299  1
  Ru  Ru7  1  0.250000  0.053022  0.591158  1
  I  I8  1  0.750000  0.426943  0.367007  1
  I  I9  1  0.250000  0.575098  0.633220  1
  I  I10  1  0.750000  0.858579  0.890711  1
  I  I11  1  0.250000  0.138172  0.108055  1
  I  I12  1  0.750000  0.350759  0.863736  1
  I  I13  1  0.250000  0.647252  0.137684  1
