# generated using pymatgen
data_TbPr4NdTa2O14
_symmetry_space_group_name_H-M   'P 1'
_cell_length_a   6.70385457
_cell_length_b   6.68116888
_cell_length_c   7.73253200
_cell_angle_alpha   90.00000000
_cell_angle_beta   90.00000000
_cell_angle_gamma   108.88511938
_symmetry_Int_Tables_number   1
_chemical_formula_structural   TbPr4NdTa2O14
_chemical_formula_sum   'Tb1 Pr4 Nd1 Ta2 O14'
_cell_volume   327.69339111
_cell_formula_units_Z   1
loop_
 _symmetry_equiv_pos_site_id
 _symmetry_equiv_pos_as_xyz
  1  'x, y, z'
loop_
 _atom_site_type_symbol
 _atom_site_label
 _atom_site_symmetry_multiplicity
 _atom_site_fract_x
 _atom_site_fract_y
 _atom_site_fract_z
 _atom_site_occupancy
  Tb  Tb0  1  0.003401  0.531785  0.250000  1
  Pr  Pr1  1  0.531683  0.526371  0.499085  1
  Pr  Pr2  1  0.531683  0.526371  0.000915  1
  Pr  Pr3  1  0.006487  0.462246  0.750000  1
  Pr  Pr4  1  0.463255  0.004262  0.250000  1
  Nd  Nd5  1  0.533040  0.003097  0.750000  1
  Ta  Ta6  1  0.001018  0.001110  0.498173  1
  Ta  Ta7  1  0.001018  0.001110  0.001827  1
  O  O8  1  0.945069  0.055564  0.750000  1
  O  O9  1  0.057231  0.936739  0.250000  1
  O  O10  1  0.354473  0.633761  0.250000  1
  O  O11  1  0.640352  0.366762  0.750000  1
  O  O12  1  0.373404  0.633615  0.750000  1
  O  O13  1  0.644504  0.377743  0.250000  1
  O  O14  1  0.307232  0.067859  0.968393  1
  O  O15  1  0.680327  0.920148  0.473978  1
  O  O16  1  0.307232  0.067859  0.531607  1
  O  O17  1  0.680327  0.920148  0.026022  1
  O  O18  1  0.038866  0.300121  0.458908  1
  O  O19  1  0.930264  0.681605  0.976639  1
  O  O20  1  0.930264  0.681605  0.523361  1
  O  O21  1  0.038866  0.300121  0.041092  1
