# generated using pymatgen
data_KRbY4Cu4Se9
_symmetry_space_group_name_H-M   'P 1'
_cell_length_a   4.15584690
_cell_length_b   7.49795195
_cell_length_c   15.88597133
_cell_angle_alpha   93.99971346
_cell_angle_beta   97.51596613
_cell_angle_gamma   106.08910967
_symmetry_Int_Tables_number   1
_chemical_formula_structural   KRbY4Cu4Se9
_chemical_formula_sum   'K1 Rb1 Y4 Cu4 Se9'
_cell_volume   468.60863459
_cell_formula_units_Z   1
loop_
 _symmetry_equiv_pos_site_id
 _symmetry_equiv_pos_as_xyz
  1  'x, y, z'
loop_
 _atom_site_type_symbol
 _atom_site_label
 _atom_site_symmetry_multiplicity
 _atom_site_fract_x
 _atom_site_fract_y
 _atom_site_fract_z
 _atom_site_occupancy
  K  K0  1  0.763450  0.796071  0.730829  1
  Rb  Rb1  1  0.237009  0.203932  0.270085  1
  Y  Y2  1  0.870512  0.639115  0.101912  1
  Y  Y3  1  0.098452  0.751705  0.445198  1
  Y  Y4  1  0.901154  0.245193  0.557118  1
  Y  Y5  1  0.128668  0.361367  0.895967  1
  Cu  Cu6  1  0.603221  0.178018  0.028427  1
  Cu  Cu7  1  0.512567  0.753288  0.271846  1
  Cu  Cu8  1  0.488192  0.246779  0.729604  1
  Cu  Cu9  1  0.396161  0.822026  0.970293  1
  Se  Se10  1  0.213163  0.350757  0.075568  1
  Se  Se11  1  0.520655  0.913674  0.127636  1
  Se  Se12  1  0.925465  0.574443  0.276489  1
  Se  Se13  1  0.695829  0.992566  0.399091  1
  Se  Se14  1  0.499028  0.497954  0.500101  1
  Se  Se15  1  0.303980  0.003186  0.604775  1
  Se  Se16  1  0.077840  0.432727  0.722950  1
  Se  Se17  1  0.478123  0.085939  0.870308  1
  Se  Se18  1  0.786529  0.651256  0.921803  1
