# generated using pymatgen
data_Dy13Er3In4RuRh3
_symmetry_space_group_name_H-M   'P 1'
_cell_length_a   9.65573440
_cell_length_b   9.64918226
_cell_length_c   9.65460169
_cell_angle_alpha   59.94050996
_cell_angle_beta   59.86900506
_cell_angle_gamma   60.01482393
_symmetry_Int_Tables_number   1
_chemical_formula_structural   Dy13Er3In4RuRh3
_chemical_formula_sum   'Dy13 Er3 In4 Ru1 Rh3'
_cell_volume   635.20897909
_cell_formula_units_Z   1
loop_
 _symmetry_equiv_pos_site_id
 _symmetry_equiv_pos_as_xyz
  1  'x, y, z'
loop_
 _atom_site_type_symbol
 _atom_site_label
 _atom_site_symmetry_multiplicity
 _atom_site_fract_x
 _atom_site_fract_y
 _atom_site_fract_z
 _atom_site_occupancy
  Dy  Dy0  1  0.187504  0.191947  0.812123  1
  Dy  Dy1  1  0.438524  0.061360  0.061405  1
  Dy  Dy2  1  0.437648  0.062196  0.436980  1
  Dy  Dy3  1  0.060189  0.438159  0.059541  1
  Dy  Dy4  1  0.648982  0.049276  0.649561  1
  Dy  Dy5  1  0.190973  0.809643  0.810822  1
  Dy  Dy6  1  0.061128  0.060360  0.438901  1
  Dy  Dy7  1  0.811259  0.192450  0.187782  1
  Dy  Dy8  1  0.810440  0.810410  0.190834  1
  Dy  Dy9  1  0.649276  0.648922  0.048725  1
  Dy  Dy10  1  0.652607  0.650216  0.651998  1
  Dy  Dy11  1  0.061787  0.436434  0.440195  1
  Dy  Dy12  1  0.048605  0.648523  0.649361  1
  Er  Er13  1  0.809338  0.193312  0.810249  1
  Er  Er14  1  0.442026  0.437092  0.060234  1
  Er  Er15  1  0.190564  0.810634  0.190536  1
  In  In16  1  0.418208  0.746461  0.418211  1
  In  In17  1  0.417196  0.417130  0.749286  1
  In  In18  1  0.748830  0.417079  0.417330  1
  In  In19  1  0.416797  0.417210  0.416942  1
  Ru  Ru20  1  0.856772  0.425380  0.857798  1
  Rh  Rh21  1  0.859445  0.858314  0.423954  1
  Rh  Rh22  1  0.424069  0.857513  0.859678  1
  Rh  Rh23  1  0.857835  0.859977  0.857556  1
