# generated using pymatgen
data_Nd4Al4IrPdRh2
_symmetry_space_group_name_H-M   'P 1'
_cell_length_a   4.34907500
_cell_length_b   7.08709490
_cell_length_c   8.07104810
_cell_angle_alpha   89.77929107
_cell_angle_beta   90.00000000
_cell_angle_gamma   90.00000000
_symmetry_Int_Tables_number   1
_chemical_formula_structural   Nd4Al4IrPdRh2
_chemical_formula_sum   'Nd4 Al4 Ir1 Pd1 Rh2'
_cell_volume   248.76647860
_cell_formula_units_Z   1
loop_
 _symmetry_equiv_pos_site_id
 _symmetry_equiv_pos_as_xyz
  1  'x, y, z'
loop_
 _atom_site_type_symbol
 _atom_site_label
 _atom_site_symmetry_multiplicity
 _atom_site_fract_x
 _atom_site_fract_y
 _atom_site_fract_z
 _atom_site_occupancy
  Nd  Nd0  1  0.250000  0.533463  0.184432  1
  Nd  Nd1  1  0.750000  0.457247  0.818669  1
  Nd  Nd2  1  0.750000  0.967885  0.677005  1
  Nd  Nd3  1  0.250000  0.036556  0.319138  1
  Al  Al4  1  0.250000  0.632319  0.559591  1
  Al  Al5  1  0.750000  0.364481  0.439085  1
  Al  Al6  1  0.750000  0.866632  0.064723  1
  Al  Al7  1  0.250000  0.139917  0.936552  1
  Ir  Ir8  1  0.250000  0.270810  0.618923  1
  Pd  Pd9  1  0.250000  0.774358  0.882725  1
  Rh  Rh10  1  0.750000  0.227886  0.115620  1
  Rh  Rh11  1  0.750000  0.728446  0.383536  1
