# generated using pymatgen
data_Th4IrPd11
_symmetry_space_group_name_H-M   'P 1'
_cell_length_a   5.96417125
_cell_length_b   5.93796119
_cell_length_c   9.78189900
_cell_angle_alpha   89.99999875
_cell_angle_beta   89.07373862
_cell_angle_gamma   119.85474046
_symmetry_Int_Tables_number   1
_chemical_formula_structural   Th4IrPd11
_chemical_formula_sum   'Th4 Ir1 Pd11'
_cell_volume   300.39980188
_cell_formula_units_Z   1
loop_
 _symmetry_equiv_pos_site_id
 _symmetry_equiv_pos_as_xyz
  1  'x, y, z'
loop_
 _atom_site_type_symbol
 _atom_site_label
 _atom_site_symmetry_multiplicity
 _atom_site_fract_x
 _atom_site_fract_y
 _atom_site_fract_z
 _atom_site_occupancy
  Th  Th0  1  0.000000  0.000000  0.500000  1
  Th  Th1  1  0.000000  0.000000  0.000000  1
  Th  Th2  1  0.325042  0.662521  0.254905  1
  Th  Th3  1  0.674958  0.337479  0.745095  1
  Ir  Ir4  1  0.000000  0.500000  0.500000  1
  Pd  Pd5  1  0.500000  0.500000  0.500000  1
  Pd  Pd6  1  0.500000  0.000000  0.500000  1
  Pd  Pd7  1  0.500000  0.500000  0.000000  1
  Pd  Pd8  1  0.500000  0.000000  0.000000  1
  Pd  Pd9  1  0.000000  0.500000  0.000000  1
  Pd  Pd10  1  0.821031  0.648918  0.248722  1
  Pd  Pd11  1  0.348361  0.174180  0.246937  1
  Pd  Pd12  1  0.821031  0.172114  0.248722  1
  Pd  Pd13  1  0.178969  0.351082  0.751278  1
  Pd  Pd14  1  0.651639  0.825820  0.753063  1
  Pd  Pd15  1  0.178969  0.827886  0.751278  1
