# generated using pymatgen
data_LuPa(AlC)6
_symmetry_space_group_name_H-M   'P 1'
_cell_length_a   3.40631400
_cell_length_b   3.40631360
_cell_length_c   17.34460800
_cell_angle_alpha   90.00000000
_cell_angle_beta   90.00000000
_cell_angle_gamma   120.00000385
_symmetry_Int_Tables_number   1
_chemical_formula_structural   LuPa(AlC)6
_chemical_formula_sum   'Lu1 Pa1 Al6 C6'
_cell_volume   174.28676638
_cell_formula_units_Z   1
loop_
 _symmetry_equiv_pos_site_id
 _symmetry_equiv_pos_as_xyz
  1  'x, y, z'
loop_
 _atom_site_type_symbol
 _atom_site_label
 _atom_site_symmetry_multiplicity
 _atom_site_fract_x
 _atom_site_fract_y
 _atom_site_fract_z
 _atom_site_occupancy
  Lu  Lu0  1  0.000000  0.000000  0.003191  1
  Pa  Pa1  1  0.000000  0.000000  0.503186  1
  Al  Al2  1  0.333333  0.666667  0.132191  1
  Al  Al3  1  0.666667  0.333333  0.874210  1
  Al  Al4  1  0.666667  0.333333  0.641093  1
  Al  Al5  1  0.333333  0.666667  0.762593  1
  Al  Al6  1  0.333333  0.666667  0.365294  1
  Al  Al7  1  0.666667  0.333333  0.243894  1
  C  C8  1  0.333333  0.666667  0.599035  1
  C  C9  1  0.666667  0.333333  0.407260  1
  C  C10  1  0.333333  0.666667  0.912042  1
  C  C11  1  0.666667  0.333333  0.094269  1
  C  C12  1  0.666667  0.333333  0.756817  1
  C  C13  1  0.333333  0.666667  0.249526  1
