# generated using pymatgen
data_Zr5TaC5
_symmetry_space_group_name_H-M   'P 1'
_cell_length_a   5.74865615
_cell_length_b   5.72053652
_cell_length_c   5.72921965
_cell_angle_alpha   99.86644051
_cell_angle_beta   99.03678826
_cell_angle_gamma   120.03909123
_symmetry_Int_Tables_number   1
_chemical_formula_structural   Zr5TaC5
_chemical_formula_sum   'Zr5 Ta1 C5'
_cell_volume   154.03764067
_cell_formula_units_Z   1
loop_
 _symmetry_equiv_pos_site_id
 _symmetry_equiv_pos_as_xyz
  1  'x, y, z'
loop_
 _atom_site_type_symbol
 _atom_site_label
 _atom_site_symmetry_multiplicity
 _atom_site_fract_x
 _atom_site_fract_y
 _atom_site_fract_z
 _atom_site_occupancy
  Zr  Zr0  1  0.086592  0.432620  0.251850  1
  Zr  Zr1  1  0.741111  0.738480  0.259490  1
  Zr  Zr2  1  0.256917  0.259095  0.738965  1
  Zr  Zr3  1  0.913706  0.571201  0.749409  1
  Zr  Zr4  1  0.563529  0.912701  0.745357  1
  Ta  Ta5  1  0.447484  0.087936  0.260166  1
  C  C6  1  0.660530  0.325960  0.006177  1
  C  C7  1  0.335541  0.678073  0.006144  1
  C  C8  1  0.822241  0.167737  0.494087  1
  C  C9  1  0.498056  0.489093  0.494106  1
  C  C10  1  0.174293  0.837104  0.494249  1
