# generated using pymatgen
data_La3Nd6Lu5Th2(CdIr)4
_symmetry_space_group_name_H-M   'P 1'
_cell_length_a   9.84636190
_cell_length_b   9.81093860
_cell_length_c   9.84738296
_cell_angle_alpha   59.78744375
_cell_angle_beta   60.08642708
_cell_angle_gamma   59.95801688
_symmetry_Int_Tables_number   1
_chemical_formula_structural   La3Nd6Lu5Th2(CdIr)4
_chemical_formula_sum   'La3 Nd6 Lu5 Th2 Cd4 Ir4'
_cell_volume   671.79056754
_cell_formula_units_Z   1
loop_
 _symmetry_equiv_pos_site_id
 _symmetry_equiv_pos_as_xyz
  1  'x, y, z'
loop_
 _atom_site_type_symbol
 _atom_site_label
 _atom_site_symmetry_multiplicity
 _atom_site_fract_x
 _atom_site_fract_y
 _atom_site_fract_z
 _atom_site_occupancy
  La  La0  1  0.350531  0.949420  0.349958  1
  La  La1  1  0.949003  0.352431  0.353413  1
  La  La2  1  0.818437  0.181837  0.183210  1
  Nd  Nd3  1  0.940037  0.563498  0.562593  1
  Nd  Nd4  1  0.560141  0.938943  0.939165  1
  Nd  Nd5  1  0.558093  0.939716  0.563099  1
  Nd  Nd6  1  0.942387  0.561816  0.937093  1
  Nd  Nd7  1  0.558199  0.563263  0.939104  1
  Nd  Nd8  1  0.942928  0.936757  0.561506  1
  Lu  Lu9  1  0.181954  0.817053  0.817138  1
  Lu  Lu10  1  0.189805  0.812072  0.182173  1
  Lu  Lu11  1  0.815261  0.180681  0.813390  1
  Lu  Lu12  1  0.190644  0.182617  0.811719  1
  Lu  Lu13  1  0.815576  0.812683  0.181567  1
  Th  Th14  1  0.341345  0.350976  0.349682  1
  Th  Th15  1  0.348700  0.349009  0.954131  1
  Cd  Cd16  1  0.578962  0.578497  0.582731  1
  Cd  Cd17  1  0.577350  0.581755  0.259459  1
  Cd  Cd18  1  0.575583  0.258718  0.584854  1
  Cd  Cd19  1  0.259111  0.576662  0.581342  1
  Ir  Ir20  1  0.145796  0.142840  0.134176  1
  Ir  Ir21  1  0.141605  0.143166  0.581400  1
  Ir  Ir22  1  0.144349  0.578706  0.138976  1
  Ir  Ir23  1  0.574199  0.146880  0.138118  1
