# generated using pymatgen
data_Ho8Tc13B12
_symmetry_space_group_name_H-M   'P 1'
_cell_length_a   7.74869615
_cell_length_b   7.74869569
_cell_length_c   7.74869514
_cell_angle_alpha   86.96232243
_cell_angle_beta   86.96231858
_cell_angle_gamma   86.96232788
_symmetry_Int_Tables_number   1
_chemical_formula_structural   Ho8Tc13B12
_chemical_formula_sum   'Ho8 Tc13 B12'
_cell_volume   463.35498502
_cell_formula_units_Z   1
loop_
 _symmetry_equiv_pos_site_id
 _symmetry_equiv_pos_as_xyz
  1  'x, y, z'
loop_
 _atom_site_type_symbol
 _atom_site_label
 _atom_site_symmetry_multiplicity
 _atom_site_fract_x
 _atom_site_fract_y
 _atom_site_fract_z
 _atom_site_occupancy
  Ho  Ho0  1  0.641819  0.641819  0.641819  1
  Ho  Ho1  1  0.358181  0.358181  0.358181  1
  Ho  Ho2  1  0.187372  0.187372  0.687166  1
  Ho  Ho3  1  0.687166  0.187372  0.187372  1
  Ho  Ho4  1  0.187372  0.687166  0.187372  1
  Ho  Ho5  1  0.812628  0.812628  0.312834  1
  Ho  Ho6  1  0.312834  0.812628  0.812628  1
  Ho  Ho7  1  0.812628  0.312834  0.812628  1
  Tc  Tc8  1  0.000000  0.000000  0.000000  1
  Tc  Tc9  1  0.595468  0.063904  0.595468  1
  Tc  Tc10  1  0.595468  0.595468  0.063904  1
  Tc  Tc11  1  0.063904  0.595468  0.595468  1
  Tc  Tc12  1  0.404532  0.936096  0.404532  1
  Tc  Tc13  1  0.404532  0.404532  0.936096  1
  Tc  Tc14  1  0.936096  0.404532  0.404532  1
  Tc  Tc15  1  0.923330  0.923330  0.670346  1
  Tc  Tc16  1  0.670346  0.923330  0.923330  1
  Tc  Tc17  1  0.923330  0.670346  0.923330  1
  Tc  Tc18  1  0.076670  0.076670  0.329654  1
  Tc  Tc19  1  0.329654  0.076670  0.076670  1
  Tc  Tc20  1  0.076670  0.329654  0.076670  1
  B  B21  1  0.152210  0.847790  0.500000  1
  B  B22  1  0.500000  0.152210  0.847790  1
  B  B23  1  0.847790  0.500000  0.152210  1
  B  B24  1  0.500000  0.847790  0.152210  1
  B  B25  1  0.152210  0.500000  0.847790  1
  B  B26  1  0.847790  0.152210  0.500000  1
  B  B27  1  0.670613  0.500000  0.329387  1
  B  B28  1  0.329387  0.670613  0.500000  1
  B  B29  1  0.500000  0.329387  0.670613  1
  B  B30  1  0.329387  0.500000  0.670613  1
  B  B31  1  0.670613  0.329387  0.500000  1
  B  B32  1  0.500000  0.670613  0.329387  1
