# generated using pymatgen
data_Gd2TcO6
_symmetry_space_group_name_H-M   'P 1'
_cell_length_a   10.02906124
_cell_length_b   10.02906083
_cell_length_c   5.47912602
_cell_angle_alpha   75.17381301
_cell_angle_beta   75.17381824
_cell_angle_gamma   68.83762854
_symmetry_Int_Tables_number   1
_chemical_formula_structural   Gd2TcO6
_chemical_formula_sum   'Gd8 Tc4 O24'
_cell_volume   488.58534977
_cell_formula_units_Z   4
loop_
 _symmetry_equiv_pos_site_id
 _symmetry_equiv_pos_as_xyz
  1  'x, y, z'
loop_
 _atom_site_type_symbol
 _atom_site_label
 _atom_site_symmetry_multiplicity
 _atom_site_fract_x
 _atom_site_fract_y
 _atom_site_fract_z
 _atom_site_occupancy
  Gd  Gd0  1  0.783289  0.557114  0.627570  1
  Gd  Gd1  1  0.216711  0.442886  0.372430  1
  Gd  Gd2  1  0.609644  0.390356  0.250000  1
  Gd  Gd3  1  0.390356  0.609644  0.750000  1
  Gd  Gd4  1  0.557114  0.783289  0.127570  1
  Gd  Gd5  1  0.131431  0.868569  0.250000  1
  Gd  Gd6  1  0.442886  0.216711  0.872430  1
  Gd  Gd7  1  0.868569  0.131431  0.750000  1
  Tc  Tc8  1  0.300346  0.008518  0.555053  1
  Tc  Tc9  1  0.699654  0.991482  0.444947  1
  Tc  Tc10  1  0.991482  0.699654  0.944947  1
  Tc  Tc11  1  0.008518  0.300346  0.055053  1
  O  O12  1  0.389345  0.426615  0.576073  1
  O  O13  1  0.569071  0.972841  0.741426  1
  O  O14  1  0.818272  0.710941  0.870245  1
  O  O15  1  0.677582  0.112959  0.139571  1
  O  O16  1  0.112959  0.677582  0.639571  1
  O  O17  1  0.322418  0.887041  0.860429  1
  O  O18  1  0.289059  0.181728  0.629755  1
  O  O19  1  0.972841  0.569071  0.241426  1
  O  O20  1  0.573385  0.610655  0.923927  1
  O  O21  1  0.430929  0.027159  0.258574  1
  O  O22  1  0.115045  0.041544  0.519964  1
  O  O23  1  0.192884  0.661489  0.089316  1
  O  O24  1  0.807116  0.338511  0.910684  1
  O  O25  1  0.338511  0.807116  0.410684  1
  O  O26  1  0.887041  0.322418  0.360429  1
  O  O27  1  0.958456  0.884955  0.980036  1
  O  O28  1  0.884955  0.958456  0.480036  1
  O  O29  1  0.661489  0.192884  0.589316  1
  O  O30  1  0.710941  0.818272  0.370245  1
  O  O31  1  0.041544  0.115045  0.019964  1
  O  O32  1  0.181728  0.289059  0.129755  1
  O  O33  1  0.610655  0.573385  0.423927  1
  O  O34  1  0.426615  0.389345  0.076073  1
  O  O35  1  0.027159  0.430929  0.758574  1
