# generated using pymatgen
data_YHo3(GaCo)4
_symmetry_space_group_name_H-M   'P 1'
_cell_length_a   4.41849700
_cell_length_b   6.87805227
_cell_length_c   6.99702630
_cell_angle_alpha   89.88851220
_cell_angle_beta   90.00000000
_cell_angle_gamma   90.00000000
_symmetry_Int_Tables_number   1
_chemical_formula_structural   YHo3(GaCo)4
_chemical_formula_sum   'Y1 Ho3 Ga4 Co4'
_cell_volume   212.64379789
_cell_formula_units_Z   1
loop_
 _symmetry_equiv_pos_site_id
 _symmetry_equiv_pos_as_xyz
  1  'x, y, z'
loop_
 _atom_site_type_symbol
 _atom_site_label
 _atom_site_symmetry_multiplicity
 _atom_site_fract_x
 _atom_site_fract_y
 _atom_site_fract_z
 _atom_site_occupancy
  Y  Y0  1  0.250000  0.305647  0.521144  1
  Ho  Ho1  1  0.250000  0.195641  0.021894  1
  Ho  Ho2  1  0.750000  0.697077  0.477645  1
  Ho  Ho3  1  0.750000  0.803971  0.977860  1
  Ga  Ga4  1  0.250000  0.894429  0.694887  1
  Ga  Ga5  1  0.250000  0.605883  0.194206  1
  Ga  Ga6  1  0.750000  0.104566  0.304726  1
  Ga  Ga7  1  0.750000  0.394764  0.806015  1
  Co  Co8  1  0.250000  0.935511  0.342799  1
  Co  Co9  1  0.250000  0.563804  0.844749  1
  Co  Co10  1  0.750000  0.061568  0.657407  1
  Co  Co11  1  0.750000  0.437140  0.156668  1
