# generated using pymatgen
data_Sc10Tl6As
_symmetry_space_group_name_H-M   'P 1'
_cell_length_a   6.24865500
_cell_length_b   8.64093457
_cell_length_c   8.64069800
_cell_angle_alpha   120.00091304
_cell_angle_beta   90.00017666
_cell_angle_gamma   89.99963145
_symmetry_Int_Tables_number   1
_chemical_formula_structural   Sc10Tl6As
_chemical_formula_sum   'Sc10 Tl6 As1'
_cell_volume   404.03847758
_cell_formula_units_Z   1
loop_
 _symmetry_equiv_pos_site_id
 _symmetry_equiv_pos_as_xyz
  1  'x, y, z'
loop_
 _atom_site_type_symbol
 _atom_site_label
 _atom_site_symmetry_multiplicity
 _atom_site_fract_x
 _atom_site_fract_y
 _atom_site_fract_z
 _atom_site_occupancy
  Sc  Sc0  1  0.499999  0.333320  0.666643  1
  Sc  Sc1  1  0.499999  0.666677  0.333357  1
  Sc  Sc2  1  0.999998  0.666661  0.333329  1
  Sc  Sc3  1  0.999998  0.333332  0.666671  1
  Sc  Sc4  1  0.753965  0.249266  0.000000  1
  Sc  Sc5  1  0.754001  0.750748  0.750748  1
  Sc  Sc6  1  0.754001  0.000001  0.249252  1
  Sc  Sc7  1  0.246003  0.750746  0.000000  1
  Sc  Sc8  1  0.246017  0.249256  0.249256  1
  Sc  Sc9  1  0.246017  0.000000  0.750744  1
  Tl  Tl10  1  0.754161  0.604002  0.000000  1
  Tl  Tl11  1  0.754155  0.396015  0.396014  1
  Tl  Tl12  1  0.754155  0.000002  0.603986  1
  Tl  Tl13  1  0.245845  0.396000  0.000000  1
  Tl  Tl14  1  0.245843  0.603983  0.603986  1
  Tl  Tl15  1  0.245843  0.999997  0.396014  1
  As  As16  1  0.500002  0.999996  0.000000  1
