# generated using pymatgen
data_Ti3Nb5P4
_symmetry_space_group_name_H-M   'P 1'
_cell_length_a   3.46720500
_cell_length_b   6.56517320
_cell_length_c   8.10524996
_cell_angle_alpha   89.88807067
_cell_angle_beta   90.00000000
_cell_angle_gamma   90.00000000
_symmetry_Int_Tables_number   1
_chemical_formula_structural   Ti3Nb5P4
_chemical_formula_sum   'Ti3 Nb5 P4'
_cell_volume   184.49784254
_cell_formula_units_Z   1
loop_
 _symmetry_equiv_pos_site_id
 _symmetry_equiv_pos_as_xyz
  1  'x, y, z'
loop_
 _atom_site_type_symbol
 _atom_site_label
 _atom_site_symmetry_multiplicity
 _atom_site_fract_x
 _atom_site_fract_y
 _atom_site_fract_z
 _atom_site_occupancy
  Ti  Ti0  1  0.750000  0.856122  0.938565  1
  Ti  Ti1  1  0.250000  0.642469  0.439130  1
  Ti  Ti2  1  0.750000  0.359289  0.560682  1
  Nb  Nb3  1  0.250000  0.032514  0.670564  1
  Nb  Nb4  1  0.250000  0.533580  0.827282  1
  Nb  Nb5  1  0.750000  0.468196  0.175656  1
  Nb  Nb6  1  0.750000  0.966100  0.330194  1
  Nb  Nb7  1  0.250000  0.143869  0.060117  1
  P  P8  1  0.250000  0.261235  0.364686  1
  P  P9  1  0.250000  0.758575  0.141762  1
  P  P10  1  0.750000  0.738659  0.640120  1
  P  P11  1  0.750000  0.239392  0.851242  1
