# generated using pymatgen
data_Y2Ho6Er8Sc4Si15Pt
_symmetry_space_group_name_H-M   'P 1'
_cell_length_a   7.21094026
_cell_length_b   7.65639213
_cell_length_c   14.31213387
_cell_angle_alpha   90.03985734
_cell_angle_beta   90.00307343
_cell_angle_gamma   89.99136632
_symmetry_Int_Tables_number   1
_chemical_formula_structural   Y2Ho6Er8Sc4Si15Pt
_chemical_formula_sum   'Y2 Ho6 Er8 Sc4 Si15 Pt1'
_cell_volume   790.16964996
_cell_formula_units_Z   1
loop_
 _symmetry_equiv_pos_site_id
 _symmetry_equiv_pos_as_xyz
  1  'x, y, z'
loop_
 _atom_site_type_symbol
 _atom_site_label
 _atom_site_symmetry_multiplicity
 _atom_site_fract_x
 _atom_site_fract_y
 _atom_site_fract_z
 _atom_site_occupancy
  Y  Y0  1  0.019276  0.183924  0.096675  1
  Y  Y1  1  0.982650  0.819043  0.904677  1
  Ho  Ho2  1  0.481874  0.681128  0.905897  1
  Ho  Ho3  1  0.982376  0.818759  0.595467  1
  Ho  Ho4  1  0.519998  0.317842  0.096972  1
  Ho  Ho5  1  0.019466  0.183948  0.403299  1
  Ho  Ho6  1  0.520124  0.317819  0.403226  1
  Ho  Ho7  1  0.481765  0.681110  0.593931  1
  Er  Er8  1  0.313467  0.173747  0.626883  1
  Er  Er9  1  0.680257  0.825685  0.373485  1
  Er  Er10  1  0.178592  0.679303  0.373992  1
  Er  Er11  1  0.679983  0.825501  0.126797  1
  Er  Er12  1  0.824618  0.320223  0.626964  1
  Er  Er13  1  0.313522  0.173821  0.872973  1
  Er  Er14  1  0.824704  0.320114  0.872791  1
  Er  Er15  1  0.178726  0.678966  0.126351  1
  Sc  Sc16  1  0.153507  0.520249  0.749911  1
  Sc  Sc17  1  0.846064  0.486788  0.250085  1
  Sc  Sc18  1  0.346645  0.016341  0.250075  1
  Sc  Sc19  1  0.657044  0.983680  0.750007  1
  Si  Si20  1  0.983623  0.906191  0.250237  1
  Si  Si21  1  0.483094  0.596937  0.250097  1
  Si  Si22  1  0.516485  0.404181  0.749975  1
  Si  Si23  1  0.284648  0.860456  0.749873  1
  Si  Si24  1  0.721150  0.138015  0.250210  1
  Si  Si25  1  0.221433  0.365285  0.250326  1
  Si  Si26  1  0.771438  0.629871  0.749727  1
  Si  Si27  1  0.153677  0.472094  0.539458  1
  Si  Si28  1  0.846520  0.530448  0.459954  1
  Si  Si29  1  0.348735  0.971336  0.459354  1
  Si  Si30  1  0.846321  0.530564  0.040085  1
  Si  Si31  1  0.651809  0.028943  0.540515  1
  Si  Si32  1  0.153835  0.472006  0.960474  1
  Si  Si33  1  0.651410  0.029375  0.959517  1
  Si  Si34  1  0.349189  0.970964  0.040597  1
  Pt  Pt35  1  0.011973  0.085343  0.749143  1
