# generated using pymatgen
data_Th8Si15Pd
_symmetry_space_group_name_H-M   'P 1'
_cell_length_a   8.29194205
_cell_length_b   8.29296500
_cell_length_c   8.30084300
_cell_angle_alpha   90.00338433
_cell_angle_beta   89.99670568
_cell_angle_gamma   120.00813760
_symmetry_Int_Tables_number   1
_chemical_formula_structural   Th8Si15Pd
_chemical_formula_sum   'Th8 Si15 Pd1'
_cell_volume   494.29168397
_cell_formula_units_Z   1
loop_
 _symmetry_equiv_pos_site_id
 _symmetry_equiv_pos_as_xyz
  1  'x, y, z'
loop_
 _atom_site_type_symbol
 _atom_site_label
 _atom_site_symmetry_multiplicity
 _atom_site_fract_x
 _atom_site_fract_y
 _atom_site_fract_z
 _atom_site_occupancy
  Th  Th0  1  0.496989  0.503003  0.755030  1
  Th  Th1  1  0.497088  0.502911  0.244966  1
  Th  Th2  1  0.006012  0.503006  0.755029  1
  Th  Th3  1  0.005835  0.502918  0.244955  1
  Th  Th4  1  0.496992  0.993982  0.755021  1
  Th  Th5  1  0.497075  0.994159  0.244964  1
  Th  Th6  1  0.999992  0.000015  0.753933  1
  Th  Th7  1  0.000010  0.999997  0.246105  1
  Si  Si8  1  0.666661  0.333327  0.999784  1
  Si  Si9  1  0.333334  0.666676  0.000167  1
  Si  Si10  1  0.333321  0.666678  0.499916  1
  Si  Si11  1  0.834644  0.165369  0.000008  1
  Si  Si12  1  0.168266  0.831722  0.999995  1
  Si  Si13  1  0.330723  0.165364  0.000004  1
  Si  Si14  1  0.169157  0.830846  0.499938  1
  Si  Si15  1  0.663454  0.831720  0.999995  1
  Si  Si16  1  0.836439  0.163565  0.500080  1
  Si  Si17  1  0.834650  0.669292  0.000005  1
  Si  Si18  1  0.661691  0.830833  0.499940  1
  Si  Si19  1  0.168271  0.336538  0.999994  1
  Si  Si20  1  0.327107  0.163550  0.500075  1
  Si  Si21  1  0.169168  0.338310  0.499940  1
  Si  Si22  1  0.836451  0.672890  0.500075  1
  Pd  Pd23  1  0.666668  0.333332  0.500082  1
