# generated using pymatgen
data_Nb12Co8ReW3N4
_symmetry_space_group_name_H-M   'P 1'
_cell_length_a   8.17628236
_cell_length_b   8.17628276
_cell_length_c   8.17628225
_cell_angle_alpha   59.80777471
_cell_angle_beta   59.80777405
_cell_angle_gamma   59.80777840
_symmetry_Int_Tables_number   1
_chemical_formula_structural   Nb12Co8ReW3N4
_chemical_formula_sum   'Nb12 Co8 Re1 W3 N4'
_cell_volume   384.81633020
_cell_formula_units_Z   1
loop_
 _symmetry_equiv_pos_site_id
 _symmetry_equiv_pos_as_xyz
  1  'x, y, z'
loop_
 _atom_site_type_symbol
 _atom_site_label
 _atom_site_symmetry_multiplicity
 _atom_site_fract_x
 _atom_site_fract_y
 _atom_site_fract_z
 _atom_site_occupancy
  Nb  Nb0  1  0.809031  0.809031  0.192299  1
  Nb  Nb1  1  0.189461  0.189461  0.810446  1
  Nb  Nb2  1  0.809031  0.192299  0.809031  1
  Nb  Nb3  1  0.189461  0.810446  0.189461  1
  Nb  Nb4  1  0.192299  0.809031  0.809031  1
  Nb  Nb5  1  0.810446  0.189461  0.189461  1
  Nb  Nb6  1  0.440969  0.440969  0.057701  1
  Nb  Nb7  1  0.060539  0.060539  0.439554  1
  Nb  Nb8  1  0.440969  0.057701  0.440969  1
  Nb  Nb9  1  0.060539  0.439554  0.060539  1
  Nb  Nb10  1  0.057701  0.440969  0.440969  1
  Nb  Nb11  1  0.439554  0.060539  0.060539  1
  Co  Co12  1  0.730064  0.423915  0.423915  1
  Co  Co13  1  0.423915  0.730064  0.423915  1
  Co  Co14  1  0.423915  0.423915  0.730064  1
  Co  Co15  1  0.422755  0.422755  0.422755  1
  Co  Co16  1  0.519936  0.826085  0.826085  1
  Co  Co17  1  0.826085  0.519936  0.826085  1
  Co  Co18  1  0.826085  0.826085  0.519936  1
  Co  Co19  1  0.827245  0.827245  0.827245  1
  Re  Re20  1  0.625000  0.625000  0.625000  1
  W  W21  1  0.125000  0.625000  0.625000  1
  W  W22  1  0.625000  0.125000  0.625000  1
  W  W23  1  0.625000  0.625000  0.125000  1
  N  N24  1  0.625000  0.125000  0.125000  1
  N  N25  1  0.125000  0.625000  0.125000  1
  N  N26  1  0.125000  0.125000  0.625000  1
  N  N27  1  0.125000  0.125000  0.125000  1
