# generated using pymatgen
data_Tb6NdFeI12
_symmetry_space_group_name_H-M   'P 1'
_cell_length_a   9.84695359
_cell_length_b   9.76997591
_cell_length_c   9.83976694
_cell_angle_alpha   106.79767761
_cell_angle_beta   106.88354871
_cell_angle_gamma   107.21370680
_symmetry_Int_Tables_number   1
_chemical_formula_structural   Tb6NdFeI12
_chemical_formula_sum   'Tb6 Nd1 Fe1 I12'
_cell_volume   789.10538097
_cell_formula_units_Z   1
loop_
 _symmetry_equiv_pos_site_id
 _symmetry_equiv_pos_as_xyz
  1  'x, y, z'
loop_
 _atom_site_type_symbol
 _atom_site_label
 _atom_site_symmetry_multiplicity
 _atom_site_fract_x
 _atom_site_fract_y
 _atom_site_fract_z
 _atom_site_occupancy
  Tb  Tb0  1  0.499857  0.499419  0.500096  1
  Tb  Tb1  1  0.022330  0.092196  0.292618  1
  Tb  Tb2  1  0.292604  0.022235  0.093696  1
  Tb  Tb3  1  0.910026  0.720774  0.978137  1
  Tb  Tb4  1  0.976866  0.904840  0.706872  1
  Tb  Tb5  1  0.706814  0.976952  0.906236  1
  Nd  Nd6  1  0.092014  0.286628  0.022110  1
  Fe  Fe7  1  0.000332  0.001547  0.999711  1
  I  I8  1  0.469411  0.387006  0.164879  1
  I  I9  1  0.163127  0.464519  0.391900  1
  I  I10  1  0.385320  0.159048  0.462397  1
  I  I11  1  0.538739  0.613548  0.839065  1
  I  I12  1  0.838076  0.536672  0.615791  1
  I  I13  1  0.614745  0.839958  0.537422  1
  I  I14  1  0.768652  0.317890  0.926229  1
  I  I15  1  0.927431  0.772931  0.318005  1
  I  I16  1  0.319713  0.928021  0.775475  1
  I  I17  1  0.223102  0.682914  0.071566  1
  I  I18  1  0.070742  0.221485  0.673363  1
  I  I19  1  0.680099  0.071418  0.224433  1
