# generated using pymatgen
data_Ca3Cd3Si2Sn
_symmetry_space_group_name_H-M   'P 1'
_cell_length_a   7.37097300
_cell_length_b   7.37097286
_cell_length_c   4.63099400
_cell_angle_alpha   90.00000000
_cell_angle_beta   90.00000000
_cell_angle_gamma   119.99999612
_symmetry_Int_Tables_number   1
_chemical_formula_structural   Ca3Cd3Si2Sn
_chemical_formula_sum   'Ca3 Cd3 Si2 Sn1'
_cell_volume   217.89863000
_cell_formula_units_Z   1
loop_
 _symmetry_equiv_pos_site_id
 _symmetry_equiv_pos_as_xyz
  1  'x, y, z'
loop_
 _atom_site_type_symbol
 _atom_site_label
 _atom_site_symmetry_multiplicity
 _atom_site_fract_x
 _atom_site_fract_y
 _atom_site_fract_z
 _atom_site_occupancy
  Ca  Ca0  1  0.000000  0.569382  0.500000  1
  Ca  Ca1  1  0.569382  0.000000  0.500000  1
  Ca  Ca2  1  0.430618  0.430618  0.500000  1
  Cd  Cd3  1  0.266759  0.000000  0.000000  1
  Cd  Cd4  1  0.733241  0.733241  0.000000  1
  Cd  Cd5  1  0.000000  0.266759  0.000000  1
  Si  Si6  1  0.666667  0.333333  0.000000  1
  Si  Si7  1  0.333333  0.666667  0.000000  1
  Sn  Sn8  1  0.000000  0.000000  0.500000  1
