# generated using pymatgen
data_HfTh3Ga2Ir3
_symmetry_space_group_name_H-M   'P 1'
_cell_length_a   7.40419242
_cell_length_b   7.40419267
_cell_length_c   4.18555200
_cell_angle_alpha   90.00000000
_cell_angle_beta   90.00000000
_cell_angle_gamma   121.44592953
_symmetry_Int_Tables_number   1
_chemical_formula_structural   HfTh3Ga2Ir3
_chemical_formula_sum   'Hf1 Th3 Ga2 Ir3'
_cell_volume   195.76039155
_cell_formula_units_Z   1
loop_
 _symmetry_equiv_pos_site_id
 _symmetry_equiv_pos_as_xyz
  1  'x, y, z'
loop_
 _atom_site_type_symbol
 _atom_site_label
 _atom_site_symmetry_multiplicity
 _atom_site_fract_x
 _atom_site_fract_y
 _atom_site_fract_z
 _atom_site_occupancy
  Hf  Hf0  1  0.762408  0.762408  0.000000  1
  Th  Th1  1  0.398870  0.398870  0.500000  1
  Th  Th2  1  0.580686  0.008624  0.500000  1
  Th  Th3  1  0.008624  0.580686  0.500000  1
  Ga  Ga4  1  0.239371  0.997491  0.000000  1
  Ga  Ga5  1  0.997491  0.239371  0.000000  1
  Ir  Ir6  1  0.675962  0.349558  0.000000  1
  Ir  Ir7  1  0.349558  0.675962  0.000000  1
  Ir  Ir8  1  0.987029  0.987029  0.500000  1
