# generated using pymatgen
data_Er3Tm3(ReB7)2
_symmetry_space_group_name_H-M   'P 1'
_cell_length_a   7.98644831
_cell_length_b   7.98644855
_cell_length_c   9.28964832
_cell_angle_alpha   90.02946452
_cell_angle_beta   89.97053621
_cell_angle_gamma   154.65390495
_symmetry_Int_Tables_number   1
_chemical_formula_structural   Er3Tm3(ReB7)2
_chemical_formula_sum   'Er3 Tm3 Re2 B14'
_cell_volume   253.65105705
_cell_formula_units_Z   1
loop_
 _symmetry_equiv_pos_site_id
 _symmetry_equiv_pos_as_xyz
  1  'x, y, z'
loop_
 _atom_site_type_symbol
 _atom_site_label
 _atom_site_symmetry_multiplicity
 _atom_site_fract_x
 _atom_site_fract_y
 _atom_site_fract_z
 _atom_site_occupancy
  Er  Er0  1  0.894352  0.105648  0.059752  1
  Er  Er1  1  0.243228  0.756772  0.250037  1
  Er  Er2  1  0.756666  0.243334  0.749963  1
  Tm  Tm3  1  0.105516  0.894484  0.559396  1
  Tm  Tm4  1  0.105504  0.894496  0.940562  1
  Tm  Tm5  1  0.894510  0.105490  0.440641  1
  Re  Re6  1  0.052221  0.947779  0.250123  1
  Re  Re7  1  0.947895  0.052105  0.749802  1
  B  B8  1  0.454470  0.545530  0.250281  1
  B  B9  1  0.545722  0.454278  0.749949  1
  B  B10  1  0.727278  0.272722  0.033469  1
  B  B11  1  0.272534  0.727466  0.533531  1
  B  B12  1  0.272391  0.727609  0.966357  1
  B  B13  1  0.727467  0.272533  0.466472  1
  B  B14  1  0.632349  0.367651  0.349695  1
  B  B15  1  0.367639  0.632361  0.849407  1
  B  B16  1  0.367657  0.632343  0.650308  1
  B  B17  1  0.632340  0.367660  0.150297  1
  B  B18  1  0.519936  0.480064  0.405469  1
  B  B19  1  0.480182  0.519818  0.905219  1
  B  B20  1  0.480117  0.519883  0.594576  1
  B  B21  1  0.520026  0.479974  0.094693  1
