# generated using pymatgen
data_Zr12ReTc6Ir5
_symmetry_space_group_name_H-M   'P 1'
_cell_length_a   4.65956500
_cell_length_b   6.58347500
_cell_length_c   14.02835200
_cell_angle_alpha   90.00000000
_cell_angle_beta   89.99963585
_cell_angle_gamma   90.00000000
_symmetry_Int_Tables_number   1
_chemical_formula_structural   Zr12ReTc6Ir5
_chemical_formula_sum   'Zr12 Re1 Tc6 Ir5'
_cell_volume   430.33554526
_cell_formula_units_Z   1
loop_
 _symmetry_equiv_pos_site_id
 _symmetry_equiv_pos_as_xyz
  1  'x, y, z'
loop_
 _atom_site_type_symbol
 _atom_site_label
 _atom_site_symmetry_multiplicity
 _atom_site_fract_x
 _atom_site_fract_y
 _atom_site_fract_z
 _atom_site_occupancy
  Zr  Zr0  1  0.500000  0.253145  0.000000  1
  Zr  Zr1  1  0.500000  0.746856  0.000000  1
  Zr  Zr2  1  0.999980  0.251119  0.164581  1
  Zr  Zr3  1  0.999980  0.748880  0.164581  1
  Zr  Zr4  1  0.499985  0.250344  0.332735  1
  Zr  Zr5  1  0.499985  0.749657  0.332735  1
  Zr  Zr6  1  0.000000  0.249799  0.500000  1
  Zr  Zr7  1  0.000000  0.750200  0.500000  1
  Zr  Zr8  1  0.500015  0.250344  0.667264  1
  Zr  Zr9  1  0.500015  0.749657  0.667264  1
  Zr  Zr10  1  0.000020  0.251119  0.835419  1
  Zr  Zr11  1  0.000020  0.748880  0.835419  1
  Re  Re12  1  0.000000  0.500000  0.000000  1
  Tc  Tc13  1  0.000000  0.000000  0.000000  1
  Tc  Tc14  1  0.499985  0.500000  0.169045  1
  Tc  Tc15  1  0.999987  0.000000  0.334041  1
  Tc  Tc16  1  0.500000  0.500000  0.500000  1
  Tc  Tc17  1  0.000013  0.000000  0.665959  1
  Tc  Tc18  1  0.500015  0.500000  0.830955  1
  Ir  Ir19  1  0.499988  0.000000  0.167721  1
  Ir  Ir20  1  0.999989  0.500000  0.333953  1
  Ir  Ir21  1  0.500000  0.000000  0.500000  1
  Ir  Ir22  1  0.000011  0.500000  0.666047  1
  Ir  Ir23  1  0.500012  0.000000  0.832279  1
