# generated using pymatgen
data_Ag6HgO8
_symmetry_space_group_name_H-M   'P 1'
_cell_length_a   7.15409970
_cell_length_b   7.15409991
_cell_length_c   7.15410000
_cell_angle_alpha   59.99999958
_cell_angle_beta   59.99999863
_cell_angle_gamma   59.99999736
_symmetry_Int_Tables_number   1
_chemical_formula_structural   Ag6HgO8
_chemical_formula_sum   'Ag6 Hg1 O8'
_cell_volume   258.91069078
_cell_formula_units_Z   1
loop_
 _symmetry_equiv_pos_site_id
 _symmetry_equiv_pos_as_xyz
  1  'x, y, z'
loop_
 _atom_site_type_symbol
 _atom_site_label
 _atom_site_symmetry_multiplicity
 _atom_site_fract_x
 _atom_site_fract_y
 _atom_site_fract_z
 _atom_site_occupancy
  Ag  Ag0  1  0.500000  0.000000  0.500000  1
  Ag  Ag1  1  0.500000  0.000000  0.000000  1
  Ag  Ag2  1  0.000000  0.000000  0.500000  1
  Ag  Ag3  1  0.000000  0.500000  0.000000  1
  Ag  Ag4  1  0.000000  0.500000  0.500000  1
  Ag  Ag5  1  0.500000  0.500000  0.000000  1
  Hg  Hg6  1  0.000000  0.000000  0.000000  1
  O  O7  1  0.857747  0.426759  0.857747  1
  O  O8  1  0.142253  0.142253  0.142253  1
  O  O9  1  0.857747  0.857747  0.857747  1
  O  O10  1  0.573241  0.142253  0.142253  1
  O  O11  1  0.857747  0.857747  0.426759  1
  O  O12  1  0.426759  0.857747  0.857747  1
  O  O13  1  0.142253  0.142253  0.573241  1
  O  O14  1  0.142253  0.573241  0.142253  1
