# generated using pymatgen
data_K5Rb3Zr6BI20
_symmetry_space_group_name_H-M   'P 1'
_cell_length_a   12.69137064
_cell_length_b   12.69045818
_cell_length_c   12.69123700
_cell_angle_alpha   59.99796204
_cell_angle_beta   60.00034050
_cell_angle_gamma   60.00997041
_symmetry_Int_Tables_number   1
_chemical_formula_structural   K5Rb3Zr6BI20
_chemical_formula_sum   'K5 Rb3 Zr6 B1 I20'
_cell_volume   1445.44618605
_cell_formula_units_Z   1
loop_
 _symmetry_equiv_pos_site_id
 _symmetry_equiv_pos_as_xyz
  1  'x, y, z'
loop_
 _atom_site_type_symbol
 _atom_site_label
 _atom_site_symmetry_multiplicity
 _atom_site_fract_x
 _atom_site_fract_y
 _atom_site_fract_z
 _atom_site_occupancy
  K  K0  1  0.362279  0.362435  0.361332  1
  K  K1  1  0.637077  0.638200  0.637918  1
  K  K2  1  0.362279  0.362435  0.913955  1
  K  K3  1  0.362529  0.914059  0.361707  1
  K  K4  1  0.637077  0.638200  0.086804  1
  Rb  Rb5  1  0.639148  0.081828  0.639512  1
  Rb  Rb6  1  0.918887  0.361051  0.360031  1
  Rb  Rb7  1  0.081497  0.639936  0.639283  1
  Zr  Zr8  1  0.868087  0.132198  0.132245  1
  Zr  Zr9  1  0.131879  0.868147  0.867510  1
  Zr  Zr10  1  0.131879  0.868147  0.132464  1
  Zr  Zr11  1  0.868087  0.132198  0.867470  1
  Zr  Zr12  1  0.131974  0.132518  0.867754  1
  Zr  Zr13  1  0.867754  0.867820  0.132213  1
  B  B14  1  0.999971  0.000018  0.000006  1
  I  I15  1  0.321501  0.001140  0.000426  1
  I  I16  1  0.678443  0.999635  0.998873  1
  I  I17  1  0.000467  0.322657  0.676418  1
  I  I18  1  0.999613  0.677077  0.323641  1
  I  I19  1  0.000467  0.322657  0.000458  1
  I  I20  1  0.678443  0.999635  0.323049  1
  I  I21  1  0.999613  0.677077  0.999669  1
  I  I22  1  0.321501  0.001140  0.676933  1
  I  I23  1  0.999743  0.000342  0.324105  1
  I  I24  1  0.999743  0.000342  0.675809  1
  I  I25  1  0.679227  0.321405  0.999684  1
  I  I26  1  0.320875  0.678188  0.000468  1
  I  I27  1  0.683384  0.317011  0.309025  1
  I  I28  1  0.316751  0.687234  0.686457  1
  I  I29  1  0.316751  0.687234  0.309558  1
  I  I30  1  0.683384  0.317011  0.690580  1
  I  I31  1  0.312589  0.313252  0.687080  1
  I  I32  1  0.682915  0.690782  0.313152  1
  I  I33  1  0.262320  0.245601  0.246040  1
  I  I34  1  0.741869  0.741388  0.758372  1
