# generated using pymatgen
data_TbDy2Er(Al3Ir)6
_symmetry_space_group_name_H-M   'P 1'
_cell_length_a   7.54672000
_cell_length_b   7.54535977
_cell_length_c   9.46033100
_cell_angle_alpha   90.00000000
_cell_angle_beta   90.00000000
_cell_angle_gamma   119.41213834
_symmetry_Int_Tables_number   1
_chemical_formula_structural   TbDy2Er(Al3Ir)6
_chemical_formula_sum   'Tb1 Dy2 Er1 Al18 Ir6'
_cell_volume   469.26419275
_cell_formula_units_Z   1
loop_
 _symmetry_equiv_pos_site_id
 _symmetry_equiv_pos_as_xyz
  1  'x, y, z'
loop_
 _atom_site_type_symbol
 _atom_site_label
 _atom_site_symmetry_multiplicity
 _atom_site_fract_x
 _atom_site_fract_y
 _atom_site_fract_z
 _atom_site_occupancy
  Tb  Tb0  1  0.005337  0.327658  0.250000  1
  Dy  Dy1  1  0.672227  0.994486  0.750000  1
  Dy  Dy2  1  0.327695  0.005291  0.250000  1
  Er  Er3  1  0.994586  0.672650  0.750000  1
  Al  Al4  1  0.129375  0.129070  0.750000  1
  Al  Al5  1  0.870474  0.870168  0.250000  1
  Al  Al6  1  0.001060  0.336149  0.575339  1
  Al  Al7  1  0.998939  0.664353  0.425854  1
  Al  Al8  1  0.998939  0.664353  0.074146  1
  Al  Al9  1  0.335466  0.000821  0.924839  1
  Al  Al10  1  0.001060  0.336149  0.924661  1
  Al  Al11  1  0.664231  0.998739  0.074755  1
  Al  Al12  1  0.664231  0.998739  0.425245  1
  Al  Al13  1  0.335466  0.000821  0.575161  1
  Al  Al14  1  0.333173  0.333135  0.050012  1
  Al  Al15  1  0.667199  0.666901  0.948999  1
  Al  Al16  1  0.667199  0.666901  0.551001  1
  Al  Al17  1  0.333173  0.333135  0.449988  1
  Al  Al18  1  0.339535  0.549151  0.750000  1
  Al  Al19  1  0.660142  0.450990  0.250000  1
  Al  Al20  1  0.549720  0.340564  0.750000  1
  Al  Al21  1  0.450826  0.659875  0.250000  1
  Ir  Ir22  1  0.672093  0.328048  0.500180  1
  Ir  Ir23  1  0.327951  0.672069  0.500222  1
  Ir  Ir24  1  0.327951  0.672069  0.999778  1
  Ir  Ir25  1  0.672093  0.328048  0.999820  1
  Ir  Ir26  1  0.999929  0.999835  0.500236  1
  Ir  Ir27  1  0.999929  0.999835  0.999764  1
