# generated using pymatgen
data_Zr10AlTl5ZnPb
_symmetry_space_group_name_H-M   'P 1'
_cell_length_a   8.84090255
_cell_length_b   8.81063272
_cell_length_c   5.96169636
_cell_angle_alpha   89.97990682
_cell_angle_beta   90.04005525
_cell_angle_gamma   120.11372152
_symmetry_Int_Tables_number   1
_chemical_formula_structural   Zr10AlTl5ZnPb
_chemical_formula_sum   'Zr10 Al1 Tl5 Zn1 Pb1'
_cell_volume   401.70317608
_cell_formula_units_Z   1
loop_
 _symmetry_equiv_pos_site_id
 _symmetry_equiv_pos_as_xyz
  1  'x, y, z'
loop_
 _atom_site_type_symbol
 _atom_site_label
 _atom_site_symmetry_multiplicity
 _atom_site_fract_x
 _atom_site_fract_y
 _atom_site_fract_z
 _atom_site_occupancy
  Zr  Zr0  1  0.333651  0.666993  0.000438  1
  Zr  Zr1  1  0.667239  0.333613  0.499437  1
  Zr  Zr2  1  0.666659  0.333007  0.000438  1
  Zr  Zr3  1  0.333625  0.666387  0.499437  1
  Zr  Zr4  1  0.265295  0.000000  0.249289  1
  Zr  Zr5  1  0.265400  0.265888  0.750073  1
  Zr  Zr6  1  0.999512  0.734112  0.750073  1
  Zr  Zr7  1  0.000151  0.266168  0.250054  1
  Zr  Zr8  1  0.733982  0.733832  0.250054  1
  Zr  Zr9  1  0.734433  0.000000  0.750337  1
  Al  Al10  1  0.999502  0.000000  0.000508  1
  Tl  Tl11  1  0.616918  0.000000  0.250137  1
  Tl  Tl12  1  0.616605  0.616324  0.749787  1
  Tl  Tl13  1  0.000281  0.383676  0.749787  1
  Tl  Tl14  1  0.999949  0.616494  0.250287  1
  Tl  Tl15  1  0.383455  0.383506  0.250287  1
  Zn  Zn16  1  0.999494  0.000000  0.499492  1
  Pb  Pb17  1  0.383847  0.000000  0.750085  1
