# generated using pymatgen
data_Ac2BiSbPt2
_symmetry_space_group_name_H-M   'P 1'
_cell_length_a   8.72373600
_cell_length_b   4.71405203
_cell_length_c   8.26664057
_cell_angle_alpha   90.56523580
_cell_angle_beta   90.00000000
_cell_angle_gamma   90.00000000
_symmetry_Int_Tables_number   1
_chemical_formula_structural   Ac2BiSbPt2
_chemical_formula_sum   'Ac4 Bi2 Sb2 Pt4'
_cell_volume   339.94198587
_cell_formula_units_Z   2
loop_
 _symmetry_equiv_pos_site_id
 _symmetry_equiv_pos_as_xyz
  1  'x, y, z'
loop_
 _atom_site_type_symbol
 _atom_site_label
 _atom_site_symmetry_multiplicity
 _atom_site_fract_x
 _atom_site_fract_y
 _atom_site_fract_z
 _atom_site_occupancy
  Ac  Ac0  1  0.156309  0.252182  0.754130  1
  Ac  Ac1  1  0.656309  0.747818  0.245870  1
  Ac  Ac2  1  0.164872  0.751698  0.245770  1
  Ac  Ac3  1  0.664872  0.248302  0.754230  1
  Bi  Bi4  1  0.903389  0.252239  0.415991  1
  Bi  Bi5  1  0.403389  0.747761  0.584009  1
  Sb  Sb6  1  0.903381  0.752641  0.922361  1
  Sb  Sb7  1  0.403381  0.247359  0.077639  1
  Pt  Pt8  1  0.436384  0.242545  0.399174  1
  Pt  Pt9  1  0.936384  0.757455  0.600826  1
  Pt  Pt10  1  0.435666  0.743411  0.923633  1
  Pt  Pt11  1  0.935666  0.256589  0.076367  1
