# generated using pymatgen
data_Cs6YHoBi4
_symmetry_space_group_name_H-M   'P 1'
_cell_length_a   10.69599104
_cell_length_b   10.69599256
_cell_length_c   10.69599310
_cell_angle_alpha   127.20397060
_cell_angle_beta   70.77098175
_cell_angle_gamma   136.44312116
_symmetry_Int_Tables_number   1
_chemical_formula_structural   Cs6YHoBi4
_chemical_formula_sum   'Cs6 Y1 Ho1 Bi4'
_cell_volume   658.25783938
_cell_formula_units_Z   1
loop_
 _symmetry_equiv_pos_site_id
 _symmetry_equiv_pos_as_xyz
  1  'x, y, z'
loop_
 _atom_site_type_symbol
 _atom_site_label
 _atom_site_symmetry_multiplicity
 _atom_site_fract_x
 _atom_site_fract_y
 _atom_site_fract_z
 _atom_site_occupancy
  Cs  Cs0  1  0.250000  0.250000  0.000000  1
  Cs  Cs1  1  0.750000  0.750000  0.000000  1
  Cs  Cs2  1  0.315275  0.803194  0.118305  1
  Cs  Cs3  1  0.184725  0.303031  0.487919  1
  Cs  Cs4  1  0.815113  0.696807  0.512082  1
  Cs  Cs5  1  0.684887  0.196968  0.881694  1
  Y  Y6  1  0.250000  0.749999  0.499999  1
  Ho  Ho7  1  0.750000  0.250000  0.500000  1
  Bi  Bi8  1  0.904904  0.311710  0.218496  1
  Bi  Bi9  1  0.595096  0.813593  0.406807  1
  Bi  Bi10  1  0.406787  0.188290  0.593193  1
  Bi  Bi11  1  0.093213  0.686407  0.781503  1
