# generated using pymatgen
data_Mn4NbGa
_symmetry_space_group_name_H-M   'P 1'
_cell_length_a   4.72767500
_cell_length_b   4.72767469
_cell_length_c   7.83545700
_cell_angle_alpha   90.00000000
_cell_angle_beta   90.00000000
_cell_angle_gamma   120.00000919
_symmetry_Int_Tables_number   1
_chemical_formula_structural   Mn4NbGa
_chemical_formula_sum   'Mn8 Nb2 Ga2'
_cell_volume   151.66665958
_cell_formula_units_Z   2
loop_
 _symmetry_equiv_pos_site_id
 _symmetry_equiv_pos_as_xyz
  1  'x, y, z'
loop_
 _atom_site_type_symbol
 _atom_site_label
 _atom_site_symmetry_multiplicity
 _atom_site_fract_x
 _atom_site_fract_y
 _atom_site_fract_z
 _atom_site_occupancy
  Mn  Mn0  1  0.173516  0.347032  0.751306  1
  Mn  Mn1  1  0.826484  0.173516  0.251306  1
  Mn  Mn2  1  0.347032  0.173516  0.251306  1
  Mn  Mn3  1  0.652968  0.826484  0.751306  1
  Mn  Mn4  1  0.000000  0.000000  0.991472  1
  Mn  Mn5  1  0.000000  0.000000  0.491472  1
  Mn  Mn6  1  0.826484  0.652968  0.251306  1
  Mn  Mn7  1  0.173516  0.826484  0.751306  1
  Nb  Nb8  1  0.666667  0.333333  0.567647  1
  Nb  Nb9  1  0.333333  0.666667  0.067647  1
  Ga  Ga10  1  0.333333  0.666667  0.436963  1
  Ga  Ga11  1  0.666667  0.333333  0.936963  1
