# generated using pymatgen
data_Ce8Zn3Si12Rh
_symmetry_space_group_name_H-M   'P 1'
_cell_length_a   8.19475900
_cell_length_b   8.19475921
_cell_length_c   8.38255200
_cell_angle_alpha   90.00000000
_cell_angle_beta   90.00000000
_cell_angle_gamma   119.99999513
_symmetry_Int_Tables_number   1
_chemical_formula_structural   Ce8Zn3Si12Rh
_chemical_formula_sum   'Ce8 Zn3 Si12 Rh1'
_cell_volume   487.50524439
_cell_formula_units_Z   1
loop_
 _symmetry_equiv_pos_site_id
 _symmetry_equiv_pos_as_xyz
  1  'x, y, z'
loop_
 _atom_site_type_symbol
 _atom_site_label
 _atom_site_symmetry_multiplicity
 _atom_site_fract_x
 _atom_site_fract_y
 _atom_site_fract_z
 _atom_site_occupancy
  Ce  Ce0  1  0.000000  0.000000  0.250443  1
  Ce  Ce1  1  0.000000  0.000000  0.750077  1
  Ce  Ce2  1  0.499860  0.500140  0.247208  1
  Ce  Ce3  1  0.499860  0.999719  0.247208  1
  Ce  Ce4  1  0.000281  0.500140  0.247208  1
  Ce  Ce5  1  0.495488  0.504512  0.752690  1
  Ce  Ce6  1  0.495488  0.990976  0.752690  1
  Ce  Ce7  1  0.009024  0.504512  0.752690  1
  Zn  Zn8  1  0.333333  0.666667  0.490096  1
  Zn  Zn9  1  0.666667  0.333333  0.511192  1
  Zn  Zn10  1  0.666667  0.333333  0.991023  1
  Si  Si11  1  0.165649  0.834351  0.500855  1
  Si  Si12  1  0.165649  0.331299  0.500855  1
  Si  Si13  1  0.668701  0.834351  0.500855  1
  Si  Si14  1  0.833745  0.166255  0.499140  1
  Si  Si15  1  0.833745  0.667489  0.499140  1
  Si  Si16  1  0.332511  0.166255  0.499140  1
  Si  Si17  1  0.835384  0.164616  0.999280  1
  Si  Si18  1  0.835384  0.670767  0.999280  1
  Si  Si19  1  0.329233  0.164616  0.999280  1
  Si  Si20  1  0.166371  0.833629  0.001479  1
  Si  Si21  1  0.166371  0.332743  0.001479  1
  Si  Si22  1  0.667257  0.833629  0.001479  1
  Rh  Rh23  1  0.333333  0.666667  0.005214  1
