# generated using pymatgen
data_Gd8LuPt6
_symmetry_space_group_name_H-M   'P 1'
_cell_length_a   7.60519559
_cell_length_b   7.60519610
_cell_length_c   7.60519600
_cell_angle_alpha   71.81732179
_cell_angle_beta   71.81732053
_cell_angle_gamma   71.81732516
_symmetry_Int_Tables_number   1
_chemical_formula_structural   Gd8LuPt6
_chemical_formula_sum   'Gd8 Lu1 Pt6'
_cell_volume   385.65175535
_cell_formula_units_Z   1
loop_
 _symmetry_equiv_pos_site_id
 _symmetry_equiv_pos_as_xyz
  1  'x, y, z'
loop_
 _atom_site_type_symbol
 _atom_site_label
 _atom_site_symmetry_multiplicity
 _atom_site_fract_x
 _atom_site_fract_y
 _atom_site_fract_z
 _atom_site_occupancy
  Gd  Gd0  1  0.800694  0.800694  0.800694  1
  Gd  Gd1  1  0.199306  0.199306  0.199306  1
  Gd  Gd2  1  0.328118  0.607709  0.841583  1
  Gd  Gd3  1  0.841583  0.328118  0.607709  1
  Gd  Gd4  1  0.607709  0.841583  0.328118  1
  Gd  Gd5  1  0.671882  0.392291  0.158417  1
  Gd  Gd6  1  0.158417  0.671882  0.392291  1
  Gd  Gd7  1  0.392291  0.158417  0.671882  1
  Lu  Lu8  1  0.000000  0.000000  0.000000  1
  Pt  Pt9  1  0.162384  0.958172  0.595571  1
  Pt  Pt10  1  0.595571  0.162384  0.958172  1
  Pt  Pt11  1  0.958172  0.595571  0.162384  1
  Pt  Pt12  1  0.837616  0.041828  0.404429  1
  Pt  Pt13  1  0.404429  0.837616  0.041828  1
  Pt  Pt14  1  0.041828  0.404429  0.837616  1
