# generated using pymatgen
data_Sc4Al6IrRu
_symmetry_space_group_name_H-M   'P 1'
_cell_length_a   5.31284800
_cell_length_b   5.31284908
_cell_length_c   8.52932400
_cell_angle_alpha   90.00000000
_cell_angle_beta   90.00000000
_cell_angle_gamma   120.00000575
_symmetry_Int_Tables_number   1
_chemical_formula_structural   Sc4Al6IrRu
_chemical_formula_sum   'Sc4 Al6 Ir1 Ru1'
_cell_volume   208.49713352
_cell_formula_units_Z   1
loop_
 _symmetry_equiv_pos_site_id
 _symmetry_equiv_pos_as_xyz
  1  'x, y, z'
loop_
 _atom_site_type_symbol
 _atom_site_label
 _atom_site_symmetry_multiplicity
 _atom_site_fract_x
 _atom_site_fract_y
 _atom_site_fract_z
 _atom_site_occupancy
  Sc  Sc0  1  0.333333  0.666667  0.057070  1
  Sc  Sc1  1  0.666667  0.333333  0.554300  1
  Sc  Sc2  1  0.333333  0.666667  0.445700  1
  Sc  Sc3  1  0.666667  0.333333  0.942930  1
  Al  Al4  1  0.834463  0.668925  0.250143  1
  Al  Al5  1  0.165537  0.834463  0.749857  1
  Al  Al6  1  0.668925  0.834463  0.749857  1
  Al  Al7  1  0.331075  0.165537  0.250143  1
  Al  Al8  1  0.834463  0.165537  0.250143  1
  Al  Al9  1  0.165537  0.331075  0.749857  1
  Ir  Ir10  1  0.000000  0.000000  0.500000  1
  Ru  Ru11  1  0.000000  0.000000  0.000000  1
