# generated using pymatgen
data_Ni(AsPd)2
_symmetry_space_group_name_H-M   'P 1'
_cell_length_a   6.54179867
_cell_length_b   6.54179925
_cell_length_c   6.54179894
_cell_angle_alpha   135.96345760
_cell_angle_beta   124.47336334
_cell_angle_gamma   73.44595780
_symmetry_Int_Tables_number   1
_chemical_formula_structural   Ni(AsPd)2
_chemical_formula_sum   'Ni2 As4 Pd4'
_cell_volume   156.75121958
_cell_formula_units_Z   2
loop_
 _symmetry_equiv_pos_site_id
 _symmetry_equiv_pos_as_xyz
  1  'x, y, z'
loop_
 _atom_site_type_symbol
 _atom_site_label
 _atom_site_symmetry_multiplicity
 _atom_site_fract_x
 _atom_site_fract_y
 _atom_site_fract_z
 _atom_site_occupancy
  Ni  Ni0  1  0.000000  0.750000  0.750000  1
  Ni  Ni1  1  0.000000  0.250000  0.250000  1
  As  As2  1  0.077315  0.354049  0.723266  1
  As  As3  1  0.922685  0.645951  0.276734  1
  As  As4  1  0.369217  0.145951  0.223266  1
  As  As5  1  0.630783  0.854049  0.776734  1
  Pd  Pd6  1  0.477319  0.610768  0.866551  1
  Pd  Pd7  1  0.255782  0.889232  0.366551  1
  Pd  Pd8  1  0.744218  0.110768  0.633449  1
  Pd  Pd9  1  0.522681  0.389232  0.133449  1
