# generated using pymatgen
data_Zr10Hg3Au3O2
_symmetry_space_group_name_H-M   'P 1'
_cell_length_a   8.58172354
_cell_length_b   8.56410471
_cell_length_c   5.43591100
_cell_angle_alpha   90.00000000
_cell_angle_beta   90.00000000
_cell_angle_gamma   120.29352620
_symmetry_Int_Tables_number   1
_chemical_formula_structural   Zr10Hg3Au3O2
_chemical_formula_sum   'Zr10 Hg3 Au3 O2'
_cell_volume   344.95885911
_cell_formula_units_Z   1
loop_
 _symmetry_equiv_pos_site_id
 _symmetry_equiv_pos_as_xyz
  1  'x, y, z'
loop_
 _atom_site_type_symbol
 _atom_site_label
 _atom_site_symmetry_multiplicity
 _atom_site_fract_x
 _atom_site_fract_y
 _atom_site_fract_z
 _atom_site_occupancy
  Zr  Zr0  1  0.221952  0.001975  0.750000  1
  Zr  Zr1  1  0.778467  0.000622  0.250000  1
  Zr  Zr2  1  0.001103  0.227351  0.750000  1
  Zr  Zr3  1  0.998283  0.775436  0.250000  1
  Zr  Zr4  1  0.771522  0.771346  0.750000  1
  Zr  Zr5  1  0.228326  0.229665  0.250000  1
  Zr  Zr6  1  0.333460  0.657969  0.498131  1
  Zr  Zr7  1  0.666413  0.339290  0.498179  1
  Zr  Zr8  1  0.666413  0.339290  0.001821  1
  Zr  Zr9  1  0.333460  0.657969  0.001869  1
  Hg  Hg10  1  0.598304  0.000642  0.750000  1
  Hg  Hg11  1  0.400391  0.997882  0.250000  1
  Hg  Hg12  1  0.002774  0.598656  0.750000  1
  Au  Au13  1  0.998166  0.398990  0.250000  1
  Au  Au14  1  0.401226  0.399761  0.750000  1
  Au  Au15  1  0.599776  0.600148  0.250000  1
  O  O16  1  0.999982  0.001505  0.499359  1
  O  O17  1  0.999982  0.001505  0.000641  1
