# generated using pymatgen
data_Lu4Co5Si10Os
_symmetry_space_group_name_H-M   'P 1'
_cell_length_a   7.88797323
_cell_length_b   7.88797303
_cell_length_c   7.88797317
_cell_angle_alpha   139.32373093
_cell_angle_beta   106.42023908
_cell_angle_gamma   87.64535955
_symmetry_Int_Tables_number   1
_chemical_formula_structural   Lu4Co5Si10Os
_chemical_formula_sum   'Lu4 Co5 Si10 Os1'
_cell_volume   294.81882834
_cell_formula_units_Z   1
loop_
 _symmetry_equiv_pos_site_id
 _symmetry_equiv_pos_as_xyz
  1  'x, y, z'
loop_
 _atom_site_type_symbol
 _atom_site_label
 _atom_site_symmetry_multiplicity
 _atom_site_fract_x
 _atom_site_fract_y
 _atom_site_fract_z
 _atom_site_occupancy
  Lu  Lu0  1  0.868284  0.649803  0.245736  1
  Lu  Lu1  1  0.131716  0.377452  0.781518  1
  Lu  Lu2  1  0.404067  0.122548  0.254264  1
  Lu  Lu3  1  0.595933  0.850197  0.718482  1
  Co  Co4  1  0.000000  0.250000  0.250000  1
  Co  Co5  1  0.256065  0.875434  0.410965  1
  Co  Co6  1  0.743935  0.154901  0.619369  1
  Co  Co7  1  0.464468  0.345099  0.089035  1
  Co  Co8  1  0.535532  0.624566  0.880631  1
  Si  Si9  1  0.500000  0.750000  0.250000  1
  Si  Si10  1  0.500000  0.250000  0.750000  1
  Si  Si11  1  0.221036  0.971036  0.750000  1
  Si  Si12  1  0.778964  0.528964  0.750000  1
  Si  Si13  1  0.772339  0.022339  0.250000  1
  Si  Si14  1  0.227661  0.477661  0.250000  1
  Si  Si15  1  0.065923  0.918949  0.185069  1
  Si  Si16  1  0.934077  0.119145  0.853025  1
  Si  Si17  1  0.733880  0.380855  0.314931  1
  Si  Si18  1  0.266120  0.581051  0.646975  1
  Os  Os19  1  0.000000  0.750000  0.750000  1
