# generated using pymatgen
data_TmLu3ReRu7
_symmetry_space_group_name_H-M   'P 1'
_cell_length_a   5.16799400
_cell_length_b   5.38541385
_cell_length_c   8.87860700
_cell_angle_alpha   90.00102627
_cell_angle_beta   89.99951733
_cell_angle_gamma   121.20688875
_symmetry_Int_Tables_number   1
_chemical_formula_structural   TmLu3ReRu7
_chemical_formula_sum   'Tm1 Lu3 Re1 Ru7'
_cell_volume   211.35152658
_cell_formula_units_Z   1
loop_
 _symmetry_equiv_pos_site_id
 _symmetry_equiv_pos_as_xyz
  1  'x, y, z'
loop_
 _atom_site_type_symbol
 _atom_site_label
 _atom_site_symmetry_multiplicity
 _atom_site_fract_x
 _atom_site_fract_y
 _atom_site_fract_z
 _atom_site_occupancy
  Tm  Tm0  1  0.669719  0.334168  0.566572  1
  Lu  Lu1  1  0.343293  0.671777  0.434202  1
  Lu  Lu2  1  0.343281  0.671757  0.065611  1
  Lu  Lu3  1  0.669377  0.333982  0.933483  1
  Re  Re4  1  0.320044  0.159632  0.249703  1
  Ru  Ru5  1  0.020978  0.010728  0.500557  1
  Ru  Ru6  1  0.021301  0.010895  0.999290  1
  Ru  Ru7  1  0.166879  0.336476  0.750376  1
  Ru  Ru8  1  0.163336  0.831481  0.750383  1
  Ru  Ru9  1  0.646777  0.823514  0.750337  1
  Ru  Ru10  1  0.817149  0.646481  0.249749  1
  Ru  Ru11  1  0.817866  0.169111  0.249736  1
