# generated using pymatgen
data_Hf(AlCu)6
_symmetry_space_group_name_H-M   'P 1'
_cell_length_a   6.53012067
_cell_length_b   6.53012080
_cell_length_c   6.53012120
_cell_angle_alpha   134.23156225
_cell_angle_beta   99.18318173
_cell_angle_gamma   98.21272377
_symmetry_Int_Tables_number   1
_chemical_formula_structural   Hf(AlCu)6
_chemical_formula_sum   'Hf1 Al6 Cu6'
_cell_volume   183.81134357
_cell_formula_units_Z   1
loop_
 _symmetry_equiv_pos_site_id
 _symmetry_equiv_pos_as_xyz
  1  'x, y, z'
loop_
 _atom_site_type_symbol
 _atom_site_label
 _atom_site_symmetry_multiplicity
 _atom_site_fract_x
 _atom_site_fract_y
 _atom_site_fract_z
 _atom_site_occupancy
  Hf  Hf0  1  0.000000  0.000000  0.000000  1
  Al  Al1  1  0.342679  0.342679  0.000000  1
  Al  Al2  1  0.657321  0.657321  0.000000  1
  Al  Al3  1  0.656343  0.000000  0.656343  1
  Al  Al4  1  0.343657  0.000000  0.343657  1
  Al  Al5  1  0.814909  0.314909  0.500000  1
  Al  Al6  1  0.185091  0.685091  0.500000  1
  Cu  Cu7  1  0.500000  0.000000  0.000000  1
  Cu  Cu8  1  0.500000  0.500000  0.500000  1
  Cu  Cu9  1  0.000000  0.000000  0.500000  1
  Cu  Cu10  1  0.000000  0.500000  0.000000  1
  Cu  Cu11  1  0.236914  0.500000  0.736914  1
  Cu  Cu12  1  0.763086  0.500000  0.263086  1
