# generated using pymatgen
data_Pr10Sn5Te3
_symmetry_space_group_name_H-M   'P 1'
_cell_length_a   8.41922300
_cell_length_b   8.47956140
_cell_length_c   16.10504258
_cell_angle_alpha   90.56659956
_cell_angle_beta   90.00000000
_cell_angle_gamma   90.00000000
_symmetry_Int_Tables_number   1
_chemical_formula_structural   Pr10Sn5Te3
_chemical_formula_sum   'Pr20 Sn10 Te6'
_cell_volume   1149.70400364
_cell_formula_units_Z   2
loop_
 _symmetry_equiv_pos_site_id
 _symmetry_equiv_pos_as_xyz
  1  'x, y, z'
loop_
 _atom_site_type_symbol
 _atom_site_label
 _atom_site_symmetry_multiplicity
 _atom_site_fract_x
 _atom_site_fract_y
 _atom_site_fract_z
 _atom_site_occupancy
  Pr  Pr0  1  0.406780  0.831349  0.884178  1
  Pr  Pr1  1  0.906780  0.668651  0.615822  1
  Pr  Pr2  1  0.597791  0.164596  0.383061  1
  Pr  Pr3  1  0.097791  0.335404  0.116939  1
  Pr  Pr4  1  0.593096  0.166468  0.116691  1
  Pr  Pr5  1  0.093096  0.333532  0.383309  1
  Pr  Pr6  1  0.401651  0.838145  0.616948  1
  Pr  Pr7  1  0.901651  0.661855  0.883052  1
  Pr  Pr8  1  0.571466  0.333253  0.887295  1
  Pr  Pr9  1  0.071466  0.166747  0.612705  1
  Pr  Pr10  1  0.432068  0.674244  0.388270  1
  Pr  Pr11  1  0.932068  0.825756  0.111730  1
  Pr  Pr12  1  0.440630  0.663333  0.111071  1
  Pr  Pr13  1  0.940630  0.836667  0.388929  1
  Pr  Pr14  1  0.554959  0.323153  0.609087  1
  Pr  Pr15  1  0.054959  0.176847  0.890913  1
  Pr  Pr16  1  0.233139  0.498560  0.749884  1
  Pr  Pr17  1  0.733139  0.001440  0.750116  1
  Pr  Pr18  1  0.767812  0.501515  0.246677  1
  Pr  Pr19  1  0.267812  0.998485  0.253323  1
  Sn  Sn20  1  0.264483  0.016701  0.455080  1
  Sn  Sn21  1  0.764483  0.483299  0.044920  1
  Sn  Sn22  1  0.602919  0.625554  0.747496  1
  Sn  Sn23  1  0.102919  0.874446  0.752504  1
  Sn  Sn24  1  0.396702  0.373988  0.251649  1
  Sn  Sn25  1  0.896702  0.126012  0.248351  1
  Sn  Sn26  1  0.361977  0.132323  0.753558  1
  Sn  Sn27  1  0.861977  0.367677  0.746442  1
  Sn  Sn28  1  0.637315  0.866516  0.249564  1
  Sn  Sn29  1  0.137315  0.633484  0.250436  1
  Te  Te30  1  0.256883  0.003671  0.048032  1
  Te  Te31  1  0.756883  0.496329  0.451968  1
  Te  Te32  1  0.742386  0.992643  0.548520  1
  Te  Te33  1  0.242386  0.507357  0.951480  1
  Te  Te34  1  0.737942  0.991272  0.952113  1
  Te  Te35  1  0.237942  0.508728  0.547887  1
