# generated using pymatgen
data_Y24CuTc7
_symmetry_space_group_name_H-M   'P 1'
_cell_length_a   6.32319350
_cell_length_b   9.26407300
_cell_length_c   14.76479766
_cell_angle_alpha   90.00000000
_cell_angle_beta   90.29859255
_cell_angle_gamma   90.00000000
_symmetry_Int_Tables_number   1
_chemical_formula_structural   Y24CuTc7
_chemical_formula_sum   'Y24 Cu1 Tc7'
_cell_volume   864.88834106
_cell_formula_units_Z   1
loop_
 _symmetry_equiv_pos_site_id
 _symmetry_equiv_pos_as_xyz
  1  'x, y, z'
loop_
 _atom_site_type_symbol
 _atom_site_label
 _atom_site_symmetry_multiplicity
 _atom_site_fract_x
 _atom_site_fract_y
 _atom_site_fract_z
 _atom_site_occupancy
  Y  Y0  1  0.537143  0.750000  0.354734  1
  Y  Y1  1  0.034104  0.250000  0.146494  1
  Y  Y2  1  0.466397  0.250000  0.646545  1
  Y  Y3  1  0.962657  0.750000  0.853460  1
  Y  Y4  1  0.785372  0.750000  0.108443  1
  Y  Y5  1  0.284983  0.250000  0.390787  1
  Y  Y6  1  0.215021  0.250000  0.889699  1
  Y  Y7  1  0.715261  0.750000  0.610682  1
  Y  Y8  1  0.436227  0.938729  0.789145  1
  Y  Y9  1  0.923462  0.070506  0.710049  1
  Y  Y10  1  0.564605  0.435548  0.209905  1
  Y  Y11  1  0.066957  0.565217  0.290458  1
  Y  Y12  1  0.564605  0.064452  0.209905  1
  Y  Y13  1  0.066957  0.934783  0.290458  1
  Y  Y14  1  0.436227  0.561271  0.789145  1
  Y  Y15  1  0.923462  0.429494  0.710049  1
  Y  Y16  1  0.243977  0.942379  0.534485  1
  Y  Y17  1  0.739922  0.063200  0.965559  1
  Y  Y18  1  0.758512  0.436820  0.465851  1
  Y  Y19  1  0.259406  0.563281  0.033619  1
  Y  Y20  1  0.758512  0.063180  0.465851  1
  Y  Y21  1  0.259406  0.936719  0.033619  1
  Y  Y22  1  0.243977  0.557621  0.534485  1
  Y  Y23  1  0.739922  0.436800  0.965559  1
  Cu  Cu24  1  0.146188  0.750000  0.677927  1
  Tc  Tc25  1  0.936376  0.750000  0.449392  1
  Tc  Tc26  1  0.428449  0.250000  0.058221  1
  Tc  Tc27  1  0.074094  0.250000  0.560833  1
  Tc  Tc28  1  0.570278  0.750000  0.936362  1
  Tc  Tc29  1  0.355374  0.750000  0.181582  1
  Tc  Tc30  1  0.857927  0.250000  0.318872  1
  Tc  Tc31  1  0.644236  0.250000  0.817821  1
