# generated using pymatgen
data_Cs5Rb3Lu4Si16(O10F)4
_symmetry_space_group_name_H-M   'P 1'
_cell_length_a   8.63635900
_cell_length_b   11.80032420
_cell_length_c   11.94651500
_cell_angle_alpha   68.26337104
_cell_angle_beta   90.00000000
_cell_angle_gamma   90.00000000
_symmetry_Int_Tables_number   1
_chemical_formula_structural   Cs5Rb3Lu4Si16(O10F)4
_chemical_formula_sum   'Cs5 Rb3 Lu4 Si16 O40 F4'
_cell_volume   1130.92278421
_cell_formula_units_Z   1
loop_
 _symmetry_equiv_pos_site_id
 _symmetry_equiv_pos_as_xyz
  1  'x, y, z'
loop_
 _atom_site_type_symbol
 _atom_site_label
 _atom_site_symmetry_multiplicity
 _atom_site_fract_x
 _atom_site_fract_y
 _atom_site_fract_z
 _atom_site_occupancy
  Cs  Cs0  1  0.750000  0.549216  0.546850  1
  Cs  Cs1  1  0.250000  0.450567  0.453532  1
  Cs  Cs2  1  0.250000  0.918900  0.077679  1
  Cs  Cs3  1  0.750000  0.081265  0.921710  1
  Cs  Cs4  1  0.750000  0.000586  0.531390  1
  Rb  Rb5  1  0.250000  0.000878  0.469450  1
  Rb  Rb6  1  0.250000  0.534949  0.031510  1
  Rb  Rb7  1  0.750000  0.465367  0.967990  1
  Lu  Lu8  1  0.004916  0.704801  0.709608  1
  Lu  Lu9  1  0.503282  0.295161  0.290342  1
  Lu  Lu10  1  0.996718  0.295161  0.290342  1
  Lu  Lu11  1  0.495084  0.704801  0.709608  1
  Si  Si12  1  0.937609  0.613361  0.227993  1
  Si  Si13  1  0.437553  0.386595  0.772057  1
  Si  Si14  1  0.062447  0.386595  0.772057  1
  Si  Si15  1  0.562391  0.613361  0.227993  1
  Si  Si16  1  0.070584  0.978600  0.754249  1
  Si  Si17  1  0.568135  0.021995  0.245632  1
  Si  Si18  1  0.931865  0.021995  0.245632  1
  Si  Si19  1  0.429416  0.978600  0.754249  1
  Si  Si20  1  0.433974  0.758301  0.384254  1
  Si  Si21  1  0.934102  0.241568  0.615635  1
  Si  Si22  1  0.565898  0.241568  0.615635  1
  Si  Si23  1  0.066026  0.758301  0.384254  1
  Si  Si24  1  0.932285  0.771400  0.962000  1
  Si  Si25  1  0.432270  0.228631  0.037894  1
  Si  Si26  1  0.067730  0.228631  0.037894  1
  Si  Si27  1  0.567715  0.771400  0.962000  1
  O  O28  1  0.750000  0.599124  0.222543  1
  O  O29  1  0.250000  0.400702  0.777438  1
  O  O30  1  0.750000  0.267381  0.633087  1
  O  O31  1  0.250000  0.732113  0.366831  1
  O  O32  1  0.995002  0.723672  0.102497  1
  O  O33  1  0.495114  0.276424  0.897466  1
  O  O34  1  0.004886  0.276424  0.897466  1
  O  O35  1  0.504998  0.723672  0.102497  1
  O  O36  1  0.973761  0.660048  0.339791  1
  O  O37  1  0.474001  0.339585  0.660541  1
  O  O38  1  0.025999  0.339585  0.660541  1
  O  O39  1  0.526239  0.660048  0.339791  1
  O  O40  1  0.250000  0.025030  0.752016  1
  O  O41  1  0.750000  0.979447  0.250607  1
  O  O42  1  0.964111  0.102620  0.713612  1
  O  O43  1  0.464747  0.896572  0.285411  1
  O  O44  1  0.035253  0.896572  0.285411  1
  O  O45  1  0.535889  0.102620  0.713612  1
  O  O46  1  0.023833  0.903211  0.897123  1
  O  O47  1  0.524192  0.096761  0.102103  1
  O  O48  1  0.975808  0.096761  0.102103  1
  O  O49  1  0.476167  0.903211  0.897123  1
  O  O50  1  0.750000  0.810082  0.962785  1
  O  O51  1  0.250000  0.189960  0.037196  1
  O  O52  1  0.025466  0.489067  0.245584  1
  O  O53  1  0.525010  0.511100  0.754163  1
  O  O54  1  0.974990  0.511100  0.754163  1
  O  O55  1  0.474534  0.489067  0.245584  1
  O  O56  1  0.039521  0.899360  0.673628  1
  O  O57  1  0.527847  0.100487  0.325397  1
  O  O58  1  0.972153  0.100487  0.325397  1
  O  O59  1  0.460479  0.899360  0.673628  1
  O  O60  1  0.965126  0.675888  0.899358  1
  O  O61  1  0.465096  0.324392  0.100284  1
  O  O62  1  0.034904  0.324392  0.100284  1
  O  O63  1  0.534874  0.675888  0.899358  1
  O  O64  1  0.021145  0.742947  0.518080  1
  O  O65  1  0.520428  0.257918  0.481662  1
  O  O66  1  0.979572  0.257918  0.481662  1
  O  O67  1  0.478855  0.742947  0.518080  1
  F  F68  1  0.750000  0.726433  0.684686  1
  F  F69  1  0.250000  0.270262  0.318243  1
  F  F70  1  0.250000  0.680767  0.744437  1
  F  F71  1  0.750000  0.316046  0.257290  1
