# generated using pymatgen
data_Y12Al12VFe7O48
_symmetry_space_group_name_H-M   'P 1'
_cell_length_a   10.64158395
_cell_length_b   10.63982150
_cell_length_c   10.63145700
_cell_angle_alpha   109.51317747
_cell_angle_beta   109.42582287
_cell_angle_gamma   109.49265843
_symmetry_Int_Tables_number   1
_chemical_formula_structural   Y12Al12VFe7O48
_chemical_formula_sum   'Y12 Al12 V1 Fe7 O48'
_cell_volume   926.43469289
_cell_formula_units_Z   1
loop_
 _symmetry_equiv_pos_site_id
 _symmetry_equiv_pos_as_xyz
  1  'x, y, z'
loop_
 _atom_site_type_symbol
 _atom_site_label
 _atom_site_symmetry_multiplicity
 _atom_site_fract_x
 _atom_site_fract_y
 _atom_site_fract_z
 _atom_site_occupancy
  Y  Y0  1  0.250014  0.375188  0.124877  1
  Y  Y1  1  0.375505  0.750301  0.124912  1
  Y  Y2  1  0.875172  0.625011  0.250123  1
  Y  Y3  1  0.374723  0.124851  0.250154  1
  Y  Y4  1  0.125073  0.250032  0.374965  1
  Y  Y5  1  0.750036  0.124498  0.375110  1
  Y  Y6  1  0.874923  0.749969  0.625031  1
  Y  Y7  1  0.249958  0.875510  0.624878  1
  Y  Y8  1  0.124825  0.374989  0.749868  1
  Y  Y9  1  0.625279  0.875148  0.749843  1
  Y  Y10  1  0.624504  0.249714  0.875089  1
  Y  Y11  1  0.749986  0.624802  0.875125  1
  Al  Al12  1  0.750302  0.875015  0.125315  1
  Al  Al13  1  0.875131  0.250083  0.124971  1
  Al  Al14  1  0.624917  0.375006  0.249710  1
  Al  Al15  1  0.125105  0.874938  0.250062  1
  Al  Al16  1  0.625057  0.750030  0.375072  1
  Al  Al17  1  0.250102  0.625042  0.375109  1
  Al  Al18  1  0.749901  0.374957  0.624891  1
  Al  Al19  1  0.374941  0.249974  0.624920  1
  Al  Al20  1  0.874902  0.125063  0.749937  1
  Al  Al21  1  0.375084  0.624991  0.750281  1
  Al  Al22  1  0.124865  0.749910  0.875026  1
  Al  Al23  1  0.249693  0.124986  0.874686  1
  V  V24  1  0.499954  0.999922  0.999885  1
  Fe  Fe25  1  0.999919  0.999908  0.000001  1
  Fe  Fe26  1  0.000185  0.499963  0.000043  1
  Fe  Fe27  1  0.499834  0.499987  0.999994  1
  Fe  Fe28  1  0.000086  0.000121  0.500071  1
  Fe  Fe29  1  0.500005  0.499980  0.499908  1
  Fe  Fe30  1  0.499967  0.999950  0.500073  1
  Fe  Fe31  1  0.000042  0.500125  0.500122  1
  O  O32  1  0.314359  0.900745  0.024300  1
  O  O33  1  0.208993  0.122993  0.024083  1
  O  O34  1  0.708912  0.684843  0.085926  1
  O  O35  1  0.877138  0.401110  0.086114  1
  O  O36  1  0.975896  0.684907  0.098997  1
  O  O37  1  0.623087  0.414217  0.098867  1
  O  O38  1  0.599518  0.913002  0.124176  1
  O  O39  1  0.023842  0.208737  0.122857  1
  O  O40  1  0.208839  0.585985  0.184930  1
  O  O41  1  0.476071  0.598732  0.185134  1
  O  O42  1  0.585597  0.184756  0.207972  1
  O  O43  1  0.122885  0.023878  0.209028  1
  O  O44  1  0.315051  0.913991  0.291265  1
  O  O45  1  0.476274  0.376858  0.291166  1
  O  O46  1  0.901661  0.024069  0.315296  1
  O  O47  1  0.913798  0.290781  0.315040  1
  O  O48  1  0.586008  0.901022  0.377490  1
  O  O49  1  0.291130  0.475939  0.376868  1
  O  O50  1  0.814981  0.523492  0.400867  1
  O  O51  1  0.086150  0.877216  0.401276  1
  O  O52  1  0.098888  0.622800  0.413845  1
  O  O53  1  0.815002  0.790866  0.414029  1
  O  O54  1  0.598882  0.184892  0.475607  1
  O  O55  1  0.377083  0.291172  0.475977  1
  O  O56  1  0.622912  0.708833  0.524018  1
  O  O57  1  0.401117  0.815107  0.524387  1
  O  O58  1  0.185010  0.209140  0.585978  1
  O  O59  1  0.901113  0.377206  0.586161  1
  O  O60  1  0.913856  0.122795  0.598728  1
  O  O61  1  0.185016  0.476505  0.599133  1
  O  O62  1  0.413992  0.098981  0.622505  1
  O  O63  1  0.708874  0.524063  0.623129  1
  O  O64  1  0.086204  0.709229  0.684968  1
  O  O65  1  0.098334  0.975930  0.684701  1
  O  O66  1  0.684951  0.086010  0.708731  1
  O  O67  1  0.523737  0.623147  0.708829  1
  O  O68  1  0.414390  0.815236  0.792003  1
  O  O69  1  0.877115  0.976120  0.790974  1
  O  O70  1  0.523920  0.401272  0.814875  1
  O  O71  1  0.791182  0.414021  0.815082  1
  O  O72  1  0.976154  0.791260  0.877140  1
  O  O73  1  0.400477  0.086997  0.875804  1
  O  O74  1  0.024114  0.315079  0.900999  1
  O  O75  1  0.376903  0.585792  0.901126  1
  O  O76  1  0.291070  0.315148  0.914066  1
  O  O77  1  0.122873  0.598888  0.913881  1
  O  O78  1  0.685640  0.099254  0.975687  1
  O  O79  1  0.791005  0.877009  0.975922  1
