# generated using pymatgen
data_Sc12InCo2TcNi2
_symmetry_space_group_name_H-M   'P 1'
_cell_length_a   7.74627499
_cell_length_b   7.74627504
_cell_length_c   7.74627532
_cell_angle_alpha   111.18927464
_cell_angle_beta   110.74020496
_cell_angle_gamma   106.52411010
_symmetry_Int_Tables_number   1
_chemical_formula_structural   Sc12InCo2TcNi2
_chemical_formula_sum   'Sc12 In1 Co2 Tc1 Ni2'
_cell_volume   357.10244094
_cell_formula_units_Z   1
loop_
 _symmetry_equiv_pos_site_id
 _symmetry_equiv_pos_as_xyz
  1  'x, y, z'
loop_
 _atom_site_type_symbol
 _atom_site_label
 _atom_site_symmetry_multiplicity
 _atom_site_fract_x
 _atom_site_fract_y
 _atom_site_fract_z
 _atom_site_occupancy
  Sc  Sc0  1  0.422278  0.228384  0.193893  1
  Sc  Sc1  1  0.577722  0.771616  0.806107  1
  Sc  Sc2  1  0.034492  0.228384  0.806107  1
  Sc  Sc3  1  0.965508  0.771616  0.193893  1
  Sc  Sc4  1  0.313952  0.616471  0.302519  1
  Sc  Sc5  1  0.686048  0.383529  0.697481  1
  Sc  Sc6  1  0.313952  0.011431  0.697481  1
  Sc  Sc7  1  0.686048  0.988569  0.302519  1
  Sc  Sc8  1  0.182461  0.278874  0.461336  1
  Sc  Sc9  1  0.817539  0.721125  0.538664  1
  Sc  Sc10  1  0.182461  0.721125  0.903587  1
  Sc  Sc11  1  0.817539  0.278874  0.096413  1
  In  In12  1  0.500000  0.500000  0.000000  1
  Co  Co13  1  0.119345  0.619345  0.500000  1
  Co  Co14  1  0.880655  0.380655  0.500000  1
  Tc  Tc15  1  0.000000  0.000000  0.000000  1
  Ni  Ni16  1  0.358337  0.000000  0.358337  1
  Ni  Ni17  1  0.641663  0.000000  0.641663  1
