# generated using pymatgen
data_Pr3NdY2CoBr10
_symmetry_space_group_name_H-M   'P 1'
_cell_length_a   7.52588702
_cell_length_b   9.40693898
_cell_length_c   9.56203156
_cell_angle_alpha   108.48478563
_cell_angle_beta   95.40544906
_cell_angle_gamma   104.87249063
_symmetry_Int_Tables_number   1
_chemical_formula_structural   Pr3NdY2CoBr10
_chemical_formula_sum   'Pr3 Nd1 Y2 Co1 Br10'
_cell_volume   609.02589717
_cell_formula_units_Z   1
loop_
 _symmetry_equiv_pos_site_id
 _symmetry_equiv_pos_as_xyz
  1  'x, y, z'
loop_
 _atom_site_type_symbol
 _atom_site_label
 _atom_site_symmetry_multiplicity
 _atom_site_fract_x
 _atom_site_fract_y
 _atom_site_fract_z
 _atom_site_occupancy
  Pr  Pr0  1  0.466781  0.786796  0.591036  1
  Pr  Pr1  1  0.533095  0.213206  0.407580  1
  Pr  Pr2  1  0.367408  0.450692  0.747168  1
  Nd  Nd3  1  0.632303  0.549126  0.254491  1
  Y  Y4  1  0.850850  0.626916  0.671053  1
  Y  Y5  1  0.149015  0.373215  0.328928  1
  Co  Co6  1  0.500053  0.499886  0.499635  1
  Br  Br7  1  0.413371  0.130432  0.671636  1
  Br  Br8  1  0.587139  0.867531  0.326607  1
  Br  Br9  1  0.048009  0.674754  0.419014  1
  Br  Br10  1  0.950105  0.324822  0.580555  1
  Br  Br11  1  0.257418  0.748923  0.841022  1
  Br  Br12  1  0.742225  0.253406  0.158853  1
  Br  Br13  1  0.252539  0.418383  0.058263  1
  Br  Br14  1  0.750280  0.581782  0.944288  1
  Br  Br15  1  0.853355  0.939169  0.766914  1
  Br  Br16  1  0.146054  0.060960  0.232957  1
