# generated using pymatgen
data_Lu2Ga4CuPd
_symmetry_space_group_name_H-M   'P 1'
_cell_length_a   5.45361006
_cell_length_b   5.45360954
_cell_length_c   6.57458300
_cell_angle_alpha   90.00000000
_cell_angle_beta   90.00000000
_cell_angle_gamma   133.51564198
_symmetry_Int_Tables_number   1
_chemical_formula_structural   Lu2Ga4CuPd
_chemical_formula_sum   'Lu2 Ga4 Cu1 Pd1'
_cell_volume   141.80318907
_cell_formula_units_Z   1
loop_
 _symmetry_equiv_pos_site_id
 _symmetry_equiv_pos_as_xyz
  1  'x, y, z'
loop_
 _atom_site_type_symbol
 _atom_site_label
 _atom_site_symmetry_multiplicity
 _atom_site_fract_x
 _atom_site_fract_y
 _atom_site_fract_z
 _atom_site_occupancy
  Lu  Lu0  1  0.584160  0.415840  0.250000  1
  Lu  Lu1  1  0.416035  0.583965  0.750000  1
  Ga  Ga2  1  0.871874  0.128126  0.445341  1
  Ga  Ga3  1  0.128802  0.871198  0.546809  1
  Ga  Ga4  1  0.871874  0.128126  0.054659  1
  Ga  Ga5  1  0.128802  0.871198  0.953191  1
  Cu  Cu6  1  0.295719  0.704281  0.250000  1
  Pd  Pd7  1  0.702736  0.297264  0.750000  1
