# generated using pymatgen
data_Zr6VCo17P12
_symmetry_space_group_name_H-M   'P 1'
_cell_length_a   3.62338400
_cell_length_b   10.32213500
_cell_length_c   11.95281100
_cell_angle_alpha   90.00000000
_cell_angle_beta   90.00000000
_cell_angle_gamma   90.00000000
_symmetry_Int_Tables_number   1
_chemical_formula_structural   Zr6VCo17P12
_chemical_formula_sum   'Zr6 V1 Co17 P12'
_cell_volume   447.04778709
_cell_formula_units_Z   1
loop_
 _symmetry_equiv_pos_site_id
 _symmetry_equiv_pos_as_xyz
  1  'x, y, z'
loop_
 _atom_site_type_symbol
 _atom_site_label
 _atom_site_symmetry_multiplicity
 _atom_site_fract_x
 _atom_site_fract_y
 _atom_site_fract_z
 _atom_site_occupancy
  Zr  Zr0  1  0.000000  0.500000  0.527927  1
  Zr  Zr1  1  0.500000  0.000000  0.474205  1
  Zr  Zr2  1  0.500000  0.820415  0.208085  1
  Zr  Zr3  1  0.500000  0.179585  0.208085  1
  Zr  Zr4  1  0.000000  0.678570  0.794133  1
  Zr  Zr5  1  0.000000  0.321430  0.794133  1
  V  V6  1  0.500000  0.500000  0.157166  1
  Co  Co7  1  0.000000  0.000000  0.835960  1
  Co  Co8  1  0.500000  0.500000  0.702180  1
  Co  Co9  1  0.000000  0.000000  0.296974  1
  Co  Co10  1  0.000000  0.500000  0.988020  1
  Co  Co11  1  0.500000  0.000000  0.013892  1
  Co  Co12  1  0.500000  0.331913  0.992056  1
  Co  Co13  1  0.500000  0.668087  0.992056  1
  Co  Co14  1  0.000000  0.166556  0.006133  1
  Co  Co15  1  0.000000  0.833444  0.006133  1
  Co  Co16  1  0.500000  0.298914  0.432697  1
  Co  Co17  1  0.500000  0.701086  0.432697  1
  Co  Co18  1  0.000000  0.200502  0.567430  1
  Co  Co19  1  0.000000  0.799498  0.567430  1
  Co  Co20  1  0.500000  0.876209  0.707329  1
  Co  Co21  1  0.500000  0.123791  0.707329  1
  Co  Co22  1  0.000000  0.623047  0.293242  1
  Co  Co23  1  0.000000  0.376953  0.293242  1
  P  P24  1  0.500000  0.500000  0.878818  1
  P  P25  1  0.000000  0.000000  0.120710  1
  P  P26  1  0.500000  0.500000  0.354192  1
  P  P27  1  0.000000  0.000000  0.649270  1
  P  P28  1  0.500000  0.316027  0.617668  1
  P  P29  1  0.500000  0.683973  0.617668  1
  P  P30  1  0.000000  0.183214  0.383120  1
  P  P31  1  0.000000  0.816786  0.383120  1
  P  P32  1  0.500000  0.847016  0.888670  1
  P  P33  1  0.500000  0.152984  0.888670  1
  P  P34  1  0.000000  0.658372  0.109783  1
  P  P35  1  0.000000  0.341628  0.109783  1
