# generated using pymatgen
data_Nd6CdHg9
_symmetry_space_group_name_H-M   'P 1'
_cell_length_a   6.53754745
_cell_length_b   6.53754919
_cell_length_c   10.59427000
_cell_angle_alpha   90.00000000
_cell_angle_beta   90.00000000
_cell_angle_gamma   106.29671772
_symmetry_Int_Tables_number   1
_chemical_formula_structural   Nd6CdHg9
_chemical_formula_sum   'Nd6 Cd1 Hg9'
_cell_volume   434.60155420
_cell_formula_units_Z   1
loop_
 _symmetry_equiv_pos_site_id
 _symmetry_equiv_pos_as_xyz
  1  'x, y, z'
loop_
 _atom_site_type_symbol
 _atom_site_label
 _atom_site_symmetry_multiplicity
 _atom_site_fract_x
 _atom_site_fract_y
 _atom_site_fract_z
 _atom_site_occupancy
  Nd  Nd0  1  0.579662  0.579662  0.250000  1
  Nd  Nd1  1  0.421290  0.421290  0.750000  1
  Nd  Nd2  1  0.206808  0.788914  0.501139  1
  Nd  Nd3  1  0.206808  0.788914  0.998861  1
  Nd  Nd4  1  0.788914  0.206808  0.501139  1
  Nd  Nd5  1  0.788914  0.206808  0.998861  1
  Cd  Cd6  1  0.007110  0.007109  0.250000  1
  Hg  Hg7  1  0.012597  0.012596  0.750000  1
  Hg  Hg8  1  0.292911  0.292911  0.030694  1
  Hg  Hg9  1  0.702011  0.702011  0.971134  1
  Hg  Hg10  1  0.292911  0.292911  0.469306  1
  Hg  Hg11  1  0.702011  0.702011  0.528866  1
  Hg  Hg12  1  0.485241  0.039209  0.250000  1
  Hg  Hg13  1  0.954857  0.518745  0.750000  1
  Hg  Hg14  1  0.518745  0.954857  0.750000  1
  Hg  Hg15  1  0.039209  0.485241  0.250000  1
