# generated using pymatgen
data_LiLuSc2(Co4P3)2
_symmetry_space_group_name_H-M   'P 1'
_cell_length_a   3.62731900
_cell_length_b   10.42714100
_cell_length_c   11.94728800
_cell_angle_alpha   90.00000000
_cell_angle_beta   90.00000000
_cell_angle_gamma   90.00000000
_symmetry_Int_Tables_number   1
_chemical_formula_structural   LiLuSc2(Co4P3)2
_chemical_formula_sum   'Li2 Lu2 Sc4 Co16 P12'
_cell_volume   451.87709685
_cell_formula_units_Z   2
loop_
 _symmetry_equiv_pos_site_id
 _symmetry_equiv_pos_as_xyz
  1  'x, y, z'
loop_
 _atom_site_type_symbol
 _atom_site_label
 _atom_site_symmetry_multiplicity
 _atom_site_fract_x
 _atom_site_fract_y
 _atom_site_fract_z
 _atom_site_occupancy
  Li  Li0  1  0.500000  0.500000  0.154011  1
  Li  Li1  1  0.000000  0.000000  0.845989  1
  Lu  Lu2  1  0.000000  0.500000  0.524916  1
  Lu  Lu3  1  0.500000  0.000000  0.475084  1
  Sc  Sc4  1  0.500000  0.820819  0.205469  1
  Sc  Sc5  1  0.500000  0.179181  0.205469  1
  Sc  Sc6  1  0.000000  0.679181  0.794531  1
  Sc  Sc7  1  0.000000  0.320819  0.794531  1
  Co  Co8  1  0.500000  0.500000  0.705356  1
  Co  Co9  1  0.000000  0.000000  0.294644  1
  Co  Co10  1  0.000000  0.500000  0.987121  1
  Co  Co11  1  0.500000  0.000000  0.012879  1
  Co  Co12  1  0.500000  0.332763  0.996794  1
  Co  Co13  1  0.500000  0.667237  0.996794  1
  Co  Co14  1  0.000000  0.167237  0.003206  1
  Co  Co15  1  0.000000  0.832763  0.003206  1
  Co  Co16  1  0.500000  0.296451  0.431106  1
  Co  Co17  1  0.500000  0.703549  0.431106  1
  Co  Co18  1  0.000000  0.203549  0.568894  1
  Co  Co19  1  0.000000  0.796451  0.568894  1
  Co  Co20  1  0.500000  0.876739  0.707400  1
  Co  Co21  1  0.500000  0.123261  0.707400  1
  Co  Co22  1  0.000000  0.623261  0.292600  1
  Co  Co23  1  0.000000  0.376739  0.292600  1
  P  P24  1  0.500000  0.500000  0.883382  1
  P  P25  1  0.000000  0.000000  0.116618  1
  P  P26  1  0.500000  0.500000  0.348006  1
  P  P27  1  0.000000  0.000000  0.651994  1
  P  P28  1  0.500000  0.312505  0.619178  1
  P  P29  1  0.500000  0.687495  0.619178  1
  P  P30  1  0.000000  0.187495  0.380822  1
  P  P31  1  0.000000  0.812505  0.380822  1
  P  P32  1  0.500000  0.840327  0.890310  1
  P  P33  1  0.500000  0.159673  0.890310  1
  P  P34  1  0.000000  0.659673  0.109690  1
  P  P35  1  0.000000  0.340327  0.109690  1
