# generated using pymatgen
data_Li3Er6Zn20P
_symmetry_space_group_name_H-M   'P 1'
_cell_length_a   9.01748922
_cell_length_b   9.01749348
_cell_length_c   9.04257400
_cell_angle_alpha   59.90777862
_cell_angle_beta   59.90794849
_cell_angle_gamma   59.85781467
_symmetry_Int_Tables_number   1
_chemical_formula_structural   Li3Er6Zn20P
_chemical_formula_sum   'Li3 Er6 Zn20 P1'
_cell_volume   518.65046190
_cell_formula_units_Z   1
loop_
 _symmetry_equiv_pos_site_id
 _symmetry_equiv_pos_as_xyz
  1  'x, y, z'
loop_
 _atom_site_type_symbol
 _atom_site_label
 _atom_site_symmetry_multiplicity
 _atom_site_fract_x
 _atom_site_fract_y
 _atom_site_fract_z
 _atom_site_occupancy
  Li  Li0  1  0.625713  0.125416  0.124409  1
  Li  Li1  1  0.125427  0.625696  0.124415  1
  Li  Li2  1  0.002718  0.002725  0.997291  1
  Er  Er3  1  0.712668  0.289436  0.289211  1
  Er  Er4  1  0.712667  0.289462  0.708661  1
  Er  Er5  1  0.709080  0.709059  0.290932  1
  Er  Er6  1  0.289457  0.712665  0.708664  1
  Er  Er7  1  0.289433  0.712673  0.289209  1
  Er  Er8  1  0.287302  0.287320  0.712699  1
  Zn  Zn9  1  0.123137  0.123133  0.630848  1
  Zn  Zn10  1  0.123133  0.123136  0.122897  1
  Zn  Zn11  1  0.370143  0.872440  0.878710  1
  Zn  Zn12  1  0.872437  0.370143  0.878714  1
  Zn  Zn13  1  0.875492  0.875497  0.368569  1
  Zn  Zn14  1  0.875495  0.875500  0.880441  1
  Zn  Zn15  1  0.501005  0.001737  0.998533  1
  Zn  Zn16  1  0.501006  0.001742  0.498727  1
  Zn  Zn17  1  0.499495  0.499490  0.000510  1
  Zn  Zn18  1  0.001741  0.501006  0.498727  1
  Zn  Zn19  1  0.001737  0.501006  0.998532  1
  Zn  Zn20  1  0.000016  0.000018  0.499986  1
  Zn  Zn21  1  0.010729  0.331571  0.328854  1
  Zn  Zn22  1  0.331575  0.010724  0.328853  1
  Zn  Zn23  1  0.329878  0.329875  0.012646  1
  Zn  Zn24  1  0.329878  0.329876  0.327601  1
  Zn  Zn25  1  0.989288  0.670091  0.670313  1
  Zn  Zn26  1  0.670087  0.989294  0.670315  1
  Zn  Zn27  1  0.670349  0.670354  0.989596  1
  Zn  Zn28  1  0.670352  0.670355  0.669710  1
  P  P29  1  0.498560  0.498561  0.501426  1
