# generated using pymatgen
data_PrY2(P2Rh3)3
_symmetry_space_group_name_H-M   'P 1'
_cell_length_a   3.93764400
_cell_length_b   11.28038400
_cell_length_c   12.85971500
_cell_angle_alpha   90.00000000
_cell_angle_beta   90.00000000
_cell_angle_gamma   90.00000000
_symmetry_Int_Tables_number   1
_chemical_formula_structural   PrY2(P2Rh3)3
_chemical_formula_sum   'Pr2 Y4 P12 Rh18'
_cell_volume   571.20457462
_cell_formula_units_Z   2
loop_
 _symmetry_equiv_pos_site_id
 _symmetry_equiv_pos_as_xyz
  1  'x, y, z'
loop_
 _atom_site_type_symbol
 _atom_site_label
 _atom_site_symmetry_multiplicity
 _atom_site_fract_x
 _atom_site_fract_y
 _atom_site_fract_z
 _atom_site_occupancy
  Pr  Pr0  1  0.000000  0.500000  0.520503  1
  Pr  Pr1  1  0.500000  0.000000  0.479497  1
  Y  Y2  1  0.500000  0.815397  0.203919  1
  Y  Y3  1  0.500000  0.184603  0.203919  1
  Y  Y4  1  0.000000  0.684603  0.796081  1
  Y  Y5  1  0.000000  0.315397  0.796081  1
  P  P6  1  0.500000  0.500000  0.880188  1
  P  P7  1  0.000000  0.000000  0.119812  1
  P  P8  1  0.500000  0.500000  0.345690  1
  P  P9  1  0.000000  0.000000  0.654310  1
  P  P10  1  0.500000  0.313251  0.619743  1
  P  P11  1  0.500000  0.686749  0.619743  1
  P  P12  1  0.000000  0.186749  0.380257  1
  P  P13  1  0.000000  0.813251  0.380257  1
  P  P14  1  0.500000  0.845934  0.893507  1
  P  P15  1  0.500000  0.154066  0.893507  1
  P  P16  1  0.000000  0.654066  0.106493  1
  P  P17  1  0.000000  0.345934  0.106493  1
  Rh  Rh18  1  0.500000  0.500000  0.166568  1
  Rh  Rh19  1  0.000000  0.000000  0.833432  1
  Rh  Rh20  1  0.500000  0.500000  0.704570  1
  Rh  Rh21  1  0.000000  0.000000  0.295430  1
  Rh  Rh22  1  0.000000  0.500000  0.980398  1
  Rh  Rh23  1  0.500000  0.000000  0.019602  1
  Rh  Rh24  1  0.500000  0.334105  0.993788  1
  Rh  Rh25  1  0.500000  0.665895  0.993788  1
  Rh  Rh26  1  0.000000  0.165895  0.006212  1
  Rh  Rh27  1  0.000000  0.834105  0.006212  1
  Rh  Rh28  1  0.500000  0.291861  0.429091  1
  Rh  Rh29  1  0.500000  0.708139  0.429091  1
  Rh  Rh30  1  0.000000  0.208139  0.570909  1
  Rh  Rh31  1  0.000000  0.791861  0.570909  1
  Rh  Rh32  1  0.500000  0.872995  0.713032  1
  Rh  Rh33  1  0.500000  0.127005  0.713032  1
  Rh  Rh34  1  0.000000  0.627005  0.286968  1
  Rh  Rh35  1  0.000000  0.372995  0.286968  1
