# generated using pymatgen
data_Ce3Y(MgIr)4
_symmetry_space_group_name_H-M   'P 1'
_cell_length_a   7.11227560
_cell_length_b   4.07505400
_cell_length_c   8.74541369
_cell_angle_alpha   90.00000000
_cell_angle_beta   90.57874324
_cell_angle_gamma   90.00000000
_symmetry_Int_Tables_number   1
_chemical_formula_structural   Ce3Y(MgIr)4
_chemical_formula_sum   'Ce3 Y1 Mg4 Ir4'
_cell_volume   253.45458217
_cell_formula_units_Z   1
loop_
 _symmetry_equiv_pos_site_id
 _symmetry_equiv_pos_as_xyz
  1  'x, y, z'
loop_
 _atom_site_type_symbol
 _atom_site_label
 _atom_site_symmetry_multiplicity
 _atom_site_fract_x
 _atom_site_fract_y
 _atom_site_fract_z
 _atom_site_occupancy
  Ce  Ce0  1  0.461437  0.250000  0.313083  1
  Ce  Ce1  1  0.037695  0.750000  0.823539  1
  Ce  Ce2  1  0.535128  0.750000  0.681181  1
  Y  Y3  1  0.958246  0.250000  0.180404  1
  Mg  Mg4  1  0.864947  0.250000  0.555477  1
  Mg  Mg5  1  0.367077  0.250000  0.945090  1
  Mg  Mg6  1  0.130591  0.750000  0.440626  1
  Mg  Mg7  1  0.639301  0.750000  0.056440  1
  Ir  Ir8  1  0.758779  0.250000  0.861847  1
  Ir  Ir9  1  0.256602  0.250000  0.636679  1
  Ir  Ir10  1  0.252878  0.750000  0.135345  1
  Ir  Ir11  1  0.737317  0.750000  0.370292  1
