# generated using pymatgen
data_UBe12Co
_symmetry_space_group_name_H-M   'P 1'
_cell_length_a   7.19425483
_cell_length_b   7.26550184
_cell_length_c   7.23277968
_cell_angle_alpha   59.49919110
_cell_angle_beta   60.47665234
_cell_angle_gamma   60.02414013
_symmetry_Int_Tables_number   1
_chemical_formula_structural   UBe12Co
_chemical_formula_sum   'U2 Be24 Co2'
_cell_volume   267.28731134
_cell_formula_units_Z   2
loop_
 _symmetry_equiv_pos_site_id
 _symmetry_equiv_pos_as_xyz
  1  'x, y, z'
loop_
 _atom_site_type_symbol
 _atom_site_label
 _atom_site_symmetry_multiplicity
 _atom_site_fract_x
 _atom_site_fract_y
 _atom_site_fract_z
 _atom_site_occupancy
  U  U0  1  0.757435  0.757435  0.742565  1
  U  U1  1  0.257435  0.257435  0.242565  1
  Be  Be2  1  0.995600  0.995600  0.004400  1
  Be  Be3  1  0.502832  0.502832  0.497168  1
  Be  Be4  1  0.937723  0.291892  0.062277  1
  Be  Be5  1  0.788827  0.433953  0.566047  1
  Be  Be6  1  0.433953  0.788827  0.211173  1
  Be  Be7  1  0.213283  0.432365  0.786717  1
  Be  Be8  1  0.790212  0.562228  0.209788  1
  Be  Be9  1  0.439263  0.560754  0.790784  1
  Be  Be10  1  0.209216  0.790802  0.560737  1
  Be  Be11  1  0.060647  0.942235  0.293474  1
  Be  Be12  1  0.296470  0.060037  0.939963  1
  Be  Be13  1  0.937375  0.707188  0.292812  1
  Be  Be14  1  0.942235  0.060647  0.703644  1
  Be  Be15  1  0.296356  0.706526  0.057765  1
  Be  Be16  1  0.707188  0.937375  0.062625  1
  Be  Be17  1  0.706526  0.296356  0.939353  1
  Be  Be18  1  0.060037  0.296470  0.703530  1
  Be  Be19  1  0.562228  0.790212  0.437772  1
  Be  Be20  1  0.562569  0.210139  0.789861  1
  Be  Be21  1  0.790802  0.209216  0.439246  1
  Be  Be22  1  0.560754  0.439263  0.209198  1
  Be  Be23  1  0.210139  0.562569  0.437431  1
  Be  Be24  1  0.432365  0.213283  0.567635  1
  Be  Be25  1  0.291892  0.937723  0.708108  1
  Co  Co26  1  0.695997  0.060643  0.304003  1
  Co  Co27  1  0.060643  0.695997  0.939357  1
