# generated using pymatgen
data_Dy17Ho3(Ir2Ru)4
_symmetry_space_group_name_H-M   'P 1'
_cell_length_a   10.82841100
_cell_length_b   10.82841100
_cell_length_c   6.43335000
_cell_angle_alpha   90.00000000
_cell_angle_beta   90.00000000
_cell_angle_gamma   90.00000000
_symmetry_Int_Tables_number   1
_chemical_formula_structural   Dy17Ho3(Ir2Ru)4
_chemical_formula_sum   'Dy17 Ho3 Ir8 Ru4'
_cell_volume   754.33913969
_cell_formula_units_Z   1
loop_
 _symmetry_equiv_pos_site_id
 _symmetry_equiv_pos_as_xyz
  1  'x, y, z'
loop_
 _atom_site_type_symbol
 _atom_site_label
 _atom_site_symmetry_multiplicity
 _atom_site_fract_x
 _atom_site_fract_y
 _atom_site_fract_z
 _atom_site_occupancy
  Dy  Dy0  1  0.293355  0.086662  0.377698  1
  Dy  Dy1  1  0.293300  0.913358  0.877761  1
  Dy  Dy2  1  0.706700  0.086642  0.877761  1
  Dy  Dy3  1  0.706645  0.913338  0.377698  1
  Dy  Dy4  1  0.586616  0.793213  0.877663  1
  Dy  Dy5  1  0.586609  0.206812  0.377660  1
  Dy  Dy6  1  0.413391  0.793188  0.377660  1
  Dy  Dy7  1  0.413384  0.206787  0.877663  1
  Dy  Dy8  1  0.206812  0.413391  0.622340  1
  Dy  Dy9  1  0.206787  0.586616  0.122337  1
  Dy  Dy10  1  0.793213  0.413384  0.122337  1
  Dy  Dy11  1  0.793188  0.586609  0.622340  1
  Dy  Dy12  1  0.913358  0.706700  0.122239  1
  Dy  Dy13  1  0.913338  0.293355  0.622302  1
  Dy  Dy14  1  0.086662  0.706645  0.622302  1
  Dy  Dy15  1  0.086642  0.293300  0.122239  1
  Dy  Dy16  1  0.000000  0.000000  0.500000  1
  Ho  Ho17  1  0.000000  0.000000  0.000000  1
  Ho  Ho18  1  0.500000  0.500000  0.000000  1
  Ho  Ho19  1  0.500000  0.500000  0.500000  1
  Ir  Ir20  1  0.847745  0.152222  0.249734  1
  Ir  Ir21  1  0.847778  0.847745  0.750266  1
  Ir  Ir22  1  0.152222  0.152255  0.750266  1
  Ir  Ir23  1  0.152255  0.847778  0.249734  1
  Ir  Ir24  1  0.652120  0.347913  0.749994  1
  Ir  Ir25  1  0.652087  0.652120  0.250006  1
  Ir  Ir26  1  0.347913  0.347880  0.250006  1
  Ir  Ir27  1  0.347880  0.652087  0.749994  1
  Ru  Ru28  1  0.500000  0.000000  0.121534  1
  Ru  Ru29  1  0.500000  0.000000  0.621620  1
  Ru  Ru30  1  0.000000  0.500000  0.878466  1
  Ru  Ru31  1  0.000000  0.500000  0.378380  1
