# generated using pymatgen
data_ErTh(AlRh)2
_symmetry_space_group_name_H-M   'P 1'
_cell_length_a   4.18054900
_cell_length_b   7.12204100
_cell_length_c   15.98341100
_cell_angle_alpha   90.00000000
_cell_angle_beta   90.00000000
_cell_angle_gamma   90.00000000
_symmetry_Int_Tables_number   1
_chemical_formula_structural   ErTh(AlRh)2
_chemical_formula_sum   'Er4 Th4 Al8 Rh8'
_cell_volume   475.89074052
_cell_formula_units_Z   4
loop_
 _symmetry_equiv_pos_site_id
 _symmetry_equiv_pos_as_xyz
  1  'x, y, z'
loop_
 _atom_site_type_symbol
 _atom_site_label
 _atom_site_symmetry_multiplicity
 _atom_site_fract_x
 _atom_site_fract_y
 _atom_site_fract_z
 _atom_site_occupancy
  Er  Er0  1  0.250000  0.157581  0.558870  1
  Er  Er1  1  0.750000  0.842419  0.441130  1
  Er  Er2  1  0.250000  0.657581  0.941130  1
  Er  Er3  1  0.750000  0.342419  0.058870  1
  Th  Th4  1  0.250000  0.034653  0.779531  1
  Th  Th5  1  0.750000  0.965347  0.220469  1
  Th  Th6  1  0.250000  0.534653  0.720469  1
  Th  Th7  1  0.750000  0.465347  0.279531  1
  Al  Al8  1  0.250000  0.134460  0.356052  1
  Al  Al9  1  0.750000  0.865540  0.643948  1
  Al  Al10  1  0.250000  0.634460  0.143948  1
  Al  Al11  1  0.750000  0.365540  0.856052  1
  Al  Al12  1  0.250000  0.005976  0.059305  1
  Al  Al13  1  0.750000  0.994024  0.940695  1
  Al  Al14  1  0.250000  0.505976  0.440695  1
  Al  Al15  1  0.750000  0.494024  0.559305  1
  Rh  Rh16  1  0.750000  0.268784  0.430890  1
  Rh  Rh17  1  0.250000  0.731216  0.569110  1
  Rh  Rh18  1  0.750000  0.768784  0.069110  1
  Rh  Rh19  1  0.250000  0.231216  0.930890  1
  Rh  Rh20  1  0.750000  0.745429  0.815470  1
  Rh  Rh21  1  0.250000  0.254571  0.184530  1
  Rh  Rh22  1  0.750000  0.245429  0.684530  1
  Rh  Rh23  1  0.250000  0.754571  0.315470  1
