# generated using pymatgen
data_Cs8Nb3VCl24
_symmetry_space_group_name_H-M   'P 1'
_cell_length_a   12.80108186
_cell_length_b   12.80108162
_cell_length_c   12.80108200
_cell_angle_alpha   132.09777491
_cell_angle_beta   132.09777997
_cell_angle_gamma   70.07464416
_symmetry_Int_Tables_number   1
_chemical_formula_structural   Cs8Nb3VCl24
_chemical_formula_sum   'Cs8 Nb3 V1 Cl24'
_cell_volume   1132.20838262
_cell_formula_units_Z   1
loop_
 _symmetry_equiv_pos_site_id
 _symmetry_equiv_pos_as_xyz
  1  'x, y, z'
loop_
 _atom_site_type_symbol
 _atom_site_label
 _atom_site_symmetry_multiplicity
 _atom_site_fract_x
 _atom_site_fract_y
 _atom_site_fract_z
 _atom_site_occupancy
  Cs  Cs0  1  0.640679  0.638623  0.520164  1
  Cs  Cs1  1  0.879486  0.359321  0.997945  1
  Cs  Cs2  1  0.118459  0.120514  0.479836  1
  Cs  Cs3  1  0.361377  0.881541  0.002055  1
  Cs  Cs4  1  0.118459  0.638623  0.997945  1
  Cs  Cs5  1  0.879486  0.881541  0.520164  1
  Cs  Cs6  1  0.361377  0.359321  0.479836  1
  Cs  Cs7  1  0.640679  0.120514  0.002055  1
  Nb  Nb8  1  0.250000  0.750000  0.500000  1
  Nb  Nb9  1  0.500000  0.500000  0.000000  1
  Nb  Nb10  1  0.750000  0.250000  0.500000  1
  V  V11  1  0.000000  0.000000  0.000000  1
  Cl  Cl12  1  0.114730  0.114730  0.000000  1
  Cl  Cl13  1  0.481310  0.748533  0.732776  1
  Cl  Cl14  1  0.866048  0.366048  0.500000  1
  Cl  Cl15  1  0.984676  0.251623  0.733054  1
  Cl  Cl16  1  0.885270  0.885270  0.000000  1
  Cl  Cl17  1  0.251467  0.984242  0.732776  1
  Cl  Cl18  1  0.267069  0.500300  0.766770  1
  Cl  Cl19  1  0.499700  0.266470  0.766770  1
  Cl  Cl20  1  0.499700  0.732931  0.233230  1
  Cl  Cl21  1  0.518569  0.251623  0.266946  1
  Cl  Cl22  1  0.000632  0.771002  0.770370  1
  Cl  Cl23  1  0.251467  0.518690  0.267224  1
  Cl  Cl24  1  0.134203  0.634203  0.500000  1
  Cl  Cl25  1  0.733530  0.500300  0.233230  1
  Cl  Cl26  1  0.228998  0.999368  0.229630  1
  Cl  Cl27  1  0.748377  0.015324  0.266946  1
  Cl  Cl28  1  0.769739  0.999368  0.770370  1
  Cl  Cl29  1  0.633952  0.133952  0.500000  1
  Cl  Cl30  1  0.384454  0.384454  0.000000  1
  Cl  Cl31  1  0.615546  0.615546  0.000000  1
  Cl  Cl32  1  0.748377  0.481431  0.733054  1
  Cl  Cl33  1  0.015758  0.748533  0.267224  1
  Cl  Cl34  1  0.000632  0.230261  0.229630  1
  Cl  Cl35  1  0.365797  0.865797  0.500000  1
