# generated using pymatgen
data_Pr3UN4
_symmetry_space_group_name_H-M   'P 1'
_cell_length_a   6.25577895
_cell_length_b   6.25675631
_cell_length_c   5.11397116
_cell_angle_alpha   65.86632622
_cell_angle_beta   65.88630315
_cell_angle_gamma   48.24738263
_symmetry_Int_Tables_number   1
_chemical_formula_structural   Pr3UN4
_chemical_formula_sum   'Pr3 U1 N4'
_cell_volume   133.51852883
_cell_formula_units_Z   1
loop_
 _symmetry_equiv_pos_site_id
 _symmetry_equiv_pos_as_xyz
  1  'x, y, z'
loop_
 _atom_site_type_symbol
 _atom_site_label
 _atom_site_symmetry_multiplicity
 _atom_site_fract_x
 _atom_site_fract_y
 _atom_site_fract_z
 _atom_site_occupancy
  Pr  Pr0  1  0.747533  0.752467  0.752467  1
  Pr  Pr1  1  0.247533  0.252467  0.252467  1
  Pr  Pr2  1  0.498234  0.501766  0.501766  1
  U  U3  1  0.001699  0.998301  0.998301  1
  N  N4  1  0.998645  0.001355  0.515086  1
  N  N5  1  0.210215  0.212840  0.789785  1
  N  N6  1  0.484914  0.515086  0.001355  1
  N  N7  1  0.787160  0.789785  0.212840  1
