# generated using pymatgen
data_La10TlSi4Sn
_symmetry_space_group_name_H-M   'P 1'
_cell_length_a   8.04537400
_cell_length_b   9.30705890
_cell_length_c   8.04537400
_cell_angle_alpha   115.60846822
_cell_angle_beta   90.00000000
_cell_angle_gamma   115.60846822
_symmetry_Int_Tables_number   1
_chemical_formula_structural   La10TlSi4Sn
_chemical_formula_sum   'La10 Tl1 Si4 Sn1'
_cell_volume   476.78391523
_cell_formula_units_Z   1
loop_
 _symmetry_equiv_pos_site_id
 _symmetry_equiv_pos_as_xyz
  1  'x, y, z'
loop_
 _atom_site_type_symbol
 _atom_site_label
 _atom_site_symmetry_multiplicity
 _atom_site_fract_x
 _atom_site_fract_y
 _atom_site_fract_z
 _atom_site_occupancy
  La  La0  1  0.978885  0.957769  0.978885  1
  La  La1  1  0.521115  0.042231  0.521115  1
  La  La2  1  0.532459  0.722916  0.681303  1
  La  La3  1  0.190459  0.722916  0.041615  1
  La  La4  1  0.681303  0.722916  0.190459  1
  La  La5  1  0.041615  0.722916  0.532459  1
  La  La6  1  0.458385  0.277084  0.309541  1
  La  La7  1  0.818697  0.277084  0.967541  1
  La  La8  1  0.309541  0.277084  0.818697  1
  La  La9  1  0.967541  0.277084  0.458385  1
  Tl  Tl10  1  0.750000  0.500000  0.750000  1
  Si  Si11  1  0.885848  0.000000  0.614152  1
  Si  Si12  1  0.114152  0.000000  0.385848  1
  Si  Si13  1  0.614152  0.000000  0.114152  1
  Si  Si14  1  0.385848  0.000000  0.885848  1
  Sn  Sn15  1  0.250000  0.500000  0.250000  1
