# generated using pymatgen
data_DyHo19(Bi2Pt)4
_symmetry_space_group_name_H-M   'P 1'
_cell_length_a   8.04076305
_cell_length_b   9.02769700
_cell_length_c   12.33580608
_cell_angle_alpha   90.00000000
_cell_angle_beta   90.01282275
_cell_angle_gamma   90.00000000
_symmetry_Int_Tables_number   1
_chemical_formula_structural   DyHo19(Bi2Pt)4
_chemical_formula_sum   'Dy1 Ho19 Bi8 Pt4'
_cell_volume   895.45086676
_cell_formula_units_Z   1
loop_
 _symmetry_equiv_pos_site_id
 _symmetry_equiv_pos_as_xyz
  1  'x, y, z'
loop_
 _atom_site_type_symbol
 _atom_site_label
 _atom_site_symmetry_multiplicity
 _atom_site_fract_x
 _atom_site_fract_y
 _atom_site_fract_z
 _atom_site_occupancy
  Dy  Dy0  1  0.165863  0.750000  0.210882  1
  Ho  Ho1  1  0.334130  0.750000  0.710700  1
  Ho  Ho2  1  0.834102  0.250000  0.789272  1
  Ho  Ho3  1  0.665892  0.250000  0.289315  1
  Ho  Ho4  1  0.452985  0.750000  0.999822  1
  Ho  Ho5  1  0.047074  0.750000  0.499946  1
  Ho  Ho6  1  0.547165  0.250000  0.000109  1
  Ho  Ho7  1  0.952866  0.250000  0.500127  1
  Ho  Ho8  1  0.627990  0.750000  0.303479  1
  Ho  Ho9  1  0.872141  0.750000  0.803450  1
  Ho  Ho10  1  0.372118  0.250000  0.696543  1
  Ho  Ho11  1  0.127890  0.250000  0.196562  1
  Ho  Ho12  1  0.822167  0.548055  0.066432  1
  Ho  Ho13  1  0.677758  0.951870  0.566467  1
  Ho  Ho14  1  0.177778  0.048145  0.933507  1
  Ho  Ho15  1  0.322267  0.451816  0.433567  1
  Ho  Ho16  1  0.177778  0.451855  0.933507  1
  Ho  Ho17  1  0.322267  0.048184  0.433567  1
  Ho  Ho18  1  0.822167  0.951945  0.066432  1
  Ho  Ho19  1  0.677758  0.548130  0.566467  1
  Bi  Bi20  1  0.932251  0.509236  0.326938  1
  Bi  Bi21  1  0.567576  0.990613  0.826847  1
  Bi  Bi22  1  0.067590  0.009408  0.673159  1
  Bi  Bi23  1  0.432578  0.490472  0.173126  1
  Bi  Bi24  1  0.067590  0.490592  0.673159  1
  Bi  Bi25  1  0.432578  0.009528  0.173126  1
  Bi  Bi26  1  0.932251  0.990764  0.326938  1
  Bi  Bi27  1  0.567576  0.509387  0.826847  1
  Pt  Pt28  1  0.418285  0.750000  0.487476  1
  Pt  Pt29  1  0.081596  0.750000  0.987168  1
  Pt  Pt30  1  0.581700  0.250000  0.512539  1
  Pt  Pt31  1  0.918274  0.250000  0.012529  1
