# generated using pymatgen
data_Ac(NO3)3
_symmetry_space_group_name_H-M   'P 1'
_cell_length_a   4.62753800
_cell_length_b   6.16685998
_cell_length_c   11.57920107
_cell_angle_alpha   89.96028313
_cell_angle_beta   90.00000000
_cell_angle_gamma   90.00000000
_symmetry_Int_Tables_number   1
_chemical_formula_structural   Ac(NO3)3
_chemical_formula_sum   'Ac2 N6 O18'
_cell_volume   330.43996873
_cell_formula_units_Z   2
loop_
 _symmetry_equiv_pos_site_id
 _symmetry_equiv_pos_as_xyz
  1  'x, y, z'
loop_
 _atom_site_type_symbol
 _atom_site_label
 _atom_site_symmetry_multiplicity
 _atom_site_fract_x
 _atom_site_fract_y
 _atom_site_fract_z
 _atom_site_occupancy
  Ac  Ac0  1  0.498779  0.087993  0.249941  1
  Ac  Ac1  1  0.998779  0.912007  0.750059  1
  N  N2  1  0.498778  0.428777  0.750116  1
  N  N3  1  0.998778  0.571223  0.249884  1
  N  N4  1  0.887595  0.195973  0.027285  1
  N  N5  1  0.109915  0.196108  0.472475  1
  N  N6  1  0.387595  0.804027  0.972715  1
  N  N7  1  0.609915  0.803892  0.527525  1
  O  O8  1  0.499538  0.222438  0.749823  1
  O  O9  1  0.999538  0.777562  0.250177  1
  O  O10  1  0.727764  0.527578  0.776308  1
  O  O11  1  0.268944  0.526830  0.724221  1
  O  O12  1  0.227764  0.472422  0.223692  1
  O  O13  1  0.768944  0.473170  0.275779  1
  O  O14  1  0.640914  0.279732  0.038395  1
  O  O15  1  0.356790  0.279692  0.461376  1
  O  O16  1  0.140914  0.720268  0.961605  1
  O  O17  1  0.856790  0.720308  0.538624  1
  O  O18  1  0.002739  0.111261  0.118063  1
  O  O19  1  0.994511  0.111849  0.381623  1
  O  O20  1  0.502739  0.888739  0.881937  1
  O  O21  1  0.494511  0.888151  0.618377  1
  O  O22  1  0.017822  0.188222  0.932785  1
  O  O23  1  0.979657  0.188077  0.566981  1
  O  O24  1  0.517822  0.811778  0.067215  1
  O  O25  1  0.479657  0.811923  0.433019  1
