# generated using pymatgen
data_Mn2Ni(AsO4)2
_symmetry_space_group_name_H-M   'P 1'
_cell_length_a   10.97269856
_cell_length_b   5.00444000
_cell_length_c   6.27815123
_cell_angle_alpha   89.99997918
_cell_angle_beta   90.88490215
_cell_angle_gamma   89.99986888
_symmetry_Int_Tables_number   1
_chemical_formula_structural   Mn2Ni(AsO4)2
_chemical_formula_sum   'Mn4 Ni2 As4 O16'
_cell_volume   344.70605265
_cell_formula_units_Z   2
loop_
 _symmetry_equiv_pos_site_id
 _symmetry_equiv_pos_as_xyz
  1  'x, y, z'
loop_
 _atom_site_type_symbol
 _atom_site_label
 _atom_site_symmetry_multiplicity
 _atom_site_fract_x
 _atom_site_fract_y
 _atom_site_fract_z
 _atom_site_occupancy
  Mn  Mn0  1  0.777839  0.517207  0.238706  1
  Mn  Mn1  1  0.277840  0.982788  0.238708  1
  Mn  Mn2  1  0.722160  0.017210  0.761294  1
  Mn  Mn3  1  0.222161  0.482793  0.761294  1
  Ni  Ni4  1  0.000000  0.000000  0.500000  1
  Ni  Ni5  1  0.500001  0.500001  0.500002  1
  As  As6  1  0.592906  0.071371  0.262226  1
  As  As7  1  0.092905  0.428630  0.262225  1
  As  As8  1  0.907095  0.571370  0.737775  1
  As  As9  1  0.407094  0.928631  0.737774  1
  O  O10  1  0.681394  0.191066  0.060333  1
  O  O11  1  0.181394  0.308935  0.060333  1
  O  O12  1  0.948107  0.294214  0.264799  1
  O  O13  1  0.448108  0.205786  0.264801  1
  O  O14  1  0.099415  0.769716  0.279977  1
  O  O15  1  0.599415  0.730283  0.279978  1
  O  O16  1  0.156161  0.253151  0.482261  1
  O  O17  1  0.656162  0.246849  0.482263  1
  O  O18  1  0.343838  0.753150  0.517737  1
  O  O19  1  0.843838  0.746849  0.517738  1
  O  O20  1  0.400586  0.269717  0.720021  1
  O  O21  1  0.900586  0.230285  0.720023  1
  O  O22  1  0.551892  0.794216  0.735201  1
  O  O23  1  0.051893  0.705786  0.735201  1
  O  O24  1  0.818606  0.691065  0.939669  1
  O  O25  1  0.318606  0.808936  0.939667  1
