# generated using pymatgen
data_Th2Ga3SiIr6
_symmetry_space_group_name_H-M   'P 1'
_cell_length_a   6.81125366
_cell_length_b   6.80002157
_cell_length_c   6.81144848
_cell_angle_alpha   131.03295022
_cell_angle_beta   111.66549110
_cell_angle_gamma   88.59271260
_symmetry_Int_Tables_number   1
_chemical_formula_structural   Th2Ga3SiIr6
_chemical_formula_sum   'Th2 Ga3 Si1 Ir6'
_cell_volume   210.22186280
_cell_formula_units_Z   1
loop_
 _symmetry_equiv_pos_site_id
 _symmetry_equiv_pos_as_xyz
  1  'x, y, z'
loop_
 _atom_site_type_symbol
 _atom_site_label
 _atom_site_symmetry_multiplicity
 _atom_site_fract_x
 _atom_site_fract_y
 _atom_site_fract_z
 _atom_site_occupancy
  Th  Th0  1  0.252685  0.952493  0.700014  1
  Th  Th1  1  0.748034  0.036021  0.288072  1
  Ga  Ga2  1  0.086017  0.293134  0.207073  1
  Ga  Ga3  1  0.932581  0.726624  0.794011  1
  Ga  Ga4  1  0.402509  0.607133  0.204559  1
  Si  Si5  1  0.578007  0.369711  0.791689  1
  Ir  Ir6  1  0.517418  0.511831  0.531022  1
  Ir  Ir7  1  0.980750  0.512175  0.994709  1
  Ir  Ir8  1  0.288625  0.003459  0.284468  1
  Ir  Ir9  1  0.719070  0.003377  0.714685  1
  Ir  Ir10  1  0.233551  0.492210  0.731278  1
  Ir  Ir11  1  0.760748  0.491829  0.258422  1
