# generated using pymatgen
data_Li4CeNd7(ZnRh2)4
_symmetry_space_group_name_H-M   'P 1'
_cell_length_a   4.01966000
_cell_length_b   7.40438901
_cell_length_c   16.54661619
_cell_angle_alpha   89.95503707
_cell_angle_beta   90.00000000
_cell_angle_gamma   90.00000000
_symmetry_Int_Tables_number   1
_chemical_formula_structural   Li4CeNd7(ZnRh2)4
_chemical_formula_sum   'Li4 Ce1 Nd7 Zn4 Rh8'
_cell_volume   492.47887634
_cell_formula_units_Z   1
loop_
 _symmetry_equiv_pos_site_id
 _symmetry_equiv_pos_as_xyz
  1  'x, y, z'
loop_
 _atom_site_type_symbol
 _atom_site_label
 _atom_site_symmetry_multiplicity
 _atom_site_fract_x
 _atom_site_fract_y
 _atom_site_fract_z
 _atom_site_occupancy
  Li  Li0  1  0.750000  0.008372  0.559755  1
  Li  Li1  1  0.250000  0.635037  0.351409  1
  Li  Li2  1  0.750000  0.366693  0.648734  1
  Li  Li3  1  0.250000  0.493605  0.059393  1
  Ce  Ce4  1  0.250000  0.172855  0.940229  1
  Nd  Nd5  1  0.250000  0.662797  0.560984  1
  Nd  Nd6  1  0.750000  0.333874  0.438168  1
  Nd  Nd7  1  0.750000  0.956892  0.282187  1
  Nd  Nd8  1  0.750000  0.832660  0.059746  1
  Nd  Nd9  1  0.750000  0.451053  0.214444  1
  Nd  Nd10  1  0.250000  0.041026  0.718265  1
  Nd  Nd11  1  0.250000  0.549400  0.786229  1
  Zn  Zn12  1  0.750000  0.509133  0.941987  1
  Zn  Zn13  1  0.250000  0.995425  0.438892  1
  Zn  Zn14  1  0.250000  0.127761  0.148063  1
  Zn  Zn15  1  0.750000  0.876245  0.850213  1
  Rh  Rh16  1  0.750000  0.756918  0.438976  1
  Rh  Rh17  1  0.250000  0.241262  0.309651  1
  Rh  Rh18  1  0.750000  0.240975  0.827174  1
  Rh  Rh19  1  0.750000  0.756495  0.690336  1
  Rh  Rh20  1  0.250000  0.248040  0.559750  1
  Rh  Rh21  1  0.250000  0.752014  0.185887  1
  Rh  Rh22  1  0.750000  0.242155  0.054621  1
  Rh  Rh23  1  0.250000  0.749316  0.934906  1
