# generated using pymatgen
data_Nd3Cu4(SiSn)2
_symmetry_space_group_name_H-M   'P 1'
_cell_length_a   8.35191297
_cell_length_b   8.35191336
_cell_length_c   8.35191303
_cell_angle_alpha   149.06448935
_cell_angle_beta   132.46852461
_cell_angle_gamma   57.79625284
_symmetry_Int_Tables_number   1
_chemical_formula_structural   Nd3Cu4(SiSn)2
_chemical_formula_sum   'Nd3 Cu4 Si2 Sn2'
_cell_volume   219.27232322
_cell_formula_units_Z   1
loop_
 _symmetry_equiv_pos_site_id
 _symmetry_equiv_pos_as_xyz
  1  'x, y, z'
loop_
 _atom_site_type_symbol
 _atom_site_label
 _atom_site_symmetry_multiplicity
 _atom_site_fract_x
 _atom_site_fract_y
 _atom_site_fract_z
 _atom_site_occupancy
  Nd  Nd0  1  0.500000  0.000000  0.500000  1
  Nd  Nd1  1  0.126841  0.126841  0.000000  1
  Nd  Nd2  1  0.873159  0.873159  0.000000  1
  Cu  Cu3  1  0.466064  0.652583  0.813481  1
  Cu  Cu4  1  0.839102  0.652583  0.186519  1
  Cu  Cu5  1  0.160898  0.347417  0.813481  1
  Cu  Cu6  1  0.533936  0.347417  0.186519  1
  Si  Si7  1  0.179662  0.500000  0.679662  1
  Si  Si8  1  0.820338  0.500000  0.320338  1
  Sn  Sn9  1  0.717617  0.217617  0.500000  1
  Sn  Sn10  1  0.282383  0.782383  0.500000  1
