# generated using pymatgen
data_Tm4FeCo7(PRh)12
_symmetry_space_group_name_H-M   'P 1'
_cell_length_a   3.76969800
_cell_length_b   10.63026322
_cell_length_c   12.16413184
_cell_angle_alpha   90.09011742
_cell_angle_beta   90.00000000
_cell_angle_gamma   90.00000000
_symmetry_Int_Tables_number   1
_chemical_formula_structural   Tm4FeCo7(PRh)12
_chemical_formula_sum   'Tm4 Fe1 Co7 P12 Rh12'
_cell_volume   487.45121689
_cell_formula_units_Z   1
loop_
 _symmetry_equiv_pos_site_id
 _symmetry_equiv_pos_as_xyz
  1  'x, y, z'
loop_
 _atom_site_type_symbol
 _atom_site_label
 _atom_site_symmetry_multiplicity
 _atom_site_fract_x
 _atom_site_fract_y
 _atom_site_fract_z
 _atom_site_occupancy
  Tm  Tm0  1  0.250000  0.581357  0.709795  1
  Tm  Tm1  1  0.250000  0.918753  0.209417  1
  Tm  Tm2  1  0.750000  0.418162  0.291101  1
  Tm  Tm3  1  0.750000  0.081133  0.789749  1
  Fe  Fe4  1  0.750000  0.962555  0.567301  1
  Co  Co5  1  0.250000  0.880817  0.696750  1
  Co  Co6  1  0.250000  0.617091  0.197421  1
  Co  Co7  1  0.750000  0.117117  0.302849  1
  Co  Co8  1  0.750000  0.382814  0.803114  1
  Co  Co9  1  0.250000  0.462489  0.932499  1
  Co  Co10  1  0.250000  0.036770  0.431575  1
  Co  Co11  1  0.750000  0.537047  0.067955  1
  P  P12  1  0.250000  0.431704  0.111568  1
  P  P13  1  0.250000  0.066477  0.611170  1
  P  P14  1  0.750000  0.568033  0.888949  1
  P  P15  1  0.750000  0.932402  0.389044  1
  P  P16  1  0.250000  0.272453  0.870156  1
  P  P17  1  0.250000  0.227134  0.370883  1
  P  P18  1  0.750000  0.727367  0.129621  1
  P  P19  1  0.750000  0.773035  0.629753  1
  P  P20  1  0.250000  0.600435  0.380892  1
  P  P21  1  0.250000  0.899522  0.880727  1
  P  P22  1  0.750000  0.400159  0.619624  1
  P  P23  1  0.750000  0.100214  0.119100  1
  Rh  Rh24  1  0.250000  0.716020  0.991312  1
  Rh  Rh25  1  0.250000  0.784806  0.491280  1
  Rh  Rh26  1  0.750000  0.284145  0.008874  1
  Rh  Rh27  1  0.750000  0.219150  0.506848  1
  Rh  Rh28  1  0.250000  0.410180  0.478303  1
  Rh  Rh29  1  0.250000  0.090758  0.977322  1
  Rh  Rh30  1  0.750000  0.591486  0.522229  1
  Rh  Rh31  1  0.750000  0.908900  0.022422  1
  Rh  Rh32  1  0.250000  0.227579  0.179989  1
  Rh  Rh33  1  0.250000  0.271779  0.679473  1
  Rh  Rh34  1  0.750000  0.772437  0.820582  1
  Rh  Rh35  1  0.750000  0.727720  0.320352  1
