# generated using pymatgen
data_BiMo3(PO4)4
_symmetry_space_group_name_H-M   'P 1'
_cell_length_a   4.90501576
_cell_length_b   7.10551040
_cell_length_c   9.11507181
_cell_angle_alpha   89.90738546
_cell_angle_beta   90.38613511
_cell_angle_gamma   89.96968144
_symmetry_Int_Tables_number   1
_chemical_formula_structural   BiMo3(PO4)4
_chemical_formula_sum   'Bi1 Mo3 P4 O16'
_cell_volume   317.67664514
_cell_formula_units_Z   1
loop_
 _symmetry_equiv_pos_site_id
 _symmetry_equiv_pos_as_xyz
  1  'x, y, z'
loop_
 _atom_site_type_symbol
 _atom_site_label
 _atom_site_symmetry_multiplicity
 _atom_site_fract_x
 _atom_site_fract_y
 _atom_site_fract_z
 _atom_site_occupancy
  Bi  Bi0  1  0.000000  0.000000  0.000000  1
  Mo  Mo1  1  0.500000  0.500000  0.500000  1
  Mo  Mo2  1  0.000000  0.500000  0.000000  1
  Mo  Mo3  1  0.500000  0.000000  0.500000  1
  P  P4  1  0.990186  0.744765  0.671502  1
  P  P5  1  0.493596  0.256354  0.817023  1
  P  P6  1  0.009814  0.255235  0.328498  1
  P  P7  1  0.506404  0.743646  0.182977  1
  O  O8  1  0.145412  0.434692  0.382400  1
  O  O9  1  0.659651  0.571202  0.128974  1
  O  O10  1  0.850034  0.929465  0.628011  1
  O  O11  1  0.386820  0.064242  0.866304  1
  O  O12  1  0.854588  0.565308  0.617600  1
  O  O13  1  0.340349  0.428798  0.871026  1
  O  O14  1  0.149966  0.070535  0.371989  1
  O  O15  1  0.613180  0.935758  0.133696  1
  O  O16  1  0.201393  0.726120  0.127980  1
  O  O17  1  0.706054  0.250001  0.387096  1
  O  O18  1  0.798607  0.273880  0.872020  1
  O  O19  1  0.293946  0.749999  0.612904  1
  O  O20  1  0.526838  0.746621  0.356711  1
  O  O21  1  0.014746  0.265763  0.155103  1
  O  O22  1  0.473162  0.253379  0.643289  1
  O  O23  1  0.985254  0.734237  0.844897  1
