# generated using pymatgen
data_Ba4Tb5Y(BiS8)2
_symmetry_space_group_name_H-M   'P 1'
_cell_length_a   4.09172000
_cell_length_b   12.39726401
_cell_length_c   14.72406001
_cell_angle_alpha   90.00422507
_cell_angle_beta   90.00000000
_cell_angle_gamma   90.00000000
_symmetry_Int_Tables_number   1
_chemical_formula_structural   Ba4Tb5Y(BiS8)2
_chemical_formula_sum   'Ba4 Tb5 Y1 Bi2 S16'
_cell_volume   746.89462564
_cell_formula_units_Z   1
loop_
 _symmetry_equiv_pos_site_id
 _symmetry_equiv_pos_as_xyz
  1  'x, y, z'
loop_
 _atom_site_type_symbol
 _atom_site_label
 _atom_site_symmetry_multiplicity
 _atom_site_fract_x
 _atom_site_fract_y
 _atom_site_fract_z
 _atom_site_occupancy
  Ba  Ba0  1  0.250000  0.758862  0.337927  1
  Ba  Ba1  1  0.250000  0.258862  0.162058  1
  Ba  Ba2  1  0.750000  0.241719  0.661570  1
  Ba  Ba3  1  0.750000  0.741685  0.838446  1
  Tb  Tb4  1  0.750000  0.567804  0.610862  1
  Tb  Tb5  1  0.750000  0.067814  0.889150  1
  Tb  Tb6  1  0.250000  0.920715  0.601911  1
  Tb  Tb7  1  0.750000  0.577705  0.100006  1
  Tb  Tb8  1  0.750000  0.077716  0.399969  1
  Y  Y9  1  0.250000  0.420763  0.898111  1
  Bi  Bi10  1  0.250000  0.433551  0.390352  1
  Bi  Bi11  1  0.250000  0.933555  0.109651  1
  S  S12  1  0.250000  0.207427  0.834692  1
  S  S13  1  0.250000  0.707287  0.665338  1
  S  S14  1  0.750000  0.787599  0.167812  1
  S  S15  1  0.750000  0.287599  0.332185  1
  S  S16  1  0.250000  0.123588  0.524107  1
  S  S17  1  0.250000  0.623476  0.975836  1
  S  S18  1  0.750000  0.875240  0.477509  1
  S  S19  1  0.750000  0.375272  0.022357  1
  S  S20  1  0.250000  0.023187  0.286172  1
  S  S21  1  0.250000  0.523181  0.213829  1
  S  S22  1  0.750000  0.977043  0.716165  1
  S  S23  1  0.750000  0.476948  0.783985  1
  S  S24  1  0.250000  0.419648  0.580677  1
  S  S25  1  0.250000  0.919646  0.919322  1
  S  S26  1  0.750000  0.586057  0.425568  1
  S  S27  1  0.750000  0.086053  0.074432  1
