# generated using pymatgen
data_La4Ge3Rh4
_symmetry_space_group_name_H-M   'P 1'
_cell_length_a   10.99556282
_cell_length_b   10.99556324
_cell_length_c   8.25944629
_cell_angle_alpha   69.43067097
_cell_angle_beta   69.43067120
_cell_angle_gamma   30.97039400
_symmetry_Int_Tables_number   1
_chemical_formula_structural   La4Ge3Rh4
_chemical_formula_sum   'La8 Ge6 Rh8'
_cell_volume   478.50051612
_cell_formula_units_Z   2
loop_
 _symmetry_equiv_pos_site_id
 _symmetry_equiv_pos_as_xyz
  1  'x, y, z'
loop_
 _atom_site_type_symbol
 _atom_site_label
 _atom_site_symmetry_multiplicity
 _atom_site_fract_x
 _atom_site_fract_y
 _atom_site_fract_z
 _atom_site_occupancy
  La  La0  1  0.781271  0.561947  0.604837  1
  La  La1  1  0.438053  0.218729  0.895163  1
  La  La2  1  0.218729  0.438053  0.395163  1
  La  La3  1  0.561947  0.781271  0.104837  1
  La  La4  1  0.784436  0.083121  0.166183  1
  La  La5  1  0.916879  0.215564  0.333817  1
  La  La6  1  0.215564  0.916879  0.833817  1
  La  La7  1  0.083121  0.784436  0.666183  1
  Ge  Ge8  1  0.943643  0.710834  0.064233  1
  Ge  Ge9  1  0.289166  0.056357  0.435767  1
  Ge  Ge10  1  0.056357  0.289166  0.935767  1
  Ge  Ge11  1  0.710834  0.943643  0.564233  1
  Ge  Ge12  1  0.638365  0.361635  0.750000  1
  Ge  Ge13  1  0.361635  0.638365  0.250000  1
  Rh  Rh14  1  0.575148  0.301830  0.522121  1
  Rh  Rh15  1  0.698170  0.424852  0.977879  1
  Rh  Rh16  1  0.424852  0.698170  0.477879  1
  Rh  Rh17  1  0.301830  0.575148  0.022121  1
  Rh  Rh18  1  0.638078  0.924333  0.323455  1
  Rh  Rh19  1  0.075667  0.361922  0.176545  1
  Rh  Rh20  1  0.361922  0.075667  0.676545  1
  Rh  Rh21  1  0.924333  0.638078  0.823455  1
