# generated using pymatgen
data_LiDy4Ho12Cd3Ni4
_symmetry_space_group_name_H-M   'P 1'
_cell_length_a   9.50991333
_cell_length_b   9.50991366
_cell_length_c   9.50991379
_cell_angle_alpha   59.89715660
_cell_angle_beta   59.89715979
_cell_angle_gamma   59.89715960
_symmetry_Int_Tables_number   1
_chemical_formula_structural   LiDy4Ho12Cd3Ni4
_chemical_formula_sum   'Li1 Dy4 Ho12 Cd3 Ni4'
_cell_volume   606.73667345
_cell_formula_units_Z   1
loop_
 _symmetry_equiv_pos_site_id
 _symmetry_equiv_pos_as_xyz
  1  'x, y, z'
loop_
 _atom_site_type_symbol
 _atom_site_label
 _atom_site_symmetry_multiplicity
 _atom_site_fract_x
 _atom_site_fract_y
 _atom_site_fract_z
 _atom_site_occupancy
  Li  Li0  1  0.571643  0.571643  0.571643  1
  Dy  Dy1  1  0.347330  0.347330  0.347330  1
  Dy  Dy2  1  0.348500  0.348500  0.954644  1
  Dy  Dy3  1  0.348500  0.954644  0.348500  1
  Dy  Dy4  1  0.954644  0.348500  0.348500  1
  Ho  Ho5  1  0.811692  0.190498  0.190498  1
  Ho  Ho6  1  0.186718  0.814086  0.814086  1
  Ho  Ho7  1  0.190498  0.811692  0.190498  1
  Ho  Ho8  1  0.814086  0.186718  0.814086  1
  Ho  Ho9  1  0.190498  0.190498  0.811692  1
  Ho  Ho10  1  0.814086  0.814086  0.186718  1
  Ho  Ho11  1  0.935220  0.564799  0.564799  1
  Ho  Ho12  1  0.563958  0.936252  0.936252  1
  Ho  Ho13  1  0.564799  0.935220  0.564799  1
  Ho  Ho14  1  0.936252  0.563958  0.936252  1
  Ho  Ho15  1  0.564799  0.564799  0.935220  1
  Ho  Ho16  1  0.936252  0.936252  0.563958  1
  Cd  Cd17  1  0.582026  0.582026  0.255865  1
  Cd  Cd18  1  0.582026  0.255865  0.582026  1
  Cd  Cd19  1  0.255865  0.582026  0.582026  1
  Ni  Ni20  1  0.143030  0.143030  0.143030  1
  Ni  Ni21  1  0.141481  0.141481  0.574616  1
  Ni  Ni22  1  0.141481  0.574616  0.141481  1
  Ni  Ni23  1  0.574616  0.141481  0.141481  1
