# generated using pymatgen
data_Zr6Mn5Si12Ru
_symmetry_space_group_name_H-M   'P 1'
_cell_length_a   9.89767148
_cell_length_b   9.89767017
_cell_length_c   9.89767054
_cell_angle_alpha   149.65527940
_cell_angle_beta   132.81787237
_cell_angle_gamma   57.13430255
_symmetry_Int_Tables_number   1
_chemical_formula_structural   Zr6Mn5Si12Ru
_chemical_formula_sum   'Zr6 Mn5 Si12 Ru1'
_cell_volume   356.78565352
_cell_formula_units_Z   1
loop_
 _symmetry_equiv_pos_site_id
 _symmetry_equiv_pos_as_xyz
  1  'x, y, z'
loop_
 _atom_site_type_symbol
 _atom_site_label
 _atom_site_symmetry_multiplicity
 _atom_site_fract_x
 _atom_site_fract_y
 _atom_site_fract_z
 _atom_site_occupancy
  Zr  Zr0  1  0.357629  0.095924  0.261705  1
  Zr  Zr1  1  0.644189  0.904453  0.739736  1
  Zr  Zr2  1  0.165782  0.904076  0.261705  1
  Zr  Zr3  1  0.835282  0.095547  0.739736  1
  Zr  Zr4  1  0.643026  0.641559  0.001467  1
  Zr  Zr5  1  0.359909  0.358441  0.001467  1
  Mn  Mn6  1  0.500578  0.001429  0.001274  1
  Mn  Mn7  1  0.500578  0.499304  0.499149  1
  Mn  Mn8  1  0.999844  0.998571  0.499149  1
  Mn  Mn9  1  0.999844  0.500696  0.001274  1
  Mn  Mn10  1  0.752779  0.500000  0.252779  1
  Si  Si11  1  0.993259  0.763142  0.756401  1
  Si  Si12  1  0.993259  0.236858  0.230117  1
  Si  Si13  1  0.504582  0.241759  0.746340  1
  Si  Si14  1  0.504582  0.758241  0.262822  1
  Si  Si15  1  0.202356  0.202301  0.000055  1
  Si  Si16  1  0.797753  0.797699  0.000055  1
  Si  Si17  1  0.288544  0.788238  0.500306  1
  Si  Si18  1  0.712069  0.211762  0.500306  1
  Si  Si19  1  0.714776  0.363574  0.351201  1
  Si  Si20  1  0.288733  0.640006  0.648729  1
  Si  Si21  1  0.987627  0.636426  0.351201  1
  Si  Si22  1  0.008723  0.359994  0.648729  1
  Ru  Ru23  1  0.244297  0.500000  0.744297  1
