# generated using pymatgen
data_Dy20Ir3Pt2Rh7
_symmetry_space_group_name_H-M   'P 1'
_cell_length_a   10.95479282
_cell_length_b   10.95479290
_cell_length_c   6.35213703
_cell_angle_alpha   90.00689958
_cell_angle_beta   90.00690711
_cell_angle_gamma   89.64464368
_symmetry_Int_Tables_number   1
_chemical_formula_structural   Dy20Ir3Pt2Rh7
_chemical_formula_sum   'Dy20 Ir3 Pt2 Rh7'
_cell_volume   762.28932735
_cell_formula_units_Z   1
loop_
 _symmetry_equiv_pos_site_id
 _symmetry_equiv_pos_as_xyz
  1  'x, y, z'
loop_
 _atom_site_type_symbol
 _atom_site_label
 _atom_site_symmetry_multiplicity
 _atom_site_fract_x
 _atom_site_fract_y
 _atom_site_fract_z
 _atom_site_occupancy
  Dy  Dy0  1  0.291996  0.092343  0.379430  1
  Dy  Dy1  1  0.294009  0.910000  0.875312  1
  Dy  Dy2  1  0.706438  0.088182  0.875269  1
  Dy  Dy3  1  0.707518  0.907592  0.379249  1
  Dy  Dy4  1  0.588705  0.789639  0.880421  1
  Dy  Dy5  1  0.585645  0.209355  0.379512  1
  Dy  Dy6  1  0.414011  0.790061  0.380347  1
  Dy  Dy7  1  0.409515  0.209586  0.880511  1
  Dy  Dy8  1  0.210361  0.411295  0.619579  1
  Dy  Dy9  1  0.209939  0.585989  0.119653  1
  Dy  Dy10  1  0.790645  0.414355  0.120488  1
  Dy  Dy11  1  0.790414  0.590485  0.619489  1
  Dy  Dy12  1  0.907657  0.708004  0.120570  1
  Dy  Dy13  1  0.911818  0.293562  0.624731  1
  Dy  Dy14  1  0.090000  0.705991  0.624688  1
  Dy  Dy15  1  0.092408  0.292482  0.120751  1
  Dy  Dy16  1  0.999743  0.999939  0.501016  1
  Dy  Dy17  1  0.000061  0.000257  0.998984  1
  Dy  Dy18  1  0.499877  0.499969  0.999324  1
  Dy  Dy19  1  0.500031  0.500123  0.500676  1
  Ir  Ir20  1  0.654523  0.653876  0.249920  1
  Ir  Ir21  1  0.346124  0.345477  0.250080  1
  Ir  Ir22  1  0.344723  0.655277  0.750000  1
  Pt  Pt23  1  0.845030  0.154970  0.250000  1
  Pt  Pt24  1  0.154370  0.845630  0.250000  1
  Rh  Rh25  1  0.846855  0.847288  0.750259  1
  Rh  Rh26  1  0.152712  0.153145  0.749741  1
  Rh  Rh27  1  0.655528  0.344472  0.750000  1
  Rh  Rh28  1  0.500213  0.000419  0.125218  1
  Rh  Rh29  1  0.500258  0.000707  0.624343  1
  Rh  Rh30  1  0.999293  0.499742  0.875657  1
  Rh  Rh31  1  0.999581  0.499787  0.374782  1
