# generated using pymatgen
data_La2PrBePd5
_symmetry_space_group_name_H-M   'P 1'
_cell_length_a   8.36612318
_cell_length_b   8.36612510
_cell_length_c   8.36612436
_cell_angle_alpha   126.59668234
_cell_angle_beta   125.55926391
_cell_angle_gamma   79.76283650
_symmetry_Int_Tables_number   1
_chemical_formula_structural   La2PrBePd5
_chemical_formula_sum   'La4 Pr2 Be2 Pd10'
_cell_volume   369.42715729
_cell_formula_units_Z   2
loop_
 _symmetry_equiv_pos_site_id
 _symmetry_equiv_pos_as_xyz
  1  'x, y, z'
loop_
 _atom_site_type_symbol
 _atom_site_label
 _atom_site_symmetry_multiplicity
 _atom_site_fract_x
 _atom_site_fract_y
 _atom_site_fract_z
 _atom_site_occupancy
  La  La0  1  0.177630  0.948372  0.229259  1
  La  La1  1  0.396352  0.250000  0.146352  1
  La  La2  1  0.780887  0.551628  0.229259  1
  La  La3  1  0.604013  0.750000  0.854013  1
  Pr  Pr4  1  0.822186  0.051815  0.770370  1
  Pr  Pr5  1  0.218554  0.448185  0.770370  1
  Be  Be6  1  0.207957  0.750000  0.457957  1
  Be  Be7  1  0.794632  0.250000  0.544632  1
  Pd  Pd8  1  0.826253  0.585313  0.639286  1
  Pd  Pd9  1  0.553973  0.313033  0.639286  1
  Pd  Pd10  1  0.445234  0.085058  0.758464  1
  Pd  Pd11  1  0.826253  0.186967  0.240939  1
  Pd  Pd12  1  0.173405  0.414942  0.360175  1
  Pd  Pd13  1  0.445234  0.686771  0.360175  1
  Pd  Pd14  1  0.553973  0.914687  0.240939  1
  Pd  Pd15  1  0.173405  0.813229  0.758464  1
  Pd  Pd16  1  0.000030  0.999861  0.499891  1
  Pd  Pd17  1  0.000030  0.500139  0.000169  1
