# generated using pymatgen
data_LaSm3(Hg2O)4
_symmetry_space_group_name_H-M   'P 1'
_cell_length_a   5.80132135
_cell_length_b   5.73148674
_cell_length_c   10.67404500
_cell_angle_alpha   90.02368211
_cell_angle_beta   97.55302475
_cell_angle_gamma   89.97993124
_symmetry_Int_Tables_number   1
_chemical_formula_structural   LaSm3(Hg2O)4
_chemical_formula_sum   'La1 Sm3 Hg8 O4'
_cell_volume   351.83468484
_cell_formula_units_Z   1
loop_
 _symmetry_equiv_pos_site_id
 _symmetry_equiv_pos_as_xyz
  1  'x, y, z'
loop_
 _atom_site_type_symbol
 _atom_site_label
 _atom_site_symmetry_multiplicity
 _atom_site_fract_x
 _atom_site_fract_y
 _atom_site_fract_z
 _atom_site_occupancy
  La  La0  1  0.525077  0.182461  0.108862  1
  Sm  Sm1  1  0.023297  0.682920  0.101693  1
  Sm  Sm2  1  0.975547  0.182625  0.893739  1
  Sm  Sm3  1  0.475327  0.682157  0.893633  1
  Hg  Hg4  1  0.531126  0.168516  0.423983  1
  Hg  Hg5  1  0.027167  0.659139  0.414004  1
  Hg  Hg6  1  0.974817  0.158364  0.584648  1
  Hg  Hg7  1  0.468648  0.667699  0.584312  1
  Hg  Hg8  1  0.541670  0.676338  0.293018  1
  Hg  Hg9  1  0.050946  0.167138  0.292820  1
  Hg  Hg10  1  0.953907  0.667642  0.708660  1
  Hg  Hg11  1  0.455533  0.174159  0.712667  1
  O  O12  1  0.751125  0.929901  0.996690  1
  O  O13  1  0.247255  0.931478  0.996769  1
  O  O14  1  0.751240  0.435539  0.997265  1
  O  O15  1  0.247328  0.433886  0.997239  1
