# generated using pymatgen
data_Gd3In3GaAg2
_symmetry_space_group_name_H-M   'P 1'
_cell_length_a   7.59973200
_cell_length_b   7.59973016
_cell_length_c   4.42927700
_cell_angle_alpha   90.00000000
_cell_angle_beta   90.00000000
_cell_angle_gamma   119.99999061
_symmetry_Int_Tables_number   1
_chemical_formula_structural   Gd3In3GaAg2
_chemical_formula_sum   'Gd3 In3 Ga1 Ag2'
_cell_volume   221.54398511
_cell_formula_units_Z   1
loop_
 _symmetry_equiv_pos_site_id
 _symmetry_equiv_pos_as_xyz
  1  'x, y, z'
loop_
 _atom_site_type_symbol
 _atom_site_label
 _atom_site_symmetry_multiplicity
 _atom_site_fract_x
 _atom_site_fract_y
 _atom_site_fract_z
 _atom_site_occupancy
  Gd  Gd0  1  0.414392  0.994055  0.500000  1
  Gd  Gd1  1  0.005945  0.420338  0.500000  1
  Gd  Gd2  1  0.579662  0.585608  0.500000  1
  In  In3  1  0.749706  0.004459  0.000000  1
  In  In4  1  0.995541  0.745246  0.000000  1
  In  In5  1  0.254754  0.250294  0.000000  1
  Ga  Ga6  1  0.333333  0.666667  0.000000  1
  Ag  Ag7  1  0.666667  0.333333  0.000000  1
  Ag  Ag8  1  0.000000  0.000000  0.500000  1
