# generated using pymatgen
data_LiNd8HgRh2
_symmetry_space_group_name_H-M   'P 1'
_cell_length_a   9.94463589
_cell_length_b   9.94463665
_cell_length_c   9.89131400
_cell_angle_alpha   60.17721394
_cell_angle_beta   60.17721144
_cell_angle_gamma   60.28119912
_symmetry_Int_Tables_number   1
_chemical_formula_structural   LiNd8HgRh2
_chemical_formula_sum   'Li2 Nd16 Hg2 Rh4'
_cell_volume   695.01519145
_cell_formula_units_Z   2
loop_
 _symmetry_equiv_pos_site_id
 _symmetry_equiv_pos_as_xyz
  1  'x, y, z'
loop_
 _atom_site_type_symbol
 _atom_site_label
 _atom_site_symmetry_multiplicity
 _atom_site_fract_x
 _atom_site_fract_y
 _atom_site_fract_z
 _atom_site_occupancy
  Li  Li0  1  0.817991  0.817991  0.826467  1
  Li  Li1  1  0.817991  0.817991  0.537551  1
  Nd  Nd2  1  0.599317  0.599317  0.601618  1
  Nd  Nd3  1  0.599317  0.599317  0.199749  1
  Nd  Nd4  1  0.598052  0.205720  0.598114  1
  Nd  Nd5  1  0.205720  0.598052  0.598114  1
  Nd  Nd6  1  0.062698  0.439100  0.438372  1
  Nd  Nd7  1  0.439100  0.062698  0.059831  1
  Nd  Nd8  1  0.439100  0.062698  0.438372  1
  Nd  Nd9  1  0.062698  0.439100  0.059831  1
  Nd  Nd10  1  0.443080  0.443080  0.056920  1
  Nd  Nd11  1  0.065987  0.065987  0.434013  1
  Nd  Nd12  1  0.187985  0.813351  0.812602  1
  Nd  Nd13  1  0.813351  0.187985  0.186062  1
  Nd  Nd14  1  0.813351  0.187985  0.812602  1
  Nd  Nd15  1  0.187985  0.813351  0.186062  1
  Nd  Nd16  1  0.813503  0.813503  0.186497  1
  Nd  Nd17  1  0.188940  0.188940  0.811060  1
  Hg  Hg18  1  0.839621  0.499137  0.830621  1
  Hg  Hg19  1  0.499137  0.839621  0.830621  1
  Rh  Rh20  1  0.393330  0.393330  0.390795  1
  Rh  Rh21  1  0.393330  0.393330  0.822545  1
  Rh  Rh22  1  0.394462  0.823956  0.390791  1
  Rh  Rh23  1  0.823956  0.394462  0.390791  1
