# generated using pymatgen
data_Sr4CaCd(MoO6)2
_symmetry_space_group_name_H-M   'P 1'
_cell_length_a   5.80200001
_cell_length_b   5.94211899
_cell_length_c   8.25557657
_cell_angle_alpha   89.83549260
_cell_angle_beta   90.15704524
_cell_angle_gamma   89.93756147
_symmetry_Int_Tables_number   1
_chemical_formula_structural   Sr4CaCd(MoO6)2
_chemical_formula_sum   'Sr4 Ca1 Cd1 Mo2 O12'
_cell_volume   284.61828423
_cell_formula_units_Z   1
loop_
 _symmetry_equiv_pos_site_id
 _symmetry_equiv_pos_as_xyz
  1  'x, y, z'
loop_
 _atom_site_type_symbol
 _atom_site_label
 _atom_site_symmetry_multiplicity
 _atom_site_fract_x
 _atom_site_fract_y
 _atom_site_fract_z
 _atom_site_occupancy
  Sr  Sr0  1  0.990789  0.046923  0.246764  1
  Sr  Sr1  1  0.510489  0.545002  0.249226  1
  Sr  Sr2  1  0.489510  0.454998  0.750774  1
  Sr  Sr3  1  0.009211  0.953078  0.753237  1
  Ca  Ca4  1  0.500001  0.000000  0.500001  1
  Cd  Cd5  1  0.000000  0.500000  0.000000  1
  Mo  Mo6  1  0.499999  0.000000  0.999999  1
  Mo  Mo7  1  0.000001  0.500000  0.500000  1
  O  O8  1  0.771832  0.814035  0.041913  1
  O  O9  1  0.681019  0.270275  0.049294  1
  O  O10  1  0.415481  0.971578  0.227433  1
  O  O11  1  0.086558  0.471145  0.271659  1
  O  O12  1  0.818109  0.770172  0.451274  1
  O  O13  1  0.729181  0.313949  0.458578  1
  O  O14  1  0.270818  0.686052  0.541422  1
  O  O15  1  0.181891  0.229827  0.548726  1
  O  O16  1  0.913443  0.528854  0.728341  1
  O  O17  1  0.584519  0.028422  0.772567  1
  O  O18  1  0.318981  0.729726  0.950706  1
  O  O19  1  0.228167  0.185965  0.958088  1
