# generated using pymatgen
data_Nd3YIr4F28
_symmetry_space_group_name_H-M   'P 1'
_cell_length_a   5.68423131
_cell_length_b   9.14783067
_cell_length_c   12.19268851
_cell_angle_alpha   62.29392171
_cell_angle_beta   89.89737943
_cell_angle_gamma   89.95276746
_symmetry_Int_Tables_number   1
_chemical_formula_structural   Nd3YIr4F28
_chemical_formula_sum   'Nd3 Y1 Ir4 F28'
_cell_volume   561.30749426
_cell_formula_units_Z   1
loop_
 _symmetry_equiv_pos_site_id
 _symmetry_equiv_pos_as_xyz
  1  'x, y, z'
loop_
 _atom_site_type_symbol
 _atom_site_label
 _atom_site_symmetry_multiplicity
 _atom_site_fract_x
 _atom_site_fract_y
 _atom_site_fract_z
 _atom_site_occupancy
  Nd  Nd0  1  0.759668  0.809459  0.766668  1
  Nd  Nd1  1  0.259287  0.189404  0.733430  1
  Nd  Nd2  1  0.241114  0.185301  0.233918  1
  Y  Y3  1  0.739335  0.810031  0.266441  1
  Ir  Ir4  1  0.754395  0.271495  0.957390  1
  Ir  Ir5  1  0.255967  0.726502  0.540526  1
  Ir  Ir6  1  0.242747  0.726747  0.048162  1
  Ir  Ir7  1  0.744300  0.277733  0.453933  1
  F  F8  1  0.444807  0.706852  0.924118  1
  F  F9  1  0.942380  0.295745  0.579520  1
  F  F10  1  0.557487  0.292520  0.081969  1
  F  F11  1  0.053280  0.706792  0.417361  1
  F  F12  1  0.455718  0.287639  0.540506  1
  F  F13  1  0.958072  0.715363  0.959549  1
  F  F14  1  0.545604  0.716807  0.452196  1
  F  F15  1  0.043885  0.283348  0.042973  1
  F  F16  1  0.761989  0.511238  0.861671  1
  F  F17  1  0.264840  0.487225  0.636691  1
  F  F18  1  0.235597  0.487119  0.142962  1
  F  F19  1  0.738296  0.518301  0.358412  1
  F  F20  1  0.756877  0.031706  0.050105  1
  F  F21  1  0.256672  0.966770  0.449646  1
  F  F22  1  0.240281  0.966335  0.953627  1
  F  F23  1  0.741136  0.037751  0.547043  1
  F  F24  1  0.974788  0.730316  0.634088  1
  F  F25  1  0.470406  0.268524  0.866031  1
  F  F26  1  0.026250  0.270151  0.362905  1
  F  F27  1  0.523978  0.732690  0.141370  1
  F  F28  1  0.040876  0.746872  0.173128  1
  F  F29  1  0.550058  0.259183  0.327237  1
  F  F30  1  0.947865  0.254779  0.829879  1
  F  F31  1  0.452668  0.744074  0.666774  1
  F  F32  1  0.426403  0.966048  0.232160  1
  F  F33  1  0.914551  0.020404  0.267807  1
  F  F34  1  0.589108  0.031401  0.768824  1
  F  F35  1  0.089314  0.967377  0.730980  1
