# generated using pymatgen
data_Te7As5Cl
_symmetry_space_group_name_H-M   'P 1'
_cell_length_a   7.70077039
_cell_length_b   7.70077145
_cell_length_c   13.77732483
_cell_angle_alpha   71.37865820
_cell_angle_beta   71.37865627
_cell_angle_gamma   30.49336220
_symmetry_Int_Tables_number   1
_chemical_formula_structural   Te7As5Cl
_chemical_formula_sum   'Te7 As5 Cl1'
_cell_volume   391.22363503
_cell_formula_units_Z   1
loop_
 _symmetry_equiv_pos_site_id
 _symmetry_equiv_pos_as_xyz
  1  'x, y, z'
loop_
 _atom_site_type_symbol
 _atom_site_label
 _atom_site_symmetry_multiplicity
 _atom_site_fract_x
 _atom_site_fract_y
 _atom_site_fract_z
 _atom_site_occupancy
  Te  Te0  1  0.170944  0.170944  0.635050  1
  Te  Te1  1  0.823464  0.823464  0.384695  1
  Te  Te2  1  0.903388  0.903388  0.665267  1
  Te  Te3  1  0.100639  0.100639  0.327631  1
  Te  Te4  1  0.483054  0.483054  0.856081  1
  Te  Te5  1  0.517825  0.517825  0.146868  1
  Te  Te6  1  0.803379  0.803379  0.086973  1
  As  As7  1  0.996127  0.996127  0.003734  1
  As  As8  1  0.677404  0.677404  0.773514  1
  As  As9  1  0.325735  0.325735  0.222686  1
  As  As10  1  0.365703  0.365703  0.550446  1
  As  As11  1  0.633328  0.633328  0.445710  1
  Cl  Cl12  1  0.199010  0.199010  0.901344  1
