# generated using pymatgen
data_Ca8In4Cu3N5
_symmetry_space_group_name_H-M   'P 1'
_cell_length_a   10.93371331
_cell_length_b   10.93371304
_cell_length_c   10.93371387
_cell_angle_alpha   160.50245889
_cell_angle_beta   112.79048454
_cell_angle_gamma   70.73011227
_symmetry_Int_Tables_number   1
_chemical_formula_structural   Ca8In4Cu3N5
_chemical_formula_sum   'Ca8 In4 Cu3 N5'
_cell_volume   399.57044049
_cell_formula_units_Z   1
loop_
 _symmetry_equiv_pos_site_id
 _symmetry_equiv_pos_as_xyz
  1  'x, y, z'
loop_
 _atom_site_type_symbol
 _atom_site_label
 _atom_site_symmetry_multiplicity
 _atom_site_fract_x
 _atom_site_fract_y
 _atom_site_fract_z
 _atom_site_occupancy
  Ca  Ca0  1  0.560490  0.712731  0.847759  1
  Ca  Ca1  1  0.748915  0.900429  0.848487  1
  Ca  Ca2  1  0.439510  0.287269  0.152241  1
  Ca  Ca3  1  0.864973  0.712731  0.152241  1
  Ca  Ca4  1  0.135027  0.287269  0.847759  1
  Ca  Ca5  1  0.251085  0.099571  0.151513  1
  Ca  Ca6  1  0.051942  0.900429  0.151513  1
  Ca  Ca7  1  0.948058  0.099571  0.848487  1
  In  In8  1  0.657468  0.500000  0.157468  1
  In  In9  1  0.342532  0.500000  0.842532  1
  In  In10  1  0.410380  0.910380  0.500000  1
  In  In11  1  0.589620  0.089620  0.500000  1
  Cu  Cu12  1  0.192455  0.692455  0.500000  1
  Cu  Cu13  1  0.807545  0.307545  0.500000  1
  Cu  Cu14  1  0.000000  0.500000  0.500000  1
  N  N15  1  0.348889  0.693344  0.655545  1
  N  N16  1  0.962202  0.306656  0.655545  1
  N  N17  1  0.037798  0.693344  0.344455  1
  N  N18  1  0.000000  0.000000  0.000000  1
  N  N19  1  0.651111  0.306656  0.344455  1
