# generated using pymatgen
data_Tb2Y10AlInCo3Ni
_symmetry_space_group_name_H-M   'P 1'
_cell_length_a   8.38542925
_cell_length_b   8.37525943
_cell_length_c   8.38542800
_cell_angle_alpha   112.02786775
_cell_angle_beta   109.81508509
_cell_angle_gamma   106.66405163
_symmetry_Int_Tables_number   1
_chemical_formula_structural   Tb2Y10AlInCo3Ni
_chemical_formula_sum   'Tb2 Y10 Al1 In1 Co3 Ni1'
_cell_volume   452.07140045
_cell_formula_units_Z   1
loop_
 _symmetry_equiv_pos_site_id
 _symmetry_equiv_pos_as_xyz
  1  'x, y, z'
loop_
 _atom_site_type_symbol
 _atom_site_label
 _atom_site_symmetry_multiplicity
 _atom_site_fract_x
 _atom_site_fract_y
 _atom_site_fract_z
 _atom_site_occupancy
  Tb  Tb0  1  0.322599  0.007768  0.687894  1
  Tb  Tb1  1  0.680127  0.992232  0.314832  1
  Y  Y2  1  0.434799  0.235900  0.198186  1
  Y  Y3  1  0.564635  0.764478  0.800431  1
  Y  Y4  1  0.035954  0.235522  0.800157  1
  Y  Y5  1  0.962285  0.764100  0.198899  1
  Y  Y6  1  0.180815  0.285346  0.465211  1
  Y  Y7  1  0.816551  0.718483  0.535729  1
  Y  Y8  1  0.179865  0.714654  0.895469  1
  Y  Y9  1  0.817246  0.281517  0.098068  1
  Y  Y10  1  0.323262  0.633295  0.312726  1
  Y  Y11  1  0.679430  0.366705  0.689966  1
  Al  Al12  1  0.997288  0.000000  0.997288  1
  In  In13  1  0.498880  0.500000  0.998880  1
  Co  Co14  1  0.665580  0.000000  0.665580  1
  Co  Co15  1  0.111414  0.613461  0.499119  1
  Co  Co16  1  0.885658  0.386539  0.497953  1
  Ni  Ni17  1  0.343613  0.000000  0.343613  1
