# generated using pymatgen
data_ZnInAg2F7
_symmetry_space_group_name_H-M   'P 1'
_cell_length_a   7.78698323
_cell_length_b   7.78698328
_cell_length_c   7.78698354
_cell_angle_alpha   121.32157001
_cell_angle_beta   118.28748696
_cell_angle_gamma   90.35886843
_symmetry_Int_Tables_number   1
_chemical_formula_structural   ZnInAg2F7
_chemical_formula_sum   'Zn2 In2 Ag4 F14'
_cell_volume   334.56990232
_cell_formula_units_Z   2
loop_
 _symmetry_equiv_pos_site_id
 _symmetry_equiv_pos_as_xyz
  1  'x, y, z'
loop_
 _atom_site_type_symbol
 _atom_site_label
 _atom_site_symmetry_multiplicity
 _atom_site_fract_x
 _atom_site_fract_y
 _atom_site_fract_z
 _atom_site_occupancy
  Zn  Zn0  1  0.500000  0.500000  0.500000  1
  Zn  Zn1  1  0.500000  0.000000  0.000000  1
  In  In2  1  0.000000  0.500000  0.500000  1
  In  In3  1  0.500000  0.000000  0.500000  1
  Ag  Ag4  1  0.500000  0.500000  0.000000  1
  Ag  Ag5  1  0.000000  0.000000  0.000000  1
  Ag  Ag6  1  0.000000  0.500000  0.000000  1
  Ag  Ag7  1  0.000000  0.000000  0.500000  1
  F  F8  1  0.868068  0.598994  0.269075  1
  F  F9  1  0.170080  0.901006  0.269075  1
  F  F10  1  0.185362  0.822801  0.772982  1
  F  F11  1  0.450181  0.677199  0.362563  1
  F  F12  1  0.450181  0.087620  0.772982  1
  F  F13  1  0.185362  0.412380  0.362563  1
  F  F14  1  0.814638  0.587620  0.637437  1
  F  F15  1  0.549819  0.912380  0.227018  1
  F  F16  1  0.549819  0.322801  0.637437  1
  F  F17  1  0.814638  0.177199  0.227018  1
  F  F18  1  0.423445  0.250000  0.173445  1
  F  F19  1  0.131932  0.401006  0.730925  1
  F  F20  1  0.829920  0.098994  0.730925  1
  F  F21  1  0.576555  0.750000  0.826555  1
