# generated using pymatgen
data_Sr4Cu(Si2Pt)5
_symmetry_space_group_name_H-M   'P 1'
_cell_length_a   8.42404839
_cell_length_b   8.42404805
_cell_length_c   8.42404027
_cell_angle_alpha   138.52480361
_cell_angle_beta   105.25687238
_cell_angle_gamma   89.29017146
_symmetry_Int_Tables_number   1
_chemical_formula_structural   Sr4Cu(Si2Pt)5
_chemical_formula_sum   'Sr4 Cu1 Si10 Pt5'
_cell_volume   365.65215657
_cell_formula_units_Z   1
loop_
 _symmetry_equiv_pos_site_id
 _symmetry_equiv_pos_as_xyz
  1  'x, y, z'
loop_
 _atom_site_type_symbol
 _atom_site_label
 _atom_site_symmetry_multiplicity
 _atom_site_fract_x
 _atom_site_fract_y
 _atom_site_fract_z
 _atom_site_occupancy
  Sr  Sr0  1  0.109817  0.873160  0.238441  1
  Sr  Sr1  1  0.890184  0.128625  0.763344  1
  Sr  Sr2  1  0.634720  0.371376  0.261559  1
  Sr  Sr3  1  0.365280  0.626839  0.736656  1
  Cu  Cu4  1  0.499996  0.749996  0.250000  1
  Si  Si5  1  0.000000  0.750000  0.750000  1
  Si  Si6  1  0.000000  0.250000  0.250000  1
  Si  Si7  1  0.271277  0.021277  0.750000  1
  Si  Si8  1  0.728724  0.478724  0.750000  1
  Si  Si9  1  0.731923  0.981923  0.250000  1
  Si  Si10  1  0.268077  0.518077  0.250000  1
  Si  Si11  1  0.759468  0.616909  0.149074  1
  Si  Si12  1  0.240533  0.389609  0.857444  1
  Si  Si13  1  0.467836  0.110394  0.350926  1
  Si  Si14  1  0.532165  0.883090  0.642556  1
  Pt  Pt15  1  0.500000  0.250000  0.750000  1
  Pt  Pt16  1  0.023047  0.636241  0.389564  1
  Pt  Pt17  1  0.976953  0.366516  0.613195  1
  Pt  Pt18  1  0.246678  0.133484  0.110436  1
  Pt  Pt19  1  0.753321  0.863758  0.886805  1
