# generated using pymatgen
data_LaNd6P12Pd17
_symmetry_space_group_name_H-M   'P 1'
_cell_length_a   12.44683795
_cell_length_b   12.44683835
_cell_length_c   13.67746963
_cell_angle_alpha   68.18634998
_cell_angle_beta   68.18634905
_cell_angle_gamma   18.95317709
_symmetry_Int_Tables_number   1
_chemical_formula_structural   LaNd6P12Pd17
_chemical_formula_sum   'La1 Nd6 P12 Pd17'
_cell_volume   637.52335292
_cell_formula_units_Z   1
loop_
 _symmetry_equiv_pos_site_id
 _symmetry_equiv_pos_as_xyz
  1  'x, y, z'
loop_
 _atom_site_type_symbol
 _atom_site_label
 _atom_site_symmetry_multiplicity
 _atom_site_fract_x
 _atom_site_fract_y
 _atom_site_fract_z
 _atom_site_occupancy
  La  La0  1  0.500000  0.500000  0.500000  1
  Nd  Nd1  1  0.365034  0.365034  0.000375  1
  Nd  Nd2  1  0.634966  0.634966  0.999625  1
  Nd  Nd3  1  0.233477  0.233477  0.313821  1
  Nd  Nd4  1  0.766523  0.766523  0.686179  1
  Nd  Nd5  1  0.417891  0.417891  0.261911  1
  Nd  Nd6  1  0.582109  0.582109  0.738089  1
  P  P7  1  0.061146  0.061146  0.925104  1
  P  P8  1  0.938854  0.938854  0.074896  1
  P  P9  1  0.886661  0.886661  0.828245  1
  P  P10  1  0.113339  0.113339  0.171755  1
  P  P11  1  0.188137  0.188137  0.620138  1
  P  P12  1  0.811863  0.811863  0.379862  1
  P  P13  1  0.364018  0.364018  0.579987  1
  P  P14  1  0.635982  0.635982  0.420013  1
  P  P15  1  0.011289  0.011289  0.671812  1
  P  P16  1  0.988711  0.988711  0.328188  1
  P  P17  1  0.232756  0.232756  0.882217  1
  P  P18  1  0.767244  0.767244  0.117783  1
  Pd  Pd19  1  0.838721  0.838721  0.193472  1
  Pd  Pd20  1  0.161279  0.161279  0.806528  1
  Pd  Pd21  1  0.026043  0.026043  0.124796  1
  Pd  Pd22  1  0.973957  0.973957  0.875204  1
  Pd  Pd23  1  0.889984  0.889984  0.457567  1
  Pd  Pd24  1  0.110016  0.110016  0.542433  1
  Pd  Pd25  1  0.500000  0.500000  0.000000  1
  Pd  Pd26  1  0.547079  0.547079  0.253075  1
  Pd  Pd27  1  0.452921  0.452921  0.746925  1
  Pd  Pd28  1  0.296522  0.296522  0.487298  1
  Pd  Pd29  1  0.703478  0.703478  0.512702  1
  Pd  Pd30  1  0.666551  0.666551  0.222336  1
  Pd  Pd31  1  0.333449  0.333449  0.777664  1
  Pd  Pd32  1  0.906671  0.906671  0.644841  1
  Pd  Pd33  1  0.093329  0.093329  0.355159  1
  Pd  Pd34  1  0.217812  0.217812  0.070295  1
  Pd  Pd35  1  0.782188  0.782188  0.929705  1
