# generated using pymatgen
data_Y7Zr(B6Os)4
_symmetry_space_group_name_H-M   'P 1'
_cell_length_a   3.64220700
_cell_length_b   9.14140786
_cell_length_c   11.51546316
_cell_angle_alpha   90.04621438
_cell_angle_beta   90.00000000
_cell_angle_gamma   90.00000000
_symmetry_Int_Tables_number   1
_chemical_formula_structural   Y7Zr(B6Os)4
_chemical_formula_sum   'Y7 Zr1 B24 Os4'
_cell_volume   383.40606620
_cell_formula_units_Z   1
loop_
 _symmetry_equiv_pos_site_id
 _symmetry_equiv_pos_as_xyz
  1  'x, y, z'
loop_
 _atom_site_type_symbol
 _atom_site_label
 _atom_site_symmetry_multiplicity
 _atom_site_fract_x
 _atom_site_fract_y
 _atom_site_fract_z
 _atom_site_occupancy
  Y  Y0  1  0.000000  0.321979  0.413527  1
  Y  Y1  1  0.000000  0.678224  0.586910  1
  Y  Y2  1  0.000000  0.821270  0.086074  1
  Y  Y3  1  0.000000  0.179146  0.913326  1
  Y  Y4  1  0.000000  0.944503  0.373808  1
  Y  Y5  1  0.000000  0.056249  0.627168  1
  Y  Y6  1  0.000000  0.444498  0.125397  1
  Zr  Zr7  1  0.000000  0.556366  0.873232  1
  B  B8  1  0.500000  0.553781  0.432823  1
  B  B9  1  0.500000  0.446774  0.567762  1
  B  B10  1  0.500000  0.053691  0.066468  1
  B  B11  1  0.500000  0.944121  0.933297  1
  B  B12  1  0.500000  0.747567  0.419701  1
  B  B13  1  0.500000  0.253249  0.581085  1
  B  B14  1  0.500000  0.248090  0.079970  1
  B  B15  1  0.500000  0.748653  0.919609  1
  B  B16  1  0.500000  0.790882  0.266018  1
  B  B17  1  0.500000  0.209446  0.735026  1
  B  B18  1  0.500000  0.291081  0.233379  1
  B  B19  1  0.500000  0.706364  0.766105  1
  B  B20  1  0.500000  0.631234  0.185328  1
  B  B21  1  0.500000  0.371104  0.815842  1
  B  B22  1  0.500000  0.132271  0.314406  1
  B  B23  1  0.500000  0.866816  0.685604  1
  B  B24  1  0.500000  0.983711  0.212921  1
  B  B25  1  0.500000  0.015679  0.787753  1
  B  B26  1  0.500000  0.482923  0.286866  1
  B  B27  1  0.500000  0.519028  0.714062  1
  B  B28  1  0.500000  0.605272  0.025648  1
  B  B29  1  0.500000  0.397372  0.968332  1
  B  B30  1  0.500000  0.110593  0.470218  1
  B  B31  1  0.500000  0.889609  0.530660  1
  Os  Os32  1  0.000000  0.637317  0.320282  1
  Os  Os33  1  0.000000  0.364698  0.681682  1
  Os  Os34  1  0.000000  0.138108  0.177518  1
  Os  Os35  1  0.000000  0.858335  0.822193  1
