# generated using pymatgen
data_Pr3Y(PPt)4
_symmetry_space_group_name_H-M   'P 1'
_cell_length_a   4.17452300
_cell_length_b   4.17452191
_cell_length_c   16.39628900
_cell_angle_alpha   90.00000000
_cell_angle_beta   90.00000000
_cell_angle_gamma   120.00000069
_symmetry_Int_Tables_number   1
_chemical_formula_structural   Pr3Y(PPt)4
_chemical_formula_sum   'Pr3 Y1 P4 Pt4'
_cell_volume   247.45133234
_cell_formula_units_Z   1
loop_
 _symmetry_equiv_pos_site_id
 _symmetry_equiv_pos_as_xyz
  1  'x, y, z'
loop_
 _atom_site_type_symbol
 _atom_site_label
 _atom_site_symmetry_multiplicity
 _atom_site_fract_x
 _atom_site_fract_y
 _atom_site_fract_z
 _atom_site_occupancy
  Pr  Pr0  1  0.000000  0.000000  0.994079  1
  Pr  Pr1  1  0.000000  0.000000  0.505921  1
  Pr  Pr2  1  0.000000  0.000000  0.250000  1
  Y  Y3  1  0.000000  0.000000  0.750000  1
  P  P4  1  0.333333  0.666667  0.874324  1
  P  P5  1  0.666667  0.333333  0.376889  1
  P  P6  1  0.666667  0.333333  0.123111  1
  P  P7  1  0.333333  0.666667  0.625676  1
  Pt  Pt8  1  0.333333  0.666667  0.376943  1
  Pt  Pt9  1  0.666667  0.333333  0.861135  1
  Pt  Pt10  1  0.666667  0.333333  0.638865  1
  Pt  Pt11  1  0.333333  0.666667  0.123057  1
