# generated using pymatgen
data_TbMgCo2P3Rh2
_symmetry_space_group_name_H-M   'P 1'
_cell_length_a   3.77661800
_cell_length_b   10.72203500
_cell_length_c   12.59639000
_cell_angle_alpha   90.00000000
_cell_angle_beta   90.00000000
_cell_angle_gamma   90.00000000
_symmetry_Int_Tables_number   1
_chemical_formula_structural   TbMgCo2P3Rh2
_chemical_formula_sum   'Tb4 Mg4 Co8 P12 Rh8'
_cell_volume   510.06600292
_cell_formula_units_Z   4
loop_
 _symmetry_equiv_pos_site_id
 _symmetry_equiv_pos_as_xyz
  1  'x, y, z'
loop_
 _atom_site_type_symbol
 _atom_site_label
 _atom_site_symmetry_multiplicity
 _atom_site_fract_x
 _atom_site_fract_y
 _atom_site_fract_z
 _atom_site_occupancy
  Tb  Tb0  1  0.250000  0.581237  0.712002  1
  Tb  Tb1  1  0.250000  0.918763  0.212002  1
  Tb  Tb2  1  0.750000  0.418763  0.287998  1
  Tb  Tb3  1  0.750000  0.081237  0.787998  1
  Mg  Mg4  1  0.250000  0.706850  0.988435  1
  Mg  Mg5  1  0.250000  0.793150  0.488435  1
  Mg  Mg6  1  0.750000  0.293150  0.011565  1
  Mg  Mg7  1  0.750000  0.206850  0.511565  1
  Co  Co8  1  0.250000  0.881471  0.692054  1
  Co  Co9  1  0.250000  0.618529  0.192054  1
  Co  Co10  1  0.750000  0.118529  0.307946  1
  Co  Co11  1  0.750000  0.381471  0.807946  1
  Co  Co12  1  0.250000  0.465057  0.935649  1
  Co  Co13  1  0.250000  0.034943  0.435649  1
  Co  Co14  1  0.750000  0.534943  0.064351  1
  Co  Co15  1  0.750000  0.965057  0.564351  1
  P  P16  1  0.250000  0.431708  0.113803  1
  P  P17  1  0.250000  0.068292  0.613803  1
  P  P18  1  0.750000  0.568292  0.886197  1
  P  P19  1  0.750000  0.931708  0.386197  1
  P  P20  1  0.250000  0.275168  0.859497  1
  P  P21  1  0.250000  0.224832  0.359497  1
  P  P22  1  0.750000  0.724832  0.140503  1
  P  P23  1  0.750000  0.775168  0.640503  1
  P  P24  1  0.250000  0.592638  0.378118  1
  P  P25  1  0.250000  0.907362  0.878118  1
  P  P26  1  0.750000  0.407362  0.621882  1
  P  P27  1  0.750000  0.092638  0.121882  1
  Rh  Rh28  1  0.250000  0.402230  0.475173  1
  Rh  Rh29  1  0.250000  0.097770  0.975173  1
  Rh  Rh30  1  0.750000  0.597770  0.524827  1
  Rh  Rh31  1  0.750000  0.902230  0.024827  1
  Rh  Rh32  1  0.250000  0.220167  0.174780  1
  Rh  Rh33  1  0.250000  0.279833  0.674780  1
  Rh  Rh34  1  0.750000  0.779833  0.825220  1
  Rh  Rh35  1  0.750000  0.720167  0.325220  1
