# generated using pymatgen
data_Tb2Al9PdPtRh
_symmetry_space_group_name_H-M   'P 1'
_cell_length_a   7.62341803
_cell_length_b   7.62341726
_cell_length_c   9.46545206
_cell_angle_alpha   90.00655245
_cell_angle_beta   90.00655119
_cell_angle_gamma   119.62110153
_symmetry_Int_Tables_number   1
_chemical_formula_structural   Tb2Al9PdPtRh
_chemical_formula_sum   'Tb4 Al18 Pd2 Pt2 Rh2'
_cell_volume   478.20809943
_cell_formula_units_Z   2
loop_
 _symmetry_equiv_pos_site_id
 _symmetry_equiv_pos_as_xyz
  1  'x, y, z'
loop_
 _atom_site_type_symbol
 _atom_site_label
 _atom_site_symmetry_multiplicity
 _atom_site_fract_x
 _atom_site_fract_y
 _atom_site_fract_z
 _atom_site_occupancy
  Tb  Tb0  1  0.993697  0.667350  0.250042  1
  Tb  Tb1  1  0.006303  0.332650  0.749958  1
  Tb  Tb2  1  0.667350  0.993697  0.250042  1
  Tb  Tb3  1  0.332650  0.006303  0.749958  1
  Al  Al4  1  0.125397  0.125397  0.250005  1
  Al  Al5  1  0.874603  0.874603  0.749995  1
  Al  Al6  1  0.999878  0.330643  0.076349  1
  Al  Al7  1  0.000122  0.669357  0.923651  1
  Al  Al8  1  0.000225  0.669428  0.576175  1
  Al  Al9  1  0.330572  0.999775  0.423825  1
  Al  Al10  1  0.999775  0.330572  0.423825  1
  Al  Al11  1  0.669428  0.000225  0.576175  1
  Al  Al12  1  0.669357  0.000122  0.923651  1
  Al  Al13  1  0.330643  0.999878  0.076349  1
  Al  Al14  1  0.329368  0.329368  0.554413  1
  Al  Al15  1  0.670632  0.670632  0.445587  1
  Al  Al16  1  0.670421  0.670421  0.054593  1
  Al  Al17  1  0.329579  0.329579  0.945407  1
  Al  Al18  1  0.340746  0.546328  0.249847  1
  Al  Al19  1  0.659254  0.453672  0.750153  1
  Al  Al20  1  0.546328  0.340746  0.249847  1
  Al  Al21  1  0.453672  0.659254  0.750153  1
  Pd  Pd22  1  0.672366  0.327634  0.000000  1
  Pd  Pd23  1  0.327634  0.672366  0.000000  1
  Pt  Pt24  1  0.327630  0.672370  0.500000  1
  Pt  Pt25  1  0.672370  0.327630  0.500000  1
  Rh  Rh26  1  0.000000  0.000000  0.000000  1
  Rh  Rh27  1  0.000000  0.000000  0.500000  1
