# generated using pymatgen
data_TaTi2(InRh2)3
_symmetry_space_group_name_H-M   'P 1'
_cell_length_a   4.30652700
_cell_length_b   7.16565700
_cell_length_c   12.57853001
_cell_angle_alpha   90.00000000
_cell_angle_beta   90.00092882
_cell_angle_gamma   90.00000000
_symmetry_Int_Tables_number   1
_chemical_formula_structural   TaTi2(InRh2)3
_chemical_formula_sum   'Ta2 Ti4 In6 Rh12'
_cell_volume   388.16205672
_cell_formula_units_Z   2
loop_
 _symmetry_equiv_pos_site_id
 _symmetry_equiv_pos_as_xyz
  1  'x, y, z'
loop_
 _atom_site_type_symbol
 _atom_site_label
 _atom_site_symmetry_multiplicity
 _atom_site_fract_x
 _atom_site_fract_y
 _atom_site_fract_z
 _atom_site_occupancy
  Ta  Ta0  1  0.999997  0.500000  0.999758  1
  Ta  Ta1  1  0.499983  0.000000  0.166915  1
  Ti  Ti2  1  0.000112  0.500000  0.336043  1
  Ti  Ti3  1  0.499886  0.000000  0.502093  1
  Ti  Ti4  1  0.000055  0.500000  0.664618  1
  Ti  Ti5  1  0.499971  0.000000  0.830573  1
  In  In6  1  0.999966  0.000000  0.995344  1
  In  In7  1  0.500051  0.500000  0.171646  1
  In  In8  1  0.999974  0.000000  0.338012  1
  In  In9  1  0.500059  0.500000  0.499840  1
  In  In10  1  0.999957  0.000000  0.666478  1
  In  In11  1  0.500082  0.500000  0.828724  1
  Rh  Rh12  1  0.500012  0.252023  0.000883  1
  Rh  Rh13  1  0.500012  0.747977  0.000883  1
  Rh  Rh14  1  0.999962  0.248010  0.165915  1
  Rh  Rh15  1  0.999962  0.751990  0.165915  1
  Rh  Rh16  1  0.499983  0.243105  0.333393  1
  Rh  Rh17  1  0.499983  0.756895  0.333393  1
  Rh  Rh18  1  0.999991  0.255559  0.500322  1
  Rh  Rh19  1  0.999991  0.744441  0.500322  1
  Rh  Rh20  1  0.500001  0.244471  0.666158  1
  Rh  Rh21  1  0.500001  0.755529  0.666158  1
  Rh  Rh22  1  0.000005  0.257031  0.833306  1
  Rh  Rh23  1  0.000005  0.742969  0.833306  1
