# generated using pymatgen
data_Ti7As6Pd
_symmetry_space_group_name_H-M   'P 1'
_cell_length_a   7.27940906
_cell_length_b   7.27940838
_cell_length_c   18.79670200
_cell_angle_alpha   90.00000000
_cell_angle_beta   90.00000000
_cell_angle_gamma   151.69422141
_symmetry_Int_Tables_number   1
_chemical_formula_structural   Ti7As6Pd
_chemical_formula_sum   'Ti14 As12 Pd2'
_cell_volume   472.29609726
_cell_formula_units_Z   2
loop_
 _symmetry_equiv_pos_site_id
 _symmetry_equiv_pos_as_xyz
  1  'x, y, z'
loop_
 _atom_site_type_symbol
 _atom_site_label
 _atom_site_symmetry_multiplicity
 _atom_site_fract_x
 _atom_site_fract_y
 _atom_site_fract_z
 _atom_site_occupancy
  Ti  Ti0  1  0.732531  0.267469  0.161498  1
  Ti  Ti1  1  0.267469  0.732531  0.838502  1
  Ti  Ti2  1  0.267469  0.732531  0.661498  1
  Ti  Ti3  1  0.732531  0.267469  0.338502  1
  Ti  Ti4  1  0.535802  0.464198  0.118707  1
  Ti  Ti5  1  0.464198  0.535802  0.881293  1
  Ti  Ti6  1  0.464198  0.535802  0.618707  1
  Ti  Ti7  1  0.535802  0.464198  0.381293  1
  Ti  Ti8  1  0.663368  0.336632  0.972221  1
  Ti  Ti9  1  0.336632  0.663368  0.027779  1
  Ti  Ti10  1  0.336632  0.663368  0.472221  1
  Ti  Ti11  1  0.663368  0.336632  0.527779  1
  Ti  Ti12  1  0.060482  0.939518  0.750000  1
  Ti  Ti13  1  0.939518  0.060482  0.250000  1
  As  As14  1  0.902989  0.097011  0.116645  1
  As  As15  1  0.097011  0.902989  0.883355  1
  As  As16  1  0.097011  0.902989  0.616645  1
  As  As17  1  0.902989  0.097011  0.383355  1
  As  As18  1  0.838309  0.161691  0.924598  1
  As  As19  1  0.161691  0.838309  0.075402  1
  As  As20  1  0.161691  0.838309  0.424598  1
  As  As21  1  0.838309  0.161691  0.575402  1
  As  As22  1  0.699882  0.300118  0.750000  1
  As  As23  1  0.300118  0.699882  0.250000  1
  As  As24  1  0.420224  0.579776  0.750000  1
  As  As25  1  0.579776  0.420224  0.250000  1
  Pd  Pd26  1  0.000000  0.000000  0.000000  1
  Pd  Pd27  1  0.000000  0.000000  0.500000  1
