# generated using pymatgen
data_Yb3Y(MnB4)4
_symmetry_space_group_name_H-M   'P 1'
_cell_length_a   3.37352000
_cell_length_b   5.90250702
_cell_length_c   11.41647758
_cell_angle_alpha   90.01361771
_cell_angle_beta   90.00000000
_cell_angle_gamma   90.00000000
_symmetry_Int_Tables_number   1
_chemical_formula_structural   Yb3Y(MnB4)4
_chemical_formula_sum   'Yb3 Y1 Mn4 B16'
_cell_volume   227.32746932
_cell_formula_units_Z   1
loop_
 _symmetry_equiv_pos_site_id
 _symmetry_equiv_pos_as_xyz
  1  'x, y, z'
loop_
 _atom_site_type_symbol
 _atom_site_label
 _atom_site_symmetry_multiplicity
 _atom_site_fract_x
 _atom_site_fract_y
 _atom_site_fract_z
 _atom_site_occupancy
  Yb  Yb0  1  0.000000  0.874506  0.348428  1
  Yb  Yb1  1  0.000000  0.624704  0.849546  1
  Yb  Yb2  1  0.000000  0.374843  0.151218  1
  Y  Y3  1  0.000000  0.125409  0.651225  1
  Mn  Mn4  1  0.000000  0.123269  0.919441  1
  Mn  Mn5  1  0.000000  0.875974  0.080309  1
  Mn  Mn6  1  0.000000  0.622440  0.580200  1
  Mn  Mn7  1  0.000000  0.376856  0.420558  1
  B  B8  1  0.500000  0.362205  0.967475  1
  B  B9  1  0.500000  0.637920  0.032619  1
  B  B10  1  0.500000  0.860967  0.532230  1
  B  B11  1  0.500000  0.138903  0.466725  1
  B  B12  1  0.500000  0.475911  0.691040  1
  B  B13  1  0.500000  0.523640  0.309314  1
  B  B14  1  0.500000  0.974808  0.809566  1
  B  B15  1  0.500000  0.024911  0.190810  1
  B  B16  1  0.500000  0.279988  0.817643  1
  B  B17  1  0.500000  0.720371  0.183191  1
  B  B18  1  0.500000  0.778261  0.682880  1
  B  B19  1  0.500000  0.221646  0.316824  1
  B  B20  1  0.500000  0.388520  0.546426  1
  B  B21  1  0.500000  0.613116  0.453055  1
  B  B22  1  0.500000  0.886808  0.953004  1
  B  B23  1  0.500000  0.114025  0.046272  1
