# generated using pymatgen
data_Sc6B4Ir6RuRh3
_symmetry_space_group_name_H-M   'P 1'
_cell_length_a   3.07628200
_cell_length_b   9.61446897
_cell_length_c   9.55641987
_cell_angle_alpha   90.51913002
_cell_angle_beta   90.00000000
_cell_angle_gamma   90.00000000
_symmetry_Int_Tables_number   1
_chemical_formula_structural   Sc6B4Ir6RuRh3
_chemical_formula_sum   'Sc6 B4 Ir6 Ru1 Rh3'
_cell_volume   282.63688801
_cell_formula_units_Z   1
loop_
 _symmetry_equiv_pos_site_id
 _symmetry_equiv_pos_as_xyz
  1  'x, y, z'
loop_
 _atom_site_type_symbol
 _atom_site_label
 _atom_site_symmetry_multiplicity
 _atom_site_fract_x
 _atom_site_fract_y
 _atom_site_fract_z
 _atom_site_occupancy
  Sc  Sc0  1  0.000000  0.174085  0.672652  1
  Sc  Sc1  1  0.000000  0.825915  0.327348  1
  Sc  Sc2  1  0.000000  0.324272  0.176084  1
  Sc  Sc3  1  0.000000  0.675728  0.823916  1
  Sc  Sc4  1  0.000000  0.000000  0.000000  1
  Sc  Sc5  1  0.000000  0.500000  0.500000  1
  B  B6  1  0.000000  0.623486  0.122919  1
  B  B7  1  0.000000  0.376514  0.877081  1
  B  B8  1  0.000000  0.879965  0.618664  1
  B  B9  1  0.000000  0.120035  0.381336  1
  Ir  Ir10  1  0.500000  0.776984  0.071239  1
  Ir  Ir11  1  0.500000  0.429224  0.722230  1
  Ir  Ir12  1  0.500000  0.223016  0.928761  1
  Ir  Ir13  1  0.500000  0.570776  0.277770  1
  Ir  Ir14  1  0.500000  0.722397  0.572984  1
  Ir  Ir15  1  0.500000  0.277603  0.427016  1
  Ru  Ru16  1  0.500000  0.000000  0.500000  1
  Rh  Rh17  1  0.500000  0.071344  0.221093  1
  Rh  Rh18  1  0.500000  0.928656  0.778907  1
  Rh  Rh19  1  0.500000  0.500000  0.000000  1
