# generated using pymatgen
data_Bi(OF3)2
_symmetry_space_group_name_H-M   'P 1'
_cell_length_a   5.33763889
_cell_length_b   5.44142481
_cell_length_c   5.30325774
_cell_angle_alpha   81.93451368
_cell_angle_beta   102.11067460
_cell_angle_gamma   100.84873115
_symmetry_Int_Tables_number   1
_chemical_formula_structural   Bi(OF3)2
_chemical_formula_sum   'Bi1 O2 F6'
_cell_volume   147.09261823
_cell_formula_units_Z   1
loop_
 _symmetry_equiv_pos_site_id
 _symmetry_equiv_pos_as_xyz
  1  'x, y, z'
loop_
 _atom_site_type_symbol
 _atom_site_label
 _atom_site_symmetry_multiplicity
 _atom_site_fract_x
 _atom_site_fract_y
 _atom_site_fract_z
 _atom_site_occupancy
  Bi  Bi0  1  0.000000  0.000000  0.000000  1
  O  O1  1  0.404157  0.530939  0.512295  1
  O  O2  1  0.595843  0.469061  0.487705  1
  F  F3  1  0.762854  0.680698  0.119796  1
  F  F4  1  0.676613  0.120760  0.760904  1
  F  F5  1  0.323387  0.879240  0.239096  1
  F  F6  1  0.048773  0.810845  0.714897  1
  F  F7  1  0.951227  0.189155  0.285103  1
  F  F8  1  0.237146  0.319302  0.880204  1
