# generated using pymatgen
data_NaTc3Mo3Se3S5
_symmetry_space_group_name_H-M   'P 1'
_cell_length_a   6.67856442
_cell_length_b   6.67856447
_cell_length_c   6.67856275
_cell_angle_alpha   91.32890907
_cell_angle_beta   91.32890153
_cell_angle_gamma   91.32889558
_symmetry_Int_Tables_number   1
_chemical_formula_structural   NaTc3Mo3Se3S5
_chemical_formula_sum   'Na1 Tc3 Mo3 Se3 S5'
_cell_volume   297.64128055
_cell_formula_units_Z   1
loop_
 _symmetry_equiv_pos_site_id
 _symmetry_equiv_pos_as_xyz
  1  'x, y, z'
loop_
 _atom_site_type_symbol
 _atom_site_label
 _atom_site_symmetry_multiplicity
 _atom_site_fract_x
 _atom_site_fract_y
 _atom_site_fract_z
 _atom_site_occupancy
  Na  Na0  1  0.998989  0.998989  0.998989  1
  Tc  Tc1  1  0.761974  0.444786  0.586161  1
  Tc  Tc2  1  0.586161  0.761974  0.444786  1
  Tc  Tc3  1  0.444786  0.586161  0.761974  1
  Mo  Mo4  1  0.234126  0.555606  0.414760  1
  Mo  Mo5  1  0.414760  0.234126  0.555606  1
  Mo  Mo6  1  0.555606  0.414760  0.234126  1
  Se  Se7  1  0.119980  0.373047  0.749231  1
  Se  Se8  1  0.749231  0.119980  0.373047  1
  Se  Se9  1  0.373047  0.749231  0.119980  1
  S  S10  1  0.869560  0.611728  0.284441  1
  S  S11  1  0.284441  0.869560  0.611728  1
  S  S12  1  0.611728  0.284441  0.869560  1
  S  S13  1  0.757618  0.757618  0.757618  1
  S  S14  1  0.237992  0.237992  0.237992  1
