# generated using pymatgen
data_Cs5(CuO2)2
_symmetry_space_group_name_H-M   'P 1'
_cell_length_a   7.31794531
_cell_length_b   9.63262746
_cell_length_c   10.13477229
_cell_angle_alpha   62.82218330
_cell_angle_beta   90.40912399
_cell_angle_gamma   71.59502261
_symmetry_Int_Tables_number   1
_chemical_formula_structural   Cs5(CuO2)2
_chemical_formula_sum   'Cs10 Cu4 O8'
_cell_volume   593.25314793
_cell_formula_units_Z   2
loop_
 _symmetry_equiv_pos_site_id
 _symmetry_equiv_pos_as_xyz
  1  'x, y, z'
loop_
 _atom_site_type_symbol
 _atom_site_label
 _atom_site_symmetry_multiplicity
 _atom_site_fract_x
 _atom_site_fract_y
 _atom_site_fract_z
 _atom_site_occupancy
  Cs  Cs0  1  0.901143  0.831252  0.782745  1
  Cs  Cs1  1  0.098857  0.168748  0.217255  1
  Cs  Cs2  1  0.899293  0.435142  0.780578  1
  Cs  Cs3  1  0.100707  0.564858  0.219422  1
  Cs  Cs4  1  0.724602  0.054764  0.025828  1
  Cs  Cs5  1  0.275398  0.945236  0.974172  1
  Cs  Cs6  1  0.386445  0.354360  0.639322  1
  Cs  Cs7  1  0.613555  0.645640  0.360678  1
  Cs  Cs8  1  0.615462  0.169863  0.380995  1
  Cs  Cs9  1  0.384538  0.830137  0.619005  1
  Cu  Cu10  1  0.611300  0.573036  0.029649  1
  Cu  Cu11  1  0.388700  0.426964  0.970351  1
  Cu  Cu12  1  0.984491  0.792369  0.423490  1
  Cu  Cu13  1  0.015509  0.207631  0.576510  1
  O  O14  1  0.677377  0.735910  0.043258  1
  O  O15  1  0.322623  0.264090  0.956742  1
  O  O16  1  0.225228  0.204625  0.482718  1
  O  O17  1  0.774772  0.795375  0.517282  1
  O  O18  1  0.329031  0.639218  0.952326  1
  O  O19  1  0.670969  0.360782  0.047674  1
  O  O20  1  0.813569  0.204889  0.677983  1
  O  O21  1  0.186431  0.795111  0.322017  1
