# generated using pymatgen
data_Er4Lu(TcO6)2
_symmetry_space_group_name_H-M   'P 1'
_cell_length_a   6.75564739
_cell_length_b   6.75564782
_cell_length_c   7.43084773
_cell_angle_alpha   73.75631572
_cell_angle_beta   73.75631280
_cell_angle_gamma   49.28946881
_symmetry_Int_Tables_number   1
_chemical_formula_structural   Er4Lu(TcO6)2
_chemical_formula_sum   'Er4 Lu1 Tc2 O12'
_cell_volume   244.59226413
_cell_formula_units_Z   1
loop_
 _symmetry_equiv_pos_site_id
 _symmetry_equiv_pos_as_xyz
  1  'x, y, z'
loop_
 _atom_site_type_symbol
 _atom_site_label
 _atom_site_symmetry_multiplicity
 _atom_site_fract_x
 _atom_site_fract_y
 _atom_site_fract_z
 _atom_site_occupancy
  Er  Er0  1  0.696420  0.696420  0.641497  1
  Er  Er1  1  0.303580  0.303580  0.358503  1
  Er  Er2  1  0.683699  0.683699  0.177974  1
  Er  Er3  1  0.316301  0.316301  0.822026  1
  Lu  Lu4  1  0.000000  0.000000  0.500000  1
  Tc  Tc5  1  0.785917  0.214083  0.000000  1
  Tc  Tc6  1  0.214083  0.785917  0.000000  1
  O  O7  1  0.001865  0.001865  0.207535  1
  O  O8  1  0.998135  0.998135  0.792465  1
  O  O9  1  0.581095  0.086235  0.086050  1
  O  O10  1  0.418905  0.913765  0.913950  1
  O  O11  1  0.913765  0.418905  0.913950  1
  O  O12  1  0.086235  0.581095  0.086050  1
  O  O13  1  0.498688  0.498688  0.180482  1
  O  O14  1  0.501312  0.501312  0.819518  1
  O  O15  1  0.402029  0.901535  0.428336  1
  O  O16  1  0.597971  0.098465  0.571664  1
  O  O17  1  0.098465  0.597971  0.571664  1
  O  O18  1  0.901535  0.402029  0.428336  1
