# generated using pymatgen
data_Hg17Au
_symmetry_space_group_name_H-M   'P 1'
_cell_length_a   17.26414714
_cell_length_b   17.26414707
_cell_length_c   7.30247270
_cell_angle_alpha   110.70568443
_cell_angle_beta   110.70568483
_cell_angle_gamma   13.41484266
_symmetry_Int_Tables_number   1
_chemical_formula_structural   Hg17Au
_chemical_formula_sum   'Hg17 Au1'
_cell_volume   471.86743229
_cell_formula_units_Z   1
loop_
 _symmetry_equiv_pos_site_id
 _symmetry_equiv_pos_as_xyz
  1  'x, y, z'
loop_
 _atom_site_type_symbol
 _atom_site_label
 _atom_site_symmetry_multiplicity
 _atom_site_fract_x
 _atom_site_fract_y
 _atom_site_fract_z
 _atom_site_occupancy
  Hg  Hg0  1  0.103272  0.103272  0.066114  1
  Hg  Hg1  1  0.221827  0.221827  0.111548  1
  Hg  Hg2  1  0.336523  0.336523  0.151830  1
  Hg  Hg3  1  0.449477  0.449477  0.227035  1
  Hg  Hg4  1  0.550015  0.550015  0.310127  1
  Hg  Hg5  1  0.778321  0.778321  0.388619  1
  Hg  Hg6  1  0.221679  0.221679  0.611382  1
  Hg  Hg7  1  0.449985  0.449985  0.689873  1
  Hg  Hg8  1  0.550523  0.550523  0.772964  1
  Hg  Hg9  1  0.663476  0.663476  0.848170  1
  Hg  Hg10  1  0.778172  0.778172  0.888451  1
  Hg  Hg11  1  0.896729  0.896729  0.933887  1
  Hg  Hg12  1  0.000000  0.000000  0.000000  1
  Hg  Hg13  1  0.664460  0.664460  0.331491  1
  Hg  Hg14  1  0.889760  0.889760  0.431433  1
  Hg  Hg15  1  0.110240  0.110240  0.568568  1
  Hg  Hg16  1  0.335540  0.335540  0.668509  1
  Au  Au17  1  0.000000  0.000000  0.500000  1
