# generated using pymatgen
data_TbTh3(Ga5Rh3)2
_symmetry_space_group_name_H-M   'P 1'
_cell_length_a   8.65478538
_cell_length_b   8.69919592
_cell_length_c   5.74651077
_cell_angle_alpha   70.70433619
_cell_angle_beta   70.61589131
_cell_angle_gamma   95.67336991
_symmetry_Int_Tables_number   1
_chemical_formula_structural   TbTh3(Ga5Rh3)2
_chemical_formula_sum   'Tb1 Th3 Ga10 Rh6'
_cell_volume   374.48685709
_cell_formula_units_Z   1
loop_
 _symmetry_equiv_pos_site_id
 _symmetry_equiv_pos_as_xyz
  1  'x, y, z'
loop_
 _atom_site_type_symbol
 _atom_site_label
 _atom_site_symmetry_multiplicity
 _atom_site_fract_x
 _atom_site_fract_y
 _atom_site_fract_z
 _atom_site_occupancy
  Tb  Tb0  1  0.584339  0.863100  0.276225  1
  Th  Th1  1  0.863613  0.581812  0.776943  1
  Th  Th2  1  0.419712  0.137148  0.721408  1
  Th  Th3  1  0.137568  0.417211  0.222764  1
  Ga  Ga4  1  0.079585  0.258107  0.830705  1
  Ga  Ga5  1  0.737254  0.917548  0.673724  1
  Ga  Ga6  1  0.917204  0.743695  0.169608  1
  Ga  Ga7  1  0.258312  0.079785  0.330229  1
  Ga  Ga8  1  0.502667  0.503889  0.743282  1
  Ga  Ga9  1  0.502070  0.504522  0.250218  1
  Ga  Ga10  1  0.792922  0.201234  0.755943  1
  Ga  Ga11  1  0.793703  0.200537  0.249969  1
  Ga  Ga12  1  0.206848  0.796788  0.747663  1
  Ga  Ga13  1  0.207030  0.796161  0.248584  1
  Rh  Rh14  1  0.999372  0.999505  0.250537  1
  Rh  Rh15  1  0.443841  0.741087  0.906009  1
  Rh  Rh16  1  0.749060  0.446411  0.400902  1
  Rh  Rh17  1  0.551175  0.258563  0.096768  1
  Rh  Rh18  1  0.999961  0.999613  0.750287  1
  Rh  Rh19  1  0.253766  0.553286  0.598231  1
