# generated using pymatgen
data_NaAc(ReH9)2
_symmetry_space_group_name_H-M   'P 1'
_cell_length_a   5.14060369
_cell_length_b   5.14058603
_cell_length_c   8.90778301
_cell_angle_alpha   90.68495012
_cell_angle_beta   89.31315754
_cell_angle_gamma   120.82828379
_symmetry_Int_Tables_number   1
_chemical_formula_structural   NaAc(ReH9)2
_chemical_formula_sum   'Na1 Ac1 Re2 H18'
_cell_volume   202.11579205
_cell_formula_units_Z   1
loop_
 _symmetry_equiv_pos_site_id
 _symmetry_equiv_pos_as_xyz
  1  'x, y, z'
loop_
 _atom_site_type_symbol
 _atom_site_label
 _atom_site_symmetry_multiplicity
 _atom_site_fract_x
 _atom_site_fract_y
 _atom_site_fract_z
 _atom_site_occupancy
  Na  Na0  1  0.000000  0.000000  0.000000  1
  Ac  Ac1  1  0.000000  0.000000  0.500000  1
  Re  Re2  1  0.325858  0.674090  0.738273  1
  Re  Re3  1  0.674142  0.325910  0.261727  1
  H  H4  1  0.418071  0.581893  0.569083  1
  H  H5  1  0.581929  0.418107  0.430917  1
  H  H6  1  0.409882  0.590065  0.904075  1
  H  H7  1  0.590118  0.409935  0.095925  1
  H  H8  1  0.496043  0.971501  0.857476  1
  H  H9  1  0.971558  0.496109  0.142524  1
  H  H10  1  0.501360  0.998750  0.631679  1
  H  H11  1  0.998783  0.501407  0.368317  1
  H  H12  1  0.503957  0.028499  0.142524  1
  H  H13  1  0.028442  0.503891  0.857476  1
  H  H14  1  0.498640  0.001250  0.368321  1
  H  H15  1  0.001217  0.498593  0.631683  1
  H  H16  1  0.695896  0.767373  0.748129  1
  H  H17  1  0.767417  0.695941  0.251869  1
  H  H18  1  0.304104  0.232627  0.251871  1
  H  H19  1  0.232583  0.304059  0.748131  1
  H  H20  1  0.139632  0.860311  0.762116  1
  H  H21  1  0.860368  0.139689  0.237884  1
