# generated using pymatgen
data_Tb11Y(In2Ru)4
_symmetry_space_group_name_H-M   'P 1'
_cell_length_a   3.78322100
_cell_length_b   13.06647737
_cell_length_c   13.06647670
_cell_angle_alpha   111.99754580
_cell_angle_beta   90.00000000
_cell_angle_gamma   90.00000000
_symmetry_Int_Tables_number   1
_chemical_formula_structural   Tb11Y(In2Ru)4
_chemical_formula_sum   'Tb11 Y1 In8 Ru4'
_cell_volume   598.89695757
_cell_formula_units_Z   1
loop_
 _symmetry_equiv_pos_site_id
 _symmetry_equiv_pos_as_xyz
  1  'x, y, z'
loop_
 _atom_site_type_symbol
 _atom_site_label
 _atom_site_symmetry_multiplicity
 _atom_site_fract_x
 _atom_site_fract_y
 _atom_site_fract_z
 _atom_site_occupancy
  Tb  Tb0  1  0.000000  0.914157  0.577545  1
  Tb  Tb1  1  0.000000  0.085843  0.422455  1
  Tb  Tb2  1  0.000000  0.577545  0.914157  1
  Tb  Tb3  1  0.000000  0.422455  0.085843  1
  Tb  Tb4  1  0.000000  0.161194  0.838806  1
  Tb  Tb5  1  0.000000  0.838806  0.161194  1
  Tb  Tb6  1  0.000000  0.359215  0.640785  1
  Tb  Tb7  1  0.000000  0.640785  0.359215  1
  Tb  Tb8  1  0.000000  0.705600  0.705600  1
  Tb  Tb9  1  0.000000  0.294400  0.294400  1
  Tb  Tb10  1  0.000000  0.000000  0.000000  1
  Y  Y11  1  0.500000  0.500000  0.500000  1
  In  In12  1  0.500000  0.148785  0.633450  1
  In  In13  1  0.500000  0.851215  0.366550  1
  In  In14  1  0.500000  0.633450  0.148785  1
  In  In15  1  0.500000  0.366550  0.851215  1
  In  In16  1  0.500000  0.932149  0.782542  1
  In  In17  1  0.500000  0.067851  0.217458  1
  In  In18  1  0.500000  0.782542  0.932149  1
  In  In19  1  0.500000  0.217458  0.067851  1
  Ru  Ru20  1  0.500000  0.738443  0.547532  1
  Ru  Ru21  1  0.500000  0.261557  0.452468  1
  Ru  Ru22  1  0.500000  0.547532  0.738443  1
  Ru  Ru23  1  0.500000  0.452468  0.261557  1
