# generated using pymatgen
data_Ac4La8TlCo5
_symmetry_space_group_name_H-M   'P 1'
_cell_length_a   8.84828122
_cell_length_b   8.84828143
_cell_length_c   8.84828200
_cell_angle_alpha   108.16687383
_cell_angle_beta   109.60006307
_cell_angle_gamma   110.65632454
_symmetry_Int_Tables_number   1
_chemical_formula_structural   Ac4La8TlCo5
_chemical_formula_sum   'Ac4 La8 Tl1 Co5'
_cell_volume   533.02644952
_cell_formula_units_Z   1
loop_
 _symmetry_equiv_pos_site_id
 _symmetry_equiv_pos_as_xyz
  1  'x, y, z'
loop_
 _atom_site_type_symbol
 _atom_site_label
 _atom_site_symmetry_multiplicity
 _atom_site_fract_x
 _atom_site_fract_y
 _atom_site_fract_z
 _atom_site_occupancy
  Ac  Ac0  1  0.492407  0.308578  0.183829  1
  Ac  Ac1  1  0.124749  0.308578  0.816171  1
  Ac  Ac2  1  0.875251  0.691422  0.183829  1
  Ac  Ac3  1  0.507593  0.691422  0.816171  1
  La  La4  1  0.320157  0.646426  0.326268  1
  La  La5  1  0.320157  0.993890  0.673732  1
  La  La6  1  0.679843  0.353574  0.673732  1
  La  La7  1  0.679843  0.006110  0.326268  1
  La  La8  1  0.182851  0.192440  0.375291  1
  La  La9  1  0.817149  0.807560  0.624709  1
  La  La10  1  0.182851  0.807560  0.990409  1
  La  La11  1  0.817149  0.192440  0.009591  1
  Tl  Tl12  1  0.000000  0.500000  0.500000  1
  Co  Co13  1  0.500000  0.632230  0.132230  1
  Co  Co14  1  0.500000  0.367770  0.867770  1
  Co  Co15  1  0.358421  0.000000  0.358421  1
  Co  Co16  1  0.641579  0.000000  0.641579  1
  Co  Co17  1  0.000000  0.000000  0.000000  1
