# generated using pymatgen
data_B2Mo2PRu5
_symmetry_space_group_name_H-M   'P 1'
_cell_length_a   9.28201800
_cell_length_b   9.28201800
_cell_length_c   2.85921900
_cell_angle_alpha   90.00000000
_cell_angle_beta   90.00000000
_cell_angle_gamma   90.00000000
_symmetry_Int_Tables_number   1
_chemical_formula_structural   B2Mo2PRu5
_chemical_formula_sum   'B4 Mo4 P2 Ru10'
_cell_volume   246.33846659
_cell_formula_units_Z   2
loop_
 _symmetry_equiv_pos_site_id
 _symmetry_equiv_pos_as_xyz
  1  'x, y, z'
loop_
 _atom_site_type_symbol
 _atom_site_label
 _atom_site_symmetry_multiplicity
 _atom_site_fract_x
 _atom_site_fract_y
 _atom_site_fract_z
 _atom_site_occupancy
  B  B0  1  0.626856  0.873144  0.000000  1
  B  B1  1  0.373144  0.126856  0.000000  1
  B  B2  1  0.126856  0.626856  0.000000  1
  B  B3  1  0.873144  0.373144  0.000000  1
  Mo  Mo4  1  0.819165  0.680835  0.000000  1
  Mo  Mo5  1  0.180835  0.319165  0.000000  1
  Mo  Mo6  1  0.319165  0.819165  0.000000  1
  Mo  Mo7  1  0.680835  0.180835  0.000000  1
  P  P8  1  0.500000  0.500000  0.000000  1
  P  P9  1  0.000000  0.000000  0.000000  1
  Ru  Ru10  1  0.558007  0.705714  0.500000  1
  Ru  Ru11  1  0.441993  0.294286  0.500000  1
  Ru  Ru12  1  0.058007  0.794286  0.500000  1
  Ru  Ru13  1  0.941993  0.205714  0.500000  1
  Ru  Ru14  1  0.294286  0.558007  0.500000  1
  Ru  Ru15  1  0.705714  0.441993  0.500000  1
  Ru  Ru16  1  0.205714  0.058007  0.500000  1
  Ru  Ru17  1  0.794286  0.941993  0.500000  1
  Ru  Ru18  1  0.500000  0.000000  0.500000  1
  Ru  Ru19  1  0.000000  0.500000  0.500000  1
