# generated using pymatgen
data_Zr2U(ZnCo)3
_symmetry_space_group_name_H-M   'P 1'
_cell_length_a   6.71139087
_cell_length_b   7.02598143
_cell_length_c   3.54404400
_cell_angle_alpha   90.00000000
_cell_angle_beta   90.00000000
_cell_angle_gamma   121.56307673
_symmetry_Int_Tables_number   1
_chemical_formula_structural   Zr2U(ZnCo)3
_chemical_formula_sum   'Zr2 U1 Zn3 Co3'
_cell_volume   142.39379718
_cell_formula_units_Z   1
loop_
 _symmetry_equiv_pos_site_id
 _symmetry_equiv_pos_as_xyz
  1  'x, y, z'
loop_
 _atom_site_type_symbol
 _atom_site_label
 _atom_site_symmetry_multiplicity
 _atom_site_fract_x
 _atom_site_fract_y
 _atom_site_fract_z
 _atom_site_occupancy
  Zr  Zr0  1  0.408001  0.404039  0.500000  1
  Zr  Zr1  1  0.591999  0.996038  0.500000  1
  U  U2  1  0.000000  0.581069  0.500000  1
  Zn  Zn3  1  0.732308  0.747885  0.000000  1
  Zn  Zn4  1  0.267692  0.015577  0.000000  1
  Zn  Zn5  1  0.000000  0.233859  0.000000  1
  Co  Co6  1  0.699534  0.365287  0.000000  1
  Co  Co7  1  0.300466  0.665754  0.000000  1
  Co  Co8  1  0.000000  0.990492  0.500000  1
