# generated using pymatgen
data_Te7(AsCl4)2
_symmetry_space_group_name_H-M   'P 1'
_cell_length_a   5.57156773
_cell_length_b   13.52414320
_cell_length_c   17.20523828
_cell_angle_alpha   106.19843045
_cell_angle_beta   87.83158598
_cell_angle_gamma   99.74257357
_symmetry_Int_Tables_number   1
_chemical_formula_structural   Te7(AsCl4)2
_chemical_formula_sum   'Te14 As4 Cl16'
_cell_volume   1226.94505060
_cell_formula_units_Z   2
loop_
 _symmetry_equiv_pos_site_id
 _symmetry_equiv_pos_as_xyz
  1  'x, y, z'
loop_
 _atom_site_type_symbol
 _atom_site_label
 _atom_site_symmetry_multiplicity
 _atom_site_fract_x
 _atom_site_fract_y
 _atom_site_fract_z
 _atom_site_occupancy
  Te  Te0  1  0.815536  0.841527  0.059681  1
  Te  Te1  1  0.056900  0.652821  0.055479  1
  Te  Te2  1  0.326557  0.480970  0.057975  1
  Te  Te3  1  0.189723  0.963790  0.171100  1
  Te  Te4  1  0.448384  0.807528  0.173501  1
  Te  Te5  1  0.206935  0.028897  0.448391  1
  Te  Te6  1  0.426094  0.855742  0.423521  1
  Te  Te7  1  0.573896  0.144253  0.576476  1
  Te  Te8  1  0.793049  0.971101  0.551609  1
  Te  Te9  1  0.551595  0.192474  0.826500  1
  Te  Te10  1  0.810264  0.036211  0.828904  1
  Te  Te11  1  0.673434  0.519033  0.942025  1
  Te  Te12  1  0.943097  0.347178  0.944522  1
  Te  Te13  1  0.184458  0.158474  0.940322  1
  As  As14  1  0.735932  0.258783  0.239541  1
  As  As15  1  0.844472  0.579157  0.373895  1
  As  As16  1  0.155550  0.420849  0.626098  1
  As  As17  1  0.264057  0.741216  0.760464  1
  Cl  Cl18  1  0.786784  0.153861  0.115925  1
  Cl  Cl19  1  0.899183  0.415609  0.203966  1
  Cl  Cl20  1  0.358563  0.278528  0.223729  1
  Cl  Cl21  1  0.570696  0.089636  0.291560  1
  Cl  Cl22  1  0.072411  0.768388  0.312741  1
  Cl  Cl23  1  0.489064  0.591923  0.325216  1
  Cl  Cl24  1  0.723350  0.438700  0.418091  1
  Cl  Cl25  1  0.175226  0.302381  0.505183  1
  Cl  Cl26  1  0.824798  0.697625  0.494810  1
  Cl  Cl27  1  0.276674  0.561303  0.581906  1
  Cl  Cl28  1  0.510965  0.408078  0.674776  1
  Cl  Cl29  1  0.927587  0.231609  0.687255  1
  Cl  Cl30  1  0.429308  0.910362  0.708443  1
  Cl  Cl31  1  0.641428  0.721468  0.776276  1
  Cl  Cl32  1  0.100815  0.584389  0.796038  1
  Cl  Cl33  1  0.213210  0.846138  0.884080  1
