# generated using pymatgen
data_Lu2HfZr4ReF30
_symmetry_space_group_name_H-M   'P 1'
_cell_length_a   8.11147029
_cell_length_b   8.11146922
_cell_length_c   8.11245605
_cell_angle_alpha   79.85345524
_cell_angle_beta   79.85346060
_cell_angle_gamma   100.10008441
_symmetry_Int_Tables_number   1
_chemical_formula_structural   Lu2HfZr4ReF30
_chemical_formula_sum   'Lu2 Hf1 Zr4 Re1 F30'
_cell_volume   505.33128501
_cell_formula_units_Z   1
loop_
 _symmetry_equiv_pos_site_id
 _symmetry_equiv_pos_as_xyz
  1  'x, y, z'
loop_
 _atom_site_type_symbol
 _atom_site_label
 _atom_site_symmetry_multiplicity
 _atom_site_fract_x
 _atom_site_fract_y
 _atom_site_fract_z
 _atom_site_occupancy
  Lu  Lu0  1  0.678441  0.321559  0.750000  1
  Lu  Lu1  1  0.321769  0.678231  0.250000  1
  Hf  Hf2  1  0.749403  0.250597  0.250000  1
  Zr  Zr3  1  0.821457  0.749344  0.325726  1
  Zr  Zr4  1  0.250656  0.178543  0.174274  1
  Zr  Zr5  1  0.178064  0.250678  0.673813  1
  Zr  Zr6  1  0.749322  0.821936  0.826187  1
  Re  Re7  1  0.249919  0.750081  0.750000  1
  F  F8  1  0.149803  0.185045  0.946502  1
  F  F9  1  0.687075  0.560578  0.847438  1
  F  F10  1  0.043646  0.654283  0.314940  1
  F  F11  1  0.653907  0.042814  0.816137  1
  F  F12  1  0.559661  0.685565  0.347420  1
  F  F13  1  0.182964  0.149484  0.447828  1
  F  F14  1  0.850516  0.817036  0.052172  1
  F  F15  1  0.314435  0.440339  0.152580  1
  F  F16  1  0.957186  0.346093  0.683863  1
  F  F17  1  0.345717  0.956354  0.185060  1
  F  F18  1  0.439422  0.312925  0.652562  1
  F  F19  1  0.814955  0.850197  0.553498  1
  F  F20  1  0.967317  0.032683  0.750000  1
  F  F21  1  0.541294  0.751806  0.030937  1
  F  F22  1  0.248194  0.458706  0.469063  1
  F  F23  1  0.458262  0.247862  0.968789  1
  F  F24  1  0.752138  0.541738  0.531211  1
  F  F25  1  0.033430  0.966570  0.250000  1
  F  F26  1  0.218558  0.725656  0.000698  1
  F  F27  1  0.225556  0.497581  0.783960  1
  F  F28  1  0.997050  0.718713  0.775550  1
  F  F29  1  0.722522  0.994534  0.275862  1
  F  F30  1  0.494065  0.224792  0.280825  1
  F  F31  1  0.726027  0.221459  0.502942  1
  F  F32  1  0.778541  0.273973  0.997058  1
  F  F33  1  0.775208  0.505935  0.219175  1
  F  F34  1  0.005466  0.277478  0.224138  1
  F  F35  1  0.281287  0.002950  0.724450  1
  F  F36  1  0.502419  0.774444  0.716040  1
  F  F37  1  0.274344  0.781442  0.499302  1
