# generated using pymatgen
data_ZrTa3(GaRh5)2
_symmetry_space_group_name_H-M   'P 1'
_cell_length_a   5.52346285
_cell_length_b   5.52346376
_cell_length_c   8.04345900
_cell_angle_alpha   90.00063121
_cell_angle_beta   90.00062676
_cell_angle_gamma   97.09473016
_symmetry_Int_Tables_number   1
_chemical_formula_structural   ZrTa3(GaRh5)2
_chemical_formula_sum   'Zr1 Ta3 Ga2 Rh10'
_cell_volume   243.51613455
_cell_formula_units_Z   1
loop_
 _symmetry_equiv_pos_site_id
 _symmetry_equiv_pos_as_xyz
  1  'x, y, z'
loop_
 _atom_site_type_symbol
 _atom_site_label
 _atom_site_symmetry_multiplicity
 _atom_site_fract_x
 _atom_site_fract_y
 _atom_site_fract_z
 _atom_site_occupancy
  Zr  Zr0  1  0.775911  0.224089  0.000000  1
  Ta  Ta1  1  0.779175  0.220825  0.500000  1
  Ta  Ta2  1  0.217414  0.782586  0.000000  1
  Ta  Ta3  1  0.219283  0.780717  0.500000  1
  Ga  Ga4  1  0.500210  0.501337  0.749839  1
  Ga  Ga5  1  0.498663  0.499790  0.250161  1
  Rh  Rh6  1  0.721981  0.722025  0.000321  1
  Rh  Rh7  1  0.720770  0.718186  0.499698  1
  Rh  Rh8  1  0.277975  0.278019  0.999679  1
  Rh  Rh9  1  0.281814  0.279230  0.500302  1
  Rh  Rh10  1  0.496535  0.994629  0.745888  1
  Rh  Rh11  1  0.496438  0.994329  0.254091  1
  Rh  Rh12  1  0.001460  0.998672  0.255196  1
  Rh  Rh13  1  0.001328  0.998540  0.744804  1
  Rh  Rh14  1  0.005671  0.503562  0.745909  1
  Rh  Rh15  1  0.005371  0.503465  0.254112  1
