# generated using pymatgen
data_ErTm2(Ni3As2)3
_symmetry_space_group_name_H-M   'P 1'
_cell_length_a   3.87545100
_cell_length_b   10.79909400
_cell_length_c   12.74251400
_cell_angle_alpha   90.00000000
_cell_angle_beta   90.00000000
_cell_angle_gamma   90.00000000
_symmetry_Int_Tables_number   1
_chemical_formula_structural   ErTm2(Ni3As2)3
_chemical_formula_sum   'Er2 Tm4 Ni18 As12'
_cell_volume   533.29153615
_cell_formula_units_Z   2
loop_
 _symmetry_equiv_pos_site_id
 _symmetry_equiv_pos_as_xyz
  1  'x, y, z'
loop_
 _atom_site_type_symbol
 _atom_site_label
 _atom_site_symmetry_multiplicity
 _atom_site_fract_x
 _atom_site_fract_y
 _atom_site_fract_z
 _atom_site_occupancy
  Er  Er0  1  0.750000  0.250000  0.477659  1
  Er  Er1  1  0.250000  0.750000  0.522341  1
  Tm  Tm2  1  0.250000  0.931770  0.792736  1
  Tm  Tm3  1  0.250000  0.568230  0.792736  1
  Tm  Tm4  1  0.750000  0.068230  0.207264  1
  Tm  Tm5  1  0.750000  0.431770  0.207264  1
  Ni  Ni6  1  0.250000  0.250000  0.843508  1
  Ni  Ni7  1  0.750000  0.750000  0.156492  1
  Ni  Ni8  1  0.250000  0.250000  0.300781  1
  Ni  Ni9  1  0.750000  0.750000  0.699219  1
  Ni  Ni10  1  0.750000  0.250000  0.017738  1
  Ni  Ni11  1  0.250000  0.750000  0.982262  1
  Ni  Ni12  1  0.250000  0.417536  0.002448  1
  Ni  Ni13  1  0.250000  0.082464  0.002448  1
  Ni  Ni14  1  0.750000  0.582464  0.997552  1
  Ni  Ni15  1  0.750000  0.917536  0.997552  1
  Ni  Ni16  1  0.250000  0.447877  0.571640  1
  Ni  Ni17  1  0.250000  0.052123  0.571640  1
  Ni  Ni18  1  0.750000  0.552123  0.428360  1
  Ni  Ni19  1  0.750000  0.947877  0.428360  1
  Ni  Ni20  1  0.250000  0.871093  0.292018  1
  Ni  Ni21  1  0.250000  0.628907  0.292018  1
  Ni  Ni22  1  0.750000  0.128907  0.707982  1
  Ni  Ni23  1  0.750000  0.371093  0.707982  1
  As  As24  1  0.250000  0.250000  0.124385  1
  As  As25  1  0.750000  0.750000  0.875615  1
  As  As26  1  0.250000  0.250000  0.654295  1
  As  As27  1  0.750000  0.750000  0.345705  1
  As  As28  1  0.250000  0.435508  0.385989  1
  As  As29  1  0.250000  0.064492  0.385989  1
  As  As30  1  0.750000  0.564492  0.614011  1
  As  As31  1  0.750000  0.935508  0.614011  1
  As  As32  1  0.250000  0.903175  0.110560  1
  As  As33  1  0.250000  0.596825  0.110560  1
  As  As34  1  0.750000  0.096825  0.889440  1
  As  As35  1  0.750000  0.403175  0.889440  1
