# generated using pymatgen
data_SmMn4NbP3
_symmetry_space_group_name_H-M   'P 1'
_cell_length_a   3.65728500
_cell_length_b   11.03939400
_cell_length_c   12.56811600
_cell_angle_alpha   90.00000000
_cell_angle_beta   90.00000000
_cell_angle_gamma   90.00000000
_symmetry_Int_Tables_number   1
_chemical_formula_structural   SmMn4NbP3
_chemical_formula_sum   'Sm4 Mn16 Nb4 P12'
_cell_volume   507.42775576
_cell_formula_units_Z   4
loop_
 _symmetry_equiv_pos_site_id
 _symmetry_equiv_pos_as_xyz
  1  'x, y, z'
loop_
 _atom_site_type_symbol
 _atom_site_label
 _atom_site_symmetry_multiplicity
 _atom_site_fract_x
 _atom_site_fract_y
 _atom_site_fract_z
 _atom_site_occupancy
  Sm  Sm0  1  0.250000  0.588093  0.707906  1
  Sm  Sm1  1  0.250000  0.911907  0.207906  1
  Sm  Sm2  1  0.750000  0.411907  0.292094  1
  Sm  Sm3  1  0.750000  0.088093  0.792094  1
  Mn  Mn4  1  0.250000  0.410986  0.493359  1
  Mn  Mn5  1  0.250000  0.089014  0.993359  1
  Mn  Mn6  1  0.750000  0.589014  0.506641  1
  Mn  Mn7  1  0.750000  0.910986  0.006641  1
  Mn  Mn8  1  0.250000  0.211998  0.177565  1
  Mn  Mn9  1  0.250000  0.288002  0.677565  1
  Mn  Mn10  1  0.750000  0.788002  0.822435  1
  Mn  Mn11  1  0.750000  0.711998  0.322435  1
  Mn  Mn12  1  0.250000  0.884085  0.696816  1
  Mn  Mn13  1  0.250000  0.615915  0.196816  1
  Mn  Mn14  1  0.750000  0.115915  0.303184  1
  Mn  Mn15  1  0.750000  0.384085  0.803184  1
  Mn  Mn16  1  0.250000  0.464288  0.934063  1
  Mn  Mn17  1  0.250000  0.035712  0.434063  1
  Mn  Mn18  1  0.750000  0.535712  0.065937  1
  Mn  Mn19  1  0.750000  0.964288  0.565937  1
  Nb  Nb20  1  0.250000  0.708797  0.984437  1
  Nb  Nb21  1  0.250000  0.791203  0.484437  1
  Nb  Nb22  1  0.750000  0.291203  0.015563  1
  Nb  Nb23  1  0.750000  0.208797  0.515563  1
  P  P24  1  0.250000  0.418500  0.115767  1
  P  P25  1  0.250000  0.081500  0.615767  1
  P  P26  1  0.750000  0.581500  0.884233  1
  P  P27  1  0.750000  0.918500  0.384233  1
  P  P28  1  0.250000  0.269675  0.866260  1
  P  P29  1  0.250000  0.230325  0.366260  1
  P  P30  1  0.750000  0.730325  0.133740  1
  P  P31  1  0.750000  0.769675  0.633740  1
  P  P32  1  0.250000  0.587347  0.384140  1
  P  P33  1  0.250000  0.912653  0.884140  1
  P  P34  1  0.750000  0.412653  0.615860  1
  P  P35  1  0.750000  0.087347  0.115860  1
