# generated using pymatgen
data_NdSb3Pb4O13
_symmetry_space_group_name_H-M   'P 1'
_cell_length_a   7.75112238
_cell_length_b   7.75112154
_cell_length_c   7.75112185
_cell_angle_alpha   59.53326438
_cell_angle_beta   59.53327136
_cell_angle_gamma   59.53326050
_symmetry_Int_Tables_number   1
_chemical_formula_structural   NdSb3Pb4O13
_chemical_formula_sum   'Nd1 Sb3 Pb4 O13'
_cell_volume   325.79548384
_cell_formula_units_Z   1
loop_
 _symmetry_equiv_pos_site_id
 _symmetry_equiv_pos_as_xyz
  1  'x, y, z'
loop_
 _atom_site_type_symbol
 _atom_site_label
 _atom_site_symmetry_multiplicity
 _atom_site_fract_x
 _atom_site_fract_y
 _atom_site_fract_z
 _atom_site_occupancy
  Nd  Nd0  1  0.500595  0.500595  0.500595  1
  Sb  Sb1  1  0.001313  0.500074  0.500074  1
  Sb  Sb2  1  0.500074  0.500074  0.001313  1
  Sb  Sb3  1  0.500074  0.001313  0.500074  1
  Pb  Pb4  1  0.998935  0.998935  0.998935  1
  Pb  Pb5  1  0.495830  0.003957  0.003957  1
  Pb  Pb6  1  0.003957  0.003957  0.495830  1
  Pb  Pb7  1  0.003957  0.495830  0.003957  1
  O  O8  1  0.870546  0.409372  0.409372  1
  O  O9  1  0.414886  0.810425  0.810425  1
  O  O10  1  0.409372  0.409372  0.870546  1
  O  O11  1  0.810425  0.810425  0.414886  1
  O  O12  1  0.810425  0.414886  0.810425  1
  O  O13  1  0.409372  0.870546  0.409372  1
  O  O14  1  0.136453  0.586760  0.586760  1
  O  O15  1  0.585802  0.189599  0.189599  1
  O  O16  1  0.586760  0.586760  0.136453  1
  O  O17  1  0.189599  0.189599  0.585802  1
  O  O18  1  0.189599  0.585802  0.189599  1
  O  O19  1  0.586760  0.136453  0.586760  1
  O  O20  1  0.120264  0.120264  0.120264  1
