# generated using pymatgen
data_YbTa8CrSe16
_symmetry_space_group_name_H-M   'P 1'
_cell_length_a   6.98128000
_cell_length_b   6.98127978
_cell_length_c   13.71165700
_cell_angle_alpha   90.00000000
_cell_angle_beta   90.00000000
_cell_angle_gamma   120.00001052
_symmetry_Int_Tables_number   1
_chemical_formula_structural   YbTa8CrSe16
_chemical_formula_sum   'Yb1 Ta8 Cr1 Se16'
_cell_volume   578.74949649
_cell_formula_units_Z   1
loop_
 _symmetry_equiv_pos_site_id
 _symmetry_equiv_pos_as_xyz
  1  'x, y, z'
loop_
 _atom_site_type_symbol
 _atom_site_label
 _atom_site_symmetry_multiplicity
 _atom_site_fract_x
 _atom_site_fract_y
 _atom_site_fract_z
 _atom_site_occupancy
  Yb  Yb0  1  0.000000  0.000000  0.500000  1
  Ta  Ta1  1  0.000000  0.000000  0.230839  1
  Ta  Ta2  1  0.000000  0.000000  0.769161  1
  Ta  Ta3  1  0.507405  0.014808  0.230013  1
  Ta  Ta4  1  0.985192  0.492595  0.230013  1
  Ta  Ta5  1  0.507405  0.492595  0.230013  1
  Ta  Ta6  1  0.492595  0.985192  0.769987  1
  Ta  Ta7  1  0.014808  0.507405  0.769987  1
  Ta  Ta8  1  0.492595  0.507405  0.769987  1
  Cr  Cr9  1  0.000000  0.000000  0.000000  1
  Se  Se10  1  0.333333  0.666667  0.895500  1
  Se  Se11  1  0.666667  0.333333  0.104500  1
  Se  Se12  1  0.666667  0.333333  0.357573  1
  Se  Se13  1  0.333333  0.666667  0.642427  1
  Se  Se14  1  0.169282  0.830718  0.351116  1
  Se  Se15  1  0.169282  0.338565  0.351116  1
  Se  Se16  1  0.661435  0.830718  0.351116  1
  Se  Se17  1  0.830718  0.169282  0.648884  1
  Se  Se18  1  0.830718  0.661435  0.648884  1
  Se  Se19  1  0.338565  0.169282  0.648884  1
  Se  Se20  1  0.831895  0.168105  0.889533  1
  Se  Se21  1  0.831895  0.663790  0.889533  1
  Se  Se22  1  0.336210  0.168105  0.889533  1
  Se  Se23  1  0.168105  0.831895  0.110467  1
  Se  Se24  1  0.168105  0.336210  0.110467  1
  Se  Se25  1  0.663790  0.831895  0.110467  1
