# generated using pymatgen
data_Sn3(BrO)2
_symmetry_space_group_name_H-M   'P 1'
_cell_length_a   5.83148600
_cell_length_b   9.84689876
_cell_length_c   12.28434747
_cell_angle_alpha   90.02121480
_cell_angle_beta   90.00000000
_cell_angle_gamma   90.00000000
_symmetry_Int_Tables_number   1
_chemical_formula_structural   Sn3(BrO)2
_chemical_formula_sum   'Sn12 Br8 O8'
_cell_volume   705.39239434
_cell_formula_units_Z   4
loop_
 _symmetry_equiv_pos_site_id
 _symmetry_equiv_pos_as_xyz
  1  'x, y, z'
loop_
 _atom_site_type_symbol
 _atom_site_label
 _atom_site_symmetry_multiplicity
 _atom_site_fract_x
 _atom_site_fract_y
 _atom_site_fract_z
 _atom_site_occupancy
  Sn  Sn0  1  0.000000  0.280574  0.059427  1
  Sn  Sn1  1  0.000000  0.219722  0.560690  1
  Sn  Sn2  1  0.500000  0.719963  0.940092  1
  Sn  Sn3  1  0.500000  0.780051  0.439854  1
  Sn  Sn4  1  0.000000  0.924924  0.077791  1
  Sn  Sn5  1  0.000000  0.575371  0.578084  1
  Sn  Sn6  1  0.500000  0.075474  0.921758  1
  Sn  Sn7  1  0.500000  0.424415  0.422519  1
  Sn  Sn8  1  0.000000  0.862637  0.793113  1
  Sn  Sn9  1  0.000000  0.637052  0.293365  1
  Sn  Sn10  1  0.500000  0.138415  0.206172  1
  Sn  Sn11  1  0.500000  0.362547  0.707351  1
  Br  Br12  1  0.000000  0.586647  0.871326  1
  Br  Br13  1  0.000000  0.912932  0.371596  1
  Br  Br14  1  0.500000  0.413732  0.127865  1
  Br  Br15  1  0.500000  0.086419  0.629418  1
  Br  Br16  1  0.000000  0.298707  0.308849  1
  Br  Br17  1  0.500000  0.798545  0.190661  1
  Br  Br18  1  0.500000  0.701038  0.690733  1
  Br  Br19  1  0.000000  0.200898  0.809159  1
  O  O20  1  0.256151  0.892955  0.922022  1
  O  O21  1  0.743745  0.606766  0.422314  1
  O  O22  1  0.756213  0.107523  0.077347  1
  O  O23  1  0.243835  0.392726  0.578406  1
  O  O24  1  0.243787  0.107523  0.077347  1
  O  O25  1  0.756165  0.392726  0.578406  1
  O  O26  1  0.743849  0.892955  0.922022  1
  O  O27  1  0.256255  0.606766  0.422314  1
