# generated using pymatgen
data_Li4Pr3NdAs8
_symmetry_space_group_name_H-M   'P 1'
_cell_length_a   3.98770900
_cell_length_b   4.02786739
_cell_length_c   21.45288947
_cell_angle_alpha   89.98692318
_cell_angle_beta   90.00000000
_cell_angle_gamma   90.00000000
_symmetry_Int_Tables_number   1
_chemical_formula_structural   Li4Pr3NdAs8
_chemical_formula_sum   'Li4 Pr3 Nd1 As8'
_cell_volume   344.57550854
_cell_formula_units_Z   1
loop_
 _symmetry_equiv_pos_site_id
 _symmetry_equiv_pos_as_xyz
  1  'x, y, z'
loop_
 _atom_site_type_symbol
 _atom_site_label
 _atom_site_symmetry_multiplicity
 _atom_site_fract_x
 _atom_site_fract_y
 _atom_site_fract_z
 _atom_site_occupancy
  Li  Li0  1  0.750000  0.726330  0.249836  1
  Li  Li1  1  0.250000  0.226301  0.249890  1
  Li  Li2  1  0.750000  0.773613  0.750506  1
  Li  Li3  1  0.250000  0.273670  0.750523  1
  Pr  Pr4  1  0.250000  0.729059  0.116735  1
  Pr  Pr5  1  0.750000  0.228652  0.382768  1
  Pr  Pr6  1  0.250000  0.771123  0.617281  1
  Nd  Nd7  1  0.750000  0.271032  0.882981  1
  As  As8  1  0.750000  0.226184  0.171476  1
  As  As9  1  0.250000  0.726086  0.328214  1
  As  As10  1  0.750000  0.273751  0.671939  1
  As  As11  1  0.250000  0.773703  0.829334  1
  As  As12  1  0.250000  0.208333  0.001117  1
  As  As13  1  0.750000  0.707644  0.498153  1
  As  As14  1  0.250000  0.292144  0.501793  1
  As  As15  1  0.750000  0.792372  0.997454  1
