# generated using pymatgen
data_Tb3Pa(Al3Rh)6
_symmetry_space_group_name_H-M   'P 1'
_cell_length_a   7.58676113
_cell_length_b   7.57843937
_cell_length_c   9.43606500
_cell_angle_alpha   90.00000000
_cell_angle_beta   90.00000000
_cell_angle_gamma   119.51656116
_symmetry_Int_Tables_number   1
_chemical_formula_structural   Tb3Pa(Al3Rh)6
_chemical_formula_sum   'Tb3 Pa1 Al18 Rh6'
_cell_volume   472.12048467
_cell_formula_units_Z   1
loop_
 _symmetry_equiv_pos_site_id
 _symmetry_equiv_pos_as_xyz
  1  'x, y, z'
loop_
 _atom_site_type_symbol
 _atom_site_label
 _atom_site_symmetry_multiplicity
 _atom_site_fract_x
 _atom_site_fract_y
 _atom_site_fract_z
 _atom_site_occupancy
  Tb  Tb0  1  0.005631  0.328859  0.750000  1
  Tb  Tb1  1  0.672411  0.994745  0.250000  1
  Tb  Tb2  1  0.328908  0.004901  0.750000  1
  Pa  Pa3  1  0.995539  0.671321  0.250000  1
  Al  Al4  1  0.130979  0.129426  0.250000  1
  Al  Al5  1  0.872933  0.873935  0.750000  1
  Al  Al6  1  0.000706  0.333298  0.075123  1
  Al  Al7  1  0.998992  0.664477  0.921658  1
  Al  Al8  1  0.998992  0.664477  0.578342  1
  Al  Al9  1  0.337969  0.003003  0.424709  1
  Al  Al10  1  0.000706  0.333298  0.424877  1
  Al  Al11  1  0.664802  0.999963  0.576399  1
  Al  Al12  1  0.664802  0.999963  0.923601  1
  Al  Al13  1  0.337969  0.003003  0.075291  1
  Al  Al14  1  0.332722  0.332811  0.552729  1
  Al  Al15  1  0.664207  0.666176  0.450619  1
  Al  Al16  1  0.664207  0.666176  0.049381  1
  Al  Al17  1  0.332722  0.332811  0.947271  1
  Al  Al18  1  0.338993  0.548128  0.250000  1
  Al  Al19  1  0.659113  0.448841  0.750000  1
  Al  Al20  1  0.548431  0.342077  0.250000  1
  Al  Al21  1  0.450104  0.660005  0.750000  1
  Rh  Rh22  1  0.673398  0.329762  0.002067  1
  Rh  Rh23  1  0.326307  0.671984  0.002190  1
  Rh  Rh24  1  0.326307  0.671984  0.497810  1
  Rh  Rh25  1  0.673398  0.329762  0.497933  1
  Rh  Rh26  1  0.999375  0.997408  0.002977  1
  Rh  Rh27  1  0.999375  0.997408  0.497023  1
