# generated using pymatgen
data_Dy4Zn4Ir3Rh
_symmetry_space_group_name_H-M   'P 1'
_cell_length_a   4.04391300
_cell_length_b   7.01839513
_cell_length_c   8.11697034
_cell_angle_alpha   90.06545051
_cell_angle_beta   90.00000000
_cell_angle_gamma   90.00000000
_symmetry_Int_Tables_number   1
_chemical_formula_structural   Dy4Zn4Ir3Rh
_chemical_formula_sum   'Dy4 Zn4 Ir3 Rh1'
_cell_volume   230.37391054
_cell_formula_units_Z   1
loop_
 _symmetry_equiv_pos_site_id
 _symmetry_equiv_pos_as_xyz
  1  'x, y, z'
loop_
 _atom_site_type_symbol
 _atom_site_label
 _atom_site_symmetry_multiplicity
 _atom_site_fract_x
 _atom_site_fract_y
 _atom_site_fract_z
 _atom_site_occupancy
  Dy  Dy0  1  0.250000  0.536508  0.183951  1
  Dy  Dy1  1  0.750000  0.459649  0.816725  1
  Dy  Dy2  1  0.250000  0.038211  0.317286  1
  Dy  Dy3  1  0.750000  0.964348  0.682014  1
  Zn  Zn4  1  0.250000  0.136476  0.934974  1
  Zn  Zn5  1  0.750000  0.863481  0.064805  1
  Zn  Zn6  1  0.250000  0.637285  0.564503  1
  Zn  Zn7  1  0.750000  0.362906  0.434364  1
  Ir  Ir8  1  0.750000  0.743649  0.377116  1
  Ir  Ir9  1  0.250000  0.258460  0.624532  1
  Ir  Ir10  1  0.750000  0.242789  0.122159  1
  Rh  Rh11  1  0.250000  0.756238  0.877572  1
