# generated using pymatgen
data_Ho4Te3N2
_symmetry_space_group_name_H-M   'P 1'
_cell_length_a   7.28223600
_cell_length_b   10.96939100
_cell_length_c   11.61485600
_cell_angle_alpha   90.00000000
_cell_angle_beta   90.00000000
_cell_angle_gamma   90.00000000
_symmetry_Int_Tables_number   1
_chemical_formula_structural   Ho4Te3N2
_chemical_formula_sum   'Ho16 Te12 N8'
_cell_volume   927.81437329
_cell_formula_units_Z   4
loop_
 _symmetry_equiv_pos_site_id
 _symmetry_equiv_pos_as_xyz
  1  'x, y, z'
loop_
 _atom_site_type_symbol
 _atom_site_label
 _atom_site_symmetry_multiplicity
 _atom_site_fract_x
 _atom_site_fract_y
 _atom_site_fract_z
 _atom_site_occupancy
  Ho  Ho0  1  0.163735  0.381634  0.652956  1
  Ho  Ho1  1  0.336265  0.381634  0.347044  1
  Ho  Ho2  1  0.163735  0.118366  0.847044  1
  Ho  Ho3  1  0.336265  0.118366  0.152956  1
  Ho  Ho4  1  0.836265  0.618366  0.347044  1
  Ho  Ho5  1  0.663735  0.618366  0.652956  1
  Ho  Ho6  1  0.836265  0.881634  0.152956  1
  Ho  Ho7  1  0.663735  0.881634  0.847044  1
  Ho  Ho8  1  0.474224  0.322415  0.908388  1
  Ho  Ho9  1  0.025776  0.322415  0.091612  1
  Ho  Ho10  1  0.474224  0.177585  0.591612  1
  Ho  Ho11  1  0.025776  0.177585  0.408388  1
  Ho  Ho12  1  0.525776  0.677585  0.091612  1
  Ho  Ho13  1  0.974224  0.677585  0.908388  1
  Ho  Ho14  1  0.525776  0.822415  0.408388  1
  Ho  Ho15  1  0.974224  0.822415  0.591612  1
  Te  Te16  1  0.250000  0.890620  0.000000  1
  Te  Te17  1  0.250000  0.609380  0.500000  1
  Te  Te18  1  0.750000  0.109380  0.000000  1
  Te  Te19  1  0.750000  0.390620  0.500000  1
  Te  Te20  1  0.368976  0.582632  0.838683  1
  Te  Te21  1  0.131024  0.582632  0.161317  1
  Te  Te22  1  0.368976  0.917368  0.661317  1
  Te  Te23  1  0.131024  0.917368  0.338683  1
  Te  Te24  1  0.631024  0.417368  0.161317  1
  Te  Te25  1  0.868976  0.417368  0.838683  1
  Te  Te26  1  0.631024  0.082632  0.338683  1
  Te  Te27  1  0.868976  0.082632  0.661317  1
  N  N28  1  0.250000  0.225570  0.000000  1
  N  N29  1  0.250000  0.274430  0.500000  1
  N  N30  1  0.750000  0.774430  0.000000  1
  N  N31  1  0.750000  0.725570  0.500000  1
  N  N32  1  0.342738  0.250000  0.750000  1
  N  N33  1  0.157262  0.250000  0.250000  1
  N  N34  1  0.657262  0.750000  0.250000  1
  N  N35  1  0.842738  0.750000  0.750000  1
