# generated using pymatgen
data_Nd5Ir2Rh
_symmetry_space_group_name_H-M   'P 1'
_cell_length_a   11.22962800
_cell_length_b   11.22962800
_cell_length_c   6.63262200
_cell_angle_alpha   90.00000000
_cell_angle_beta   90.00000000
_cell_angle_gamma   90.00000000
_symmetry_Int_Tables_number   1
_chemical_formula_structural   Nd5Ir2Rh
_chemical_formula_sum   'Nd20 Ir8 Rh4'
_cell_volume   836.40377959
_cell_formula_units_Z   4
loop_
 _symmetry_equiv_pos_site_id
 _symmetry_equiv_pos_as_xyz
  1  'x, y, z'
loop_
 _atom_site_type_symbol
 _atom_site_label
 _atom_site_symmetry_multiplicity
 _atom_site_fract_x
 _atom_site_fract_y
 _atom_site_fract_z
 _atom_site_occupancy
  Nd  Nd0  1  0.090723  0.291088  0.116468  1
  Nd  Nd1  1  0.791088  0.409277  0.116468  1
  Nd  Nd2  1  0.208912  0.590723  0.116468  1
  Nd  Nd3  1  0.909277  0.708912  0.116468  1
  Nd  Nd4  1  0.409277  0.791088  0.383532  1
  Nd  Nd5  1  0.590723  0.208912  0.383532  1
  Nd  Nd6  1  0.291088  0.090723  0.383532  1
  Nd  Nd7  1  0.708912  0.909277  0.383532  1
  Nd  Nd8  1  0.409277  0.208912  0.883532  1
  Nd  Nd9  1  0.708912  0.090723  0.883532  1
  Nd  Nd10  1  0.291088  0.909277  0.883532  1
  Nd  Nd11  1  0.590723  0.791088  0.883532  1
  Nd  Nd12  1  0.090723  0.708912  0.616468  1
  Nd  Nd13  1  0.909277  0.291088  0.616468  1
  Nd  Nd14  1  0.208912  0.409277  0.616468  1
  Nd  Nd15  1  0.791088  0.590723  0.616468  1
  Nd  Nd16  1  0.000000  0.000000  0.000000  1
  Nd  Nd17  1  0.500000  0.500000  0.000000  1
  Nd  Nd18  1  0.500000  0.500000  0.500000  1
  Nd  Nd19  1  0.000000  0.000000  0.500000  1
  Ir  Ir20  1  0.154038  0.845962  0.250000  1
  Ir  Ir21  1  0.345962  0.345962  0.250000  1
  Ir  Ir22  1  0.654038  0.654038  0.250000  1
  Ir  Ir23  1  0.845962  0.154038  0.250000  1
  Ir  Ir24  1  0.345962  0.654038  0.750000  1
  Ir  Ir25  1  0.154038  0.154038  0.750000  1
  Ir  Ir26  1  0.845962  0.845962  0.750000  1
  Ir  Ir27  1  0.654038  0.345962  0.750000  1
  Rh  Rh28  1  0.000000  0.500000  0.379601  1
  Rh  Rh29  1  0.500000  0.000000  0.120399  1
  Rh  Rh30  1  0.500000  0.000000  0.620399  1
  Rh  Rh31  1  0.000000  0.500000  0.879601  1
