# generated using pymatgen
data_Er5Bi2Pt
_symmetry_space_group_name_H-M   'P 1'
_cell_length_a   7.99678500
_cell_length_b   8.97069100
_cell_length_c   12.34529100
_cell_angle_alpha   90.00000000
_cell_angle_beta   90.00000000
_cell_angle_gamma   90.00000000
_symmetry_Int_Tables_number   1
_chemical_formula_structural   Er5Bi2Pt
_chemical_formula_sum   'Er20 Bi8 Pt4'
_cell_volume   885.61027921
_cell_formula_units_Z   4
loop_
 _symmetry_equiv_pos_site_id
 _symmetry_equiv_pos_as_xyz
  1  'x, y, z'
loop_
 _atom_site_type_symbol
 _atom_site_label
 _atom_site_symmetry_multiplicity
 _atom_site_fract_x
 _atom_site_fract_y
 _atom_site_fract_z
 _atom_site_occupancy
  Er  Er0  1  0.664392  0.750000  0.710215  1
  Er  Er1  1  0.335608  0.250000  0.289785  1
  Er  Er2  1  0.164392  0.250000  0.789785  1
  Er  Er3  1  0.835608  0.750000  0.210215  1
  Er  Er4  1  0.131901  0.750000  0.807393  1
  Er  Er5  1  0.868099  0.250000  0.192607  1
  Er  Er6  1  0.631901  0.250000  0.692607  1
  Er  Er7  1  0.368099  0.750000  0.307393  1
  Er  Er8  1  0.551596  0.750000  0.999135  1
  Er  Er9  1  0.448404  0.250000  0.000865  1
  Er  Er10  1  0.051596  0.250000  0.500865  1
  Er  Er11  1  0.948404  0.750000  0.499135  1
  Er  Er12  1  0.823714  0.454252  0.930669  1
  Er  Er13  1  0.176286  0.545748  0.069331  1
  Er  Er14  1  0.323714  0.545748  0.569331  1
  Er  Er15  1  0.176286  0.954252  0.069331  1
  Er  Er16  1  0.676286  0.454252  0.430669  1
  Er  Er17  1  0.823714  0.045748  0.930669  1
  Er  Er18  1  0.676286  0.045748  0.430669  1
  Er  Er19  1  0.323714  0.954252  0.569331  1
  Bi  Bi20  1  0.936180  0.007221  0.672582  1
  Bi  Bi21  1  0.063820  0.992779  0.327418  1
  Bi  Bi22  1  0.436180  0.992779  0.827418  1
  Bi  Bi23  1  0.063820  0.507221  0.327418  1
  Bi  Bi24  1  0.563820  0.007221  0.172582  1
  Bi  Bi25  1  0.936180  0.492779  0.672582  1
  Bi  Bi26  1  0.563820  0.492779  0.172582  1
  Bi  Bi27  1  0.436180  0.507221  0.827418  1
  Pt  Pt28  1  0.924316  0.750000  0.990104  1
  Pt  Pt29  1  0.075684  0.250000  0.009896  1
  Pt  Pt30  1  0.424316  0.250000  0.509896  1
  Pt  Pt31  1  0.575684  0.750000  0.490104  1
