# generated using pymatgen
data_Tb13Y4Ho3Pb16
_symmetry_space_group_name_H-M   'P 1'
_cell_length_a   8.22721835
_cell_length_b   15.71266504
_cell_length_c   8.31623302
_cell_angle_alpha   90.00587394
_cell_angle_beta   90.01881262
_cell_angle_gamma   90.00501868
_symmetry_Int_Tables_number   1
_chemical_formula_structural   Tb13Y4Ho3Pb16
_chemical_formula_sum   'Tb13 Y4 Ho3 Pb16'
_cell_volume   1075.05206569
_cell_formula_units_Z   1
loop_
 _symmetry_equiv_pos_site_id
 _symmetry_equiv_pos_as_xyz
  1  'x, y, z'
loop_
 _atom_site_type_symbol
 _atom_site_label
 _atom_site_symmetry_multiplicity
 _atom_site_fract_x
 _atom_site_fract_y
 _atom_site_fract_z
 _atom_site_occupancy
  Tb  Tb0  1  0.877087  0.379660  0.659441  1
  Tb  Tb1  1  0.377165  0.379642  0.840476  1
  Tb  Tb2  1  0.877249  0.120393  0.659533  1
  Tb  Tb3  1  0.622628  0.879703  0.159370  1
  Tb  Tb4  1  0.122951  0.620259  0.340394  1
  Tb  Tb5  1  0.466297  0.600126  0.677054  1
  Tb  Tb6  1  0.966482  0.899853  0.823162  1
  Tb  Tb7  1  0.533593  0.100210  0.322967  1
  Tb  Tb8  1  0.033607  0.399796  0.176918  1
  Tb  Tb9  1  0.533656  0.399786  0.323145  1
  Tb  Tb10  1  0.033697  0.100166  0.176830  1
  Tb  Tb11  1  0.466192  0.899859  0.676939  1
  Tb  Tb12  1  0.966440  0.600181  0.823324  1
  Y  Y13  1  0.622922  0.620389  0.159123  1
  Y  Y14  1  0.123268  0.879659  0.340603  1
  Y  Y15  1  0.376939  0.120373  0.840768  1
  Y  Y16  1  0.791171  0.749947  0.496578  1
  Ho  Ho17  1  0.291086  0.750081  0.003567  1
  Ho  Ho18  1  0.208982  0.249898  0.503556  1
  Ho  Ho19  1  0.708826  0.249983  0.996515  1
  Pb  Pb20  1  0.718920  0.457191  0.967272  1
  Pb  Pb21  1  0.218986  0.042791  0.532777  1
  Pb  Pb22  1  0.280980  0.957252  0.032780  1
  Pb  Pb23  1  0.780908  0.542615  0.466992  1
  Pb  Pb24  1  0.281291  0.542909  0.032854  1
  Pb  Pb25  1  0.781252  0.957334  0.467049  1
  Pb  Pb26  1  0.718748  0.042947  0.967110  1
  Pb  Pb27  1  0.218875  0.457059  0.532822  1
  Pb  Pb28  1  0.427219  0.750053  0.373029  1
  Pb  Pb29  1  0.927816  0.749946  0.126454  1
  Pb  Pb30  1  0.572261  0.250034  0.626789  1
  Pb  Pb31  1  0.072330  0.249965  0.873328  1
  Pb  Pb32  1  0.654506  0.749975  0.848698  1
  Pb  Pb33  1  0.155052  0.750009  0.651971  1
  Pb  Pb34  1  0.345284  0.249977  0.151832  1
  Pb  Pb35  1  0.845336  0.249980  0.347980  1
