# generated using pymatgen
data_Ce5Tc3(P3Rh4)4
_symmetry_space_group_name_H-M   'P 1'
_cell_length_a   12.81609700
_cell_length_b   12.81609848
_cell_length_c   4.04603800
_cell_angle_alpha   90.00000000
_cell_angle_beta   90.00000000
_cell_angle_gamma   119.99999876
_symmetry_Int_Tables_number   1
_chemical_formula_structural   Ce5Tc3(P3Rh4)4
_chemical_formula_sum   'Ce5 Tc3 P12 Rh16'
_cell_volume   575.53563159
_cell_formula_units_Z   1
loop_
 _symmetry_equiv_pos_site_id
 _symmetry_equiv_pos_as_xyz
  1  'x, y, z'
loop_
 _atom_site_type_symbol
 _atom_site_label
 _atom_site_symmetry_multiplicity
 _atom_site_fract_x
 _atom_site_fract_y
 _atom_site_fract_z
 _atom_site_occupancy
  Ce  Ce0  1  0.000000  0.815049  0.500000  1
  Ce  Ce1  1  0.184951  0.184951  0.500000  1
  Ce  Ce2  1  0.815049  0.000000  0.500000  1
  Ce  Ce3  1  0.333333  0.666667  0.000000  1
  Ce  Ce4  1  0.666667  0.333333  0.000000  1
  Tc  Tc5  1  0.000000  0.287377  0.500000  1
  Tc  Tc6  1  0.712623  0.712623  0.500000  1
  Tc  Tc7  1  0.287377  0.000000  0.500000  1
  P  P8  1  0.000000  0.183869  0.000000  1
  P  P9  1  0.816131  0.816131  0.000000  1
  P  P10  1  0.183869  0.000000  0.000000  1
  P  P11  1  0.520749  0.689920  0.500000  1
  P  P12  1  0.310080  0.830828  0.500000  1
  P  P13  1  0.169172  0.479251  0.500000  1
  P  P14  1  0.479251  0.169172  0.500000  1
  P  P15  1  0.689920  0.520749  0.500000  1
  P  P16  1  0.830828  0.310080  0.500000  1
  P  P17  1  0.000000  0.631284  0.000000  1
  P  P18  1  0.368716  0.368716  0.000000  1
  P  P19  1  0.631284  0.000000  0.000000  1
  Rh  Rh20  1  0.620858  0.803778  0.000000  1
  Rh  Rh21  1  0.196222  0.817080  0.000000  1
  Rh  Rh22  1  0.182920  0.379142  0.000000  1
  Rh  Rh23  1  0.379142  0.182920  0.000000  1
  Rh  Rh24  1  0.803778  0.620858  0.000000  1
  Rh  Rh25  1  0.817080  0.196222  0.000000  1
  Rh  Rh26  1  0.510121  0.871065  0.500000  1
  Rh  Rh27  1  0.128935  0.639056  0.500000  1
  Rh  Rh28  1  0.360944  0.489879  0.500000  1
  Rh  Rh29  1  0.489879  0.360944  0.500000  1
  Rh  Rh30  1  0.871065  0.510121  0.500000  1
  Rh  Rh31  1  0.639056  0.128935  0.500000  1
  Rh  Rh32  1  0.000000  0.000000  0.000000  1
  Rh  Rh33  1  0.000000  0.450075  0.000000  1
  Rh  Rh34  1  0.549925  0.549925  0.000000  1
  Rh  Rh35  1  0.450075  0.000000  0.000000  1
