# generated using pymatgen
data_Cs3KBr16
_symmetry_space_group_name_H-M   'P 1'
_cell_length_a   8.33062447
_cell_length_b   9.92885398
_cell_length_c   10.91099780
_cell_angle_alpha   68.16498085
_cell_angle_beta   90.99691141
_cell_angle_gamma   89.59104550
_symmetry_Int_Tables_number   1
_chemical_formula_structural   Cs3KBr16
_chemical_formula_sum   'Cs3 K1 Br16'
_cell_volume   837.52491087
_cell_formula_units_Z   1
loop_
 _symmetry_equiv_pos_site_id
 _symmetry_equiv_pos_as_xyz
  1  'x, y, z'
loop_
 _atom_site_type_symbol
 _atom_site_label
 _atom_site_symmetry_multiplicity
 _atom_site_fract_x
 _atom_site_fract_y
 _atom_site_fract_z
 _atom_site_occupancy
  Cs  Cs0  1  0.124650  0.267060  0.800737  1
  Cs  Cs1  1  0.380692  0.267575  0.297448  1
  Cs  Cs2  1  0.868547  0.732626  0.203505  1
  K  K3  1  0.608005  0.758765  0.716170  1
  Br  Br4  1  0.369134  0.540707  0.513612  1
  Br  Br5  1  0.862229  0.470419  0.971620  1
  Br  Br6  1  0.635543  0.453981  0.484005  1
  Br  Br7  1  0.132179  0.551656  0.999393  1
  Br  Br8  1  0.054700  0.651671  0.556694  1
  Br  Br9  1  0.544835  0.352450  0.934045  1
  Br  Br10  1  0.964642  0.338230  0.434262  1
  Br  Br11  1  0.457492  0.663560  0.040966  1
  Br  Br12  1  0.203020  0.856934  0.608271  1
  Br  Br13  1  0.695330  0.141924  0.889674  1
  Br  Br14  1  0.804611  0.124992  0.406987  1
  Br  Br15  1  0.303114  0.863361  0.099600  1
  Br  Br16  1  0.363592  0.048196  0.657001  1
  Br  Br17  1  0.854948  0.947778  0.843605  1
  Br  Br18  1  0.634680  0.922741  0.384867  1
  Br  Br19  1  0.138058  0.045371  0.157538  1
