# generated using pymatgen
data_TbHo3NiHg
_symmetry_space_group_name_H-M   'P 1'
_cell_length_a   9.47953824
_cell_length_b   9.47953744
_cell_length_c   9.47953800
_cell_angle_alpha   59.99999804
_cell_angle_beta   60.00000083
_cell_angle_gamma   60.00000381
_symmetry_Int_Tables_number   1
_chemical_formula_structural   TbHo3NiHg
_chemical_formula_sum   'Tb4 Ho12 Ni4 Hg4'
_cell_volume   602.34666724
_cell_formula_units_Z   4
loop_
 _symmetry_equiv_pos_site_id
 _symmetry_equiv_pos_as_xyz
  1  'x, y, z'
loop_
 _atom_site_type_symbol
 _atom_site_label
 _atom_site_symmetry_multiplicity
 _atom_site_fract_x
 _atom_site_fract_y
 _atom_site_fract_z
 _atom_site_occupancy
  Tb  Tb0  1  0.350543  0.350543  0.350543  1
  Tb  Tb1  1  0.350543  0.350543  0.948371  1
  Tb  Tb2  1  0.350543  0.948371  0.350543  1
  Tb  Tb3  1  0.948371  0.350543  0.350543  1
  Ho  Ho4  1  0.811790  0.188210  0.188210  1
  Ho  Ho5  1  0.188210  0.811790  0.811790  1
  Ho  Ho6  1  0.188210  0.811790  0.188210  1
  Ho  Ho7  1  0.811790  0.188210  0.811790  1
  Ho  Ho8  1  0.188210  0.188210  0.811790  1
  Ho  Ho9  1  0.811790  0.811790  0.188210  1
  Ho  Ho10  1  0.936061  0.563939  0.563939  1
  Ho  Ho11  1  0.563939  0.936061  0.936061  1
  Ho  Ho12  1  0.563939  0.936061  0.563939  1
  Ho  Ho13  1  0.936061  0.563939  0.936061  1
  Ho  Ho14  1  0.563939  0.563939  0.936061  1
  Ho  Ho15  1  0.936061  0.936061  0.563939  1
  Ni  Ni16  1  0.142359  0.142359  0.142359  1
  Ni  Ni17  1  0.142359  0.142359  0.572924  1
  Ni  Ni18  1  0.142359  0.572924  0.142359  1
  Ni  Ni19  1  0.572924  0.142359  0.142359  1
  Hg  Hg20  1  0.585174  0.585174  0.585174  1
  Hg  Hg21  1  0.585174  0.585174  0.244481  1
  Hg  Hg22  1  0.585174  0.244481  0.585174  1
  Hg  Hg23  1  0.244481  0.585174  0.585174  1
