# generated using pymatgen
data_Ta12Mn3Zn(Ga2N)4
_symmetry_space_group_name_H-M   'P 1'
_cell_length_a   8.16924780
_cell_length_b   8.22742885
_cell_length_c   8.22743100
_cell_angle_alpha   60.00000341
_cell_angle_beta   59.76412996
_cell_angle_gamma   59.76413003
_symmetry_Int_Tables_number   1
_chemical_formula_structural   Ta12Mn3Zn(Ga2N)4
_chemical_formula_sum   'Ta12 Mn3 Zn1 Ga8 N4'
_cell_volume   389.61699865
_cell_formula_units_Z   1
loop_
 _symmetry_equiv_pos_site_id
 _symmetry_equiv_pos_as_xyz
  1  'x, y, z'
loop_
 _atom_site_type_symbol
 _atom_site_label
 _atom_site_symmetry_multiplicity
 _atom_site_fract_x
 _atom_site_fract_y
 _atom_site_fract_z
 _atom_site_occupancy
  Ta  Ta0  1  0.443461  0.444547  0.055997  1
  Ta  Ta1  1  0.055089  0.444701  0.055508  1
  Ta  Ta2  1  0.443461  0.055997  0.055997  1
  Ta  Ta3  1  0.055089  0.055508  0.444701  1
  Ta  Ta4  1  0.443461  0.055997  0.444547  1
  Ta  Ta5  1  0.055089  0.444701  0.444701  1
  Ta  Ta6  1  0.806539  0.805453  0.194003  1
  Ta  Ta7  1  0.194911  0.805299  0.194492  1
  Ta  Ta8  1  0.806539  0.194003  0.194003  1
  Ta  Ta9  1  0.194911  0.194492  0.805299  1
  Ta  Ta10  1  0.806539  0.194003  0.805453  1
  Ta  Ta11  1  0.194911  0.805299  0.805299  1
  Mn  Mn12  1  0.625000  0.625000  0.125000  1
  Mn  Mn13  1  0.625000  0.125000  0.625000  1
  Mn  Mn14  1  0.625000  0.625000  0.625000  1
  Zn  Zn15  1  0.125000  0.625000  0.625000  1
  Ga  Ga16  1  0.829804  0.838732  0.492733  1
  Ga  Ga17  1  0.829804  0.492733  0.838732  1
  Ga  Ga18  1  0.495082  0.834973  0.834973  1
  Ga  Ga19  1  0.829804  0.838732  0.838732  1
  Ga  Ga20  1  0.420196  0.411268  0.757267  1
  Ga  Ga21  1  0.420196  0.757267  0.411268  1
  Ga  Ga22  1  0.754918  0.415027  0.415027  1
  Ga  Ga23  1  0.420196  0.411268  0.411268  1
  N  N24  1  0.125000  0.125000  0.625000  1
  N  N25  1  0.125000  0.625000  0.125000  1
  N  N26  1  0.625000  0.125000  0.125000  1
  N  N27  1  0.125000  0.125000  0.125000  1
