# generated using pymatgen
data_YbSmCo4(SiC)2
_symmetry_space_group_name_H-M   'P 1'
_cell_length_a   5.55315474
_cell_length_b   5.55315539
_cell_length_c   6.71687900
_cell_angle_alpha   90.00000000
_cell_angle_beta   90.00000000
_cell_angle_gamma   140.07587651
_symmetry_Int_Tables_number   1
_chemical_formula_structural   YbSmCo4(SiC)2
_chemical_formula_sum   'Yb1 Sm1 Co4 Si2 C2'
_cell_volume   132.93161536
_cell_formula_units_Z   1
loop_
 _symmetry_equiv_pos_site_id
 _symmetry_equiv_pos_as_xyz
  1  'x, y, z'
loop_
 _atom_site_type_symbol
 _atom_site_label
 _atom_site_symmetry_multiplicity
 _atom_site_fract_x
 _atom_site_fract_y
 _atom_site_fract_z
 _atom_site_occupancy
  Yb  Yb0  1  0.446669  0.553331  0.750000  1
  Sm  Sm1  1  0.552284  0.447716  0.250000  1
  Co  Co2  1  0.836200  0.163800  0.055892  1
  Co  Co3  1  0.164044  0.835956  0.940655  1
  Co  Co4  1  0.164044  0.835956  0.559345  1
  Co  Co5  1  0.836200  0.163800  0.444108  1
  Si  Si6  1  0.273253  0.726747  0.250000  1
  Si  Si7  1  0.727554  0.272446  0.750000  1
  C  C8  1  0.999876  0.000124  0.996544  1
  C  C9  1  0.999876  0.000124  0.503456  1
