# generated using pymatgen
data_YHoLu18(Cd3Ru)2
_symmetry_space_group_name_H-M   'P 1'
_cell_length_a   9.38998817
_cell_length_b   9.38936289
_cell_length_c   9.68927700
_cell_angle_alpha   90.00000000
_cell_angle_beta   90.00000000
_cell_angle_gamma   120.00062363
_symmetry_Int_Tables_number   1
_chemical_formula_structural   YHoLu18(Cd3Ru)2
_chemical_formula_sum   'Y1 Ho1 Lu18 Cd6 Ru2'
_cell_volume   739.81042046
_cell_formula_units_Z   1
loop_
 _symmetry_equiv_pos_site_id
 _symmetry_equiv_pos_as_xyz
  1  'x, y, z'
loop_
 _atom_site_type_symbol
 _atom_site_label
 _atom_site_symmetry_multiplicity
 _atom_site_fract_x
 _atom_site_fract_y
 _atom_site_fract_z
 _atom_site_occupancy
  Y  Y0  1  0.081073  0.539914  0.750000  1
  Ho  Ho1  1  0.460188  0.919172  0.750000  1
  Lu  Lu2  1  0.999768  0.000208  0.499715  1
  Lu  Lu3  1  0.999768  0.000208  0.000285  1
  Lu  Lu4  1  0.209761  0.790336  0.440418  1
  Lu  Lu5  1  0.211047  0.420019  0.440835  1
  Lu  Lu6  1  0.579921  0.788998  0.440843  1
  Lu  Lu7  1  0.789160  0.210656  0.557378  1
  Lu  Lu8  1  0.788650  0.579484  0.557398  1
  Lu  Lu9  1  0.420509  0.211273  0.557412  1
  Lu  Lu10  1  0.789160  0.210656  0.942622  1
  Lu  Lu11  1  0.788650  0.579484  0.942602  1
  Lu  Lu12  1  0.420509  0.211273  0.942588  1
  Lu  Lu13  1  0.209761  0.790336  0.059582  1
  Lu  Lu14  1  0.211047  0.420019  0.059165  1
  Lu  Lu15  1  0.579921  0.788998  0.059157  1
  Lu  Lu16  1  0.541249  0.458767  0.250000  1
  Lu  Lu17  1  0.540800  0.080800  0.250000  1
  Lu  Lu18  1  0.919199  0.459273  0.250000  1
  Lu  Lu19  1  0.461138  0.538875  0.750000  1
  Cd  Cd20  1  0.886177  0.113830  0.250000  1
  Cd  Cd21  1  0.885444  0.772272  0.250000  1
  Cd  Cd22  1  0.227732  0.114565  0.250000  1
  Cd  Cd23  1  0.112790  0.887288  0.750000  1
  Cd  Cd24  1  0.115060  0.226598  0.750000  1
  Cd  Cd25  1  0.773298  0.884920  0.750000  1
  Ru  Ru26  1  0.332322  0.667642  0.250000  1
  Ru  Ru27  1  0.665899  0.334135  0.750000  1
