# generated using pymatgen
data_Y2FeSi2Tc3C2
_symmetry_space_group_name_H-M   'P 1'
_cell_length_a   5.73771392
_cell_length_b   5.73771300
_cell_length_c   7.14347732
_cell_angle_alpha   91.51245657
_cell_angle_beta   88.48763249
_cell_angle_gamma   140.28473623
_symmetry_Int_Tables_number   1
_chemical_formula_structural   Y2FeSi2Tc3C2
_chemical_formula_sum   'Y2 Fe1 Si2 Tc3 C2'
_cell_volume   150.20993643
_cell_formula_units_Z   1
loop_
 _symmetry_equiv_pos_site_id
 _symmetry_equiv_pos_as_xyz
  1  'x, y, z'
loop_
 _atom_site_type_symbol
 _atom_site_label
 _atom_site_symmetry_multiplicity
 _atom_site_fract_x
 _atom_site_fract_y
 _atom_site_fract_z
 _atom_site_occupancy
  Y  Y0  1  0.544407  0.455593  0.247310  1
  Y  Y1  1  0.454688  0.545313  0.755546  1
  Fe  Fe2  1  0.831293  0.168705  0.067094  1
  Si  Si3  1  0.272648  0.727353  0.221205  1
  Si  Si4  1  0.737298  0.262702  0.775366  1
  Tc  Tc5  1  0.161875  0.838126  0.935091  1
  Tc  Tc6  1  0.179332  0.820668  0.554491  1
  Tc  Tc7  1  0.824870  0.175130  0.442126  1
  C  C8  1  0.991532  0.008469  0.003741  1
  C  C9  1  0.002057  0.997942  0.498030  1
