# generated using pymatgen
data_Yb12Ho8Si15Hg
_symmetry_space_group_name_H-M   'P 1'
_cell_length_a   7.43379444
_cell_length_b   7.78479271
_cell_length_c   15.17426633
_cell_angle_alpha   90.57093625
_cell_angle_beta   89.25885261
_cell_angle_gamma   90.27880559
_symmetry_Int_Tables_number   1
_chemical_formula_structural   Yb12Ho8Si15Hg
_chemical_formula_sum   'Yb12 Ho8 Si15 Hg1'
_cell_volume   878.01620453
_cell_formula_units_Z   1
loop_
 _symmetry_equiv_pos_site_id
 _symmetry_equiv_pos_as_xyz
  1  'x, y, z'
loop_
 _atom_site_type_symbol
 _atom_site_label
 _atom_site_symmetry_multiplicity
 _atom_site_fract_x
 _atom_site_fract_y
 _atom_site_fract_z
 _atom_site_occupancy
  Yb  Yb0  1  0.651831  0.978289  0.250781  1
  Yb  Yb1  1  0.154447  0.519610  0.250342  1
  Yb  Yb2  1  0.846702  0.484494  0.747834  1
  Yb  Yb3  1  0.345883  0.020733  0.747370  1
  Yb  Yb4  1  0.985447  0.819074  0.098300  1
  Yb  Yb5  1  0.474154  0.683373  0.403808  1
  Yb  Yb6  1  0.506726  0.318319  0.903311  1
  Yb  Yb7  1  0.025083  0.183467  0.595435  1
  Yb  Yb8  1  0.025150  0.177854  0.904581  1
  Yb  Yb9  1  0.526422  0.318120  0.596112  1
  Yb  Yb10  1  0.477735  0.677197  0.096335  1
  Yb  Yb11  1  0.974672  0.816589  0.403877  1
  Ho  Ho12  1  0.672173  0.831522  0.871440  1
  Ho  Ho13  1  0.182411  0.678823  0.620070  1
  Ho  Ho14  1  0.824554  0.317232  0.127132  1
  Ho  Ho15  1  0.319106  0.176357  0.379836  1
  Ho  Ho16  1  0.323887  0.177894  0.123496  1
  Ho  Ho17  1  0.818428  0.322525  0.379839  1
  Ho  Ho18  1  0.185671  0.677298  0.879068  1
  Ho  Ho19  1  0.683072  0.824458  0.620012  1
  Si  Si20  1  0.757471  0.603587  0.252047  1
  Si  Si21  1  0.257921  0.894481  0.251168  1
  Si  Si22  1  0.744197  0.109258  0.748649  1
  Si  Si23  1  0.240642  0.395826  0.748113  1
  Si  Si24  1  0.029553  0.114976  0.250915  1
  Si  Si25  1  0.530108  0.381297  0.253691  1
  Si  Si26  1  0.469198  0.618722  0.746377  1
  Si  Si27  1  0.971987  0.883385  0.748585  1
  Si  Si28  1  0.357971  0.966880  0.537567  1
  Si  Si29  1  0.650373  0.030342  0.034924  1
  Si  Si30  1  0.142546  0.466775  0.461407  1
  Si  Si31  1  0.154045  0.460217  0.039758  1
  Si  Si32  1  0.642963  0.034044  0.462069  1
  Si  Si33  1  0.356821  0.965777  0.964210  1
  Si  Si34  1  0.859053  0.533653  0.537965  1
  Hg  Hg35  1  0.831597  0.537556  0.963579  1
