# generated using pymatgen
data_Dy5Ho3Re3TcB24
_symmetry_space_group_name_H-M   'P 1'
_cell_length_a   3.68216800
_cell_length_b   9.17040828
_cell_length_c   11.55659000
_cell_angle_alpha   90.03166422
_cell_angle_beta   90.00000000
_cell_angle_gamma   90.00000000
_symmetry_Int_Tables_number   1
_chemical_formula_structural   Dy5Ho3Re3TcB24
_chemical_formula_sum   'Dy5 Ho3 Re3 Tc1 B24'
_cell_volume   390.23112917
_cell_formula_units_Z   1
loop_
 _symmetry_equiv_pos_site_id
 _symmetry_equiv_pos_as_xyz
  1  'x, y, z'
loop_
 _atom_site_type_symbol
 _atom_site_label
 _atom_site_symmetry_multiplicity
 _atom_site_fract_x
 _atom_site_fract_y
 _atom_site_fract_z
 _atom_site_occupancy
  Dy  Dy0  1  0.000000  0.323932  0.413834  1
  Dy  Dy1  1  0.000000  0.676337  0.586020  1
  Dy  Dy2  1  0.000000  0.823655  0.086023  1
  Dy  Dy3  1  0.000000  0.176601  0.913901  1
  Dy  Dy4  1  0.000000  0.942142  0.369789  1
  Ho  Ho5  1  0.000000  0.056870  0.629897  1
  Ho  Ho6  1  0.000000  0.443726  0.130639  1
  Ho  Ho7  1  0.000000  0.556799  0.870219  1
  Re  Re8  1  0.000000  0.361298  0.679302  1
  Re  Re9  1  0.000000  0.138972  0.179302  1
  Re  Re10  1  0.000000  0.861237  0.820637  1
  Tc  Tc11  1  0.000000  0.638647  0.320546  1
  B  B12  1  0.500000  0.553521  0.432665  1
  B  B13  1  0.500000  0.446635  0.567073  1
  B  B14  1  0.500000  0.053486  0.067088  1
  B  B15  1  0.500000  0.946652  0.932827  1
  B  B16  1  0.500000  0.748561  0.418438  1
  B  B17  1  0.500000  0.250756  0.581368  1
  B  B18  1  0.500000  0.249441  0.081450  1
  B  B19  1  0.500000  0.750802  0.918574  1
  B  B20  1  0.500000  0.791591  0.265409  1
  B  B21  1  0.500000  0.207802  0.734368  1
  B  B22  1  0.500000  0.292252  0.234565  1
  B  B23  1  0.500000  0.707793  0.765575  1
  B  B24  1  0.500000  0.630974  0.185769  1
  B  B25  1  0.500000  0.369201  0.814348  1
  B  B26  1  0.500000  0.130868  0.314309  1
  B  B27  1  0.500000  0.869136  0.685581  1
  B  B28  1  0.500000  0.982468  0.211741  1
  B  B29  1  0.500000  0.017580  0.787952  1
  B  B30  1  0.500000  0.482715  0.288167  1
  B  B31  1  0.500000  0.517597  0.712037  1
  B  B32  1  0.500000  0.600156  0.028095  1
  B  B33  1  0.500000  0.400048  0.972274  1
  B  B34  1  0.500000  0.099992  0.472056  1
  B  B35  1  0.500000  0.899759  0.528161  1
