# generated using pymatgen
data_La6Nd6Ir(PtBr4)3
_symmetry_space_group_name_H-M   'P 1'
_cell_length_a   10.62543741
_cell_length_b   10.64158318
_cell_length_c   10.59969040
_cell_angle_alpha   109.22372496
_cell_angle_beta   109.61571838
_cell_angle_gamma   109.33819531
_symmetry_Int_Tables_number   1
_chemical_formula_structural   La6Nd6Ir(PtBr4)3
_chemical_formula_sum   'La6 Nd6 Ir1 Pt3 Br12'
_cell_volume   925.29225428
_cell_formula_units_Z   1
loop_
 _symmetry_equiv_pos_site_id
 _symmetry_equiv_pos_as_xyz
  1  'x, y, z'
loop_
 _atom_site_type_symbol
 _atom_site_label
 _atom_site_symmetry_multiplicity
 _atom_site_fract_x
 _atom_site_fract_y
 _atom_site_fract_z
 _atom_site_occupancy
  La  La0  1  0.478634  0.240697  0.472054  1
  La  La1  1  0.263583  0.013209  0.026696  1
  La  La2  1  0.752814  0.238366  0.262818  1
  La  La3  1  0.747400  0.013298  0.484657  1
  La  La4  1  0.474321  0.485588  0.238801  1
  La  La5  1  0.030464  0.260924  0.020678  1
  Nd  Nd6  1  0.264468  0.749072  0.234596  1
  Nd  Nd7  1  0.482448  0.746914  0.013160  1
  Nd  Nd8  1  0.235987  0.470423  0.484489  1
  Nd  Nd9  1  0.017980  0.029243  0.262926  1
  Nd  Nd10  1  0.233372  0.264985  0.747737  1
  Nd  Nd11  1  0.016642  0.485700  0.751897  1
  Ir  Ir12  1  0.251497  0.250338  0.249455  1
  Pt  Pt13  1  0.500877  0.001781  0.250408  1
  Pt  Pt14  1  0.249963  0.498607  0.000676  1
  Pt  Pt15  1  0.998146  0.249299  0.498436  1
  Br  Br16  1  0.245650  0.992389  0.501968  1
  Br  Br17  1  0.506005  0.507639  0.758044  1
  Br  Br18  1  0.248879  0.748216  0.743335  1
  Br  Br19  1  0.992275  0.743672  0.997624  1
  Br  Br20  1  0.001697  0.511359  0.254836  1
  Br  Br21  1  0.743629  0.988742  0.992596  1
  Br  Br22  1  0.755218  0.749551  0.246055  1
  Br  Br23  1  0.498675  0.752836  0.508364  1
  Br  Br24  1  0.502841  0.250180  0.990694  1
  Br  Br25  1  0.758785  0.509426  0.508732  1
  Br  Br26  1  0.749081  0.254830  0.754303  1
  Br  Br27  1  0.998670  0.992716  0.743968  1
