# generated using pymatgen
data_Nd5Te4C
_symmetry_space_group_name_H-M   'P 1'
_cell_length_a   7.72611820
_cell_length_b   7.72611659
_cell_length_c   10.91572021
_cell_angle_alpha   60.79389329
_cell_angle_beta   60.79389984
_cell_angle_gamma   31.73483864
_symmetry_Int_Tables_number   1
_chemical_formula_structural   Nd5Te4C
_chemical_formula_sum   'Nd5 Te4 C1'
_cell_volume   295.35760097
_cell_formula_units_Z   1
loop_
 _symmetry_equiv_pos_site_id
 _symmetry_equiv_pos_as_xyz
  1  'x, y, z'
loop_
 _atom_site_type_symbol
 _atom_site_label
 _atom_site_symmetry_multiplicity
 _atom_site_fract_x
 _atom_site_fract_y
 _atom_site_fract_z
 _atom_site_occupancy
  Nd  Nd0  1  0.000000  0.000000  0.500000  1
  Nd  Nd1  1  0.574535  0.574535  0.081363  1
  Nd  Nd2  1  0.168458  0.168458  0.756002  1
  Nd  Nd3  1  0.831542  0.831542  0.243998  1
  Nd  Nd4  1  0.425465  0.425465  0.918637  1
  Te  Te5  1  0.612082  0.612082  0.588827  1
  Te  Te6  1  0.194443  0.194443  0.188183  1
  Te  Te7  1  0.805557  0.805557  0.811817  1
  Te  Te8  1  0.387918  0.387918  0.411173  1
  C  C9  1  0.000000  0.000000  0.000000  1
