# generated using pymatgen
data_Er5ReBMoC6
_symmetry_space_group_name_H-M   'P 1'
_cell_length_a   8.30415700
_cell_length_b   8.30415680
_cell_length_c   3.39848300
_cell_angle_alpha   90.00000000
_cell_angle_beta   90.00000000
_cell_angle_gamma   122.11207041
_symmetry_Int_Tables_number   1
_chemical_formula_structural   Er5ReBMoC6
_chemical_formula_sum   'Er5 Re1 B1 Mo1 C6'
_cell_volume   198.50191846
_cell_formula_units_Z   1
loop_
 _symmetry_equiv_pos_site_id
 _symmetry_equiv_pos_as_xyz
  1  'x, y, z'
loop_
 _atom_site_type_symbol
 _atom_site_label
 _atom_site_symmetry_multiplicity
 _atom_site_fract_x
 _atom_site_fract_y
 _atom_site_fract_z
 _atom_site_occupancy
  Er  Er0  1  0.498871  0.501129  0.000000  1
  Er  Er1  1  0.080098  0.329581  0.500000  1
  Er  Er2  1  0.921929  0.671467  0.500000  1
  Er  Er3  1  0.670419  0.919902  0.500000  1
  Er  Er4  1  0.328533  0.078071  0.500000  1
  Re  Re5  1  0.286596  0.713404  0.000000  1
  B  B6  1  0.999668  0.000332  0.000000  1
  Mo  Mo7  1  0.713678  0.286322  0.000000  1
  C  C8  1  0.625427  0.374573  0.500000  1
  C  C9  1  0.372666  0.627334  0.500000  1
  C  C10  1  0.183552  0.182667  0.000000  1
  C  C11  1  0.817333  0.816448  0.000000  1
  C  C12  1  0.002495  0.501266  0.000000  1
  C  C13  1  0.498734  0.997505  0.000000  1
