# generated using pymatgen
data_Sr6TbY13Sn16
_symmetry_space_group_name_H-M   'P 1'
_cell_length_a   8.06267029
_cell_length_b   8.47690320
_cell_length_c   16.01197185
_cell_angle_alpha   89.99951963
_cell_angle_beta   90.46408140
_cell_angle_gamma   89.98502849
_symmetry_Int_Tables_number   1
_chemical_formula_structural   Sr6TbY13Sn16
_chemical_formula_sum   'Sr6 Tb1 Y13 Sn16'
_cell_volume   1094.32590739
_cell_formula_units_Z   1
loop_
 _symmetry_equiv_pos_site_id
 _symmetry_equiv_pos_as_xyz
  1  'x, y, z'
loop_
 _atom_site_type_symbol
 _atom_site_label
 _atom_site_symmetry_multiplicity
 _atom_site_fract_x
 _atom_site_fract_y
 _atom_site_fract_z
 _atom_site_occupancy
  Sr  Sr0  1  0.003379  0.176574  0.598140  1
  Sr  Sr1  1  0.499984  0.676803  0.408164  1
  Sr  Sr2  1  0.999674  0.822202  0.087831  1
  Sr  Sr3  1  0.499355  0.677782  0.087811  1
  Sr  Sr4  1  0.000055  0.823321  0.408130  1
  Sr  Sr5  1  0.503322  0.323550  0.598038  1
  Tb  Tb6  1  0.001292  0.183194  0.902133  1
  Y  Y7  1  0.333730  0.836238  0.875490  1
  Y  Y8  1  0.829696  0.663967  0.629204  1
  Y  Y9  1  0.668117  0.163876  0.376464  1
  Y  Y10  1  0.163743  0.337852  0.121886  1
  Y  Y11  1  0.663740  0.162243  0.121975  1
  Y  Y12  1  0.167998  0.336195  0.376466  1
  Y  Y13  1  0.329661  0.836016  0.629268  1
  Y  Y14  1  0.833818  0.663580  0.875551  1
  Y  Y15  1  0.501998  0.316554  0.902042  1
  Y  Y16  1  0.169601  0.494246  0.752073  1
  Y  Y17  1  0.669456  0.005619  0.752020  1
  Y  Y18  1  0.827779  0.505199  0.248822  1
  Y  Y19  1  0.328081  0.994876  0.248855  1
  Sn  Sn20  1  0.325375  0.053926  0.034240  1
  Sn  Sn21  1  0.835729  0.458863  0.459184  1
  Sn  Sn22  1  0.664820  0.959343  0.544628  1
  Sn  Sn23  1  0.177008  0.526452  0.951890  1
  Sn  Sn24  1  0.676776  0.973350  0.951957  1
  Sn  Sn25  1  0.164810  0.540916  0.544589  1
  Sn  Sn26  1  0.335778  0.041301  0.459250  1
  Sn  Sn27  1  0.824873  0.446112  0.034314  1
  Sn  Sn28  1  0.529955  0.626606  0.753762  1
  Sn  Sn29  1  0.029717  0.873259  0.753896  1
  Sn  Sn30  1  0.464864  0.367226  0.249404  1
  Sn  Sn31  1  0.965014  0.132639  0.249331  1
  Sn  Sn32  1  0.304895  0.143603  0.758682  1
  Sn  Sn33  1  0.804801  0.356500  0.758594  1
  Sn  Sn34  1  0.700628  0.865493  0.247952  1
  Sn  Sn35  1  0.200479  0.634525  0.247971  1
