# generated using pymatgen
data_Tc3Os3Rh2
_symmetry_space_group_name_H-M   'P 1'
_cell_length_a   5.50367400
_cell_length_b   5.50367357
_cell_length_c   4.36859100
_cell_angle_alpha   90.00000000
_cell_angle_beta   90.00000000
_cell_angle_gamma   120.00000259
_symmetry_Int_Tables_number   1
_chemical_formula_structural   Tc3Os3Rh2
_chemical_formula_sum   'Tc3 Os3 Rh2'
_cell_volume   114.59808905
_cell_formula_units_Z   1
loop_
 _symmetry_equiv_pos_site_id
 _symmetry_equiv_pos_as_xyz
  1  'x, y, z'
loop_
 _atom_site_type_symbol
 _atom_site_label
 _atom_site_symmetry_multiplicity
 _atom_site_fract_x
 _atom_site_fract_y
 _atom_site_fract_z
 _atom_site_occupancy
  Tc  Tc0  1  0.839133  0.678266  0.750000  1
  Tc  Tc1  1  0.321734  0.160867  0.750000  1
  Tc  Tc2  1  0.839133  0.160867  0.750000  1
  Os  Os3  1  0.164398  0.328796  0.250000  1
  Os  Os4  1  0.671204  0.835602  0.250000  1
  Os  Os5  1  0.164398  0.835602  0.250000  1
  Rh  Rh6  1  0.333333  0.666667  0.750000  1
  Rh  Rh7  1  0.666667  0.333333  0.250000  1
