# generated using pymatgen
data_La13PrPd5Ru
_symmetry_space_group_name_H-M   'P 1'
_cell_length_a   10.32920492
_cell_length_b   10.32920380
_cell_length_c   6.60396541
_cell_angle_alpha   89.79637965
_cell_angle_beta   90.20361963
_cell_angle_gamma   119.90248698
_symmetry_Int_Tables_number   1
_chemical_formula_structural   La13PrPd5Ru
_chemical_formula_sum   'La13 Pr1 Pd5 Ru1'
_cell_volume   610.78927578
_cell_formula_units_Z   1
loop_
 _symmetry_equiv_pos_site_id
 _symmetry_equiv_pos_as_xyz
  1  'x, y, z'
loop_
 _atom_site_type_symbol
 _atom_site_label
 _atom_site_symmetry_multiplicity
 _atom_site_fract_x
 _atom_site_fract_y
 _atom_site_fract_z
 _atom_site_occupancy
  La  La0  1  0.669946  0.330054  0.964946  1
  La  La1  1  0.127251  0.872749  0.240985  1
  La  La2  1  0.751454  0.886197  0.240426  1
  La  La3  1  0.113803  0.248546  0.240426  1
  La  La4  1  0.873099  0.126901  0.750612  1
  La  La5  1  0.253097  0.125642  0.743092  1
  La  La6  1  0.874358  0.746903  0.743092  1
  La  La7  1  0.536517  0.463483  0.445454  1
  La  La8  1  0.919195  0.453127  0.436739  1
  La  La9  1  0.546873  0.080805  0.436739  1
  La  La10  1  0.462652  0.537348  0.946616  1
  La  La11  1  0.077552  0.536546  0.941982  1
  La  La12  1  0.463454  0.922448  0.941982  1
  Pr  Pr13  1  0.333643  0.666357  0.450828  1
  Pd  Pd14  1  0.373902  0.189191  0.192392  1
  Pd  Pd15  1  0.810809  0.626098  0.192392  1
  Pd  Pd16  1  0.188058  0.811942  0.693689  1
  Pd  Pd17  1  0.623812  0.810646  0.693749  1
  Pd  Pd18  1  0.189354  0.376188  0.693749  1
  Ru  Ru19  1  0.811173  0.188827  0.195899  1
