# generated using pymatgen
data_Ti2V(CrP)3
_symmetry_space_group_name_H-M   'P 1'
_cell_length_a   6.34883773
_cell_length_b   6.34883799
_cell_length_c   3.21289800
_cell_angle_alpha   90.00000000
_cell_angle_beta   90.00000000
_cell_angle_gamma   119.55100254
_symmetry_Int_Tables_number   1
_chemical_formula_structural   Ti2V(CrP)3
_chemical_formula_sum   'Ti2 V1 Cr3 P3'
_cell_volume   112.65831099
_cell_formula_units_Z   1
loop_
 _symmetry_equiv_pos_site_id
 _symmetry_equiv_pos_as_xyz
  1  'x, y, z'
loop_
 _atom_site_type_symbol
 _atom_site_label
 _atom_site_symmetry_multiplicity
 _atom_site_fract_x
 _atom_site_fract_y
 _atom_site_fract_z
 _atom_site_occupancy
  Ti  Ti0  1  0.594184  0.998345  0.500000  1
  Ti  Ti1  1  0.998345  0.594184  0.500000  1
  V  V2  1  0.404183  0.404183  0.500000  1
  Cr  Cr3  1  0.003839  0.256025  0.000000  1
  Cr  Cr4  1  0.256025  0.003839  0.000000  1
  Cr  Cr5  1  0.744445  0.744445  0.000000  1
  P  P6  1  0.663320  0.333964  0.000000  1
  P  P7  1  0.333964  0.663320  0.000000  1
  P  P8  1  0.001694  0.001694  0.500000  1
