# generated using pymatgen
data_SmI28
_symmetry_space_group_name_H-M   'P 1'
_cell_length_a   10.67681737
_cell_length_b   14.33344904
_cell_length_c   12.98270300
_cell_angle_alpha   108.44914254
_cell_angle_beta   105.43469067
_cell_angle_gamma   86.57346759
_symmetry_Int_Tables_number   1
_chemical_formula_structural   SmI28
_chemical_formula_sum   'Sm1 I28'
_cell_volume   1816.08072199
_cell_formula_units_Z   1
loop_
 _symmetry_equiv_pos_site_id
 _symmetry_equiv_pos_as_xyz
  1  'x, y, z'
loop_
 _atom_site_type_symbol
 _atom_site_label
 _atom_site_symmetry_multiplicity
 _atom_site_fract_x
 _atom_site_fract_y
 _atom_site_fract_z
 _atom_site_occupancy
  Sm  Sm0  1  0.500000  0.000000  0.000000  1
  I  I1  1  0.123406  0.113963  0.416649  1
  I  I2  1  0.577953  0.149955  0.447359  1
  I  I3  1  0.290671  0.272871  0.856097  1
  I  I4  1  0.799072  0.278119  0.875730  1
  I  I5  1  0.194582  0.502518  0.653713  1
  I  I6  1  0.768338  0.558529  0.726743  1
  I  I7  1  0.422047  0.850045  0.552641  1
  I  I8  1  0.876594  0.886037  0.583351  1
  I  I9  1  0.200928  0.721881  0.124270  1
  I  I10  1  0.709329  0.727129  0.143903  1
  I  I11  1  0.231662  0.441471  0.273257  1
  I  I12  1  0.805418  0.497482  0.346287  1
  I  I13  1  0.847066  0.074847  0.743162  1
  I  I14  1  0.310622  0.959543  0.776255  1
  I  I15  1  0.984381  0.641980  0.932311  1
  I  I16  1  0.504902  0.779561  0.956418  1
  I  I17  1  0.710662  0.354720  0.411333  1
  I  I18  1  0.187971  0.277372  0.347449  1
  I  I19  1  0.689378  0.040457  0.223745  1
  I  I20  1  0.152934  0.925153  0.256838  1
  I  I21  1  0.495098  0.220439  0.043582  1
  I  I22  1  0.015619  0.358020  0.067689  1
  I  I23  1  0.812029  0.722628  0.652551  1
  I  I24  1  0.289338  0.645280  0.588667  1
  I  I25  1  0.082412  0.322157  0.695289  1
  I  I26  1  0.489315  0.231295  0.637379  1
  I  I27  1  0.510685  0.768705  0.362621  1
  I  I28  1  0.917588  0.677843  0.304711  1
