# generated using pymatgen
data_SmAlBRh3
_symmetry_space_group_name_H-M   'P 1'
_cell_length_a   5.54989600
_cell_length_b   5.55014131
_cell_length_c   6.94963600
_cell_angle_alpha   90.00000000
_cell_angle_beta   90.00000000
_cell_angle_gamma   119.99945005
_symmetry_Int_Tables_number   1
_chemical_formula_structural   SmAlBRh3
_chemical_formula_sum   'Sm2 Al2 B2 Rh6'
_cell_volume   185.38900882
_cell_formula_units_Z   2
loop_
 _symmetry_equiv_pos_site_id
 _symmetry_equiv_pos_as_xyz
  1  'x, y, z'
loop_
 _atom_site_type_symbol
 _atom_site_label
 _atom_site_symmetry_multiplicity
 _atom_site_fract_x
 _atom_site_fract_y
 _atom_site_fract_z
 _atom_site_occupancy
  Sm  Sm0  1  0.999980  0.000003  0.000000  1
  Sm  Sm1  1  0.999985  0.999996  0.500000  1
  Al  Al2  1  0.333250  0.666631  0.000000  1
  Al  Al3  1  0.666714  0.333378  0.000000  1
  B  B4  1  0.333361  0.666691  0.500000  1
  B  B5  1  0.666602  0.333306  0.500000  1
  Rh  Rh6  1  0.499985  0.999999  0.288178  1
  Rh  Rh7  1  0.499985  0.500000  0.288184  1
  Rh  Rh8  1  0.999985  0.499999  0.288279  1
  Rh  Rh9  1  0.499985  0.999999  0.711822  1
  Rh  Rh10  1  0.499985  0.500000  0.711815  1
  Rh  Rh11  1  0.999985  0.499999  0.711720  1
