# generated using pymatgen
data_TbErP7(Rh3W)3
_symmetry_space_group_name_H-M   'P 1'
_cell_length_a   3.94531304
_cell_length_b   9.52004416
_cell_length_c   9.51892101
_cell_angle_alpha   119.99834400
_cell_angle_beta   89.99853677
_cell_angle_gamma   90.00459636
_symmetry_Int_Tables_number   1
_chemical_formula_structural   TbErP7(Rh3W)3
_chemical_formula_sum   'Tb1 Er1 P7 Rh9 W3'
_cell_volume   309.63213762
_cell_formula_units_Z   1
loop_
 _symmetry_equiv_pos_site_id
 _symmetry_equiv_pos_as_xyz
  1  'x, y, z'
loop_
 _atom_site_type_symbol
 _atom_site_label
 _atom_site_symmetry_multiplicity
 _atom_site_fract_x
 _atom_site_fract_y
 _atom_site_fract_z
 _atom_site_occupancy
  Tb  Tb0  1  0.261601  0.666596  0.333238  1
  Er  Er1  1  0.762668  0.333342  0.666682  1
  P  P2  1  0.261634  0.999993  0.999911  1
  P  P3  1  0.762121  0.881261  0.592018  1
  P  P4  1  0.762139  0.407975  0.289245  1
  P  P5  1  0.762134  0.710740  0.118662  1
  P  P6  1  0.261896  0.119118  0.412603  1
  P  P7  1  0.261905  0.587461  0.706575  1
  P  P8  1  0.261846  0.293503  0.880933  1
  Rh  Rh9  1  0.261656  0.886471  0.159549  1
  Rh  Rh10  1  0.261653  0.840371  0.726710  1
  Rh  Rh11  1  0.261640  0.273178  0.113668  1
  Rh  Rh12  1  0.761896  0.613785  0.559921  1
  Rh  Rh13  1  0.761868  0.439955  0.053726  1
  Rh  Rh14  1  0.761903  0.946064  0.386166  1
  Rh  Rh15  1  0.262158  0.371147  0.439317  1
  Rh  Rh16  1  0.262119  0.560868  0.931968  1
  Rh  Rh17  1  0.262165  0.068130  0.628933  1
  W  W18  1  0.761665  0.090641  0.869866  1
  W  W19  1  0.761674  0.130279  0.221081  1
  W  W20  1  0.761657  0.779123  0.909228  1
