# generated using pymatgen
data_CaY3(Ga2Ag)4
_symmetry_space_group_name_H-M   'P 1'
_cell_length_a   4.36638800
_cell_length_b   7.02286064
_cell_length_c   10.35330274
_cell_angle_alpha   90.40845427
_cell_angle_beta   90.00000000
_cell_angle_gamma   90.00000000
_symmetry_Int_Tables_number   1
_chemical_formula_structural   CaY3(Ga2Ag)4
_chemical_formula_sum   'Ca1 Y3 Ga8 Ag4'
_cell_volume   317.47114076
_cell_formula_units_Z   1
loop_
 _symmetry_equiv_pos_site_id
 _symmetry_equiv_pos_as_xyz
  1  'x, y, z'
loop_
 _atom_site_type_symbol
 _atom_site_label
 _atom_site_symmetry_multiplicity
 _atom_site_fract_x
 _atom_site_fract_y
 _atom_site_fract_z
 _atom_site_occupancy
  Ca  Ca0  1  0.250000  0.275504  0.674376  1
  Y  Y1  1  0.250000  0.779756  0.825145  1
  Y  Y2  1  0.750000  0.222455  0.174076  1
  Y  Y3  1  0.750000  0.721100  0.326248  1
  Ga  Ga4  1  0.250000  0.925343  0.155708  1
  Ga  Ga5  1  0.750000  0.071196  0.849580  1
  Ga  Ga6  1  0.750000  0.575011  0.651752  1
  Ga  Ga7  1  0.250000  0.427687  0.343224  1
  Ga  Ga8  1  0.250000  0.703161  0.534072  1
  Ga  Ga9  1  0.750000  0.299963  0.464099  1
  Ga  Ga10  1  0.750000  0.795954  0.036155  1
  Ga  Ga11  1  0.250000  0.199696  0.966706  1
  Ag  Ag12  1  0.250000  0.544917  0.096315  1
  Ag  Ag13  1  0.750000  0.455962  0.903988  1
  Ag  Ag14  1  0.750000  0.956567  0.596106  1
  Ag  Ag15  1  0.250000  0.045731  0.402449  1
