# generated using pymatgen
data_TbYb9Pb6F2
_symmetry_space_group_name_H-M   'P 1'
_cell_length_a   9.39246439
_cell_length_b   9.39246374
_cell_length_c   9.39246392
_cell_angle_alpha   127.89440975
_cell_angle_beta   127.89441268
_cell_angle_gamma   76.79614155
_symmetry_Int_Tables_number   1
_chemical_formula_structural   TbYb9Pb6F2
_chemical_formula_sum   'Tb1 Yb9 Pb6 F2'
_cell_volume   501.04806276
_cell_formula_units_Z   1
loop_
 _symmetry_equiv_pos_site_id
 _symmetry_equiv_pos_as_xyz
  1  'x, y, z'
loop_
 _atom_site_type_symbol
 _atom_site_label
 _atom_site_symmetry_multiplicity
 _atom_site_fract_x
 _atom_site_fract_y
 _atom_site_fract_z
 _atom_site_occupancy
  Tb  Tb0  1  0.000000  0.000000  0.000000  1
  Yb  Yb1  1  0.500000  0.500000  0.000000  1
  Yb  Yb2  1  0.502651  0.002897  0.813255  1
  Yb  Yb3  1  0.189642  0.689396  0.186745  1
  Yb  Yb4  1  0.002897  0.189642  0.500245  1
  Yb  Yb5  1  0.689396  0.502651  0.499755  1
  Yb  Yb6  1  0.497349  0.997103  0.186745  1
  Yb  Yb7  1  0.810358  0.310604  0.813255  1
  Yb  Yb8  1  0.997103  0.810358  0.499755  1
  Yb  Yb9  1  0.310604  0.497349  0.500245  1
  Pb  Pb10  1  0.249492  0.249492  0.000000  1
  Pb  Pb11  1  0.750508  0.750508  0.000000  1
  Pb  Pb12  1  0.865741  0.364227  0.229969  1
  Pb  Pb13  1  0.134259  0.635773  0.770032  1
  Pb  Pb14  1  0.364227  0.134259  0.498486  1
  Pb  Pb15  1  0.635773  0.865741  0.501514  1
  F  F16  1  0.250000  0.750000  0.500000  1
  F  F17  1  0.750000  0.250000  0.500000  1
