# generated using pymatgen
data_Tb2Ho2Ni2C5
_symmetry_space_group_name_H-M   'P 1'
_cell_length_a   3.64358900
_cell_length_b   3.69632500
_cell_length_c   11.64452800
_cell_angle_alpha   90.00000000
_cell_angle_beta   90.00000000
_cell_angle_gamma   90.00000000
_symmetry_Int_Tables_number   1
_chemical_formula_structural   Tb2Ho2Ni2C5
_chemical_formula_sum   'Tb2 Ho2 Ni2 C5'
_cell_volume   156.82721185
_cell_formula_units_Z   1
loop_
 _symmetry_equiv_pos_site_id
 _symmetry_equiv_pos_as_xyz
  1  'x, y, z'
loop_
 _atom_site_type_symbol
 _atom_site_label
 _atom_site_symmetry_multiplicity
 _atom_site_fract_x
 _atom_site_fract_y
 _atom_site_fract_z
 _atom_site_occupancy
  Tb  Tb0  1  0.500000  0.207576  0.500000  1
  Tb  Tb1  1  0.000000  0.999024  0.000000  1
  Ho  Ho2  1  0.500000  0.503277  0.203388  1
  Ho  Ho3  1  0.500000  0.503277  0.796612  1
  Ni  Ni4  1  0.000000  0.697610  0.383151  1
  Ni  Ni5  1  0.000000  0.697610  0.616849  1
  C  C6  1  0.000000  0.001047  0.229962  1
  C  C7  1  0.000000  0.001047  0.770038  1
  C  C8  1  0.000000  0.197997  0.331649  1
  C  C9  1  0.000000  0.197997  0.668351  1
  C  C10  1  0.500000  0.495037  0.000000  1
