# generated using pymatgen
data_Yb(Pt3O4)2
_symmetry_space_group_name_H-M   'P 1'
_cell_length_a   5.76211200
_cell_length_b   5.76211200
_cell_length_c   5.76211200
_cell_angle_alpha   90.00000000
_cell_angle_beta   90.00000000
_cell_angle_gamma   90.00000000
_symmetry_Int_Tables_number   1
_chemical_formula_structural   Yb(Pt3O4)2
_chemical_formula_sum   'Yb1 Pt6 O8'
_cell_volume   191.31326636
_cell_formula_units_Z   1
loop_
 _symmetry_equiv_pos_site_id
 _symmetry_equiv_pos_as_xyz
  1  'x, y, z'
loop_
 _atom_site_type_symbol
 _atom_site_label
 _atom_site_symmetry_multiplicity
 _atom_site_fract_x
 _atom_site_fract_y
 _atom_site_fract_z
 _atom_site_occupancy
  Yb  Yb0  1  0.500000  0.500000  0.500000  1
  Pt  Pt1  1  0.000000  0.500000  0.755156  1
  Pt  Pt2  1  0.500000  0.244844  0.000000  1
  Pt  Pt3  1  0.755156  0.000000  0.500000  1
  Pt  Pt4  1  0.000000  0.500000  0.244844  1
  Pt  Pt5  1  0.500000  0.755156  0.000000  1
  Pt  Pt6  1  0.244844  0.000000  0.500000  1
  O  O7  1  0.739938  0.260062  0.739938  1
  O  O8  1  0.260062  0.739938  0.260062  1
  O  O9  1  0.739938  0.739938  0.260062  1
  O  O10  1  0.260062  0.260062  0.739938  1
  O  O11  1  0.260062  0.739938  0.739938  1
  O  O12  1  0.739938  0.260062  0.260062  1
  O  O13  1  0.260062  0.260062  0.260062  1
  O  O14  1  0.739938  0.739938  0.739938  1
