# generated using pymatgen
data_NdHo2RuI3
_symmetry_space_group_name_H-M   'P 1'
_cell_length_a   4.25086400
_cell_length_b   9.03352968
_cell_length_c   12.36901550
_cell_angle_alpha   94.49011960
_cell_angle_beta   90.00000000
_cell_angle_gamma   90.00000000
_symmetry_Int_Tables_number   1
_chemical_formula_structural   NdHo2RuI3
_chemical_formula_sum   'Nd2 Ho4 Ru2 I6'
_cell_volume   473.51621466
_cell_formula_units_Z   2
loop_
 _symmetry_equiv_pos_site_id
 _symmetry_equiv_pos_as_xyz
  1  'x, y, z'
loop_
 _atom_site_type_symbol
 _atom_site_label
 _atom_site_symmetry_multiplicity
 _atom_site_fract_x
 _atom_site_fract_y
 _atom_site_fract_z
 _atom_site_occupancy
  Nd  Nd0  1  0.750000  0.273291  0.603931  1
  Nd  Nd1  1  0.250000  0.726709  0.396069  1
  Ho  Ho2  1  0.750000  0.881132  0.625716  1
  Ho  Ho3  1  0.250000  0.118868  0.374284  1
  Ho  Ho4  1  0.750000  0.898441  0.184293  1
  Ho  Ho5  1  0.250000  0.101559  0.815707  1
  Ru  Ru6  1  0.750000  0.940835  0.405004  1
  Ru  Ru7  1  0.250000  0.059165  0.594996  1
  I  I8  1  0.750000  0.413683  0.360143  1
  I  I9  1  0.250000  0.586317  0.639857  1
  I  I10  1  0.750000  0.867767  0.890031  1
  I  I11  1  0.250000  0.132233  0.109969  1
  I  I12  1  0.750000  0.348277  0.870966  1
  I  I13  1  0.250000  0.651723  0.129034  1
