# generated using pymatgen
data_TbPr8Ho11Pb16
_symmetry_space_group_name_H-M   'P 1'
_cell_length_a   8.31581237
_cell_length_b   8.37845537
_cell_length_c   15.86224609
_cell_angle_alpha   89.99227435
_cell_angle_beta   89.99054742
_cell_angle_gamma   89.96684636
_symmetry_Int_Tables_number   1
_chemical_formula_structural   TbPr8Ho11Pb16
_chemical_formula_sum   'Tb1 Pr8 Ho11 Pb16'
_cell_volume   1105.18057615
_cell_formula_units_Z   1
loop_
 _symmetry_equiv_pos_site_id
 _symmetry_equiv_pos_as_xyz
  1  'x, y, z'
loop_
 _atom_site_type_symbol
 _atom_site_label
 _atom_site_symmetry_multiplicity
 _atom_site_fract_x
 _atom_site_fract_y
 _atom_site_fract_z
 _atom_site_occupancy
  Tb  Tb0  1  0.632800  0.158342  0.622225  1
  Pr  Pr1  1  0.475850  0.677691  0.597353  1
  Pr  Pr2  1  0.975823  0.822149  0.902657  1
  Pr  Pr3  1  0.524187  0.322206  0.097344  1
  Pr  Pr4  1  0.024138  0.177735  0.402663  1
  Pr  Pr5  1  0.524110  0.322264  0.402488  1
  Pr  Pr6  1  0.024201  0.177807  0.097343  1
  Pr  Pr7  1  0.475787  0.677790  0.902683  1
  Pr  Pr8  1  0.975914  0.822094  0.597318  1
  Ho  Ho9  1  0.132770  0.341763  0.877681  1
  Ho  Ho10  1  0.367158  0.841701  0.122362  1
  Ho  Ho11  1  0.867198  0.658278  0.377587  1
  Ho  Ho12  1  0.367184  0.841772  0.377665  1
  Ho  Ho13  1  0.867175  0.658217  0.122347  1
  Ho  Ho14  1  0.632819  0.158205  0.877690  1
  Ho  Ho15  1  0.132842  0.341720  0.622394  1
  Ho  Ho16  1  0.798820  0.494852  0.750114  1
  Ho  Ho17  1  0.298535  0.005401  0.750116  1
  Ho  Ho18  1  0.201298  0.505367  0.249982  1
  Ho  Ho19  1  0.701270  0.994478  0.249984  1
  Pb  Pb20  1  0.706135  0.959158  0.456256  1
  Pb  Pb21  1  0.206095  0.540633  0.043580  1
  Pb  Pb22  1  0.293939  0.040600  0.956458  1
  Pb  Pb23  1  0.794203  0.459782  0.543447  1
  Pb  Pb24  1  0.293561  0.040538  0.543483  1
  Pb  Pb25  1  0.793917  0.459388  0.956453  1
  Pb  Pb26  1  0.706077  0.959391  0.043554  1
  Pb  Pb27  1  0.206029  0.540643  0.456434  1
  Pb  Pb28  1  0.436686  0.370571  0.750154  1
  Pb  Pb29  1  0.937146  0.129686  0.750113  1
  Pb  Pb30  1  0.563053  0.629722  0.249973  1
  Pb  Pb31  1  0.063133  0.870363  0.249983  1
  Pb  Pb32  1  0.663122  0.850253  0.750135  1
  Pb  Pb33  1  0.163103  0.649343  0.749993  1
  Pb  Pb34  1  0.336966  0.149479  0.249986  1
  Pb  Pb35  1  0.836956  0.350621  0.250003  1
