# generated using pymatgen
data_DyEr(Si7Rh3)2
_symmetry_space_group_name_H-M   'P 1'
_cell_length_a   7.99129682
_cell_length_b   7.99129767
_cell_length_c   7.99129802
_cell_angle_alpha   57.11239738
_cell_angle_beta   57.11238901
_cell_angle_gamma   57.11239122
_symmetry_Int_Tables_number   1
_chemical_formula_structural   DyEr(Si7Rh3)2
_chemical_formula_sum   'Dy1 Er1 Si14 Rh6'
_cell_volume   336.84535767
_cell_formula_units_Z   1
loop_
 _symmetry_equiv_pos_site_id
 _symmetry_equiv_pos_as_xyz
  1  'x, y, z'
loop_
 _atom_site_type_symbol
 _atom_site_label
 _atom_site_symmetry_multiplicity
 _atom_site_fract_x
 _atom_site_fract_y
 _atom_site_fract_z
 _atom_site_occupancy
  Dy  Dy0  1  0.500000  0.500000  0.500000  1
  Er  Er1  1  0.000000  0.000000  0.000000  1
  Si  Si2  1  0.749820  0.749820  0.749820  1
  Si  Si3  1  0.250180  0.250180  0.250180  1
  Si  Si4  1  0.851940  0.064943  0.672240  1
  Si  Si5  1  0.672240  0.851940  0.064943  1
  Si  Si6  1  0.064943  0.672240  0.851940  1
  Si  Si7  1  0.648613  0.827945  0.434325  1
  Si  Si8  1  0.434325  0.648613  0.827945  1
  Si  Si9  1  0.827945  0.434325  0.648613  1
  Si  Si10  1  0.172055  0.565675  0.351387  1
  Si  Si11  1  0.565675  0.351387  0.172055  1
  Si  Si12  1  0.351387  0.172055  0.565675  1
  Si  Si13  1  0.935057  0.327760  0.148060  1
  Si  Si14  1  0.327760  0.148060  0.935057  1
  Si  Si15  1  0.148060  0.935057  0.327760  1
  Rh  Rh16  1  0.069740  0.429797  0.750345  1
  Rh  Rh17  1  0.249655  0.930260  0.570203  1
  Rh  Rh18  1  0.570203  0.249655  0.930260  1
  Rh  Rh19  1  0.930260  0.570203  0.249655  1
  Rh  Rh20  1  0.429797  0.750345  0.069740  1
  Rh  Rh21  1  0.750345  0.069740  0.429797  1
