# generated using pymatgen
data_Sc4Si6Ir6Pd
_symmetry_space_group_name_H-M   'P 1'
_cell_length_a   6.99569628
_cell_length_b   6.99569624
_cell_length_c   6.99569566
_cell_angle_alpha   109.58864293
_cell_angle_beta   109.58864434
_cell_angle_gamma   109.23663461
_symmetry_Int_Tables_number   1
_chemical_formula_structural   Sc4Si6Ir6Pd
_chemical_formula_sum   'Sc4 Si6 Ir6 Pd1'
_cell_volume   263.55145548
_cell_formula_units_Z   1
loop_
 _symmetry_equiv_pos_site_id
 _symmetry_equiv_pos_as_xyz
  1  'x, y, z'
loop_
 _atom_site_type_symbol
 _atom_site_label
 _atom_site_symmetry_multiplicity
 _atom_site_fract_x
 _atom_site_fract_y
 _atom_site_fract_z
 _atom_site_occupancy
  Sc  Sc0  1  0.001816  0.998184  0.500000  1
  Sc  Sc1  1  0.001816  0.501816  0.003633  1
  Sc  Sc2  1  0.498184  0.998184  0.996367  1
  Sc  Sc3  1  0.498184  0.501816  0.500000  1
  Si  Si4  1  0.682491  0.682491  0.000000  1
  Si  Si5  1  0.313828  0.996998  0.316830  1
  Si  Si6  1  0.003002  0.319831  0.316830  1
  Si  Si7  1  0.317509  0.317509  0.000000  1
  Si  Si8  1  0.680169  0.996998  0.683170  1
  Si  Si9  1  0.003002  0.686172  0.683170  1
  Ir  Ir10  1  0.750573  0.499849  0.250724  1
  Ir  Ir11  1  0.500151  0.249427  0.749276  1
  Ir  Ir12  1  0.249125  0.499849  0.749276  1
  Ir  Ir13  1  0.250000  0.750000  0.500000  1
  Ir  Ir14  1  0.500151  0.750875  0.250724  1
  Ir  Ir15  1  0.000000  0.000000  0.000000  1
  Pd  Pd16  1  0.750000  0.250000  0.500000  1
