# generated using pymatgen
data_CeLu5(BePd5)2
_symmetry_space_group_name_H-M   'P 1'
_cell_length_a   7.91425136
_cell_length_b   7.91425255
_cell_length_c   7.91425200
_cell_angle_alpha   127.16706830
_cell_angle_beta   124.65863010
_cell_angle_gamma   80.04777536
_symmetry_Int_Tables_number   1
_chemical_formula_structural   CeLu5(BePd5)2
_chemical_formula_sum   'Ce1 Lu5 Be2 Pd10'
_cell_volume   313.71020067
_cell_formula_units_Z   1
loop_
 _symmetry_equiv_pos_site_id
 _symmetry_equiv_pos_as_xyz
  1  'x, y, z'
loop_
 _atom_site_type_symbol
 _atom_site_label
 _atom_site_symmetry_multiplicity
 _atom_site_fract_x
 _atom_site_fract_y
 _atom_site_fract_z
 _atom_site_occupancy
  Ce  Ce0  1  0.598589  0.750000  0.848589  1
  Lu  Lu1  1  0.223776  0.445143  0.778632  1
  Lu  Lu2  1  0.777359  0.553072  0.224287  1
  Lu  Lu3  1  0.833489  0.054857  0.778632  1
  Lu  Lu4  1  0.171215  0.946928  0.224287  1
  Lu  Lu5  1  0.405822  0.250000  0.155822  1
  Be  Be6  1  0.790847  0.250000  0.540847  1
  Be  Be7  1  0.201333  0.750000  0.451333  1
  Pd  Pd8  1  0.169850  0.402615  0.352358  1
  Pd  Pd9  1  0.830443  0.185383  0.233625  1
  Pd  Pd10  1  0.449743  0.097385  0.767235  1
  Pd  Pd11  1  0.548241  0.314617  0.645060  1
  Pd  Pd12  1  0.000508  0.497239  0.997748  1
  Pd  Pd13  1  0.000508  0.002761  0.503269  1
  Pd  Pd14  1  0.449743  0.682508  0.352358  1
  Pd  Pd15  1  0.548241  0.903182  0.233625  1
  Pd  Pd16  1  0.169850  0.817492  0.767235  1
  Pd  Pd17  1  0.830443  0.596818  0.645060  1
