# generated using pymatgen
data_Dy9Ho(IrRu)3
_symmetry_space_group_name_H-M   'P 1'
_cell_length_a   10.83707551
_cell_length_b   10.83248700
_cell_length_c   6.39887100
_cell_angle_alpha   90.00000000
_cell_angle_beta   89.94378840
_cell_angle_gamma   90.00000000
_symmetry_Int_Tables_number   1
_chemical_formula_structural   Dy9Ho(IrRu)3
_chemical_formula_sum   'Dy18 Ho2 Ir6 Ru6'
_cell_volume   751.17897175
_cell_formula_units_Z   2
loop_
 _symmetry_equiv_pos_site_id
 _symmetry_equiv_pos_as_xyz
  1  'x, y, z'
loop_
 _atom_site_type_symbol
 _atom_site_label
 _atom_site_symmetry_multiplicity
 _atom_site_fract_x
 _atom_site_fract_y
 _atom_site_fract_z
 _atom_site_occupancy
  Dy  Dy0  1  0.292989  0.086256  0.378471  1
  Dy  Dy1  1  0.292989  0.913744  0.878471  1
  Dy  Dy2  1  0.707835  0.086417  0.877483  1
  Dy  Dy3  1  0.707835  0.913583  0.377483  1
  Dy  Dy4  1  0.587394  0.793328  0.878641  1
  Dy  Dy5  1  0.587394  0.206672  0.378641  1
  Dy  Dy6  1  0.413609  0.793463  0.377709  1
  Dy  Dy7  1  0.413609  0.206537  0.877709  1
  Dy  Dy8  1  0.206452  0.413611  0.621550  1
  Dy  Dy9  1  0.206452  0.586389  0.121550  1
  Dy  Dy10  1  0.793244  0.412678  0.121996  1
  Dy  Dy11  1  0.793244  0.587322  0.621996  1
  Dy  Dy12  1  0.913464  0.707206  0.121585  1
  Dy  Dy13  1  0.913464  0.292794  0.621585  1
  Dy  Dy14  1  0.086057  0.707795  0.622579  1
  Dy  Dy15  1  0.086057  0.292205  0.122579  1
  Dy  Dy16  1  0.998539  0.000677  0.499785  1
  Dy  Dy17  1  0.998539  0.999323  0.999785  1
  Ho  Ho18  1  0.499894  0.500327  0.000179  1
  Ho  Ho19  1  0.499894  0.499673  0.500179  1
  Ir  Ir20  1  0.153859  0.153571  0.750254  1
  Ir  Ir21  1  0.153859  0.846429  0.250254  1
  Ir  Ir22  1  0.652128  0.348275  0.749675  1
  Ir  Ir23  1  0.652128  0.651725  0.249675  1
  Ir  Ir24  1  0.347639  0.347105  0.250402  1
  Ir  Ir25  1  0.347639  0.652895  0.750402  1
  Ru  Ru26  1  0.847152  0.152905  0.249706  1
  Ru  Ru27  1  0.847152  0.847095  0.749706  1
  Ru  Ru28  1  0.500207  0.000243  0.122672  1
  Ru  Ru29  1  0.500207  0.999757  0.622672  1
  Ru  Ru30  1  0.999537  0.500332  0.877311  1
  Ru  Ru31  1  0.999537  0.499668  0.377311  1
