# generated using pymatgen
data_LiCaYb(P3Pd10)2
_symmetry_space_group_name_H-M   'P 1'
_cell_length_a   8.63574341
_cell_length_b   8.63574347
_cell_length_c   8.63574300
_cell_angle_alpha   59.99999797
_cell_angle_beta   59.99999773
_cell_angle_gamma   60.00000094
_symmetry_Int_Tables_number   1
_chemical_formula_structural   LiCaYb(P3Pd10)2
_chemical_formula_sum   'Li1 Ca1 Yb1 P6 Pd20'
_cell_volume   455.39070609
_cell_formula_units_Z   1
loop_
 _symmetry_equiv_pos_site_id
 _symmetry_equiv_pos_as_xyz
  1  'x, y, z'
loop_
 _atom_site_type_symbol
 _atom_site_label
 _atom_site_symmetry_multiplicity
 _atom_site_fract_x
 _atom_site_fract_y
 _atom_site_fract_z
 _atom_site_occupancy
  Li  Li0  1  0.000000  0.000000  0.000000  1
  Ca  Ca1  1  0.250000  0.250000  0.250000  1
  Yb  Yb2  1  0.750000  0.750000  0.750000  1
  P  P3  1  0.738606  0.261394  0.261394  1
  P  P4  1  0.261394  0.738606  0.738606  1
  P  P5  1  0.261394  0.738606  0.261394  1
  P  P6  1  0.738606  0.261394  0.738606  1
  P  P7  1  0.261394  0.261394  0.738606  1
  P  P8  1  0.738606  0.738606  0.261394  1
  Pd  Pd9  1  0.387661  0.387661  0.387661  1
  Pd  Pd10  1  0.616142  0.616142  0.616142  1
  Pd  Pd11  1  0.387661  0.387661  0.837019  1
  Pd  Pd12  1  0.387661  0.837019  0.387661  1
  Pd  Pd13  1  0.616142  0.616142  0.151573  1
  Pd  Pd14  1  0.616142  0.151573  0.616142  1
  Pd  Pd15  1  0.837019  0.387661  0.387661  1
  Pd  Pd16  1  0.151573  0.616142  0.616142  1
  Pd  Pd17  1  0.345435  0.998467  0.998467  1
  Pd  Pd18  1  0.657631  0.998467  0.998467  1
  Pd  Pd19  1  0.998467  0.345435  0.657631  1
  Pd  Pd20  1  0.998467  0.657631  0.345435  1
  Pd  Pd21  1  0.998467  0.345435  0.998467  1
  Pd  Pd22  1  0.657631  0.998467  0.345435  1
  Pd  Pd23  1  0.998467  0.657631  0.998467  1
  Pd  Pd24  1  0.345435  0.998467  0.657631  1
  Pd  Pd25  1  0.998467  0.998467  0.345435  1
  Pd  Pd26  1  0.998467  0.998467  0.657631  1
  Pd  Pd27  1  0.657631  0.345435  0.998467  1
  Pd  Pd28  1  0.345435  0.657631  0.998467  1
