# generated using pymatgen
data_La7As12Pd17
_symmetry_space_group_name_H-M   'P 1'
_cell_length_a   12.85029179
_cell_length_b   12.85029258
_cell_length_c   14.08438711
_cell_angle_alpha   68.75167817
_cell_angle_beta   68.75167681
_cell_angle_gamma   18.94030220
_symmetry_Int_Tables_number   1
_chemical_formula_structural   La7As12Pd17
_chemical_formula_sum   'La7 As12 Pd17'
_cell_volume   702.09927635
_cell_formula_units_Z   1
loop_
 _symmetry_equiv_pos_site_id
 _symmetry_equiv_pos_as_xyz
  1  'x, y, z'
loop_
 _atom_site_type_symbol
 _atom_site_label
 _atom_site_symmetry_multiplicity
 _atom_site_fract_x
 _atom_site_fract_y
 _atom_site_fract_z
 _atom_site_occupancy
  La  La0  1  0.500000  0.500000  0.500000  1
  La  La1  1  0.366601  0.366601  0.999963  1
  La  La2  1  0.633399  0.633399  0.000037  1
  La  La3  1  0.232641  0.232641  0.313775  1
  La  La4  1  0.767359  0.767359  0.686225  1
  La  La5  1  0.418406  0.418406  0.261527  1
  La  La6  1  0.581594  0.581594  0.738473  1
  As  As7  1  0.061296  0.061296  0.925609  1
  As  As8  1  0.938704  0.938704  0.074391  1
  As  As9  1  0.884831  0.884831  0.828031  1
  As  As10  1  0.115169  0.115169  0.171969  1
  As  As11  1  0.189061  0.189061  0.618318  1
  As  As12  1  0.810939  0.810939  0.381682  1
  As  As13  1  0.365751  0.365751  0.578911  1
  As  As14  1  0.634249  0.634249  0.421089  1
  As  As15  1  0.011084  0.011084  0.670170  1
  As  As16  1  0.988916  0.988916  0.329830  1
  As  As17  1  0.234210  0.234210  0.883333  1
  As  As18  1  0.765790  0.765790  0.116667  1
  Pd  Pd19  1  0.838297  0.838297  0.193789  1
  Pd  Pd20  1  0.161703  0.161703  0.806211  1
  Pd  Pd21  1  0.025057  0.025057  0.127665  1
  Pd  Pd22  1  0.974943  0.974943  0.872335  1
  Pd  Pd23  1  0.888631  0.888631  0.459642  1
  Pd  Pd24  1  0.111369  0.111369  0.540358  1
  Pd  Pd25  1  0.500000  0.500000  0.000000  1
  Pd  Pd26  1  0.548488  0.548488  0.253590  1
  Pd  Pd27  1  0.451512  0.451512  0.746410  1
  Pd  Pd28  1  0.295718  0.295718  0.489291  1
  Pd  Pd29  1  0.704282  0.704282  0.510709  1
  Pd  Pd30  1  0.663402  0.663402  0.225017  1
  Pd  Pd31  1  0.336598  0.336598  0.774983  1
  Pd  Pd32  1  0.908588  0.908588  0.639341  1
  Pd  Pd33  1  0.091412  0.091412  0.360659  1
  Pd  Pd34  1  0.219840  0.219840  0.071434  1
  Pd  Pd35  1  0.780160  0.780160  0.928566  1
