# generated using pymatgen
data_Hf5Sc3Fe8(Si4Ru)4
_symmetry_space_group_name_H-M   'P 1'
_cell_length_a   9.71523292
_cell_length_b   9.68443845
_cell_length_c   12.98528044
_cell_angle_alpha   53.50285021
_cell_angle_beta   53.47821452
_cell_angle_gamma   31.10765002
_symmetry_Int_Tables_number   1
_chemical_formula_structural   Hf5Sc3Fe8(Si4Ru)4
_chemical_formula_sum   'Hf5 Sc3 Fe8 Si16 Ru4'
_cell_volume   496.45522804
_cell_formula_units_Z   1
loop_
 _symmetry_equiv_pos_site_id
 _symmetry_equiv_pos_as_xyz
  1  'x, y, z'
loop_
 _atom_site_type_symbol
 _atom_site_label
 _atom_site_symmetry_multiplicity
 _atom_site_fract_x
 _atom_site_fract_y
 _atom_site_fract_z
 _atom_site_occupancy
  Hf  Hf0  1  0.565967  0.294348  0.141889  1
  Hf  Hf1  1  0.038471  0.295890  0.637104  1
  Hf  Hf2  1  0.703664  0.957842  0.862836  1
  Hf  Hf3  1  0.961523  0.707830  0.358193  1
  Hf  Hf4  1  0.295441  0.038709  0.140326  1
  Sc  Sc5  1  0.291471  0.568280  0.643596  1
  Sc  Sc6  1  0.429753  0.711172  0.856429  1
  Sc  Sc7  1  0.705906  0.434411  0.356664  1
  Fe  Fe8  1  0.650876  0.828931  0.277672  1
  Fe  Fe9  1  0.174600  0.349556  0.220130  1
  Fe  Fe10  1  0.775364  0.470420  0.069176  1
  Fe  Fe11  1  0.826458  0.649487  0.782638  1
  Fe  Fe12  1  0.903077  0.141580  0.584129  1
  Fe  Fe13  1  0.851395  0.105541  0.918096  1
  Fe  Fe14  1  0.101411  0.860136  0.412122  1
  Fe  Fe15  1  0.129815  0.905524  0.085795  1
  Si  Si16  1  0.885337  0.120101  0.246744  1
  Si  Si17  1  0.109662  0.889596  0.751096  1
  Si  Si18  1  0.382048  0.627524  0.242576  1
  Si  Si19  1  0.627141  0.372236  0.750234  1
  Si  Si20  1  0.959955  0.262547  0.897652  1
  Si  Si21  1  0.752198  0.030651  0.603893  1
  Si  Si22  1  0.029189  0.743483  0.106946  1
  Si  Si23  1  0.256903  0.970205  0.391897  1
  Si  Si24  1  0.577367  0.080454  0.068178  1
  Si  Si25  1  0.916229  0.425893  0.429488  1
  Si  Si26  1  0.432681  0.895324  0.943153  1
  Si  Si27  1  0.078479  0.584553  0.565609  1
  Si  Si28  1  0.387596  0.143400  0.389152  1
  Si  Si29  1  0.859844  0.604770  0.110587  1
  Si  Si30  1  0.616207  0.852047  0.606024  1
  Si  Si31  1  0.134585  0.389067  0.897078  1
  Ru  Ru32  1  0.240940  0.515470  0.935089  1
  Ru  Ru33  1  0.483691  0.758448  0.564975  1
  Ru  Ru34  1  0.513376  0.244854  0.430477  1
  Ru  Ru35  1  0.351382  0.169722  0.722360  1
