# generated using pymatgen
data_ErCdGaNi3
_symmetry_space_group_name_H-M   'P 1'
_cell_length_a   5.11985519
_cell_length_b   5.11985553
_cell_length_c   4.96413490
_cell_angle_alpha   58.95678862
_cell_angle_beta   58.95678164
_cell_angle_gamma   60.00000734
_symmetry_Int_Tables_number   1
_chemical_formula_structural   ErCdGaNi3
_chemical_formula_sum   'Er1 Cd1 Ga1 Ni3'
_cell_volume   90.53424172
_cell_formula_units_Z   1
loop_
 _symmetry_equiv_pos_site_id
 _symmetry_equiv_pos_as_xyz
  1  'x, y, z'
loop_
 _atom_site_type_symbol
 _atom_site_label
 _atom_site_symmetry_multiplicity
 _atom_site_fract_x
 _atom_site_fract_y
 _atom_site_fract_z
 _atom_site_occupancy
  Er  Er0  1  0.245884  0.245884  0.262348  1
  Cd  Cd1  1  0.996722  0.996722  0.009833  1
  Ga  Ga2  1  0.628198  0.628198  0.115407  1
  Ni  Ni3  1  0.626971  0.125254  0.620804  1
  Ni  Ni4  1  0.125254  0.626971  0.620804  1
  Ni  Ni5  1  0.626971  0.626971  0.620804  1
