# generated using pymatgen
data_Nd(Hf5Bi6)3
_symmetry_space_group_name_H-M   'P 1'
_cell_length_a   10.86270400
_cell_length_b   10.86270400
_cell_length_c   7.66326700
_cell_angle_alpha   90.00000000
_cell_angle_beta   90.00000000
_cell_angle_gamma   90.00000000
_symmetry_Int_Tables_number   1
_chemical_formula_structural   Nd(Hf5Bi6)3
_chemical_formula_sum   'Nd1 Hf15 Bi18'
_cell_volume   904.25277112
_cell_formula_units_Z   1
loop_
 _symmetry_equiv_pos_site_id
 _symmetry_equiv_pos_as_xyz
  1  'x, y, z'
loop_
 _atom_site_type_symbol
 _atom_site_label
 _atom_site_symmetry_multiplicity
 _atom_site_fract_x
 _atom_site_fract_y
 _atom_site_fract_z
 _atom_site_occupancy
  Nd  Nd0  1  0.750000  0.750000  0.078290  1
  Hf  Hf1  1  0.001284  0.001284  0.000781  1
  Hf  Hf2  1  0.498716  0.001284  0.000781  1
  Hf  Hf3  1  0.001284  0.498716  0.000781  1
  Hf  Hf4  1  0.498716  0.498716  0.000781  1
  Hf  Hf5  1  0.750000  0.105141  0.152597  1
  Hf  Hf6  1  0.750000  0.394858  0.152597  1
  Hf  Hf7  1  0.105141  0.750000  0.152597  1
  Hf  Hf8  1  0.394858  0.750000  0.152597  1
  Hf  Hf9  1  0.250000  0.250000  0.432444  1
  Hf  Hf10  1  0.750000  0.750000  0.567064  1
  Hf  Hf11  1  0.604884  0.249999  0.846037  1
  Hf  Hf12  1  0.895117  0.250000  0.846037  1
  Hf  Hf13  1  0.249999  0.604884  0.846037  1
  Hf  Hf14  1  0.250000  0.895117  0.846037  1
  Hf  Hf15  1  0.250000  0.250000  0.922212  1
  Bi  Bi16  1  0.250000  0.016454  0.196697  1
  Bi  Bi17  1  0.016454  0.250000  0.196697  1
  Bi  Bi18  1  0.483545  0.249999  0.196697  1
  Bi  Bi19  1  0.249999  0.483545  0.196697  1
  Bi  Bi20  1  0.579693  0.579693  0.356646  1
  Bi  Bi21  1  0.920307  0.579693  0.356646  1
  Bi  Bi22  1  0.920307  0.920307  0.356646  1
  Bi  Bi23  1  0.579693  0.920307  0.356646  1
  Bi  Bi24  1  0.750000  0.250000  0.497236  1
  Bi  Bi25  1  0.250000  0.750000  0.497236  1
  Bi  Bi26  1  0.415616  0.084384  0.649541  1
  Bi  Bi27  1  0.084384  0.084384  0.649541  1
  Bi  Bi28  1  0.084384  0.415616  0.649541  1
  Bi  Bi29  1  0.415616  0.415616  0.649541  1
  Bi  Bi30  1  0.750000  0.510292  0.799084  1
  Bi  Bi31  1  0.510292  0.750000  0.799084  1
  Bi  Bi32  1  0.989708  0.750000  0.799084  1
  Bi  Bi33  1  0.750000  0.989708  0.799084  1
