# generated using pymatgen
data_LaTbCo2(B4Os3)2
_symmetry_space_group_name_H-M   'P 1'
_cell_length_a   7.57685114
_cell_length_b   7.33967188
_cell_length_c   3.98358700
_cell_angle_alpha   90.00000000
_cell_angle_beta   90.00000000
_cell_angle_gamma   92.07678995
_symmetry_Int_Tables_number   1
_chemical_formula_structural   LaTbCo2(B4Os3)2
_chemical_formula_sum   'La1 Tb1 Co2 B8 Os6'
_cell_volume   221.38813851
_cell_formula_units_Z   1
loop_
 _symmetry_equiv_pos_site_id
 _symmetry_equiv_pos_as_xyz
  1  'x, y, z'
loop_
 _atom_site_type_symbol
 _atom_site_label
 _atom_site_symmetry_multiplicity
 _atom_site_fract_x
 _atom_site_fract_y
 _atom_site_fract_z
 _atom_site_occupancy
  La  La0  1  0.000000  0.000000  0.972903  1
  Tb  Tb1  1  0.500000  0.500000  0.407966  1
  Co  Co2  1  0.130633  0.613206  0.117616  1
  Co  Co3  1  0.869367  0.386794  0.117616  1
  B  B4  1  0.790481  0.662810  0.118287  1
  B  B5  1  0.209519  0.337190  0.118287  1
  B  B6  1  0.840847  0.311799  0.616403  1
  B  B7  1  0.159153  0.688201  0.616403  1
  B  B8  1  0.716345  0.833228  0.397812  1
  B  B9  1  0.283655  0.166772  0.397812  1
  B  B10  1  0.673078  0.229827  0.897666  1
  B  B11  1  0.326922  0.770173  0.897666  1
  Os  Os12  1  0.398831  0.154785  0.896140  1
  Os  Os13  1  0.601169  0.845215  0.896140  1
  Os  Os14  1  0.349061  0.886277  0.396047  1
  Os  Os15  1  0.650939  0.113723  0.396047  1
  Os  Os16  1  0.119743  0.371901  0.619594  1
  Os  Os17  1  0.880257  0.628099  0.619594  1
