# generated using pymatgen
data_LiLa6Ni2Rh15
_symmetry_space_group_name_H-M   'P 1'
_cell_length_a   5.39635700
_cell_length_b   5.39635517
_cell_length_c   17.33589500
_cell_angle_alpha   90.00000000
_cell_angle_beta   90.00000000
_cell_angle_gamma   119.99999284
_symmetry_Int_Tables_number   1
_chemical_formula_structural   LiLa6Ni2Rh15
_chemical_formula_sum   'Li1 La6 Ni2 Rh15'
_cell_volume   437.19796267
_cell_formula_units_Z   1
loop_
 _symmetry_equiv_pos_site_id
 _symmetry_equiv_pos_as_xyz
  1  'x, y, z'
loop_
 _atom_site_type_symbol
 _atom_site_label
 _atom_site_symmetry_multiplicity
 _atom_site_fract_x
 _atom_site_fract_y
 _atom_site_fract_z
 _atom_site_occupancy
  Li  Li0  1  0.000000  0.000000  0.250000  1
  La  La1  1  0.333333  0.666667  0.540952  1
  La  La2  1  0.666667  0.333333  0.041781  1
  La  La3  1  0.666667  0.333333  0.458219  1
  La  La4  1  0.333333  0.666667  0.959048  1
  La  La5  1  0.333333  0.666667  0.750000  1
  La  La6  1  0.666667  0.333333  0.250000  1
  Ni  Ni7  1  0.000000  0.000000  0.750000  1
  Ni  Ni8  1  0.666667  0.333333  0.750000  1
  Rh  Rh9  1  0.166570  0.333140  0.126761  1
  Rh  Rh10  1  0.832764  0.665527  0.632916  1
  Rh  Rh11  1  0.666860  0.833430  0.126761  1
  Rh  Rh12  1  0.166570  0.833430  0.126761  1
  Rh  Rh13  1  0.832764  0.167236  0.632916  1
  Rh  Rh14  1  0.334473  0.167236  0.632916  1
  Rh  Rh15  1  0.832764  0.665527  0.867084  1
  Rh  Rh16  1  0.832764  0.167236  0.867084  1
  Rh  Rh17  1  0.334473  0.167236  0.867084  1
  Rh  Rh18  1  0.666860  0.833430  0.373239  1
  Rh  Rh19  1  0.166570  0.833430  0.373239  1
  Rh  Rh20  1  0.166570  0.333140  0.373239  1
  Rh  Rh21  1  0.333333  0.666667  0.250000  1
  Rh  Rh22  1  0.000000  0.000000  0.997543  1
  Rh  Rh23  1  0.000000  0.000000  0.502457  1
