# generated using pymatgen
data_Nd8Dy12Si13Hg3
_symmetry_space_group_name_H-M   'P 1'
_cell_length_a   7.62634408
_cell_length_b   7.84161397
_cell_length_c   15.09484187
_cell_angle_alpha   90.02573236
_cell_angle_beta   89.25075267
_cell_angle_gamma   89.79330714
_symmetry_Int_Tables_number   1
_chemical_formula_structural   Nd8Dy12Si13Hg3
_chemical_formula_sum   'Nd8 Dy12 Si13 Hg3'
_cell_volume   902.63134059
_cell_formula_units_Z   1
loop_
 _symmetry_equiv_pos_site_id
 _symmetry_equiv_pos_as_xyz
  1  'x, y, z'
loop_
 _atom_site_type_symbol
 _atom_site_label
 _atom_site_symmetry_multiplicity
 _atom_site_fract_x
 _atom_site_fract_y
 _atom_site_fract_z
 _atom_site_occupancy
  Nd  Nd0  1  0.990393  0.817773  0.106867  1
  Nd  Nd1  1  0.478960  0.675000  0.398725  1
  Nd  Nd2  1  0.510400  0.317447  0.894696  1
  Nd  Nd3  1  0.017403  0.185150  0.599596  1
  Nd  Nd4  1  0.021538  0.176799  0.897271  1
  Nd  Nd5  1  0.526750  0.324992  0.599861  1
  Nd  Nd6  1  0.478389  0.675979  0.104875  1
  Nd  Nd7  1  0.976946  0.820118  0.398458  1
  Dy  Dy8  1  0.655523  0.995140  0.256289  1
  Dy  Dy9  1  0.159585  0.505827  0.250892  1
  Dy  Dy10  1  0.842337  0.494182  0.746190  1
  Dy  Dy11  1  0.338165  0.006661  0.750817  1
  Dy  Dy12  1  0.665191  0.830217  0.870358  1
  Dy  Dy13  1  0.172776  0.670776  0.623412  1
  Dy  Dy14  1  0.834586  0.331344  0.130879  1
  Dy  Dy15  1  0.320637  0.178027  0.376543  1
  Dy  Dy16  1  0.323341  0.171773  0.122830  1
  Dy  Dy17  1  0.823731  0.324257  0.376509  1
  Dy  Dy18  1  0.177796  0.671784  0.878196  1
  Dy  Dy19  1  0.683772  0.825591  0.620427  1
  Si  Si20  1  0.774698  0.625329  0.252489  1
  Si  Si21  1  0.277433  0.876096  0.253027  1
  Si  Si22  1  0.725417  0.123167  0.747489  1
  Si  Si23  1  0.225003  0.377682  0.747008  1
  Si  Si24  1  0.030439  0.110509  0.251262  1
  Si  Si25  1  0.527768  0.383664  0.252022  1
  Si  Si26  1  0.470295  0.612102  0.747908  1
  Si  Si27  1  0.969569  0.885487  0.748690  1
  Si  Si28  1  0.144644  0.468732  0.459233  1
  Si  Si29  1  0.159889  0.465816  0.042983  1
  Si  Si30  1  0.657111  0.034381  0.457198  1
  Si  Si31  1  0.340772  0.965726  0.958114  1
  Si  Si32  1  0.855852  0.533230  0.537012  1
  Hg  Hg33  1  0.829972  0.538521  0.962322  1
  Hg  Hg34  1  0.342023  0.963181  0.540444  1
  Hg  Hg35  1  0.670896  0.037537  0.039106  1
