# generated using pymatgen
data_Sm8Hf12Si15Ge
_symmetry_space_group_name_H-M   'P 1'
_cell_length_a   7.35067625
_cell_length_b   7.35742342
_cell_length_c   13.52917709
_cell_angle_alpha   89.91495872
_cell_angle_beta   89.98337297
_cell_angle_gamma   89.95845984
_symmetry_Int_Tables_number   1
_chemical_formula_structural   Sm8Hf12Si15Ge
_chemical_formula_sum   'Sm8 Hf12 Si15 Ge1'
_cell_volume   731.68443556
_cell_formula_units_Z   1
loop_
 _symmetry_equiv_pos_site_id
 _symmetry_equiv_pos_as_xyz
  1  'x, y, z'
loop_
 _atom_site_type_symbol
 _atom_site_label
 _atom_site_symmetry_multiplicity
 _atom_site_fract_x
 _atom_site_fract_y
 _atom_site_fract_z
 _atom_site_occupancy
  Sm  Sm0  1  0.993916  0.343500  0.214680  1
  Sm  Sm1  1  0.005371  0.656615  0.715332  1
  Sm  Sm2  1  0.155010  0.496617  0.466170  1
  Sm  Sm3  1  0.505946  0.842892  0.034292  1
  Sm  Sm4  1  0.843706  0.505282  0.964992  1
  Sm  Sm5  1  0.495305  0.155719  0.535681  1
  Sm  Sm6  1  0.343234  0.994791  0.784892  1
  Sm  Sm7  1  0.657379  0.004207  0.284528  1
  Hf  Hf8  1  0.174798  0.175149  0.999850  1
  Hf  Hf9  1  0.825091  0.825361  0.500188  1
  Hf  Hf10  1  0.325261  0.677295  0.249459  1
  Hf  Hf11  1  0.674812  0.325217  0.750011  1
  Hf  Hf12  1  0.149091  0.993124  0.373889  1
  Hf  Hf13  1  0.849892  0.005291  0.874112  1
  Hf  Hf14  1  0.505252  0.650422  0.624176  1
  Hf  Hf15  1  0.349594  0.494471  0.875875  1
  Hf  Hf16  1  0.494259  0.349365  0.123106  1
  Hf  Hf17  1  0.652888  0.507777  0.376773  1
  Hf  Hf18  1  0.994440  0.150338  0.626020  1
  Hf  Hf19  1  0.004686  0.849174  0.125386  1
  Si  Si20  1  0.635459  0.704596  0.815496  1
  Si  Si21  1  0.204420  0.865031  0.565684  1
  Si  Si22  1  0.135373  0.795519  0.934176  1
  Si  Si23  1  0.795420  0.135464  0.065401  1
  Si  Si24  1  0.864686  0.204097  0.434398  1
  Si  Si25  1  0.295616  0.364587  0.684489  1
  Si  Si26  1  0.703854  0.635046  0.184385  1
  Si  Si27  1  0.292600  0.046112  0.183554  1
  Si  Si28  1  0.707460  0.950273  0.685668  1
  Si  Si29  1  0.450588  0.793067  0.435514  1
  Si  Si30  1  0.207201  0.549252  0.064532  1
  Si  Si31  1  0.549390  0.207137  0.935213  1
  Si  Si32  1  0.792391  0.450477  0.564915  1
  Si  Si33  1  0.049400  0.292681  0.814458  1
  Si  Si34  1  0.950983  0.706820  0.314299  1
  Ge  Ge35  1  0.365229  0.297237  0.318405  1
