# generated using pymatgen
data_Li4Zr7Sn(AsO4)12
_symmetry_space_group_name_H-M   'P 1'
_cell_length_a   9.31427132
_cell_length_b   9.28275143
_cell_length_c   15.86335114
_cell_angle_alpha   54.89352589
_cell_angle_beta   89.91813557
_cell_angle_gamma   89.91055290
_symmetry_Int_Tables_number   1
_chemical_formula_structural   Li4Zr7Sn(AsO4)12
_chemical_formula_sum   'Li4 Zr7 Sn1 As12 O48'
_cell_volume   1122.06551203
_cell_formula_units_Z   1
loop_
 _symmetry_equiv_pos_site_id
 _symmetry_equiv_pos_as_xyz
  1  'x, y, z'
loop_
 _atom_site_type_symbol
 _atom_site_label
 _atom_site_symmetry_multiplicity
 _atom_site_fract_x
 _atom_site_fract_y
 _atom_site_fract_z
 _atom_site_occupancy
  Li  Li0  1  0.722258  0.975256  0.818836  1
  Li  Li1  1  0.777110  0.977384  0.316954  1
  Li  Li2  1  0.279906  0.022988  0.181442  1
  Li  Li3  1  0.222479  0.023338  0.682668  1
  Zr  Zr4  1  0.539776  0.142457  0.611748  1
  Zr  Zr5  1  0.038124  0.858126  0.888399  1
  Zr  Zr6  1  0.460855  0.858123  0.387620  1
  Zr  Zr7  1  0.522876  0.370604  0.878954  1
  Zr  Zr8  1  0.977540  0.371198  0.377886  1
  Zr  Zr9  1  0.475337  0.629400  0.120985  1
  Zr  Zr10  1  0.021864  0.629800  0.620743  1
  Sn  Sn11  1  0.960863  0.142884  0.111639  1
  As  As12  1  0.606357  0.967438  0.143201  1
  As  As13  1  0.898038  0.968105  0.643998  1
  As  As14  1  0.397249  0.032771  0.855557  1
  As  As15  1  0.101457  0.033673  0.352569  1
  As  As16  1  0.877888  0.244830  0.855909  1
  As  As17  1  0.623254  0.246287  0.353164  1
  As  As18  1  0.120969  0.759607  0.145558  1
  As  As19  1  0.375973  0.755452  0.645924  1
  As  As20  1  0.754022  0.536024  0.992456  1
  As  As21  1  0.748001  0.541908  0.489036  1
  As  As22  1  0.244835  0.456602  0.011292  1
  As  As23  1  0.252109  0.458436  0.510359  1
  O  O24  1  0.920157  0.154797  0.982011  1
  O  O25  1  0.582005  0.169073  0.477958  1
  O  O26  1  0.081010  0.833588  0.021422  1
  O  O27  1  0.417951  0.832026  0.521383  1
  O  O28  1  0.768104  0.004475  0.182027  1
  O  O29  1  0.736284  0.004940  0.681828  1
  O  O30  1  0.235685  0.995014  0.818431  1
  O  O31  1  0.264111  0.995448  0.316602  1
  O  O32  1  0.884264  0.383684  0.066497  1
  O  O33  1  0.621098  0.384303  0.560291  1
  O  O34  1  0.120137  0.616111  0.938985  1
  O  O35  1  0.378683  0.616574  0.438916  1
  O  O36  1  0.095375  0.923343  0.165174  1
  O  O37  1  0.403379  0.920249  0.662978  1
  O  O38  1  0.903468  0.080943  0.837192  1
  O  O39  1  0.596087  0.080950  0.336541  1
  O  O40  1  0.971106  0.070417  0.264308  1
  O  O41  1  0.525928  0.067989  0.767452  1
  O  O42  1  0.025584  0.932014  0.732730  1
  O  O43  1  0.479366  0.932405  0.232401  1
  O  O44  1  0.170016  0.247368  0.082921  1
  O  O45  1  0.328854  0.251640  0.582373  1
  O  O46  1  0.829199  0.744395  0.919885  1
  O  O47  1  0.671486  0.748866  0.417808  1
  O  O48  1  0.548807  0.151178  0.031342  1
  O  O49  1  0.953707  0.152254  0.531206  1
  O  O50  1  0.452093  0.847840  0.968384  1
  O  O51  1  0.044299  0.849913  0.465259  1
  O  O52  1  0.699066  0.289638  0.833166  1
  O  O53  1  0.801992  0.289968  0.331697  1
  O  O54  1  0.300203  0.716682  0.166598  1
  O  O55  1  0.196846  0.713034  0.666274  1
  O  O56  1  0.675503  0.505142  0.907615  1
  O  O57  1  0.827152  0.511092  0.404300  1
  O  O58  1  0.324734  0.487419  0.095972  1
  O  O59  1  0.172651  0.490240  0.594711  1
  O  O60  1  0.383025  0.210458  0.860049  1
  O  O61  1  0.115413  0.211601  0.356899  1
  O  O62  1  0.618084  0.788847  0.139533  1
  O  O63  1  0.882930  0.790965  0.639029  1
  O  O64  1  0.484283  0.581628  0.725966  1
  O  O65  1  0.013600  0.585182  0.225464  1
  O  O66  1  0.513957  0.419715  0.274204  1
  O  O67  1  0.984937  0.420001  0.774964  1
  O  O68  1  0.361445  0.461583  0.927273  1
  O  O69  1  0.138046  0.464684  0.425038  1
  O  O70  1  0.636364  0.533448  0.075312  1
  O  O71  1  0.862383  0.534189  0.574734  1
