# generated using pymatgen
data_Tm2AlZn16
_symmetry_space_group_name_H-M   'P 1'
_cell_length_a   6.78429668
_cell_length_b   6.78429562
_cell_length_c   6.78429596
_cell_angle_alpha   82.79979892
_cell_angle_beta   82.79980001
_cell_angle_gamma   82.79978791
_symmetry_Int_Tables_number   1
_chemical_formula_structural   Tm2AlZn16
_chemical_formula_sum   'Tm2 Al1 Zn16'
_cell_volume   305.44092829
_cell_formula_units_Z   1
loop_
 _symmetry_equiv_pos_site_id
 _symmetry_equiv_pos_as_xyz
  1  'x, y, z'
loop_
 _atom_site_type_symbol
 _atom_site_label
 _atom_site_symmetry_multiplicity
 _atom_site_fract_x
 _atom_site_fract_y
 _atom_site_fract_z
 _atom_site_occupancy
  Tm  Tm0  1  0.664442  0.664442  0.664442  1
  Tm  Tm1  1  0.335999  0.335999  0.335999  1
  Al  Al2  1  0.099675  0.099675  0.099675  1
  Zn  Zn3  1  0.351574  0.839152  0.351574  1
  Zn  Zn4  1  0.351574  0.351574  0.839152  1
  Zn  Zn5  1  0.839152  0.351574  0.351574  1
  Zn  Zn6  1  0.649260  0.160814  0.649260  1
  Zn  Zn7  1  0.649260  0.649260  0.160814  1
  Zn  Zn8  1  0.160814  0.649260  0.649260  1
  Zn  Zn9  1  0.300330  0.699822  0.999802  1
  Zn  Zn10  1  0.999802  0.300330  0.699822  1
  Zn  Zn11  1  0.699822  0.999802  0.300330  1
  Zn  Zn12  1  0.999802  0.699822  0.300330  1
  Zn  Zn13  1  0.300330  0.999802  0.699822  1
  Zn  Zn14  1  0.699822  0.300330  0.999802  1
  Zn  Zn15  1  0.999386  0.999386  0.501981  1
  Zn  Zn16  1  0.501981  0.999386  0.999386  1
  Zn  Zn17  1  0.999386  0.501981  0.999386  1
  Zn  Zn18  1  0.897591  0.897591  0.897591  1
