# generated using pymatgen
data_Gd2Dy2TmLuTa2O14
_symmetry_space_group_name_H-M   'P 1'
_cell_length_a   6.46127085
_cell_length_b   6.46236219
_cell_length_c   7.48740831
_cell_angle_alpha   89.91640474
_cell_angle_beta   89.96205377
_cell_angle_gamma   108.76785420
_symmetry_Int_Tables_number   1
_chemical_formula_structural   Gd2Dy2TmLuTa2O14
_chemical_formula_sum   'Gd2 Dy2 Tm1 Lu1 Ta2 O14'
_cell_volume   296.01380020
_cell_formula_units_Z   1
loop_
 _symmetry_equiv_pos_site_id
 _symmetry_equiv_pos_as_xyz
  1  'x, y, z'
loop_
 _atom_site_type_symbol
 _atom_site_label
 _atom_site_symmetry_multiplicity
 _atom_site_fract_x
 _atom_site_fract_y
 _atom_site_fract_z
 _atom_site_occupancy
  Gd  Gd0  1  0.475457  0.476702  0.002679  1
  Gd  Gd1  1  0.528811  0.524299  0.499138  1
  Dy  Dy2  1  0.000172  0.465484  0.743953  1
  Dy  Dy3  1  0.533751  0.000845  0.755701  1
  Tm  Tm4  1  0.465569  0.998621  0.255780  1
  Lu  Lu5  1  0.001406  0.534071  0.243463  1
  Ta  Ta6  1  0.001734  0.003280  0.498251  1
  Ta  Ta7  1  0.997669  0.997644  0.002330  1
  O  O8  1  0.934660  0.067583  0.750294  1
  O  O9  1  0.640773  0.361738  0.751444  1
  O  O10  1  0.315505  0.063906  0.537164  1
  O  O11  1  0.947076  0.686611  0.962035  1
  O  O12  1  0.637046  0.367926  0.248469  1
  O  O13  1  0.922444  0.672731  0.523964  1
  O  O14  1  0.327484  0.079981  0.975774  1
  O  O15  1  0.074281  0.325456  0.032530  1
  O  O16  1  0.672808  0.922044  0.470523  1
  O  O17  1  0.368017  0.631073  0.749159  1
  O  O18  1  0.685029  0.938522  0.042875  1
  O  O19  1  0.046866  0.310141  0.452264  1
  O  O20  1  0.353466  0.642518  0.251949  1
  O  O21  1  0.069975  0.928825  0.250265  1
