# generated using pymatgen
data_ZrUCoIr5
_symmetry_space_group_name_H-M   'P 1'
_cell_length_a   3.97275100
_cell_length_b   3.97275100
_cell_length_c   7.96750800
_cell_angle_alpha   90.00000000
_cell_angle_beta   90.00000000
_cell_angle_gamma   90.00000000
_symmetry_Int_Tables_number   1
_chemical_formula_structural   ZrUCoIr5
_chemical_formula_sum   'Zr1 U1 Co1 Ir5'
_cell_volume   125.74919093
_cell_formula_units_Z   1
loop_
 _symmetry_equiv_pos_site_id
 _symmetry_equiv_pos_as_xyz
  1  'x, y, z'
loop_
 _atom_site_type_symbol
 _atom_site_label
 _atom_site_symmetry_multiplicity
 _atom_site_fract_x
 _atom_site_fract_y
 _atom_site_fract_z
 _atom_site_occupancy
  Zr  Zr0  1  0.000000  0.000000  0.500000  1
  U  U1  1  0.000000  0.000000  0.000000  1
  Co  Co2  1  0.500000  0.500000  0.000000  1
  Ir  Ir3  1  0.500000  0.500000  0.500000  1
  Ir  Ir4  1  0.500000  0.000000  0.244210  1
  Ir  Ir5  1  0.500000  0.000000  0.755790  1
  Ir  Ir6  1  0.000000  0.500000  0.244210  1
  Ir  Ir7  1  0.000000  0.500000  0.755790  1
