# generated using pymatgen
data_NdY7(NiAg)2
_symmetry_space_group_name_H-M   'P 1'
_cell_length_a   9.50874407
_cell_length_b   9.50874391
_cell_length_c   9.48034000
_cell_angle_alpha   60.09876457
_cell_angle_beta   60.09876510
_cell_angle_gamma   60.06240967
_symmetry_Int_Tables_number   1
_chemical_formula_structural   NdY7(NiAg)2
_chemical_formula_sum   'Nd2 Y14 Ni4 Ag4'
_cell_volume   607.30516251
_cell_formula_units_Z   2
loop_
 _symmetry_equiv_pos_site_id
 _symmetry_equiv_pos_as_xyz
  1  'x, y, z'
loop_
 _atom_site_type_symbol
 _atom_site_label
 _atom_site_symmetry_multiplicity
 _atom_site_fract_x
 _atom_site_fract_y
 _atom_site_fract_z
 _atom_site_occupancy
  Nd  Nd0  1  0.600387  0.600387  0.601066  1
  Nd  Nd1  1  0.600387  0.600387  0.198160  1
  Y  Y2  1  0.603637  0.191855  0.602254  1
  Y  Y3  1  0.191855  0.603637  0.602254  1
  Y  Y4  1  0.062603  0.438284  0.438068  1
  Y  Y5  1  0.438284  0.062603  0.061045  1
  Y  Y6  1  0.438284  0.062603  0.438068  1
  Y  Y7  1  0.062603  0.438284  0.061045  1
  Y  Y8  1  0.437182  0.437182  0.062818  1
  Y  Y9  1  0.061362  0.061362  0.438638  1
  Y  Y10  1  0.184860  0.816005  0.814173  1
  Y  Y11  1  0.816005  0.184860  0.184961  1
  Y  Y12  1  0.816005  0.184860  0.814173  1
  Y  Y13  1  0.184860  0.816005  0.184961  1
  Y  Y14  1  0.815642  0.815642  0.184358  1
  Y  Y15  1  0.186547  0.186547  0.813453  1
  Ni  Ni16  1  0.390480  0.390480  0.398293  1
  Ni  Ni17  1  0.390480  0.390480  0.820747  1
  Ni  Ni18  1  0.388551  0.823616  0.393917  1
  Ni  Ni19  1  0.823616  0.388551  0.393917  1
  Ag  Ag20  1  0.833410  0.833410  0.829179  1
  Ag  Ag21  1  0.833410  0.833410  0.503999  1
  Ag  Ag22  1  0.833819  0.505727  0.830227  1
  Ag  Ag23  1  0.505727  0.833819  0.830227  1
