# generated using pymatgen
data_Nd(CrRe5)2
_symmetry_space_group_name_H-M   'P 1'
_cell_length_a   4.96046272
_cell_length_b   6.89903934
_cell_length_c   6.89904002
_cell_angle_alpha   97.18689643
_cell_angle_beta   110.54437166
_cell_angle_gamma   69.45562200
_symmetry_Int_Tables_number   1
_chemical_formula_structural   Nd(CrRe5)2
_chemical_formula_sum   'Nd1 Cr2 Re10'
_cell_volume   207.02454413
_cell_formula_units_Z   1
loop_
 _symmetry_equiv_pos_site_id
 _symmetry_equiv_pos_as_xyz
  1  'x, y, z'
loop_
 _atom_site_type_symbol
 _atom_site_label
 _atom_site_symmetry_multiplicity
 _atom_site_fract_x
 _atom_site_fract_y
 _atom_site_fract_z
 _atom_site_occupancy
  Nd  Nd0  1  0.000000  0.000000  0.000000  1
  Cr  Cr1  1  0.500000  0.000000  0.500000  1
  Cr  Cr2  1  0.500000  0.500000  0.000000  1
  Re  Re3  1  0.711905  0.776406  0.223594  1
  Re  Re4  1  0.288095  0.223594  0.776406  1
  Re  Re5  1  0.500000  0.778090  0.778090  1
  Re  Re6  1  0.500000  0.221910  0.221910  1
  Re  Re7  1  0.000000  0.000000  0.500000  1
  Re  Re8  1  0.000000  0.500000  0.000000  1
  Re  Re9  1  0.636791  0.359389  0.640611  1
  Re  Re10  1  0.363209  0.640611  0.359389  1
  Re  Re11  1  0.000000  0.358676  0.358676  1
  Re  Re12  1  0.000000  0.641324  0.641324  1
