# generated using pymatgen
data_Lu10In8AgAu3
_symmetry_space_group_name_H-M   'P 1'
_cell_length_a   3.55129800
_cell_length_b   8.17737898
_cell_length_c   18.26795850
_cell_angle_alpha   90.08825968
_cell_angle_beta   90.00000000
_cell_angle_gamma   90.00000000
_symmetry_Int_Tables_number   1
_chemical_formula_structural   Lu10In8AgAu3
_chemical_formula_sum   'Lu10 In8 Ag1 Au3'
_cell_volume   530.50654166
_cell_formula_units_Z   1
loop_
 _symmetry_equiv_pos_site_id
 _symmetry_equiv_pos_as_xyz
  1  'x, y, z'
loop_
 _atom_site_type_symbol
 _atom_site_label
 _atom_site_symmetry_multiplicity
 _atom_site_fract_x
 _atom_site_fract_y
 _atom_site_fract_z
 _atom_site_occupancy
  Lu  Lu0  1  0.000000  0.500156  0.499120  1
  Lu  Lu1  1  0.000000  0.002309  0.000722  1
  Lu  Lu2  1  0.000000  0.741713  0.284941  1
  Lu  Lu3  1  0.000000  0.261615  0.718003  1
  Lu  Lu4  1  0.000000  0.761967  0.782197  1
  Lu  Lu5  1  0.000000  0.228290  0.216178  1
  Lu  Lu6  1  0.000000  0.622869  0.076348  1
  Lu  Lu7  1  0.000000  0.378970  0.920221  1
  Lu  Lu8  1  0.000000  0.879144  0.579579  1
  Lu  Lu9  1  0.000000  0.124416  0.421277  1
  In  In10  1  0.500000  0.711783  0.933014  1
  In  In11  1  0.500000  0.293614  0.066965  1
  In  In12  1  0.500000  0.792625  0.435227  1
  In  In13  1  0.500000  0.210066  0.566096  1
  In  In14  1  0.500000  0.579310  0.645687  1
  In  In15  1  0.500000  0.421391  0.351645  1
  In  In16  1  0.500000  0.911941  0.147119  1
  In  In17  1  0.500000  0.079187  0.854594  1
  Ag  Ag18  1  0.500000  0.525443  0.196739  1
  Au  Au19  1  0.500000  0.472681  0.802948  1
  Au  Au20  1  0.500000  0.972310  0.696912  1
  Au  Au21  1  0.500000  0.028201  0.304468  1
