# generated using pymatgen
data_Ho2Er5CoI12
_symmetry_space_group_name_H-M   'P 1'
_cell_length_a   9.69372567
_cell_length_b   9.69376113
_cell_length_c   9.69087707
_cell_angle_alpha   106.83311635
_cell_angle_beta   106.83711249
_cell_angle_gamma   106.84563324
_symmetry_Int_Tables_number   1
_chemical_formula_structural   Ho2Er5CoI12
_chemical_formula_sum   'Ho2 Er5 Co1 I12'
_cell_volume   761.70260632
_cell_formula_units_Z   1
loop_
 _symmetry_equiv_pos_site_id
 _symmetry_equiv_pos_as_xyz
  1  'x, y, z'
loop_
 _atom_site_type_symbol
 _atom_site_label
 _atom_site_symmetry_multiplicity
 _atom_site_fract_x
 _atom_site_fract_y
 _atom_site_fract_z
 _atom_site_occupancy
  Ho  Ho0  1  0.286530  0.091059  0.021537  1
  Ho  Ho1  1  0.021430  0.286478  0.091188  1
  Er  Er2  1  0.500019  0.499979  0.500039  1
  Er  Er3  1  0.090672  0.021262  0.285741  1
  Er  Er4  1  0.714296  0.908982  0.978461  1
  Er  Er5  1  0.978333  0.714260  0.909180  1
  Er  Er6  1  0.908921  0.978264  0.714078  1
  Co  Co7  1  0.999813  0.999778  0.999925  1
  I  I8  1  0.463210  0.161160  0.386880  1
  I  I9  1  0.386853  0.463471  0.161218  1
  I  I10  1  0.161255  0.386650  0.463462  1
  I  I11  1  0.536789  0.838803  0.613306  1
  I  I12  1  0.613308  0.536771  0.838792  1
  I  I13  1  0.838809  0.613335  0.536766  1
  I  I14  1  0.323321  0.775461  0.929280  1
  I  I15  1  0.929279  0.323263  0.775447  1
  I  I16  1  0.775844  0.929405  0.323385  1
  I  I17  1  0.676601  0.224134  0.070615  1
  I  I18  1  0.070670  0.676907  0.224277  1
  I  I19  1  0.224046  0.070581  0.676423  1
