# generated using pymatgen
data_Er5Lu11(In3Ru)2
_symmetry_space_group_name_H-M   'P 1'
_cell_length_a   10.21713210
_cell_length_b   10.21713293
_cell_length_c   6.97139510
_cell_angle_alpha   90.01973124
_cell_angle_beta   89.98027051
_cell_angle_gamma   120.05482852
_symmetry_Int_Tables_number   1
_chemical_formula_structural   Er5Lu11(In3Ru)2
_chemical_formula_sum   'Er5 Lu11 In6 Ru2'
_cell_volume   629.89496767
_cell_formula_units_Z   1
loop_
 _symmetry_equiv_pos_site_id
 _symmetry_equiv_pos_as_xyz
  1  'x, y, z'
loop_
 _atom_site_type_symbol
 _atom_site_label
 _atom_site_symmetry_multiplicity
 _atom_site_fract_x
 _atom_site_fract_y
 _atom_site_fract_z
 _atom_site_occupancy
  Er  Er0  1  0.532357  0.064763  0.523708  1
  Er  Er1  1  0.935237  0.467643  0.523708  1
  Er  Er2  1  0.532076  0.467924  0.524270  1
  Er  Er3  1  0.467564  0.935010  0.023847  1
  Er  Er4  1  0.064990  0.532436  0.023847  1
  Lu  Lu5  1  0.467088  0.532912  0.024408  1
  Lu  Lu6  1  0.177835  0.354954  0.727745  1
  Lu  Lu7  1  0.645046  0.822165  0.727745  1
  Lu  Lu8  1  0.177310  0.822690  0.727139  1
  Lu  Lu9  1  0.822052  0.645025  0.226580  1
  Lu  Lu10  1  0.354975  0.177948  0.226580  1
  Lu  Lu11  1  0.822841  0.177159  0.226974  1
  Lu  Lu12  1  0.666328  0.333672  0.905195  1
  Lu  Lu13  1  0.333662  0.666338  0.404998  1
  Lu  Lu14  1  0.999956  0.000044  0.507342  1
  Lu  Lu15  1  0.000017  0.999983  0.007411  1
  In  In16  1  0.837062  0.674104  0.771526  1
  In  In17  1  0.325896  0.162938  0.771526  1
  In  In18  1  0.837065  0.162935  0.771468  1
  In  In19  1  0.163551  0.326387  0.271397  1
  In  In20  1  0.673613  0.836449  0.271397  1
  In  In21  1  0.162872  0.837128  0.271452  1
  Ru  Ru22  1  0.666808  0.333192  0.297364  1
  Ru  Ru23  1  0.333798  0.666202  0.798056  1
