# generated using pymatgen
data_SrDySi4N7
_symmetry_space_group_name_H-M   'P 1'
_cell_length_a   6.05884000
_cell_length_b   6.05884006
_cell_length_c   9.88790000
_cell_angle_alpha   90.00000000
_cell_angle_beta   90.00000000
_cell_angle_gamma   119.99998877
_symmetry_Int_Tables_number   1
_chemical_formula_structural   SrDySi4N7
_chemical_formula_sum   'Sr2 Dy2 Si8 N14'
_cell_volume   314.35018359
_cell_formula_units_Z   2
loop_
 _symmetry_equiv_pos_site_id
 _symmetry_equiv_pos_as_xyz
  1  'x, y, z'
loop_
 _atom_site_type_symbol
 _atom_site_label
 _atom_site_symmetry_multiplicity
 _atom_site_fract_x
 _atom_site_fract_y
 _atom_site_fract_z
 _atom_site_occupancy
  Sr  Sr0  1  0.666667  0.333333  0.581310  1
  Sr  Sr1  1  0.333333  0.666667  0.081310  1
  Dy  Dy2  1  0.666667  0.333333  0.950635  1
  Dy  Dy3  1  0.333333  0.666667  0.450635  1
  Si  Si4  1  0.174008  0.348015  0.759870  1
  Si  Si5  1  0.825992  0.174008  0.259870  1
  Si  Si6  1  0.348015  0.174008  0.259870  1
  Si  Si7  1  0.651985  0.825992  0.759870  1
  Si  Si8  1  0.174008  0.825992  0.759870  1
  Si  Si9  1  0.825992  0.651985  0.259870  1
  Si  Si10  1  0.000000  0.000000  0.027349  1
  Si  Si11  1  0.000000  0.000000  0.527349  1
  N  N12  1  0.000000  0.000000  0.836523  1
  N  N13  1  0.000000  0.000000  0.336523  1
  N  N14  1  0.846976  0.693952  0.087143  1
  N  N15  1  0.153024  0.846976  0.587143  1
  N  N16  1  0.693952  0.846976  0.587143  1
  N  N17  1  0.306048  0.153024  0.087143  1
  N  N18  1  0.846976  0.153024  0.087143  1
  N  N19  1  0.153024  0.306048  0.587143  1
  N  N20  1  0.488561  0.511439  0.811989  1
  N  N21  1  0.977124  0.488561  0.311989  1
  N  N22  1  0.511439  0.022876  0.311989  1
  N  N23  1  0.488561  0.977124  0.811989  1
  N  N24  1  0.511439  0.488561  0.311989  1
  N  N25  1  0.022876  0.511439  0.811989  1
