# generated using pymatgen
data_Tb3Al9Fe4Si3
_symmetry_space_group_name_H-M   'P 1'
_cell_length_a   8.51771300
_cell_length_b   8.50231095
_cell_length_c   9.34628400
_cell_angle_alpha   90.00000000
_cell_angle_beta   90.00000000
_cell_angle_gamma   120.05993861
_symmetry_Int_Tables_number   1
_chemical_formula_structural   Tb3Al9Fe4Si3
_chemical_formula_sum   'Tb6 Al18 Fe8 Si6'
_cell_volume   585.82374294
_cell_formula_units_Z   2
loop_
 _symmetry_equiv_pos_site_id
 _symmetry_equiv_pos_as_xyz
  1  'x, y, z'
loop_
 _atom_site_type_symbol
 _atom_site_label
 _atom_site_symmetry_multiplicity
 _atom_site_fract_x
 _atom_site_fract_y
 _atom_site_fract_z
 _atom_site_occupancy
  Tb  Tb0  1  0.193120  0.386240  0.250000  1
  Tb  Tb1  1  0.806880  0.613760  0.750000  1
  Tb  Tb2  1  0.610032  0.807933  0.250000  1
  Tb  Tb3  1  0.389968  0.192067  0.750000  1
  Tb  Tb4  1  0.197902  0.807933  0.250000  1
  Tb  Tb5  1  0.802098  0.192067  0.750000  1
  Al  Al6  1  0.163864  0.327725  0.574268  1
  Al  Al7  1  0.836136  0.672275  0.425732  1
  Al  Al8  1  0.671538  0.835109  0.572884  1
  Al  Al9  1  0.836136  0.672275  0.074268  1
  Al  Al10  1  0.328462  0.164891  0.427116  1
  Al  Al11  1  0.163864  0.327725  0.925732  1
  Al  Al12  1  0.163572  0.835109  0.572884  1
  Al  Al13  1  0.328462  0.164891  0.072884  1
  Al  Al14  1  0.836428  0.164891  0.427116  1
  Al  Al15  1  0.671538  0.835109  0.927116  1
  Al  Al16  1  0.836428  0.164891  0.072884  1
  Al  Al17  1  0.163572  0.835109  0.927116  1
  Al  Al18  1  0.875551  0.435023  0.250000  1
  Al  Al19  1  0.124449  0.564977  0.750000  1
  Al  Al20  1  0.559472  0.435023  0.250000  1
  Al  Al21  1  0.440528  0.564977  0.750000  1
  Al  Al22  1  0.999374  0.998748  0.250000  1
  Al  Al23  1  0.000626  0.001252  0.750000  1
  Fe  Fe24  1  0.500000  0.000000  0.000000  1
  Fe  Fe25  1  0.000000  0.500000  0.000000  1
  Fe  Fe26  1  0.500000  0.000000  0.500000  1
  Fe  Fe27  1  0.500000  0.500000  0.000000  1
  Fe  Fe28  1  0.000000  0.500000  0.500000  1
  Fe  Fe29  1  0.500000  0.500000  0.500000  1
  Fe  Fe30  1  0.000000  0.000000  0.000000  1
  Fe  Fe31  1  0.000000  0.000000  0.500000  1
  Si  Si32  1  0.331517  0.663036  0.030205  1
  Si  Si33  1  0.668483  0.336964  0.969795  1
  Si  Si34  1  0.668483  0.336964  0.530205  1
  Si  Si35  1  0.331517  0.663036  0.469795  1
  Si  Si36  1  0.561374  0.122748  0.250000  1
  Si  Si37  1  0.438626  0.877252  0.750000  1
