# generated using pymatgen
data_CaLaAl20IrRu3
_symmetry_space_group_name_H-M   'P 1'
_cell_length_a   6.90950609
_cell_length_b   6.90815244
_cell_length_c   9.22483332
_cell_angle_alpha   90.09271436
_cell_angle_beta   90.01803611
_cell_angle_gamma   96.74120160
_symmetry_Int_Tables_number   1
_chemical_formula_structural   CaLaAl20IrRu3
_chemical_formula_sum   'Ca1 La1 Al20 Ir1 Ru3'
_cell_volume   437.27424200
_cell_formula_units_Z   1
loop_
 _symmetry_equiv_pos_site_id
 _symmetry_equiv_pos_as_xyz
  1  'x, y, z'
loop_
 _atom_site_type_symbol
 _atom_site_label
 _atom_site_symmetry_multiplicity
 _atom_site_fract_x
 _atom_site_fract_y
 _atom_site_fract_z
 _atom_site_occupancy
  Ca  Ca0  1  0.874254  0.124268  0.750198  1
  La  La1  1  0.124282  0.877112  0.250046  1
  Al  Al2  1  0.620496  0.376238  0.548124  1
  Al  Al3  1  0.380329  0.622889  0.447582  1
  Al  Al4  1  0.378296  0.621878  0.051326  1
  Al  Al5  1  0.622961  0.376410  0.952306  1
  Al  Al6  1  0.225854  0.225513  0.500908  1
  Al  Al7  1  0.772077  0.777057  0.503740  1
  Al  Al8  1  0.772206  0.775030  0.998125  1
  Al  Al9  1  0.225730  0.227038  0.997114  1
  Al  Al10  1  0.840257  0.160110  0.099722  1
  Al  Al11  1  0.160859  0.838175  0.898075  1
  Al  Al12  1  0.161943  0.840999  0.603172  1
  Al  Al13  1  0.839154  0.158529  0.398903  1
  Al  Al14  1  0.857574  0.586157  0.751649  1
  Al  Al15  1  0.140163  0.408897  0.248547  1
  Al  Al16  1  0.415443  0.141870  0.750565  1
  Al  Al17  1  0.590026  0.860387  0.249460  1
  Al  Al18  1  0.220572  0.479384  0.752429  1
  Al  Al19  1  0.777396  0.517032  0.247397  1
  Al  Al20  1  0.520473  0.780051  0.749752  1
  Al  Al21  1  0.483281  0.222084  0.250337  1
  Ir  Ir22  1  0.999346  0.501416  0.500832  1
  Ru  Ru23  1  0.999557  0.501061  0.999381  1
  Ru  Ru24  1  0.498422  0.999997  0.999430  1
  Ru  Ru25  1  0.499050  0.000418  0.500879  1
