# generated using pymatgen
data_HfMn2Si2Mo
_symmetry_space_group_name_H-M   'P 1'
_cell_length_a   3.53401800
_cell_length_b   6.39950900
_cell_length_c   7.51271100
_cell_angle_alpha   90.00000000
_cell_angle_beta   90.00000000
_cell_angle_gamma   90.00000000
_symmetry_Int_Tables_number   1
_chemical_formula_structural   HfMn2Si2Mo
_chemical_formula_sum   'Hf2 Mn4 Si4 Mo2'
_cell_volume   169.90732170
_cell_formula_units_Z   2
loop_
 _symmetry_equiv_pos_site_id
 _symmetry_equiv_pos_as_xyz
  1  'x, y, z'
loop_
 _atom_site_type_symbol
 _atom_site_label
 _atom_site_symmetry_multiplicity
 _atom_site_fract_x
 _atom_site_fract_y
 _atom_site_fract_z
 _atom_site_occupancy
  Hf  Hf0  1  0.750000  0.035155  0.669782  1
  Hf  Hf1  1  0.750000  0.535155  0.830218  1
  Mn  Mn2  1  0.250000  0.362245  0.559714  1
  Mn  Mn3  1  0.250000  0.862245  0.940286  1
  Mn  Mn4  1  0.750000  0.636041  0.436042  1
  Mn  Mn5  1  0.750000  0.136041  0.063958  1
  Si  Si6  1  0.250000  0.733315  0.621960  1
  Si  Si7  1  0.250000  0.233315  0.878040  1
  Si  Si8  1  0.750000  0.266393  0.364180  1
  Si  Si9  1  0.750000  0.766393  0.135820  1
  Mo  Mo10  1  0.250000  0.966850  0.325303  1
  Mo  Mo11  1  0.250000  0.466850  0.174697  1
