# generated using pymatgen
data_TbHo4(FeB3)2
_symmetry_space_group_name_H-M   'P 1'
_cell_length_a   5.41331511
_cell_length_b   5.41331412
_cell_length_c   8.24164172
_cell_angle_alpha   70.82755682
_cell_angle_beta   70.82756254
_cell_angle_gamma   59.99998598
_symmetry_Int_Tables_number   1
_chemical_formula_structural   TbHo4(FeB3)2
_chemical_formula_sum   'Tb1 Ho4 Fe2 B6'
_cell_volume   193.53382224
_cell_formula_units_Z   1
loop_
 _symmetry_equiv_pos_site_id
 _symmetry_equiv_pos_as_xyz
  1  'x, y, z'
loop_
 _atom_site_type_symbol
 _atom_site_label
 _atom_site_symmetry_multiplicity
 _atom_site_fract_x
 _atom_site_fract_y
 _atom_site_fract_z
 _atom_site_occupancy
  Tb  Tb0  1  0.000000  0.000000  0.000000  1
  Ho  Ho1  1  0.250985  0.250985  0.247046  1
  Ho  Ho2  1  0.749015  0.749015  0.752954  1
  Ho  Ho3  1  0.416770  0.416770  0.749689  1
  Ho  Ho4  1  0.583230  0.583230  0.250311  1
  Fe  Fe5  1  0.117414  0.117414  0.647759  1
  Fe  Fe6  1  0.882586  0.882586  0.352241  1
  B  B7  1  0.168067  0.831933  0.500000  1
  B  B8  1  0.831933  0.500000  0.500000  1
  B  B9  1  0.500000  0.168067  0.500000  1
  B  B10  1  0.168067  0.500000  0.500000  1
  B  B11  1  0.500000  0.831933  0.500000  1
  B  B12  1  0.831933  0.168067  0.500000  1
