# generated using pymatgen
data_AcNi4Pt
_symmetry_space_group_name_H-M   'P 1'
_cell_length_a   5.27741785
_cell_length_b   5.27741748
_cell_length_c   4.04292400
_cell_angle_alpha   90.00000000
_cell_angle_beta   90.00000000
_cell_angle_gamma   123.16244682
_symmetry_Int_Tables_number   1
_chemical_formula_structural   AcNi4Pt
_chemical_formula_sum   'Ac1 Ni4 Pt1'
_cell_volume   94.26007816
_cell_formula_units_Z   1
loop_
 _symmetry_equiv_pos_site_id
 _symmetry_equiv_pos_as_xyz
  1  'x, y, z'
loop_
 _atom_site_type_symbol
 _atom_site_label
 _atom_site_symmetry_multiplicity
 _atom_site_fract_x
 _atom_site_fract_y
 _atom_site_fract_z
 _atom_site_occupancy
  Ac  Ac0  1  0.500000  0.500000  0.000000  1
  Ni  Ni1  1  0.183077  0.816923  0.000000  1
  Ni  Ni2  1  0.816923  0.183077  0.000000  1
  Ni  Ni3  1  0.000000  0.500000  0.500000  1
  Ni  Ni4  1  0.500000  0.000000  0.500000  1
  Pt  Pt5  1  0.000000  0.000000  0.500000  1
