# generated using pymatgen
data_Ho9Er3(OsRu)2
_symmetry_space_group_name_H-M   'P 1'
_cell_length_a   6.27954474
_cell_length_b   7.32680929
_cell_length_c   9.07003174
_cell_angle_alpha   90.00719954
_cell_angle_beta   89.95418173
_cell_angle_gamma   89.96875904
_symmetry_Int_Tables_number   1
_chemical_formula_structural   Ho9Er3(OsRu)2
_chemical_formula_sum   'Ho9 Er3 Os2 Ru2'
_cell_volume   417.30313371
_cell_formula_units_Z   1
loop_
 _symmetry_equiv_pos_site_id
 _symmetry_equiv_pos_as_xyz
  1  'x, y, z'
loop_
 _atom_site_type_symbol
 _atom_site_label
 _atom_site_symmetry_multiplicity
 _atom_site_fract_x
 _atom_site_fract_y
 _atom_site_fract_z
 _atom_site_occupancy
  Ho  Ho0  1  0.171012  0.176399  0.435723  1
  Ho  Ho1  1  0.667641  0.324626  0.562393  1
  Ho  Ho2  1  0.832338  0.824505  0.937778  1
  Ho  Ho3  1  0.667541  0.324850  0.937753  1
  Ho  Ho4  1  0.832247  0.824593  0.562400  1
  Ho  Ho5  1  0.329189  0.676494  0.435525  1
  Ho  Ho6  1  0.171051  0.176406  0.064216  1
  Ho  Ho7  1  0.133403  0.459016  0.750206  1
  Ho  Ho8  1  0.366679  0.958759  0.750127  1
  Er  Er9  1  0.329095  0.676148  0.064460  1
  Er  Er10  1  0.868012  0.539009  0.249792  1
  Er  Er11  1  0.631954  0.038841  0.249885  1
  Os  Os12  1  0.037926  0.884016  0.249787  1
  Os  Os13  1  0.462138  0.384502  0.249784  1
  Ru  Ru14  1  0.962864  0.115842  0.749930  1
  Ru  Ru15  1  0.536911  0.615992  0.750243  1
