# generated using pymatgen
data_LiNd(BeB14)2
_symmetry_space_group_name_H-M   'P 1'
_cell_length_a   7.21254046
_cell_length_b   7.21254188
_cell_length_c   7.21254172
_cell_angle_alpha   133.00473460
_cell_angle_beta   110.51090583
_cell_angle_gamma   88.14074328
_symmetry_Int_Tables_number   1
_chemical_formula_structural   LiNd(BeB14)2
_chemical_formula_sum   'Li1 Nd1 Be2 B28'
_cell_volume   245.02731697
_cell_formula_units_Z   1
loop_
 _symmetry_equiv_pos_site_id
 _symmetry_equiv_pos_as_xyz
  1  'x, y, z'
loop_
 _atom_site_type_symbol
 _atom_site_label
 _atom_site_symmetry_multiplicity
 _atom_site_fract_x
 _atom_site_fract_y
 _atom_site_fract_z
 _atom_site_occupancy
  Li  Li0  1  0.129968  0.750000  0.379968  1
  Nd  Nd1  1  0.895272  0.250000  0.645272  1
  Be  Be2  1  0.494220  0.504882  0.499102  1
  Be  Be3  1  0.494220  0.995118  0.989338  1
  B  B4  1  0.720694  0.718068  0.321781  1
  B  B5  1  0.707996  0.344698  0.363299  1
  B  B6  1  0.872061  0.667463  0.700282  1
  B  B7  1  0.126916  0.826310  0.790532  1
  B  B8  1  0.532819  0.832537  0.204599  1
  B  B9  1  0.464222  0.673690  0.300606  1
  B  B10  1  0.126916  0.336383  0.300606  1
  B  B11  1  0.872061  0.171780  0.204599  1
  B  B12  1  0.464222  0.163617  0.790532  1
  B  B13  1  0.532819  0.328220  0.700282  1
  B  B14  1  0.103714  0.781932  0.002626  1
  B  B15  1  0.897659  0.894829  0.677437  1
  B  B16  1  0.897659  0.220223  0.002830  1
  B  B17  1  0.282608  0.605171  0.002830  1
  B  B18  1  0.103714  0.101087  0.321781  1
  B  B19  1  0.518600  0.155302  0.363299  1
  B  B20  1  0.282608  0.279777  0.677437  1
  B  B21  1  0.720694  0.398913  0.002626  1
  B  B22  1  0.739377  0.909089  0.830288  1
  B  B23  1  0.256953  0.089531  0.167423  1
  B  B24  1  0.421199  0.590911  0.830288  1
  B  B25  1  0.577892  0.410469  0.167423  1
  B  B26  1  0.866487  0.833998  0.032489  1
  B  B27  1  0.134248  0.165100  0.969148  1
  B  B28  1  0.698491  0.666002  0.032489  1
  B  B29  1  0.304048  0.334900  0.969148  1
  B  B30  1  0.473471  0.843650  0.629820  1
  B  B31  1  0.286171  0.656350  0.629820  1
