# generated using pymatgen
data_Pr4Ge3Rh4
_symmetry_space_group_name_H-M   'P 1'
_cell_length_a   11.04264851
_cell_length_b   11.04264828
_cell_length_c   8.09239026
_cell_angle_alpha   70.78655524
_cell_angle_beta   70.78655546
_cell_angle_gamma   30.33772510
_symmetry_Int_Tables_number   1
_chemical_formula_structural   Pr4Ge3Rh4
_chemical_formula_sum   'Pr8 Ge6 Rh8'
_cell_volume   468.55405406
_cell_formula_units_Z   2
loop_
 _symmetry_equiv_pos_site_id
 _symmetry_equiv_pos_as_xyz
  1  'x, y, z'
loop_
 _atom_site_type_symbol
 _atom_site_label
 _atom_site_symmetry_multiplicity
 _atom_site_fract_x
 _atom_site_fract_y
 _atom_site_fract_z
 _atom_site_occupancy
  Pr  Pr0  1  0.215090  0.442614  0.395141  1
  Pr  Pr1  1  0.557386  0.784910  0.104859  1
  Pr  Pr2  1  0.442614  0.215090  0.895141  1
  Pr  Pr3  1  0.922626  0.211049  0.333882  1
  Pr  Pr4  1  0.788951  0.077374  0.166118  1
  Pr  Pr5  1  0.077374  0.788951  0.666118  1
  Pr  Pr6  1  0.211049  0.922626  0.833882  1
  Pr  Pr7  1  0.784910  0.557386  0.604859  1
  Ge  Ge8  1  0.643128  0.356872  0.750000  1
  Ge  Ge9  1  0.356872  0.643128  0.250000  1
  Ge  Ge10  1  0.291626  0.052711  0.441333  1
  Ge  Ge11  1  0.947289  0.708374  0.058667  1
  Ge  Ge12  1  0.708374  0.947289  0.558667  1
  Ge  Ge13  1  0.052711  0.291626  0.941333  1
  Rh  Rh14  1  0.301049  0.573956  0.022010  1
  Rh  Rh15  1  0.573956  0.301049  0.522010  1
  Rh  Rh16  1  0.698951  0.426044  0.977990  1
  Rh  Rh17  1  0.073737  0.367016  0.184553  1
  Rh  Rh18  1  0.632984  0.926263  0.315447  1
  Rh  Rh19  1  0.426044  0.698951  0.477990  1
  Rh  Rh20  1  0.926263  0.632984  0.815447  1
  Rh  Rh21  1  0.367016  0.073737  0.684553  1
