# generated using pymatgen
data_CsNpVTe5
_symmetry_space_group_name_H-M   'P 1'
_cell_length_a   6.07596000
_cell_length_b   8.27800100
_cell_length_c   10.32900400
_cell_angle_alpha   90.00000000
_cell_angle_beta   90.00000000
_cell_angle_gamma   90.00000000
_symmetry_Int_Tables_number   1
_chemical_formula_structural   CsNpVTe5
_chemical_formula_sum   'Cs2 Np2 V2 Te10'
_cell_volume   519.51587892
_cell_formula_units_Z   2
loop_
 _symmetry_equiv_pos_site_id
 _symmetry_equiv_pos_as_xyz
  1  'x, y, z'
loop_
 _atom_site_type_symbol
 _atom_site_label
 _atom_site_symmetry_multiplicity
 _atom_site_fract_x
 _atom_site_fract_y
 _atom_site_fract_z
 _atom_site_occupancy
  Cs  Cs0  1  0.750001  0.500000  0.216865  1
  Cs  Cs1  1  0.249999  0.500000  0.783135  1
  Np  Np2  1  0.249999  0.000000  0.325333  1
  Np  Np3  1  0.750001  0.000000  0.674666  1
  V  V4  1  0.000000  0.000000  0.000000  1
  V  V5  1  0.500000  0.000000  0.000000  1
  Te  Te6  1  0.249999  0.241583  0.103764  1
  Te  Te7  1  0.249999  0.758416  0.103764  1
  Te  Te8  1  0.750001  0.000000  0.221506  1
  Te  Te9  1  0.000000  0.248758  0.500000  1
  Te  Te10  1  0.500000  0.248758  0.500000  1
  Te  Te11  1  0.000000  0.751242  0.500000  1
  Te  Te12  1  0.500000  0.751242  0.500000  1
  Te  Te13  1  0.249999  0.000000  0.778494  1
  Te  Te14  1  0.750001  0.241583  0.896235  1
  Te  Te15  1  0.750001  0.758416  0.896235  1
