# generated using pymatgen
data_Y2NiSn5Rh2
_symmetry_space_group_name_H-M   'P 1'
_cell_length_a   13.38020074
_cell_length_b   13.38020167
_cell_length_c   7.23631800
_cell_angle_alpha   90.00000000
_cell_angle_beta   90.00000000
_cell_angle_gamma   161.03122717
_symmetry_Int_Tables_number   1
_chemical_formula_structural   Y2NiSn5Rh2
_chemical_formula_sum   'Y4 Ni2 Sn10 Rh4'
_cell_volume   421.11122716
_cell_formula_units_Z   2
loop_
 _symmetry_equiv_pos_site_id
 _symmetry_equiv_pos_as_xyz
  1  'x, y, z'
loop_
 _atom_site_type_symbol
 _atom_site_label
 _atom_site_symmetry_multiplicity
 _atom_site_fract_x
 _atom_site_fract_y
 _atom_site_fract_z
 _atom_site_occupancy
  Y  Y0  1  0.171731  0.828269  0.746269  1
  Y  Y1  1  0.828269  0.171731  0.246269  1
  Y  Y2  1  0.476117  0.523883  0.758212  1
  Y  Y3  1  0.523883  0.476117  0.258212  1
  Ni  Ni4  1  0.050214  0.949786  0.982201  1
  Ni  Ni5  1  0.949786  0.050214  0.482201  1
  Sn  Sn6  1  0.881222  0.118778  0.766926  1
  Sn  Sn7  1  0.118778  0.881222  0.266926  1
  Sn  Sn8  1  0.703676  0.296324  0.452587  1
  Sn  Sn9  1  0.296324  0.703676  0.952587  1
  Sn  Sn10  1  0.594043  0.405957  0.890621  1
  Sn  Sn11  1  0.405957  0.594043  0.390621  1
  Sn  Sn12  1  0.954305  0.045695  0.101766  1
  Sn  Sn13  1  0.045695  0.954305  0.601766  1
  Sn  Sn14  1  0.290885  0.709115  0.521005  1
  Sn  Sn15  1  0.709115  0.290885  0.021005  1
  Rh  Rh16  1  0.777402  0.222598  0.733494  1
  Rh  Rh17  1  0.222598  0.777402  0.233494  1
  Rh  Rh18  1  0.396053  0.603947  0.018920  1
  Rh  Rh19  1  0.603947  0.396053  0.518920  1
