# generated using pymatgen
data_LaYbPr2(ReC2)2
_symmetry_space_group_name_H-M   'P 1'
_cell_length_a   5.36348800
_cell_length_b   6.64042956
_cell_length_c   10.47223485
_cell_angle_alpha   89.41793301
_cell_angle_beta   90.00000000
_cell_angle_gamma   90.00000000
_symmetry_Int_Tables_number   1
_chemical_formula_structural   LaYbPr2(ReC2)2
_chemical_formula_sum   'La2 Yb2 Pr4 Re4 C8'
_cell_volume   372.95844860
_cell_formula_units_Z   2
loop_
 _symmetry_equiv_pos_site_id
 _symmetry_equiv_pos_as_xyz
  1  'x, y, z'
loop_
 _atom_site_type_symbol
 _atom_site_label
 _atom_site_symmetry_multiplicity
 _atom_site_fract_x
 _atom_site_fract_y
 _atom_site_fract_z
 _atom_site_occupancy
  La  La0  1  0.250000  0.527247  0.221440  1
  La  La1  1  0.750000  0.472753  0.778560  1
  Yb  Yb2  1  0.750000  0.970627  0.726336  1
  Yb  Yb3  1  0.250000  0.029373  0.273664  1
  Pr  Pr4  1  0.250000  0.705527  0.548769  1
  Pr  Pr5  1  0.750000  0.294473  0.451231  1
  Pr  Pr6  1  0.750000  0.808387  0.049643  1
  Pr  Pr7  1  0.250000  0.191613  0.950357  1
  Re  Re8  1  0.250000  0.729494  0.853839  1
  Re  Re9  1  0.750000  0.270506  0.146161  1
  Re  Re10  1  0.750000  0.768768  0.354879  1
  Re  Re11  1  0.250000  0.231232  0.645121  1
  C  C12  1  0.250000  0.468609  0.755833  1
  C  C13  1  0.750000  0.531391  0.244167  1
  C  C14  1  0.750000  0.031555  0.258661  1
  C  C15  1  0.250000  0.968445  0.741339  1
  C  C16  1  0.250000  0.806114  0.030085  1
  C  C17  1  0.750000  0.193886  0.969915  1
  C  C18  1  0.750000  0.702451  0.532913  1
  C  C19  1  0.250000  0.297549  0.467087  1
