# generated using pymatgen
data_ErTm9IrOs3
_symmetry_space_group_name_H-M   'P 1'
_cell_length_a   6.31362394
_cell_length_b   7.29082921
_cell_length_c   8.27852553
_cell_angle_alpha   96.81161436
_cell_angle_beta   112.29491596
_cell_angle_gamma   89.96695370
_symmetry_Int_Tables_number   1
_chemical_formula_structural   ErTm9IrOs3
_chemical_formula_sum   'Er1 Tm9 Ir1 Os3'
_cell_volume   349.68746577
_cell_formula_units_Z   1
loop_
 _symmetry_equiv_pos_site_id
 _symmetry_equiv_pos_as_xyz
  1  'x, y, z'
loop_
 _atom_site_type_symbol
 _atom_site_label
 _atom_site_symmetry_multiplicity
 _atom_site_fract_x
 _atom_site_fract_y
 _atom_site_fract_z
 _atom_site_occupancy
  Er  Er0  1  0.969923  0.915942  0.179528  1
  Tm  Tm1  1  0.790039  0.582090  0.818295  1
  Tm  Tm2  1  0.025815  0.083486  0.815170  1
  Tm  Tm3  1  0.208529  0.419017  0.179764  1
  Tm  Tm4  1  0.649642  0.817027  0.439721  1
  Tm  Tm5  1  0.210192  0.681729  0.561937  1
  Tm  Tm6  1  0.350988  0.181563  0.563241  1
  Tm  Tm7  1  0.793112  0.319630  0.439422  1
  Tm  Tm8  1  0.422250  0.748730  0.999248  1
  Tm  Tm9  1  0.577890  0.250624  0.999337  1
  Ir  Ir10  1  0.395055  0.077167  0.221265  1
  Os  Os11  1  0.823544  0.575995  0.218348  1
  Os  Os12  1  0.607439  0.923989  0.781763  1
  Os  Os13  1  0.175585  0.423010  0.782962  1
