# generated using pymatgen
data_Dy6Si13Rh20
_symmetry_space_group_name_H-M   'P 1'
_cell_length_a   13.51240700
_cell_length_b   13.51240612
_cell_length_c   3.94827500
_cell_angle_alpha   90.00000000
_cell_angle_beta   90.00000000
_cell_angle_gamma   119.99999971
_symmetry_Int_Tables_number   1
_chemical_formula_structural   Dy6Si13Rh20
_chemical_formula_sum   'Dy6 Si13 Rh20'
_cell_volume   624.31451826
_cell_formula_units_Z   1
loop_
 _symmetry_equiv_pos_site_id
 _symmetry_equiv_pos_as_xyz
  1  'x, y, z'
loop_
 _atom_site_type_symbol
 _atom_site_label
 _atom_site_symmetry_multiplicity
 _atom_site_fract_x
 _atom_site_fract_y
 _atom_site_fract_z
 _atom_site_occupancy
  Dy  Dy0  1  0.530378  0.721705  0.248800  1
  Dy  Dy1  1  0.278295  0.808674  0.248800  1
  Dy  Dy2  1  0.191326  0.469622  0.248800  1
  Dy  Dy3  1  0.469622  0.278295  0.751200  1
  Dy  Dy4  1  0.721705  0.191326  0.751200  1
  Dy  Dy5  1  0.808674  0.530378  0.751200  1
  Si  Si6  1  0.522607  0.132622  0.252552  1
  Si  Si7  1  0.867378  0.389986  0.252552  1
  Si  Si8  1  0.610014  0.477393  0.252552  1
  Si  Si9  1  0.956876  0.723584  0.251658  1
  Si  Si10  1  0.276416  0.233293  0.251658  1
  Si  Si11  1  0.766707  0.043124  0.251658  1
  Si  Si12  1  0.389986  0.522607  0.747448  1
  Si  Si13  1  0.477393  0.867378  0.747448  1
  Si  Si14  1  0.132622  0.610014  0.747448  1
  Si  Si15  1  0.723584  0.766707  0.748342  1
  Si  Si16  1  0.233293  0.956876  0.748342  1
  Si  Si17  1  0.043124  0.276416  0.748342  1
  Si  Si18  1  0.000000  0.000000  0.000000  1
  Rh  Rh19  1  0.333333  0.666667  0.741788  1
  Rh  Rh20  1  0.915031  0.243535  0.250989  1
  Rh  Rh21  1  0.756465  0.671496  0.250989  1
  Rh  Rh22  1  0.328504  0.084969  0.250989  1
  Rh  Rh23  1  0.437940  0.022612  0.751212  1
  Rh  Rh24  1  0.977388  0.415330  0.751212  1
  Rh  Rh25  1  0.584670  0.562060  0.751212  1
  Rh  Rh26  1  0.666667  0.333333  0.258212  1
  Rh  Rh27  1  0.084059  0.187482  0.247375  1
  Rh  Rh28  1  0.812518  0.896577  0.247375  1
  Rh  Rh29  1  0.103423  0.915941  0.247375  1
  Rh  Rh30  1  0.022612  0.584670  0.248788  1
  Rh  Rh31  1  0.415330  0.437940  0.248788  1
  Rh  Rh32  1  0.562060  0.977388  0.248788  1
  Rh  Rh33  1  0.671496  0.915031  0.749011  1
  Rh  Rh34  1  0.084969  0.756465  0.749011  1
  Rh  Rh35  1  0.243535  0.328504  0.749011  1
  Rh  Rh36  1  0.915941  0.812518  0.752625  1
  Rh  Rh37  1  0.187482  0.103423  0.752625  1
  Rh  Rh38  1  0.896577  0.084059  0.752625  1
