# generated using pymatgen
data_ErAl2(Fe3Mo2)2
_symmetry_space_group_name_H-M   'P 1'
_cell_length_a   4.90467590
_cell_length_b   6.61163959
_cell_length_c   6.61163944
_cell_angle_alpha   96.98204997
_cell_angle_beta   111.77187382
_cell_angle_gamma   68.22811822
_symmetry_Int_Tables_number   1
_chemical_formula_structural   ErAl2(Fe3Mo2)2
_chemical_formula_sum   'Er1 Al2 Fe6 Mo4'
_cell_volume   184.87350958
_cell_formula_units_Z   1
loop_
 _symmetry_equiv_pos_site_id
 _symmetry_equiv_pos_as_xyz
  1  'x, y, z'
loop_
 _atom_site_type_symbol
 _atom_site_label
 _atom_site_symmetry_multiplicity
 _atom_site_fract_x
 _atom_site_fract_y
 _atom_site_fract_z
 _atom_site_occupancy
  Er  Er0  1  0.000000  0.000000  0.000000  1
  Al  Al1  1  0.707722  0.792278  0.207722  1
  Al  Al2  1  0.292278  0.207722  0.792278  1
  Fe  Fe3  1  0.500000  0.778126  0.778126  1
  Fe  Fe4  1  0.500000  0.221874  0.221874  1
  Fe  Fe5  1  0.500000  0.000000  0.500000  1
  Fe  Fe6  1  0.000000  0.000000  0.500000  1
  Fe  Fe7  1  0.500000  0.500000  0.000000  1
  Fe  Fe8  1  0.000000  0.500000  0.000000  1
  Mo  Mo9  1  0.641283  0.358717  0.641283  1
  Mo  Mo10  1  0.358717  0.641283  0.358717  1
  Mo  Mo11  1  0.000000  0.356959  0.356959  1
  Mo  Mo12  1  0.000000  0.643041  0.643041  1
