# generated using pymatgen
data_Ca2Sn2SbPd9
_symmetry_space_group_name_H-M   'P 1'
_cell_length_a   8.03752518
_cell_length_b   8.03752516
_cell_length_c   9.43925900
_cell_angle_alpha   90.00000000
_cell_angle_beta   90.00000000
_cell_angle_gamma   119.50273304
_symmetry_Int_Tables_number   1
_chemical_formula_structural   Ca2Sn2SbPd9
_chemical_formula_sum   'Ca4 Sn4 Sb2 Pd18'
_cell_volume   530.72268224
_cell_formula_units_Z   2
loop_
 _symmetry_equiv_pos_site_id
 _symmetry_equiv_pos_as_xyz
  1  'x, y, z'
loop_
 _atom_site_type_symbol
 _atom_site_label
 _atom_site_symmetry_multiplicity
 _atom_site_fract_x
 _atom_site_fract_y
 _atom_site_fract_z
 _atom_site_occupancy
  Ca  Ca0  1  0.327398  0.016701  0.750012  1
  Ca  Ca1  1  0.672602  0.983299  0.250012  1
  Ca  Ca2  1  0.016701  0.327398  0.749988  1
  Ca  Ca3  1  0.983299  0.672602  0.249988  1
  Sn  Sn4  1  0.000054  0.999946  0.500000  1
  Sn  Sn5  1  0.676959  0.323041  0.000000  1
  Sn  Sn6  1  0.323041  0.676959  0.500000  1
  Sn  Sn7  1  0.999946  0.000054  0.000000  1
  Sb  Sb8  1  0.322935  0.677065  0.000000  1
  Sb  Sb9  1  0.677065  0.322935  0.500000  1
  Pd  Pd10  1  0.333739  0.332256  0.967047  1
  Pd  Pd11  1  0.449777  0.647206  0.751757  1
  Pd  Pd12  1  0.550223  0.352794  0.251757  1
  Pd  Pd13  1  0.647206  0.449777  0.748243  1
  Pd  Pd14  1  0.002281  0.338872  0.081641  1
  Pd  Pd15  1  0.997719  0.661128  0.581641  1
  Pd  Pd16  1  0.338872  0.002281  0.418359  1
  Pd  Pd17  1  0.661128  0.997719  0.918359  1
  Pd  Pd18  1  0.998831  0.660685  0.918393  1
  Pd  Pd19  1  0.001169  0.339315  0.418393  1
  Pd  Pd20  1  0.660685  0.998831  0.581607  1
  Pd  Pd21  1  0.859160  0.859160  0.750000  1
  Pd  Pd22  1  0.332256  0.333739  0.532953  1
  Pd  Pd23  1  0.667744  0.666261  0.032953  1
  Pd  Pd24  1  0.339315  0.001169  0.081607  1
  Pd  Pd25  1  0.666261  0.667744  0.467047  1
  Pd  Pd26  1  0.140840  0.140840  0.250000  1
  Pd  Pd27  1  0.352794  0.550223  0.248243  1
