# generated using pymatgen
data_Ho10Zn4BiSb
_symmetry_space_group_name_H-M   'P 1'
_cell_length_a   8.53114030
_cell_length_b   8.53114118
_cell_length_c   8.53113949
_cell_angle_alpha   123.42044031
_cell_angle_beta   123.42044584
_cell_angle_gamma   84.17115073
_symmetry_Int_Tables_number   1
_chemical_formula_structural   Ho10Zn4BiSb
_chemical_formula_sum   'Ho10 Zn4 Bi1 Sb1'
_cell_volume   413.99990718
_cell_formula_units_Z   1
loop_
 _symmetry_equiv_pos_site_id
 _symmetry_equiv_pos_as_xyz
  1  'x, y, z'
loop_
 _atom_site_type_symbol
 _atom_site_label
 _atom_site_symmetry_multiplicity
 _atom_site_fract_x
 _atom_site_fract_y
 _atom_site_fract_z
 _atom_site_occupancy
  Ho  Ho0  1  0.997601  0.997601  0.000000  1
  Ho  Ho1  1  0.502399  0.502399  0.000000  1
  Ho  Ho2  1  0.007942  0.511241  0.805975  1
  Ho  Ho3  1  0.705265  0.201966  0.194025  1
  Ho  Ho4  1  0.511241  0.705265  0.503299  1
  Ho  Ho5  1  0.201966  0.007942  0.496701  1
  Ho  Ho6  1  0.988759  0.492058  0.194025  1
  Ho  Ho7  1  0.298034  0.794735  0.805975  1
  Ho  Ho8  1  0.492058  0.298034  0.503299  1
  Ho  Ho9  1  0.794735  0.988759  0.496701  1
  Zn  Zn10  1  0.639138  0.139138  0.778274  1
  Zn  Zn11  1  0.360862  0.860862  0.221726  1
  Zn  Zn12  1  0.139138  0.360862  0.500000  1
  Zn  Zn13  1  0.860862  0.639138  0.500000  1
  Bi  Bi14  1  0.250000  0.250000  0.000000  1
  Sb  Sb15  1  0.750000  0.750000  0.000000  1
