# generated using pymatgen
data_YbHo(Al5Fe)4
_symmetry_space_group_name_H-M   'P 1'
_cell_length_a   6.76343949
_cell_length_b   6.76344020
_cell_length_c   8.94334700
_cell_angle_alpha   90.00000000
_cell_angle_beta   90.00000000
_cell_angle_gamma   97.17366176
_symmetry_Int_Tables_number   1
_chemical_formula_structural   YbHo(Al5Fe)4
_chemical_formula_sum   'Yb1 Ho1 Al20 Fe4'
_cell_volume   405.90313355
_cell_formula_units_Z   1
loop_
 _symmetry_equiv_pos_site_id
 _symmetry_equiv_pos_as_xyz
  1  'x, y, z'
loop_
 _atom_site_type_symbol
 _atom_site_label
 _atom_site_symmetry_multiplicity
 _atom_site_fract_x
 _atom_site_fract_y
 _atom_site_fract_z
 _atom_site_occupancy
  Yb  Yb0  1  0.876615  0.123385  0.750000  1
  Ho  Ho1  1  0.124959  0.875041  0.250000  1
  Al  Al2  1  0.625755  0.374245  0.545109  1
  Al  Al3  1  0.374428  0.625572  0.449019  1
  Al  Al4  1  0.374428  0.625572  0.050981  1
  Al  Al5  1  0.625755  0.374245  0.954891  1
  Al  Al6  1  0.226905  0.227816  0.499554  1
  Al  Al7  1  0.772184  0.773095  0.499554  1
  Al  Al8  1  0.772184  0.773095  0.000446  1
  Al  Al9  1  0.226905  0.227816  0.000446  1
  Al  Al10  1  0.843839  0.156161  0.096545  1
  Al  Al11  1  0.159343  0.840657  0.903561  1
  Al  Al12  1  0.159343  0.840657  0.596439  1
  Al  Al13  1  0.843839  0.156161  0.403455  1
  Al  Al14  1  0.866670  0.585762  0.750000  1
  Al  Al15  1  0.133822  0.417083  0.250000  1
  Al  Al16  1  0.414238  0.133330  0.750000  1
  Al  Al17  1  0.582917  0.866178  0.250000  1
  Al  Al18  1  0.219658  0.476415  0.750000  1
  Al  Al19  1  0.779514  0.521570  0.250000  1
  Al  Al20  1  0.523585  0.780342  0.750000  1
  Al  Al21  1  0.478430  0.220486  0.250000  1
  Fe  Fe22  1  0.999434  0.502092  0.499841  1
  Fe  Fe23  1  0.999434  0.502092  0.000159  1
  Fe  Fe24  1  0.497908  0.000566  0.000159  1
  Fe  Fe25  1  0.497908  0.000566  0.499841  1
