# generated using pymatgen
data_Y3ErAl18(NiIr)3
_symmetry_space_group_name_H-M   'P 1'
_cell_length_a   7.49018060
_cell_length_b   7.48763464
_cell_length_c   9.35957901
_cell_angle_alpha   89.93427032
_cell_angle_beta   89.92851644
_cell_angle_gamma   119.21934203
_symmetry_Int_Tables_number   1
_chemical_formula_structural   Y3ErAl18(NiIr)3
_chemical_formula_sum   'Y3 Er1 Al18 Ni3 Ir3'
_cell_volume   458.12663173
_cell_formula_units_Z   1
loop_
 _symmetry_equiv_pos_site_id
 _symmetry_equiv_pos_as_xyz
  1  'x, y, z'
loop_
 _atom_site_type_symbol
 _atom_site_label
 _atom_site_symmetry_multiplicity
 _atom_site_fract_x
 _atom_site_fract_y
 _atom_site_fract_z
 _atom_site_occupancy
  Y  Y0  1  0.003125  0.324666  0.750161  1
  Y  Y1  1  0.675510  0.996905  0.249833  1
  Y  Y2  1  0.326737  0.005774  0.750134  1
  Er  Er3  1  0.994131  0.673685  0.250025  1
  Al  Al4  1  0.133069  0.132711  0.249574  1
  Al  Al5  1  0.866857  0.866812  0.750417  1
  Al  Al6  1  0.999006  0.339361  0.073759  1
  Al  Al7  1  0.002677  0.663061  0.926425  1
  Al  Al8  1  0.003483  0.663031  0.573432  1
  Al  Al9  1  0.336572  0.996069  0.425759  1
  Al  Al10  1  0.003763  0.338890  0.425688  1
  Al  Al11  1  0.661620  0.996284  0.573914  1
  Al  Al12  1  0.661191  0.000984  0.926646  1
  Al  Al13  1  0.336433  0.996778  0.074434  1
  Al  Al14  1  0.333706  0.334955  0.549308  1
  Al  Al15  1  0.665354  0.666242  0.450230  1
  Al  Al16  1  0.664377  0.664886  0.050217  1
  Al  Al17  1  0.335005  0.335975  0.950248  1
  Al  Al18  1  0.340571  0.556636  0.249658  1
  Al  Al19  1  0.658685  0.448495  0.753251  1
  Al  Al20  1  0.552199  0.341973  0.246698  1
  Al  Al21  1  0.443537  0.658921  0.750338  1
  Ni  Ni22  1  0.671131  0.329120  0.000121  1
  Ni  Ni23  1  0.328828  0.671010  0.000134  1
  Ni  Ni24  1  0.329468  0.670381  0.499870  1
  Ir  Ir25  1  0.672376  0.328016  0.499757  1
  Ir  Ir26  1  0.999638  0.999856  0.000348  1
  Ir  Ir27  1  0.000955  0.998520  0.499619  1
