# generated using pymatgen
data_K5Rb5Ba2(NbP4)2
_symmetry_space_group_name_H-M   'P 1'
_cell_length_a   10.50545416
_cell_length_b   10.50697186
_cell_length_c   7.97499823
_cell_angle_alpha   89.00069097
_cell_angle_beta   89.40410490
_cell_angle_gamma   120.80954854
_symmetry_Int_Tables_number   1
_chemical_formula_structural   K5Rb5Ba2(NbP4)2
_chemical_formula_sum   'K5 Rb5 Ba2 Nb2 P8'
_cell_volume   755.74727036
_cell_formula_units_Z   1
loop_
 _symmetry_equiv_pos_site_id
 _symmetry_equiv_pos_as_xyz
  1  'x, y, z'
loop_
 _atom_site_type_symbol
 _atom_site_label
 _atom_site_symmetry_multiplicity
 _atom_site_fract_x
 _atom_site_fract_y
 _atom_site_fract_z
 _atom_site_occupancy
  K  K0  1  0.465246  0.527283  0.501391  1
  K  K1  1  0.060396  0.527238  0.501533  1
  K  K2  1  0.527279  0.465037  0.001864  1
  K  K3  1  0.529452  0.061044  0.001146  1
  K  K4  1  0.860587  0.146571  0.676150  1
  Rb  Rb5  1  0.289952  0.152388  0.709585  1
  Rb  Rb6  1  0.855236  0.717244  0.664553  1
  Rb  Rb7  1  0.142073  0.865516  0.178930  1
  Rb  Rb8  1  0.717384  0.855854  0.165175  1
  Rb  Rb9  1  0.151944  0.289765  0.210406  1
  Ba  Ba10  1  0.464740  0.933478  0.493176  1
  Ba  Ba11  1  0.932765  0.462553  0.993662  1
  Nb  Nb12  1  0.669473  0.332410  0.393922  1
  Nb  Nb13  1  0.333397  0.667894  0.891099  1
  P  P14  1  0.681577  0.333802  0.698069  1
  P  P15  1  0.335099  0.680024  0.194824  1
  P  P16  1  0.791424  0.202903  0.292240  1
  P  P17  1  0.412640  0.198912  0.311744  1
  P  P18  1  0.795545  0.581238  0.275884  1
  P  P19  1  0.204611  0.790013  0.787872  1
  P  P20  1  0.584135  0.799041  0.775353  1
  P  P21  1  0.195044  0.409788  0.810001  1
