# generated using pymatgen
data_Dy4UCo4
_symmetry_space_group_name_H-M   'P 1'
_cell_length_a   5.81731722
_cell_length_b   5.81731622
_cell_length_c   9.24098796
_cell_angle_alpha   71.30810533
_cell_angle_beta   71.30811860
_cell_angle_gamma   38.66693081
_symmetry_Int_Tables_number   1
_chemical_formula_structural   Dy4UCo4
_chemical_formula_sum   'Dy4 U1 Co4'
_cell_volume   183.77448689
_cell_formula_units_Z   1
loop_
 _symmetry_equiv_pos_site_id
 _symmetry_equiv_pos_as_xyz
  1  'x, y, z'
loop_
 _atom_site_type_symbol
 _atom_site_label
 _atom_site_symmetry_multiplicity
 _atom_site_fract_x
 _atom_site_fract_y
 _atom_site_fract_z
 _atom_site_occupancy
  Dy  Dy0  1  0.730460  0.730460  0.677269  1
  Dy  Dy1  1  0.269540  0.269540  0.322731  1
  Dy  Dy2  1  0.391373  0.391373  0.896634  1
  Dy  Dy3  1  0.608627  0.608627  0.103366  1
  U  U4  1  0.500000  0.500000  0.500000  1
  Co  Co5  1  0.026315  0.026315  0.641527  1
  Co  Co6  1  0.973685  0.973685  0.358473  1
  Co  Co7  1  0.088634  0.088634  0.881680  1
  Co  Co8  1  0.911366  0.911366  0.118320  1
