# generated using pymatgen
data_Sm2Er3Fe12Co7P12
_symmetry_space_group_name_H-M   'P 1'
_cell_length_a   11.96776024
_cell_length_b   11.97591311
_cell_length_c   3.68922500
_cell_angle_alpha   90.00000000
_cell_angle_beta   90.00000000
_cell_angle_gamma   120.02254443
_symmetry_Int_Tables_number   1
_chemical_formula_structural   Sm2Er3Fe12Co7P12
_chemical_formula_sum   'Sm2 Er3 Fe12 Co7 P12'
_cell_volume   457.81349101
_cell_formula_units_Z   1
loop_
 _symmetry_equiv_pos_site_id
 _symmetry_equiv_pos_as_xyz
  1  'x, y, z'
loop_
 _atom_site_type_symbol
 _atom_site_label
 _atom_site_symmetry_multiplicity
 _atom_site_fract_x
 _atom_site_fract_y
 _atom_site_fract_z
 _atom_site_occupancy
  Sm  Sm0  1  0.814116  0.814571  0.500000  1
  Sm  Sm1  1  0.185884  0.000455  0.500000  1
  Er  Er2  1  0.666024  0.332700  0.000000  1
  Er  Er3  1  0.333976  0.666676  0.000000  1
  Er  Er4  1  0.000000  0.186437  0.500000  1
  Fe  Fe5  1  0.876758  0.358753  0.500000  1
  Fe  Fe6  1  0.639623  0.516402  0.500000  1
  Fe  Fe7  1  0.482787  0.123385  0.500000  1
  Fe  Fe8  1  0.360377  0.876779  0.500000  1
  Fe  Fe9  1  0.517213  0.640598  0.500000  1
  Fe  Fe10  1  0.123242  0.481994  0.500000  1
  Fe  Fe11  1  0.442210  0.443368  0.000000  1
  Fe  Fe12  1  0.557790  0.001158  0.000000  1
  Fe  Fe13  1  0.000000  0.555344  0.000000  1
  Fe  Fe14  1  0.285271  0.286774  0.500000  1
  Fe  Fe15  1  0.714729  0.001503  0.500000  1
  Fe  Fe16  1  0.000000  0.712247  0.500000  1
  Co  Co17  1  0.802084  0.180756  0.000000  1
  Co  Co18  1  0.819672  0.619356  0.000000  1
  Co  Co19  1  0.379115  0.200481  0.000000  1
  Co  Co20  1  0.180328  0.799686  0.000000  1
  Co  Co21  1  0.620885  0.821366  0.000000  1
  Co  Co22  1  0.197916  0.378673  0.000000  1
  Co  Co23  1  0.000000  0.001403  0.000000  1
  P  P24  1  0.685461  0.166508  0.500000  1
  P  P25  1  0.833099  0.518091  0.500000  1
  P  P26  1  0.479859  0.314353  0.500000  1
  P  P27  1  0.166901  0.684991  0.500000  1
  P  P28  1  0.520141  0.834493  0.500000  1
  P  P29  1  0.314539  0.481046  0.500000  1
  P  P30  1  0.183254  0.185954  0.000000  1
  P  P31  1  0.816746  0.002701  0.000000  1
  P  P32  1  0.000000  0.813921  0.000000  1
  P  P33  1  0.626119  0.626120  0.000000  1
  P  P34  1  0.373881  0.000001  0.000000  1
  P  P35  1  0.000000  0.370958  0.000000  1
