# generated using pymatgen
data_Eu3Si2(AsP)2
_symmetry_space_group_name_H-M   'P 1'
_cell_length_a   17.62451400
_cell_length_b   7.22268224
_cell_length_c   7.37708531
_cell_angle_alpha   68.31526112
_cell_angle_beta   90.00000000
_cell_angle_gamma   90.00000000
_symmetry_Int_Tables_number   1
_chemical_formula_structural   Eu3Si2(AsP)2
_chemical_formula_sum   'Eu12 Si8 As8 P8'
_cell_volume   872.61799498
_cell_formula_units_Z   4
loop_
 _symmetry_equiv_pos_site_id
 _symmetry_equiv_pos_as_xyz
  1  'x, y, z'
loop_
 _atom_site_type_symbol
 _atom_site_label
 _atom_site_symmetry_multiplicity
 _atom_site_fract_x
 _atom_site_fract_y
 _atom_site_fract_z
 _atom_site_occupancy
  Eu  Eu0  1  0.313704  0.490501  0.215883  1
  Eu  Eu1  1  0.813704  0.009499  0.784117  1
  Eu  Eu2  1  0.686296  0.509499  0.784117  1
  Eu  Eu3  1  0.186296  0.990501  0.215883  1
  Eu  Eu4  1  0.062009  0.492656  0.245556  1
  Eu  Eu5  1  0.562009  0.007344  0.754444  1
  Eu  Eu6  1  0.937991  0.507344  0.754444  1
  Eu  Eu7  1  0.437991  0.992656  0.245556  1
  Eu  Eu8  1  0.556945  0.501755  0.250538  1
  Eu  Eu9  1  0.056945  0.998245  0.749462  1
  Eu  Eu10  1  0.443055  0.498245  0.749462  1
  Eu  Eu11  1  0.943055  0.001755  0.250538  1
  Si  Si12  1  0.869100  0.474854  0.201258  1
  Si  Si13  1  0.369100  0.025146  0.798742  1
  Si  Si14  1  0.130900  0.525146  0.798742  1
  Si  Si15  1  0.630900  0.974854  0.201258  1
  Si  Si16  1  0.743578  0.087193  0.304631  1
  Si  Si17  1  0.243578  0.412807  0.695369  1
  Si  Si18  1  0.256422  0.912807  0.695369  1
  Si  Si19  1  0.756422  0.587193  0.304631  1
  As  As20  1  0.930604  0.261868  0.493731  1
  As  As21  1  0.430604  0.238132  0.506269  1
  As  As22  1  0.069396  0.738132  0.506269  1
  As  As23  1  0.569396  0.761868  0.493731  1
  As  As24  1  0.694957  0.273815  0.495481  1
  As  As25  1  0.194957  0.226185  0.504519  1
  As  As26  1  0.305043  0.726185  0.504519  1
  As  As27  1  0.805043  0.773815  0.495481  1
  P  P28  1  0.563612  0.241479  0.010176  1
  P  P29  1  0.063612  0.258521  0.989824  1
  P  P30  1  0.436388  0.758521  0.989824  1
  P  P31  1  0.936388  0.741479  0.010176  1
  P  P32  1  0.814655  0.277568  0.041419  1
  P  P33  1  0.314655  0.222432  0.958581  1
  P  P34  1  0.185345  0.722432  0.958581  1
  P  P35  1  0.685345  0.777568  0.041419  1
