# generated using pymatgen
data_Sc12Mn2FePb2
_symmetry_space_group_name_H-M   'P 1'
_cell_length_a   7.84092985
_cell_length_b   7.84092992
_cell_length_c   7.84093000
_cell_angle_alpha   108.31176958
_cell_angle_beta   108.31176205
_cell_angle_gamma   111.81587330
_symmetry_Int_Tables_number   1
_chemical_formula_structural   Sc12Mn2FePb2
_chemical_formula_sum   'Sc12 Mn2 Fe1 Pb2'
_cell_volume   370.62319613
_cell_formula_units_Z   1
loop_
 _symmetry_equiv_pos_site_id
 _symmetry_equiv_pos_as_xyz
  1  'x, y, z'
loop_
 _atom_site_type_symbol
 _atom_site_label
 _atom_site_symmetry_multiplicity
 _atom_site_fract_x
 _atom_site_fract_y
 _atom_site_fract_z
 _atom_site_occupancy
  Sc  Sc0  1  0.306366  0.306366  0.612732  1
  Sc  Sc1  1  0.693634  0.693634  0.387268  1
  Sc  Sc2  1  0.306366  0.693634  0.000000  1
  Sc  Sc3  1  0.693634  0.306366  0.000000  1
  Sc  Sc4  1  0.425545  0.193018  0.232527  1
  Sc  Sc5  1  0.574455  0.806982  0.767473  1
  Sc  Sc6  1  0.960490  0.193018  0.767473  1
  Sc  Sc7  1  0.193018  0.960490  0.767473  1
  Sc  Sc8  1  0.039510  0.806982  0.232527  1
  Sc  Sc9  1  0.806982  0.039510  0.232527  1
  Sc  Sc10  1  0.193018  0.425545  0.232527  1
  Sc  Sc11  1  0.806982  0.574455  0.767473  1
  Mn  Mn12  1  0.380887  0.380887  0.000000  1
  Mn  Mn13  1  0.619113  0.619113  0.000000  1
  Fe  Fe14  1  0.000000  0.000000  0.000000  1
  Pb  Pb15  1  0.500000  0.000000  0.500000  1
  Pb  Pb16  1  0.000000  0.500000  0.500000  1
