# generated using pymatgen
data_CeDy3CdHgPt4
_symmetry_space_group_name_H-M   'P 1'
_cell_length_a   7.78751848
_cell_length_b   7.79060263
_cell_length_c   3.69573700
_cell_angle_alpha   90.00000000
_cell_angle_beta   90.00000000
_cell_angle_gamma   90.69571334
_symmetry_Int_Tables_number   1
_chemical_formula_structural   CeDy3CdHgPt4
_chemical_formula_sum   'Ce1 Dy3 Cd1 Hg1 Pt4'
_cell_volume   224.20184595
_cell_formula_units_Z   1
loop_
 _symmetry_equiv_pos_site_id
 _symmetry_equiv_pos_as_xyz
  1  'x, y, z'
loop_
 _atom_site_type_symbol
 _atom_site_label
 _atom_site_symmetry_multiplicity
 _atom_site_fract_x
 _atom_site_fract_y
 _atom_site_fract_z
 _atom_site_occupancy
  Ce  Ce0  1  0.661304  0.174013  0.500000  1
  Dy  Dy1  1  0.176501  0.343585  0.500000  1
  Dy  Dy2  1  0.339330  0.822005  0.500000  1
  Dy  Dy3  1  0.823358  0.659404  0.500000  1
  Cd  Cd4  1  0.005370  0.998819  0.000000  1
  Hg  Hg5  1  0.498718  0.503831  0.000000  1
  Pt  Pt6  1  0.640259  0.878662  0.000000  1
  Pt  Pt7  1  0.117584  0.639182  0.000000  1
  Pt  Pt8  1  0.875059  0.355946  0.000000  1
  Pt  Pt9  1  0.362518  0.124554  0.000000  1
