# generated using pymatgen
data_BaEuPuO6
_symmetry_space_group_name_H-M   'P 1'
_cell_length_a   5.93566700
_cell_length_b   5.93566726
_cell_length_c   5.63664900
_cell_angle_alpha   90.00000000
_cell_angle_beta   90.00000000
_cell_angle_gamma   119.99999297
_symmetry_Int_Tables_number   1
_chemical_formula_structural   BaEuPuO6
_chemical_formula_sum   'Ba1 Eu1 Pu1 O6'
_cell_volume   171.98506305
_cell_formula_units_Z   1
loop_
 _symmetry_equiv_pos_site_id
 _symmetry_equiv_pos_as_xyz
  1  'x, y, z'
loop_
 _atom_site_type_symbol
 _atom_site_label
 _atom_site_symmetry_multiplicity
 _atom_site_fract_x
 _atom_site_fract_y
 _atom_site_fract_z
 _atom_site_occupancy
  Ba  Ba0  1  0.000000  0.000000  0.000000  1
  Eu  Eu1  1  0.333333  0.666667  0.500000  1
  Pu  Pu2  1  0.666667  0.333333  0.500000  1
  O  O3  1  0.392378  0.038330  0.696605  1
  O  O4  1  0.961670  0.354049  0.696605  1
  O  O5  1  0.645951  0.607622  0.696605  1
  O  O6  1  0.961670  0.607622  0.303395  1
  O  O7  1  0.645951  0.038330  0.303395  1
  O  O8  1  0.392378  0.354049  0.303395  1
