# generated using pymatgen
data_Tb12Dy4Tl3In(PdRh)2
_symmetry_space_group_name_H-M   'P 1'
_cell_length_a   9.70973239
_cell_length_b   9.70973061
_cell_length_c   9.70730900
_cell_angle_alpha   60.03991570
_cell_angle_beta   60.03991493
_cell_angle_gamma   60.09772382
_symmetry_Int_Tables_number   1
_chemical_formula_structural   Tb12Dy4Tl3In(PdRh)2
_chemical_formula_sum   'Tb12 Dy4 Tl3 In1 Pd2 Rh2'
_cell_volume   648.00769186
_cell_formula_units_Z   1
loop_
 _symmetry_equiv_pos_site_id
 _symmetry_equiv_pos_as_xyz
  1  'x, y, z'
loop_
 _atom_site_type_symbol
 _atom_site_label
 _atom_site_symmetry_multiplicity
 _atom_site_fract_x
 _atom_site_fract_y
 _atom_site_fract_z
 _atom_site_occupancy
  Tb  Tb0  1  0.689124  0.310356  0.310902  1
  Tb  Tb1  1  0.684935  0.693662  0.310125  1
  Tb  Tb2  1  0.310884  0.693240  0.311227  1
  Tb  Tb3  1  0.937481  0.934916  0.565386  1
  Tb  Tb4  1  0.148605  0.141664  0.557375  1
  Tb  Tb5  1  0.560606  0.936849  0.560086  1
  Tb  Tb6  1  0.155024  0.149481  0.149247  1
  Tb  Tb7  1  0.311489  0.311342  0.692984  1
  Tb  Tb8  1  0.938597  0.560439  0.560642  1
  Tb  Tb9  1  0.560339  0.559646  0.937048  1
  Tb  Tb10  1  0.565960  0.936162  0.935820  1
  Tb  Tb11  1  0.937651  0.565215  0.934811  1
  Dy  Dy12  1  0.148469  0.557383  0.141584  1
  Dy  Dy13  1  0.310565  0.688342  0.688889  1
  Dy  Dy14  1  0.684833  0.309864  0.693855  1
  Dy  Dy15  1  0.553033  0.145999  0.145839  1
  Tl  Tl16  1  0.914907  0.915177  0.255518  1
  Tl  Tl17  1  0.255522  0.915043  0.915270  1
  Tl  Tl18  1  0.914879  0.255398  0.915399  1
  In  In19  1  0.915683  0.916077  0.916334  1
  Pd  Pd20  1  0.355057  0.356364  0.354892  1
  Pd  Pd21  1  0.930116  0.358419  0.358275  1
  Rh  Rh22  1  0.358277  0.359792  0.929271  1
  Rh  Rh23  1  0.357963  0.929168  0.359225  1
