# generated using pymatgen
data_Fe5Re(SiW)3
_symmetry_space_group_name_H-M   'P 1'
_cell_length_a   4.73308119
_cell_length_b   4.73308185
_cell_length_c   7.65771141
_cell_angle_alpha   90.03154708
_cell_angle_beta   89.96845142
_cell_angle_gamma   120.12940565
_symmetry_Int_Tables_number   1
_chemical_formula_structural   Fe5Re(SiW)3
_chemical_formula_sum   'Fe5 Re1 Si3 W3'
_cell_volume   148.37123795
_cell_formula_units_Z   1
loop_
 _symmetry_equiv_pos_site_id
 _symmetry_equiv_pos_as_xyz
  1  'x, y, z'
loop_
 _atom_site_type_symbol
 _atom_site_label
 _atom_site_symmetry_multiplicity
 _atom_site_fract_x
 _atom_site_fract_y
 _atom_site_fract_z
 _atom_site_occupancy
  Fe  Fe0  1  0.339644  0.170036  0.750503  1
  Fe  Fe1  1  0.829964  0.660356  0.750503  1
  Fe  Fe2  1  0.175127  0.326164  0.249624  1
  Fe  Fe3  1  0.673836  0.824873  0.249624  1
  Fe  Fe4  1  0.826327  0.173673  0.748727  1
  Re  Re5  1  0.329118  0.670882  0.934251  1
  Si  Si6  1  0.989509  0.010491  0.995617  1
  Si  Si7  1  0.992737  0.007263  0.503114  1
  Si  Si8  1  0.183031  0.816969  0.248441  1
  W  W9  1  0.665280  0.334720  0.437029  1
  W  W10  1  0.663452  0.336548  0.057125  1
  W  W11  1  0.331974  0.668026  0.575444  1
