# generated using pymatgen
data_SmAuCl6
_symmetry_space_group_name_H-M   'P 1'
_cell_length_a   7.69862109
_cell_length_b   10.02948650
_cell_length_c   14.27732730
_cell_angle_alpha   103.61990259
_cell_angle_beta   96.59605407
_cell_angle_gamma   112.08226758
_symmetry_Int_Tables_number   1
_chemical_formula_structural   SmAuCl6
_chemical_formula_sum   'Sm4 Au4 Cl24'
_cell_volume   967.15451507
_cell_formula_units_Z   4
loop_
 _symmetry_equiv_pos_site_id
 _symmetry_equiv_pos_as_xyz
  1  'x, y, z'
loop_
 _atom_site_type_symbol
 _atom_site_label
 _atom_site_symmetry_multiplicity
 _atom_site_fract_x
 _atom_site_fract_y
 _atom_site_fract_z
 _atom_site_occupancy
  Sm  Sm0  1  0.580650  0.924893  0.621784  1
  Sm  Sm1  1  0.027566  0.687113  0.128525  1
  Sm  Sm2  1  0.419350  0.075107  0.378216  1
  Sm  Sm3  1  0.972434  0.312887  0.871475  1
  Au  Au4  1  0.294414  0.632834  0.764304  1
  Au  Au5  1  0.500000  0.500000  0.500000  1
  Au  Au6  1  0.705586  0.367166  0.235696  1
  Au  Au7  1  0.000000  0.000000  0.000000  1
  Cl  Cl8  1  0.776548  0.097238  0.969105  1
  Cl  Cl9  1  0.722469  0.152049  0.261685  1
  Cl  Cl10  1  0.277531  0.847951  0.738315  1
  Cl  Cl11  1  0.768247  0.793997  0.028960  1
  Cl  Cl12  1  0.615209  0.191313  0.744678  1
  Cl  Cl13  1  0.309670  0.414346  0.786401  1
  Cl  Cl14  1  0.690330  0.585654  0.213599  1
  Cl  Cl15  1  0.300514  0.625466  0.499027  1
  Cl  Cl16  1  0.231753  0.206003  0.971040  1
  Cl  Cl17  1  0.758941  0.728784  0.523626  1
  Cl  Cl18  1  0.223452  0.902762  0.030895  1
  Cl  Cl19  1  0.727932  0.049138  0.483471  1
  Cl  Cl20  1  0.610022  0.728704  0.746747  1
  Cl  Cl21  1  0.951729  0.058137  0.730057  1
  Cl  Cl22  1  0.241059  0.271216  0.476374  1
  Cl  Cl23  1  0.384791  0.808687  0.255322  1
  Cl  Cl24  1  0.977191  0.539286  0.779439  1
  Cl  Cl25  1  0.761966  0.436708  0.977661  1
  Cl  Cl26  1  0.238034  0.563292  0.022339  1
  Cl  Cl27  1  0.022809  0.460714  0.220561  1
  Cl  Cl28  1  0.389978  0.271296  0.253253  1
  Cl  Cl29  1  0.272068  0.950862  0.516529  1
  Cl  Cl30  1  0.699486  0.374534  0.500973  1
  Cl  Cl31  1  0.048271  0.941863  0.269943  1
