# generated using pymatgen
data_Ac8ZnPd6
_symmetry_space_group_name_H-M   'P 1'
_cell_length_a   8.07357354
_cell_length_b   8.07357387
_cell_length_c   8.07357388
_cell_angle_alpha   71.80561560
_cell_angle_beta   71.80559917
_cell_angle_gamma   71.80561198
_symmetry_Int_Tables_number   1
_chemical_formula_structural   Ac8ZnPd6
_chemical_formula_sum   'Ac8 Zn1 Pd6'
_cell_volume   461.30785675
_cell_formula_units_Z   1
loop_
 _symmetry_equiv_pos_site_id
 _symmetry_equiv_pos_as_xyz
  1  'x, y, z'
loop_
 _atom_site_type_symbol
 _atom_site_label
 _atom_site_symmetry_multiplicity
 _atom_site_fract_x
 _atom_site_fract_y
 _atom_site_fract_z
 _atom_site_occupancy
  Ac  Ac0  1  0.305942  0.305942  0.305942  1
  Ac  Ac1  1  0.694058  0.694058  0.694058  1
  Ac  Ac2  1  0.818477  0.337393  0.131346  1
  Ac  Ac3  1  0.337393  0.131346  0.818477  1
  Ac  Ac4  1  0.131346  0.818477  0.337393  1
  Ac  Ac5  1  0.181523  0.662607  0.868654  1
  Ac  Ac6  1  0.662607  0.868654  0.181523  1
  Ac  Ac7  1  0.868654  0.181523  0.662607  1
  Zn  Zn8  1  0.500000  0.500000  0.500000  1
  Pd  Pd9  1  0.463982  0.654188  0.085908  1
  Pd  Pd10  1  0.654188  0.085908  0.463982  1
  Pd  Pd11  1  0.085908  0.463982  0.654188  1
  Pd  Pd12  1  0.536018  0.345812  0.914092  1
  Pd  Pd13  1  0.345812  0.914092  0.536018  1
  Pd  Pd14  1  0.914092  0.536018  0.345812  1
