# generated using pymatgen
data_Er3Tm13ZnIn3Rh4
_symmetry_space_group_name_H-M   'P 1'
_cell_length_a   9.49850438
_cell_length_b   9.49649291
_cell_length_c   9.49647527
_cell_angle_alpha   60.05687119
_cell_angle_beta   60.05583435
_cell_angle_gamma   60.06692334
_symmetry_Int_Tables_number   1
_chemical_formula_structural   Er3Tm13ZnIn3Rh4
_chemical_formula_sum   'Er3 Tm13 Zn1 In3 Rh4'
_cell_volume   606.53359623
_cell_formula_units_Z   1
loop_
 _symmetry_equiv_pos_site_id
 _symmetry_equiv_pos_as_xyz
  1  'x, y, z'
loop_
 _atom_site_type_symbol
 _atom_site_label
 _atom_site_symmetry_multiplicity
 _atom_site_fract_x
 _atom_site_fract_y
 _atom_site_fract_z
 _atom_site_occupancy
  Er  Er0  1  0.061927  0.061992  0.438289  1
  Er  Er1  1  0.436041  0.069191  0.435883  1
  Er  Er2  1  0.062392  0.438142  0.061907  1
  Tm  Tm3  1  0.053956  0.646998  0.647071  1
  Tm  Tm4  1  0.436314  0.436235  0.068555  1
  Tm  Tm5  1  0.647025  0.053806  0.647265  1
  Tm  Tm6  1  0.189316  0.811117  0.189201  1
  Tm  Tm7  1  0.189281  0.189219  0.811218  1
  Tm  Tm8  1  0.810155  0.810105  0.190747  1
  Tm  Tm9  1  0.438631  0.061834  0.061592  1
  Tm  Tm10  1  0.811241  0.189278  0.189085  1
  Tm  Tm11  1  0.068558  0.436534  0.436245  1
  Tm  Tm12  1  0.810051  0.190698  0.810235  1
  Tm  Tm13  1  0.190815  0.810015  0.810295  1
  Tm  Tm14  1  0.646942  0.647061  0.054028  1
  Tm  Tm15  1  0.651329  0.651211  0.651437  1
  Zn  Zn16  1  0.415873  0.416041  0.415847  1
  In  In17  1  0.745149  0.417494  0.417155  1
  In  In18  1  0.417229  0.745456  0.417038  1
  In  In19  1  0.417163  0.417197  0.745561  1
  Rh  Rh20  1  0.858585  0.858184  0.427450  1
  Rh  Rh21  1  0.856157  0.856413  0.856628  1
  Rh  Rh22  1  0.427524  0.858281  0.858800  1
  Rh  Rh23  1  0.858347  0.427499  0.858471  1
