# generated using pymatgen
data_Nd4VTc3B16
_symmetry_space_group_name_H-M   'P 1'
_cell_length_a   3.65998000
_cell_length_b   6.07391355
_cell_length_c   11.75846322
_cell_angle_alpha   89.89001982
_cell_angle_beta   90.00000000
_cell_angle_gamma   90.00000000
_symmetry_Int_Tables_number   1
_chemical_formula_structural   Nd4VTc3B16
_chemical_formula_sum   'Nd4 V1 Tc3 B16'
_cell_volume   261.39488406
_cell_formula_units_Z   1
loop_
 _symmetry_equiv_pos_site_id
 _symmetry_equiv_pos_as_xyz
  1  'x, y, z'
loop_
 _atom_site_type_symbol
 _atom_site_label
 _atom_site_symmetry_multiplicity
 _atom_site_fract_x
 _atom_site_fract_y
 _atom_site_fract_z
 _atom_site_occupancy
  Nd  Nd0  1  0.000000  0.623722  0.349762  1
  Nd  Nd1  1  0.000000  0.376475  0.650140  1
  Nd  Nd2  1  0.000000  0.126020  0.150865  1
  Nd  Nd3  1  0.000000  0.874083  0.848108  1
  V  V4  1  0.000000  0.875266  0.581398  1
  Tc  Tc5  1  0.000000  0.631447  0.086410  1
  Tc  Tc6  1  0.000000  0.368813  0.914682  1
  Tc  Tc7  1  0.000000  0.123629  0.417656  1
  B  B8  1  0.500000  0.780389  0.183852  1
  B  B9  1  0.500000  0.219640  0.816253  1
  B  B10  1  0.500000  0.280467  0.317544  1
  B  B11  1  0.500000  0.719079  0.683184  1
  B  B12  1  0.500000  0.860388  0.031793  1
  B  B13  1  0.500000  0.139886  0.967959  1
  B  B14  1  0.500000  0.360627  0.467479  1
  B  B15  1  0.500000  0.638880  0.532725  1
  B  B16  1  0.500000  0.887957  0.454341  1
  B  B17  1  0.500000  0.112325  0.546008  1
  B  B18  1  0.500000  0.388807  0.045846  1
  B  B19  1  0.500000  0.611781  0.953927  1
  B  B20  1  0.500000  0.976389  0.310502  1
  B  B21  1  0.500000  0.023956  0.689857  1
  B  B22  1  0.500000  0.475149  0.189704  1
  B  B23  1  0.500000  0.524826  0.810007  1
