# generated using pymatgen
data_Ho8CrTc3C8
_symmetry_space_group_name_H-M   'P 1'
_cell_length_a   5.05377300
_cell_length_b   6.52554890
_cell_length_c   9.80499510
_cell_angle_alpha   89.82442358
_cell_angle_beta   90.00000000
_cell_angle_gamma   90.00000000
_symmetry_Int_Tables_number   1
_chemical_formula_structural   Ho8CrTc3C8
_chemical_formula_sum   'Ho8 Cr1 Tc3 C8'
_cell_volume   323.35391324
_cell_formula_units_Z   1
loop_
 _symmetry_equiv_pos_site_id
 _symmetry_equiv_pos_as_xyz
  1  'x, y, z'
loop_
 _atom_site_type_symbol
 _atom_site_label
 _atom_site_symmetry_multiplicity
 _atom_site_fract_x
 _atom_site_fract_y
 _atom_site_fract_z
 _atom_site_occupancy
  Ho  Ho0  1  0.250000  0.674488  0.557223  1
  Ho  Ho1  1  0.750000  0.319030  0.445581  1
  Ho  Ho2  1  0.750000  0.822217  0.056055  1
  Ho  Ho3  1  0.250000  0.180693  0.940766  1
  Ho  Ho4  1  0.250000  0.534985  0.215396  1
  Ho  Ho5  1  0.750000  0.467959  0.783139  1
  Ho  Ho6  1  0.750000  0.967126  0.718179  1
  Ho  Ho7  1  0.250000  0.034402  0.284550  1
  Cr  Cr8  1  0.250000  0.221605  0.636749  1
  Tc  Tc9  1  0.250000  0.721356  0.863600  1
  Tc  Tc10  1  0.750000  0.281928  0.133294  1
  Tc  Tc11  1  0.750000  0.780541  0.366001  1
  C  C12  1  0.250000  0.447027  0.755774  1
  C  C13  1  0.750000  0.547743  0.241612  1
  C  C14  1  0.750000  0.049315  0.258752  1
  C  C15  1  0.250000  0.959091  0.736471  1
  C  C16  1  0.250000  0.821403  0.047952  1
  C  C17  1  0.750000  0.178723  0.949426  1
  C  C18  1  0.750000  0.677862  0.549420  1
  C  C19  1  0.250000  0.312508  0.460061  1
