# generated using pymatgen
data_ErTm7(InNi)2
_symmetry_space_group_name_H-M   'P 1'
_cell_length_a   9.46611749
_cell_length_b   9.46608571
_cell_length_c   9.47800500
_cell_angle_alpha   59.95840430
_cell_angle_beta   59.95844644
_cell_angle_gamma   59.91687893
_symmetry_Int_Tables_number   1
_chemical_formula_structural   ErTm7(InNi)2
_chemical_formula_sum   'Er2 Tm14 In4 Ni4'
_cell_volume   599.78809784
_cell_formula_units_Z   2
loop_
 _symmetry_equiv_pos_site_id
 _symmetry_equiv_pos_as_xyz
  1  'x, y, z'
loop_
 _atom_site_type_symbol
 _atom_site_label
 _atom_site_symmetry_multiplicity
 _atom_site_fract_x
 _atom_site_fract_y
 _atom_site_fract_z
 _atom_site_occupancy
  Er  Er0  1  0.347457  0.347469  0.348305  1
  Er  Er1  1  0.347474  0.347483  0.956756  1
  Tm  Tm2  1  0.347249  0.956536  0.348108  1
  Tm  Tm3  1  0.956539  0.347255  0.348102  1
  Tm  Tm4  1  0.812838  0.187715  0.187406  1
  Tm  Tm5  1  0.187712  0.812835  0.812047  1
  Tm  Tm6  1  0.187711  0.812836  0.187405  1
  Tm  Tm7  1  0.812839  0.187716  0.812042  1
  Tm  Tm8  1  0.187357  0.187360  0.812642  1
  Tm  Tm9  1  0.812244  0.812232  0.187763  1
  Tm  Tm10  1  0.937594  0.562333  0.562337  1
  Tm  Tm11  1  0.562330  0.937594  0.937737  1
  Tm  Tm12  1  0.562334  0.937592  0.562338  1
  Tm  Tm13  1  0.937596  0.562329  0.937737  1
  Tm  Tm14  1  0.562630  0.562631  0.937368  1
  Tm  Tm15  1  0.937970  0.937965  0.562031  1
  In  In16  1  0.582925  0.582926  0.582739  1
  In  In17  1  0.582925  0.582925  0.251410  1
  In  In18  1  0.582862  0.251806  0.582665  1
  In  In19  1  0.251804  0.582863  0.582665  1
  Ni  Ni20  1  0.142252  0.142249  0.142781  1
  Ni  Ni21  1  0.142255  0.142253  0.572713  1
  Ni  Ni22  1  0.141857  0.573239  0.142453  1
  Ni  Ni23  1  0.573245  0.141857  0.142449  1
