# generated using pymatgen
data_U2TaTi3Co16Si7
_symmetry_space_group_name_H-M   'P 1'
_cell_length_a   7.98011478
_cell_length_b   7.99922947
_cell_length_c   7.97382600
_cell_angle_alpha   60.10499713
_cell_angle_beta   60.02606526
_cell_angle_gamma   60.07009766
_symmetry_Int_Tables_number   1
_chemical_formula_structural   U2TaTi3Co16Si7
_chemical_formula_sum   'U2 Ta1 Ti3 Co16 Si7'
_cell_volume   360.46914766
_cell_formula_units_Z   1
loop_
 _symmetry_equiv_pos_site_id
 _symmetry_equiv_pos_as_xyz
  1  'x, y, z'
loop_
 _atom_site_type_symbol
 _atom_site_label
 _atom_site_symmetry_multiplicity
 _atom_site_fract_x
 _atom_site_fract_y
 _atom_site_fract_z
 _atom_site_occupancy
  U  U0  1  0.202834  0.795955  0.788722  1
  U  U1  1  0.202834  0.795955  0.212489  1
  Ta  Ta2  1  0.199762  0.219543  0.790347  1
  Ti  Ti3  1  0.790720  0.209999  0.197274  1
  Ti  Ti4  1  0.790720  0.209999  0.802007  1
  Ti  Ti5  1  0.775296  0.798016  0.213344  1
  Co  Co6  1  0.382858  0.377052  0.381552  1
  Co  Co7  1  0.488637  0.833790  0.838787  1
  Co  Co8  1  0.621574  0.618646  0.140804  1
  Co  Co9  1  0.171412  0.156562  0.505826  1
  Co  Co10  1  0.845901  0.828941  0.493110  1
  Co  Co11  1  0.171412  0.156562  0.166200  1
  Co  Co12  1  0.845901  0.828941  0.832048  1
  Co  Co13  1  0.382858  0.377052  0.858540  1
  Co  Co14  1  0.837051  0.503925  0.829512  1
  Co  Co15  1  0.621574  0.618646  0.618974  1
  Co  Co16  1  0.383063  0.858245  0.379347  1
  Co  Co17  1  0.143370  0.614566  0.621031  1
  Co  Co18  1  0.616521  0.143408  0.620035  1
  Co  Co19  1  0.167016  0.510158  0.161413  1
  Co  Co20  1  0.857024  0.383084  0.379947  1
  Co  Co21  1  0.497258  0.162411  0.170165  1
  Si  Si22  1  0.974046  0.027406  0.499274  1
  Si  Si23  1  0.514466  0.005723  0.493683  1
  Si  Si24  1  0.502950  0.499002  0.499024  1
  Si  Si25  1  0.991240  0.488395  0.016408  1
  Si  Si26  1  0.515993  0.483904  0.000051  1
  Si  Si27  1  0.514466  0.005723  0.986127  1
  Si  Si28  1  0.991240  0.488395  0.503957  1
