# generated using pymatgen
data_Nd8Tm12Si15Pt
_symmetry_space_group_name_H-M   'P 1'
_cell_length_a   7.70555548
_cell_length_b   7.72737120
_cell_length_c   14.18620253
_cell_angle_alpha   89.68451120
_cell_angle_beta   89.77068962
_cell_angle_gamma   90.05966591
_symmetry_Int_Tables_number   1
_chemical_formula_structural   Nd8Tm12Si15Pt
_chemical_formula_sum   'Nd8 Tm12 Si15 Pt1'
_cell_volume   844.67876191
_cell_formula_units_Z   1
loop_
 _symmetry_equiv_pos_site_id
 _symmetry_equiv_pos_as_xyz
  1  'x, y, z'
loop_
 _atom_site_type_symbol
 _atom_site_label
 _atom_site_symmetry_multiplicity
 _atom_site_fract_x
 _atom_site_fract_y
 _atom_site_fract_z
 _atom_site_occupancy
  Nd  Nd0  1  0.643969  0.992074  0.460865  1
  Nd  Nd1  1  0.357937  0.005861  0.958981  1
  Nd  Nd2  1  0.989817  0.640599  0.538908  1
  Nd  Nd3  1  0.492838  0.856136  0.209711  1
  Nd  Nd4  1  0.508507  0.144204  0.708366  1
  Nd  Nd5  1  0.856328  0.493222  0.791318  1
  Nd  Nd6  1  0.142623  0.505625  0.290523  1
  Nd  Nd7  1  0.008306  0.355849  0.040942  1
  Tm  Tm8  1  0.491916  0.359086  0.123795  1
  Tm  Tm9  1  0.993864  0.142043  0.627655  1
  Tm  Tm10  1  0.859411  0.005778  0.874625  1
  Tm  Tm11  1  0.140417  0.987732  0.375815  1
  Tm  Tm12  1  0.506570  0.642048  0.621570  1
  Tm  Tm13  1  0.360685  0.493727  0.877079  1
  Tm  Tm14  1  0.641111  0.506073  0.376312  1
  Tm  Tm15  1  0.007352  0.861534  0.125567  1
  Tm  Tm16  1  0.315039  0.310751  0.501611  1
  Tm  Tm17  1  0.185641  0.824716  0.745148  1
  Tm  Tm18  1  0.819385  0.181536  0.250974  1
  Tm  Tm19  1  0.681757  0.682277  0.000346  1
  Si  Si20  1  0.710072  0.062694  0.061865  1
  Si  Si21  1  0.937174  0.291290  0.437629  1
  Si  Si22  1  0.437332  0.211162  0.310851  1
  Si  Si23  1  0.563914  0.789123  0.811706  1
  Si  Si24  1  0.210554  0.439963  0.690177  1
  Si  Si25  1  0.789915  0.562856  0.187887  1
  Si  Si26  1  0.060845  0.709931  0.937743  1
  Si  Si27  1  0.794573  0.849906  0.688147  1
  Si  Si28  1  0.204482  0.149120  0.187664  1
  Si  Si29  1  0.848588  0.794881  0.310500  1
  Si  Si30  1  0.351518  0.701533  0.436254  1
  Si  Si31  1  0.651233  0.296579  0.939419  1
  Si  Si32  1  0.706601  0.351411  0.562118  1
  Si  Si33  1  0.295897  0.650749  0.061476  1
  Si  Si34  1  0.148234  0.209405  0.814704  1
  Pt  Pt35  1  0.285598  0.938531  0.561749  1
