# generated using pymatgen
data_Yb3SiO5
_symmetry_space_group_name_H-M   'P 1'
_cell_length_a   5.49214800
_cell_length_b   7.11840800
_cell_length_c   12.33255000
_cell_angle_alpha   90.00000000
_cell_angle_beta   90.00000000
_cell_angle_gamma   90.00000000
_symmetry_Int_Tables_number   1
_chemical_formula_structural   Yb3SiO5
_chemical_formula_sum   'Yb12 Si4 O20'
_cell_volume   482.14536185
_cell_formula_units_Z   4
loop_
 _symmetry_equiv_pos_site_id
 _symmetry_equiv_pos_as_xyz
  1  'x, y, z'
loop_
 _atom_site_type_symbol
 _atom_site_label
 _atom_site_symmetry_multiplicity
 _atom_site_fract_x
 _atom_site_fract_y
 _atom_site_fract_z
 _atom_site_occupancy
  Yb  Yb0  1  0.234849  0.250000  0.402425  1
  Yb  Yb1  1  0.765151  0.750000  0.597575  1
  Yb  Yb2  1  0.265151  0.750000  0.902425  1
  Yb  Yb3  1  0.734849  0.250000  0.097575  1
  Yb  Yb4  1  0.262755  0.024267  0.174796  1
  Yb  Yb5  1  0.737245  0.975733  0.825204  1
  Yb  Yb6  1  0.237245  0.975733  0.674796  1
  Yb  Yb7  1  0.737245  0.524267  0.825204  1
  Yb  Yb8  1  0.762755  0.024267  0.325204  1
  Yb  Yb9  1  0.262755  0.475733  0.174796  1
  Yb  Yb10  1  0.762755  0.475733  0.325204  1
  Yb  Yb11  1  0.237245  0.524267  0.674796  1
  Si  Si12  1  0.714423  0.250000  0.583585  1
  Si  Si13  1  0.285577  0.750000  0.416415  1
  Si  Si14  1  0.785577  0.750000  0.083585  1
  Si  Si15  1  0.214423  0.250000  0.916415  1
  O  O16  1  0.185564  0.561467  0.352687  1
  O  O17  1  0.814436  0.438533  0.647313  1
  O  O18  1  0.314436  0.438533  0.852687  1
  O  O19  1  0.814436  0.061468  0.647313  1
  O  O20  1  0.685564  0.561467  0.147313  1
  O  O21  1  0.185564  0.938533  0.352687  1
  O  O22  1  0.685564  0.938533  0.147313  1
  O  O23  1  0.314436  0.061468  0.852687  1
  O  O24  1  0.410580  0.250000  0.581329  1
  O  O25  1  0.589420  0.750000  0.418671  1
  O  O26  1  0.089420  0.750000  0.081329  1
  O  O27  1  0.910580  0.250000  0.918671  1
  O  O28  1  0.318834  0.250000  0.041657  1
  O  O29  1  0.681166  0.750000  0.958343  1
  O  O30  1  0.181166  0.750000  0.541657  1
  O  O31  1  0.818834  0.250000  0.458343  1
  O  O32  1  0.001540  0.250000  0.236285  1
  O  O33  1  0.998460  0.750000  0.763715  1
  O  O34  1  0.498460  0.750000  0.736285  1
  O  O35  1  0.501540  0.250000  0.263715  1
