# generated using pymatgen
data_La4DyTi3(P3Ir4)4
_symmetry_space_group_name_H-M   'P 1'
_cell_length_a   12.88065600
_cell_length_b   12.88065709
_cell_length_c   4.00256800
_cell_angle_alpha   90.00000000
_cell_angle_beta   90.00000000
_cell_angle_gamma   120.00000233
_symmetry_Int_Tables_number   1
_chemical_formula_structural   La4DyTi3(P3Ir4)4
_chemical_formula_sum   'La4 Dy1 Ti3 P12 Ir16'
_cell_volume   575.10261317
_cell_formula_units_Z   1
loop_
 _symmetry_equiv_pos_site_id
 _symmetry_equiv_pos_as_xyz
  1  'x, y, z'
loop_
 _atom_site_type_symbol
 _atom_site_label
 _atom_site_symmetry_multiplicity
 _atom_site_fract_x
 _atom_site_fract_y
 _atom_site_fract_z
 _atom_site_occupancy
  La  La0  1  0.333333  0.666667  0.500000  1
  La  La1  1  0.000663  0.812263  0.000000  1
  La  La2  1  0.187737  0.188400  0.000000  1
  La  La3  1  0.811600  0.999337  0.000000  1
  Dy  Dy4  1  0.666667  0.333333  0.500000  1
  Ti  Ti5  1  0.997981  0.444647  0.500000  1
  Ti  Ti6  1  0.555353  0.553334  0.500000  1
  Ti  Ti7  1  0.446666  0.002019  0.500000  1
  P  P8  1  0.001142  0.635601  0.500000  1
  P  P9  1  0.364399  0.365541  0.500000  1
  P  P10  1  0.634459  0.998858  0.500000  1
  P  P11  1  0.519139  0.683302  0.000000  1
  P  P12  1  0.316698  0.835838  0.000000  1
  P  P13  1  0.164162  0.480861  0.000000  1
  P  P14  1  0.484147  0.169361  0.000000  1
  P  P15  1  0.685215  0.515853  0.000000  1
  P  P16  1  0.830639  0.314785  0.000000  1
  P  P17  1  0.998683  0.180016  0.500000  1
  P  P18  1  0.819984  0.818667  0.500000  1
  P  P19  1  0.181333  0.001317  0.500000  1
  Ir  Ir20  1  0.513259  0.871354  0.000000  1
  Ir  Ir21  1  0.128646  0.641905  0.000000  1
  Ir  Ir22  1  0.358095  0.486741  0.000000  1
  Ir  Ir23  1  0.493047  0.357979  0.000000  1
  Ir  Ir24  1  0.864933  0.506953  0.000000  1
  Ir  Ir25  1  0.642021  0.135067  0.000000  1
  Ir  Ir26  1  0.998201  0.284988  0.000000  1
  Ir  Ir27  1  0.715012  0.713214  0.000000  1
  Ir  Ir28  1  0.286786  0.001799  0.000000  1
  Ir  Ir29  1  0.622779  0.799455  0.500000  1
  Ir  Ir30  1  0.200545  0.823324  0.500000  1
  Ir  Ir31  1  0.176676  0.377221  0.500000  1
  Ir  Ir32  1  0.378796  0.179734  0.500000  1
  Ir  Ir33  1  0.800937  0.621204  0.500000  1
  Ir  Ir34  1  0.820266  0.199063  0.500000  1
  Ir  Ir35  1  0.000000  0.000000  0.500000  1
