# generated using pymatgen
data_Dy4Y4Ti3Si16W9
_symmetry_space_group_name_H-M   'P 1'
_cell_length_a   6.91080383
_cell_length_b   6.91123165
_cell_length_c   12.83265425
_cell_angle_alpha   90.01618675
_cell_angle_beta   89.95373284
_cell_angle_gamma   89.90097082
_symmetry_Int_Tables_number   1
_chemical_formula_structural   Dy4Y4Ti3Si16W9
_chemical_formula_sum   'Dy4 Y4 Ti3 Si16 W9'
_cell_volume   612.91422394
_cell_formula_units_Z   1
loop_
 _symmetry_equiv_pos_site_id
 _symmetry_equiv_pos_as_xyz
  1  'x, y, z'
loop_
 _atom_site_type_symbol
 _atom_site_label
 _atom_site_symmetry_multiplicity
 _atom_site_fract_x
 _atom_site_fract_y
 _atom_site_fract_z
 _atom_site_occupancy
  Dy  Dy0  1  0.838179  0.500722  0.282444  1
  Dy  Dy1  1  0.502881  0.161897  0.219305  1
  Dy  Dy2  1  0.500590  0.838032  0.717487  1
  Dy  Dy3  1  0.339592  0.000732  0.468688  1
  Y  Y4  1  0.998301  0.660995  0.031546  1
  Y  Y5  1  0.000982  0.339562  0.531182  1
  Y  Y6  1  0.660938  0.998114  0.968632  1
  Y  Y7  1  0.162204  0.503022  0.780761  1
  Ti  Ti8  1  0.829328  0.168095  0.748470  1
  Ti  Ti9  1  0.168256  0.829536  0.251581  1
  Ti  Ti10  1  0.331103  0.331137  0.000115  1
  Si  Si11  1  0.036820  0.711462  0.437602  1
  Si  Si12  1  0.959254  0.290094  0.936142  1
  Si  Si13  1  0.711048  0.036543  0.562223  1
  Si  Si14  1  0.208664  0.460683  0.186316  1
  Si  Si15  1  0.790190  0.540795  0.685915  1
  Si  Si16  1  0.460374  0.208565  0.813731  1
  Si  Si17  1  0.540148  0.790553  0.314108  1
  Si  Si18  1  0.290139  0.959243  0.064165  1
  Si  Si19  1  0.800090  0.871321  0.183544  1
  Si  Si20  1  0.302055  0.626485  0.566357  1
  Si  Si21  1  0.700961  0.371511  0.066448  1
  Si  Si22  1  0.626127  0.301705  0.433586  1
  Si  Si23  1  0.371600  0.701007  0.933641  1
  Si  Si24  1  0.127829  0.202510  0.315854  1
  Si  Si25  1  0.203176  0.127457  0.684103  1
  Si  Si26  1  0.871081  0.799811  0.816508  1
  W  W27  1  0.334263  0.505942  0.374736  1
  W  W28  1  0.841364  0.997154  0.373282  1
  W  W29  1  0.006336  0.160620  0.125770  1
  W  W30  1  0.997389  0.841414  0.626510  1
  W  W31  1  0.506024  0.334286  0.624986  1
  W  W32  1  0.160800  0.006325  0.874290  1
  W  W33  1  0.667854  0.668398  0.499963  1
  W  W34  1  0.493951  0.660146  0.124995  1
  W  W35  1  0.660113  0.494128  0.875013  1
