# generated using pymatgen
data_Nb12Ga9Co3N4
_symmetry_space_group_name_H-M   'P 1'
_cell_length_a   8.22152706
_cell_length_b   8.23607011
_cell_length_c   8.22874005
_cell_angle_alpha   60.02741328
_cell_angle_beta   59.97976311
_cell_angle_gamma   60.02112707
_symmetry_Int_Tables_number   1
_chemical_formula_structural   Nb12Ga9Co3N4
_chemical_formula_sum   'Nb12 Ga9 Co3 N4'
_cell_volume   394.07925643
_cell_formula_units_Z   1
loop_
 _symmetry_equiv_pos_site_id
 _symmetry_equiv_pos_as_xyz
  1  'x, y, z'
loop_
 _atom_site_type_symbol
 _atom_site_label
 _atom_site_symmetry_multiplicity
 _atom_site_fract_x
 _atom_site_fract_y
 _atom_site_fract_z
 _atom_site_occupancy
  Nb  Nb0  1  0.816074  0.811815  0.186054  1
  Nb  Nb1  1  0.188954  0.197389  0.806803  1
  Nb  Nb2  1  0.816078  0.186071  0.810956  1
  Nb  Nb3  1  0.188289  0.807249  0.197302  1
  Nb  Nb4  1  0.188326  0.807233  0.807102  1
  Nb  Nb5  1  0.816089  0.186037  0.186857  1
  Nb  Nb6  1  0.433926  0.438185  0.063946  1
  Nb  Nb7  1  0.061046  0.052611  0.443197  1
  Nb  Nb8  1  0.433922  0.063929  0.439044  1
  Nb  Nb9  1  0.061711  0.442751  0.052698  1
  Nb  Nb10  1  0.061674  0.442767  0.442898  1
  Nb  Nb11  1  0.433911  0.063963  0.063143  1
  Ga  Ga12  1  0.125000  0.625000  0.625000  1
  Ga  Ga13  1  0.757930  0.414594  0.413762  1
  Ga  Ga14  1  0.433096  0.753666  0.406637  1
  Ga  Ga15  1  0.433128  0.407496  0.752318  1
  Ga  Ga16  1  0.433075  0.407443  0.407049  1
  Ga  Ga17  1  0.492070  0.835406  0.836238  1
  Ga  Ga18  1  0.816904  0.496334  0.843363  1
  Ga  Ga19  1  0.816872  0.842504  0.497682  1
  Ga  Ga20  1  0.816925  0.842557  0.842951  1
  Co  Co21  1  0.625000  0.125000  0.625000  1
  Co  Co22  1  0.625000  0.625000  0.125000  1
  Co  Co23  1  0.625000  0.625000  0.625000  1
  N  N24  1  0.625000  0.125000  0.125000  1
  N  N25  1  0.125000  0.625000  0.125000  1
  N  N26  1  0.125000  0.125000  0.625000  1
  N  N27  1  0.125000  0.125000  0.125000  1
