# generated using pymatgen
data_Y10In8Pd3Rh
_symmetry_space_group_name_H-M   'P 1'
_cell_length_a   3.64197300
_cell_length_b   8.15019669
_cell_length_c   18.35737656
_cell_angle_alpha   90.04721493
_cell_angle_beta   90.00000000
_cell_angle_gamma   90.00000000
_symmetry_Int_Tables_number   1
_chemical_formula_structural   Y10In8Pd3Rh
_chemical_formula_sum   'Y10 In8 Pd3 Rh1'
_cell_volume   544.89808390
_cell_formula_units_Z   1
loop_
 _symmetry_equiv_pos_site_id
 _symmetry_equiv_pos_as_xyz
  1  'x, y, z'
loop_
 _atom_site_type_symbol
 _atom_site_label
 _atom_site_symmetry_multiplicity
 _atom_site_fract_x
 _atom_site_fract_y
 _atom_site_fract_z
 _atom_site_occupancy
  Y  Y0  1  0.500000  0.233254  0.778819  1
  Y  Y1  1  0.500000  0.759828  0.218935  1
  Y  Y2  1  0.500000  0.259244  0.280776  1
  Y  Y3  1  0.500000  0.752352  0.719160  1
  Y  Y4  1  0.500000  0.115806  0.586199  1
  Y  Y5  1  0.500000  0.881400  0.417285  1
  Y  Y6  1  0.500000  0.381328  0.082806  1
  Y  Y7  1  0.500000  0.618667  0.916051  1
  Y  Y8  1  0.500000  0.000150  0.999806  1
  Y  Y9  1  0.500000  0.499933  0.500413  1
  In  In10  1  0.000000  0.079211  0.150710  1
  In  In11  1  0.000000  0.922392  0.849058  1
  In  In12  1  0.000000  0.421384  0.650870  1
  In  In13  1  0.000000  0.579264  0.349200  1
  In  In14  1  0.000000  0.207482  0.432472  1
  In  In15  1  0.000000  0.792469  0.568640  1
  In  In16  1  0.000000  0.292509  0.931740  1
  In  In17  1  0.000000  0.707430  0.067859  1
  Pd  Pd18  1  0.000000  0.975071  0.304264  1
  Pd  Pd19  1  0.000000  0.475176  0.195876  1
  Pd  Pd20  1  0.000000  0.522984  0.803927  1
  Rh  Rh21  1  0.000000  0.022666  0.695134  1
