# generated using pymatgen
data_Ta12V11NiN4
_symmetry_space_group_name_H-M   'P 1'
_cell_length_a   8.22689502
_cell_length_b   8.21113889
_cell_length_c   8.21112100
_cell_angle_alpha   60.00001970
_cell_angle_beta   60.06345012
_cell_angle_gamma   60.06347677
_symmetry_Int_Tables_number   1
_chemical_formula_structural   Ta12V11NiN4
_chemical_formula_sum   'Ta12 V11 Ni1 N4'
_cell_volume   392.59322816
_cell_formula_units_Z   1
loop_
 _symmetry_equiv_pos_site_id
 _symmetry_equiv_pos_as_xyz
  1  'x, y, z'
loop_
 _atom_site_type_symbol
 _atom_site_label
 _atom_site_symmetry_multiplicity
 _atom_site_fract_x
 _atom_site_fract_y
 _atom_site_fract_z
 _atom_site_occupancy
  Ta  Ta0  1  0.810076  0.811772  0.189073  1
  Ta  Ta1  1  0.190573  0.190702  0.809360  1
  Ta  Ta2  1  0.810063  0.189079  0.811769  1
  Ta  Ta3  1  0.190574  0.809356  0.190702  1
  Ta  Ta4  1  0.190573  0.809357  0.809366  1
  Ta  Ta5  1  0.810061  0.189083  0.189086  1
  Ta  Ta6  1  0.439331  0.441121  0.059778  1
  Ta  Ta7  1  0.061392  0.058045  0.440283  1
  Ta  Ta8  1  0.439348  0.059770  0.441138  1
  Ta  Ta9  1  0.061390  0.440285  0.058045  1
  Ta  Ta10  1  0.061389  0.440288  0.440286  1
  Ta  Ta11  1  0.439351  0.059763  0.059745  1
  V  V12  1  0.121604  0.626127  0.626136  1
  V  V13  1  0.628094  0.129371  0.621268  1
  V  V14  1  0.628088  0.621277  0.129360  1
  V  V15  1  0.628092  0.621275  0.621273  1
  V  V16  1  0.420245  0.743742  0.418008  1
  V  V17  1  0.420246  0.418024  0.743736  1
  V  V18  1  0.420250  0.418025  0.417998  1
  V  V19  1  0.504531  0.831806  0.831831  1
  V  V20  1  0.827911  0.505810  0.833138  1
  V  V21  1  0.827918  0.833109  0.505830  1
  V  V22  1  0.827913  0.833108  0.833140  1
  Ni  Ni23  1  0.747081  0.417692  0.417616  1
  N  N24  1  0.626784  0.124401  0.124408  1
  N  N25  1  0.122374  0.625158  0.126234  1
  N  N26  1  0.122374  0.126227  0.625163  1
  N  N27  1  0.122375  0.126226  0.126234  1
