# generated using pymatgen
data_LiPr16Mg(InRh2)2
_symmetry_space_group_name_H-M   'P 1'
_cell_length_a   10.06904703
_cell_length_b   10.06503805
_cell_length_c   10.06496162
_cell_angle_alpha   59.87735573
_cell_angle_beta   59.96847428
_cell_angle_gamma   59.97030922
_symmetry_Int_Tables_number   1
_chemical_formula_structural   LiPr16Mg(InRh2)2
_chemical_formula_sum   'Li1 Pr16 Mg1 In2 Rh4'
_cell_volume   720.27120221
_cell_formula_units_Z   1
loop_
 _symmetry_equiv_pos_site_id
 _symmetry_equiv_pos_as_xyz
  1  'x, y, z'
loop_
 _atom_site_type_symbol
 _atom_site_label
 _atom_site_symmetry_multiplicity
 _atom_site_fract_x
 _atom_site_fract_y
 _atom_site_fract_z
 _atom_site_occupancy
  Li  Li0  1  0.577108  0.571893  0.571694  1
  Pr  Pr1  1  0.348747  0.347806  0.347743  1
  Pr  Pr2  1  0.348723  0.347120  0.957679  1
  Pr  Pr3  1  0.348711  0.957503  0.347100  1
  Pr  Pr4  1  0.954183  0.348666  0.348806  1
  Pr  Pr5  1  0.806263  0.193882  0.193735  1
  Pr  Pr6  1  0.183019  0.814631  0.814492  1
  Pr  Pr7  1  0.189944  0.810438  0.190150  1
  Pr  Pr8  1  0.808670  0.188764  0.810579  1
  Pr  Pr9  1  0.189889  0.190125  0.810467  1
  Pr  Pr10  1  0.808869  0.810591  0.188543  1
  Pr  Pr11  1  0.938667  0.562290  0.562306  1
  Pr  Pr12  1  0.560463  0.939135  0.938801  1
  Pr  Pr13  1  0.561779  0.937957  0.563030  1
  Pr  Pr14  1  0.940124  0.559946  0.938315  1
  Pr  Pr15  1  0.562117  0.563477  0.937796  1
  Pr  Pr16  1  0.940078  0.938025  0.559875  1
  Mg  Mg17  1  0.271586  0.575557  0.575543  1
  In  In18  1  0.580457  0.581987  0.257943  1
  In  In19  1  0.580323  0.257607  0.582373  1
  Rh  Rh20  1  0.141504  0.142790  0.143093  1
  Rh  Rh21  1  0.142013  0.142469  0.574886  1
  Rh  Rh22  1  0.141935  0.574907  0.142442  1
  Rh  Rh23  1  0.574832  0.142437  0.142609  1
