# generated using pymatgen
data_Hf9Re3WS
_symmetry_space_group_name_H-M   'P 1'
_cell_length_a   8.68843205
_cell_length_b   8.68843156
_cell_length_c   8.54744085
_cell_angle_alpha   90.09775334
_cell_angle_beta   89.90223978
_cell_angle_gamma   121.44131129
_symmetry_Int_Tables_number   1
_chemical_formula_structural   Hf9Re3WS
_chemical_formula_sum   'Hf18 Re6 W2 S2'
_cell_volume   550.49850810
_cell_formula_units_Z   2
loop_
 _symmetry_equiv_pos_site_id
 _symmetry_equiv_pos_as_xyz
  1  'x, y, z'
loop_
 _atom_site_type_symbol
 _atom_site_label
 _atom_site_symmetry_multiplicity
 _atom_site_fract_x
 _atom_site_fract_y
 _atom_site_fract_z
 _atom_site_occupancy
  Hf  Hf0  1  0.193728  0.806272  0.450509  1
  Hf  Hf1  1  0.201652  0.394386  0.443516  1
  Hf  Hf2  1  0.605614  0.798348  0.443516  1
  Hf  Hf3  1  0.806185  0.193815  0.547666  1
  Hf  Hf4  1  0.798600  0.606403  0.555109  1
  Hf  Hf5  1  0.393597  0.201400  0.555109  1
  Hf  Hf6  1  0.807886  0.192114  0.951466  1
  Hf  Hf7  1  0.800305  0.608836  0.944815  1
  Hf  Hf8  1  0.391164  0.199695  0.944815  1
  Hf  Hf9  1  0.192371  0.807629  0.050437  1
  Hf  Hf10  1  0.199946  0.391383  0.056826  1
  Hf  Hf11  1  0.608617  0.800054  0.056826  1
  Hf  Hf12  1  0.552149  0.447851  0.248665  1
  Hf  Hf13  1  0.543265  0.083451  0.249074  1
  Hf  Hf14  1  0.916549  0.456735  0.249074  1
  Hf  Hf15  1  0.448528  0.551472  0.751464  1
  Hf  Hf16  1  0.457721  0.916350  0.751043  1
  Hf  Hf17  1  0.083650  0.542279  0.751043  1
  Re  Re18  1  0.890489  0.109511  0.250091  1
  Re  Re19  1  0.888989  0.776212  0.250441  1
  Re  Re20  1  0.223788  0.111011  0.250441  1
  Re  Re21  1  0.111263  0.223977  0.749336  1
  Re  Re22  1  0.776023  0.888737  0.749336  1
  Re  Re23  1  0.999376  0.000624  0.000323  1
  W  W24  1  0.108651  0.891349  0.750048  1
  W  W25  1  0.999394  0.000606  0.499011  1
  S  S26  1  0.321514  0.678486  0.248774  1
  S  S27  1  0.678985  0.321015  0.751226  1
