# generated using pymatgen
data_K2Cd3Ag
_symmetry_space_group_name_H-M   'P 1'
_cell_length_a   6.41811500
_cell_length_b   6.41811557
_cell_length_c   9.95911600
_cell_angle_alpha   90.00000000
_cell_angle_beta   90.00000000
_cell_angle_gamma   120.00000223
_symmetry_Int_Tables_number   1
_chemical_formula_structural   K2Cd3Ag
_chemical_formula_sum   'K4 Cd6 Ag2'
_cell_volume   355.27646604
_cell_formula_units_Z   2
loop_
 _symmetry_equiv_pos_site_id
 _symmetry_equiv_pos_as_xyz
  1  'x, y, z'
loop_
 _atom_site_type_symbol
 _atom_site_label
 _atom_site_symmetry_multiplicity
 _atom_site_fract_x
 _atom_site_fract_y
 _atom_site_fract_z
 _atom_site_occupancy
  K  K0  1  0.333333  0.666667  0.058633  1
  K  K1  1  0.666667  0.333333  0.558633  1
  K  K2  1  0.666667  0.333333  0.941367  1
  K  K3  1  0.333333  0.666667  0.441367  1
  Cd  Cd4  1  0.837972  0.675944  0.250000  1
  Cd  Cd5  1  0.162028  0.837972  0.750000  1
  Cd  Cd6  1  0.675944  0.837972  0.750000  1
  Cd  Cd7  1  0.324056  0.162028  0.250000  1
  Cd  Cd8  1  0.837972  0.162028  0.250000  1
  Cd  Cd9  1  0.162028  0.324056  0.750000  1
  Ag  Ag10  1  0.000000  0.000000  0.000000  1
  Ag  Ag11  1  0.000000  0.000000  0.500000  1
