# generated using pymatgen
data_Er6Th2MgCo2Hg
_symmetry_space_group_name_H-M   'P 1'
_cell_length_a   9.52607428
_cell_length_b   9.52607474
_cell_length_c   9.54657000
_cell_angle_alpha   59.92881064
_cell_angle_beta   59.92880905
_cell_angle_gamma   60.07257213
_symmetry_Int_Tables_number   1
_chemical_formula_structural   Er6Th2MgCo2Hg
_chemical_formula_sum   'Er12 Th4 Mg2 Co4 Hg2'
_cell_volume   612.25066936
_cell_formula_units_Z   2
loop_
 _symmetry_equiv_pos_site_id
 _symmetry_equiv_pos_as_xyz
  1  'x, y, z'
loop_
 _atom_site_type_symbol
 _atom_site_label
 _atom_site_symmetry_multiplicity
 _atom_site_fract_x
 _atom_site_fract_y
 _atom_site_fract_z
 _atom_site_occupancy
  Er  Er0  1  0.063543  0.435458  0.437193  1
  Er  Er1  1  0.435458  0.063543  0.063806  1
  Er  Er2  1  0.435458  0.063543  0.437193  1
  Er  Er3  1  0.063543  0.435458  0.063806  1
  Er  Er4  1  0.436764  0.436764  0.063236  1
  Er  Er5  1  0.062264  0.062264  0.437736  1
  Er  Er6  1  0.184635  0.813910  0.814654  1
  Er  Er7  1  0.813910  0.184635  0.186800  1
  Er  Er8  1  0.813910  0.184635  0.814654  1
  Er  Er9  1  0.184635  0.813910  0.186800  1
  Er  Er10  1  0.813993  0.813993  0.186007  1
  Er  Er11  1  0.184868  0.184868  0.815132  1
  Th  Th12  1  0.595392  0.595392  0.595827  1
  Th  Th13  1  0.595392  0.595392  0.213390  1
  Th  Th14  1  0.597547  0.209576  0.596439  1
  Th  Th15  1  0.209576  0.597547  0.596439  1
  Mg  Mg16  1  0.829928  0.517069  0.826502  1
  Mg  Mg17  1  0.517069  0.829928  0.826502  1
  Co  Co18  1  0.393824  0.393824  0.395243  1
  Co  Co19  1  0.393824  0.393824  0.817108  1
  Co  Co20  1  0.393184  0.815628  0.395594  1
  Co  Co21  1  0.815628  0.393184  0.395594  1
  Hg  Hg22  1  0.832828  0.832828  0.838798  1
  Hg  Hg23  1  0.832828  0.832828  0.495548  1
