# generated using pymatgen
data_K4SrTeO6
_symmetry_space_group_name_H-M   'P 1'
_cell_length_a   6.27930514
_cell_length_b   6.27930529
_cell_length_c   6.50104946
_cell_angle_alpha   99.76867541
_cell_angle_beta   99.76868412
_cell_angle_gamma   119.63590092
_symmetry_Int_Tables_number   1
_chemical_formula_structural   K4SrTeO6
_chemical_formula_sum   'K4 Sr1 Te1 O6'
_cell_volume   209.73029075
_cell_formula_units_Z   1
loop_
 _symmetry_equiv_pos_site_id
 _symmetry_equiv_pos_as_xyz
  1  'x, y, z'
loop_
 _atom_site_type_symbol
 _atom_site_label
 _atom_site_symmetry_multiplicity
 _atom_site_fract_x
 _atom_site_fract_y
 _atom_site_fract_z
 _atom_site_occupancy
  K  K0  1  0.499951  0.500048  0.000000  1
  K  K1  1  0.006524  0.993476  0.500000  1
  K  K2  1  0.657977  0.342023  0.500000  1
  K  K3  1  0.334549  0.665451  0.500000  1
  Sr  Sr4  1  0.833360  0.166640  0.000000  1
  Te  Te5  1  0.167196  0.832803  0.000000  1
  O  O6  1  0.213563  0.150011  0.189006  1
  O  O7  1  0.500236  0.913985  0.191397  1
  O  O8  1  0.979940  0.629324  0.185605  1
  O  O9  1  0.370676  0.020060  0.814394  1
  O  O10  1  0.086015  0.499764  0.808603  1
  O  O11  1  0.849988  0.786437  0.810993  1
