# generated using pymatgen
data_Pr3Sm3Mg2(Co4P3)4
_symmetry_space_group_name_H-M   'P 1'
_cell_length_a   3.79134700
_cell_length_b   10.75949586
_cell_length_c   12.47848300
_cell_angle_alpha   89.95415327
_cell_angle_beta   90.00000000
_cell_angle_gamma   90.00000000
_symmetry_Int_Tables_number   1
_chemical_formula_structural   Pr3Sm3Mg2(Co4P3)4
_chemical_formula_sum   'Pr3 Sm3 Mg2 Co16 P12'
_cell_volume   509.03437382
_cell_formula_units_Z   1
loop_
 _symmetry_equiv_pos_site_id
 _symmetry_equiv_pos_as_xyz
  1  'x, y, z'
loop_
 _atom_site_type_symbol
 _atom_site_label
 _atom_site_symmetry_multiplicity
 _atom_site_fract_x
 _atom_site_fract_y
 _atom_site_fract_z
 _atom_site_occupancy
  Pr  Pr0  1  0.000000  0.500350  0.525728  1
  Pr  Pr1  1  0.500000  0.999682  0.473589  1
  Pr  Pr2  1  0.000000  0.321300  0.793586  1
  Sm  Sm3  1  0.500000  0.820902  0.206311  1
  Sm  Sm4  1  0.500000  0.178787  0.205752  1
  Sm  Sm5  1  0.000000  0.679755  0.794137  1
  Mg  Mg6  1  0.500000  0.500129  0.153322  1
  Mg  Mg7  1  0.000000  0.999580  0.846819  1
  Co  Co8  1  0.500000  0.502762  0.707591  1
  Co  Co9  1  0.000000  0.999754  0.292217  1
  Co  Co10  1  0.000000  0.500946  0.989618  1
  Co  Co11  1  0.500000  0.998994  0.012263  1
  Co  Co12  1  0.500000  0.332792  0.997737  1
  Co  Co13  1  0.500000  0.668270  0.997318  1
  Co  Co14  1  0.000000  0.166549  0.004506  1
  Co  Co15  1  0.000000  0.832653  0.003685  1
  Co  Co16  1  0.500000  0.296484  0.429829  1
  Co  Co17  1  0.500000  0.703637  0.430996  1
  Co  Co18  1  0.000000  0.202697  0.567171  1
  Co  Co19  1  0.000000  0.796657  0.568714  1
  Co  Co20  1  0.500000  0.879087  0.707242  1
  Co  Co21  1  0.500000  0.119011  0.705409  1
  Co  Co22  1  0.000000  0.620518  0.292970  1
  Co  Co23  1  0.000000  0.379504  0.292661  1
  P  P24  1  0.500000  0.501807  0.888479  1
  P  P25  1  0.000000  0.999384  0.113191  1
  P  P26  1  0.500000  0.500058  0.350106  1
  P  P27  1  0.000000  0.999846  0.649507  1
  P  P28  1  0.500000  0.303092  0.612170  1
  P  P29  1  0.500000  0.696089  0.614652  1
  P  P30  1  0.000000  0.195383  0.384356  1
  P  P31  1  0.000000  0.804111  0.385281  1
  P  P32  1  0.500000  0.840537  0.896112  1
  P  P33  1  0.500000  0.158392  0.898207  1
  P  P34  1  0.000000  0.660051  0.104575  1
  P  P35  1  0.000000  0.340449  0.104194  1
