# generated using pymatgen
data_TbY(Ho2Rh9)2
_symmetry_space_group_name_H-M   'P 1'
_cell_length_a   5.26242704
_cell_length_b   5.26390921
_cell_length_c   17.57340900
_cell_angle_alpha   90.00000000
_cell_angle_beta   90.00000000
_cell_angle_gamma   120.00393336
_symmetry_Int_Tables_number   1
_chemical_formula_structural   TbY(Ho2Rh9)2
_chemical_formula_sum   'Tb1 Y1 Ho4 Rh18'
_cell_volume   421.56438341
_cell_formula_units_Z   1
loop_
 _symmetry_equiv_pos_site_id
 _symmetry_equiv_pos_as_xyz
  1  'x, y, z'
loop_
 _atom_site_type_symbol
 _atom_site_label
 _atom_site_symmetry_multiplicity
 _atom_site_fract_x
 _atom_site_fract_y
 _atom_site_fract_z
 _atom_site_occupancy
  Tb  Tb0  1  0.333330  0.666664  0.750000  1
  Y  Y1  1  0.666667  0.333331  0.250000  1
  Ho  Ho2  1  0.333336  0.666670  0.958106  1
  Ho  Ho3  1  0.666667  0.333333  0.041897  1
  Ho  Ho4  1  0.666667  0.333333  0.458103  1
  Ho  Ho5  1  0.333336  0.666670  0.541894  1
  Rh  Rh6  1  0.167370  0.832616  0.374492  1
  Rh  Rh7  1  0.167369  0.334744  0.374489  1
  Rh  Rh8  1  0.665235  0.832614  0.374496  1
  Rh  Rh9  1  0.832675  0.167324  0.625483  1
  Rh  Rh10  1  0.832674  0.665347  0.625483  1
  Rh  Rh11  1  0.334651  0.167325  0.625479  1
  Rh  Rh12  1  0.832675  0.167324  0.874517  1
  Rh  Rh13  1  0.832674  0.665347  0.874517  1
  Rh  Rh14  1  0.334651  0.167325  0.874521  1
  Rh  Rh15  1  0.167370  0.832616  0.125508  1
  Rh  Rh16  1  0.167369  0.334744  0.125511  1
  Rh  Rh17  1  0.665235  0.832614  0.125504  1
  Rh  Rh18  1  0.333289  0.666624  0.250000  1
  Rh  Rh19  1  0.666671  0.333335  0.750000  1
  Rh  Rh20  1  0.000054  0.000054  0.250000  1
  Rh  Rh21  1  0.999994  0.000000  0.750000  1
  Rh  Rh22  1  0.000020  0.000023  0.500027  1
  Rh  Rh23  1  0.000020  0.000023  0.999973  1
