# generated using pymatgen
data_Sc18AlRe7P2
_symmetry_space_group_name_H-M   'P 1'
_cell_length_a   8.61467900
_cell_length_b   8.61467977
_cell_length_c   8.65148300
_cell_angle_alpha   90.00000000
_cell_angle_beta   90.00000000
_cell_angle_gamma   119.62552026
_symmetry_Int_Tables_number   1
_chemical_formula_structural   Sc18AlRe7P2
_chemical_formula_sum   'Sc18 Al1 Re7 P2'
_cell_volume   558.11783879
_cell_formula_units_Z   1
loop_
 _symmetry_equiv_pos_site_id
 _symmetry_equiv_pos_as_xyz
  1  'x, y, z'
loop_
 _atom_site_type_symbol
 _atom_site_label
 _atom_site_symmetry_multiplicity
 _atom_site_fract_x
 _atom_site_fract_y
 _atom_site_fract_z
 _atom_site_occupancy
  Sc  Sc0  1  0.197288  0.802712  0.449818  1
  Sc  Sc1  1  0.200818  0.396301  0.455404  1
  Sc  Sc2  1  0.603699  0.799182  0.455404  1
  Sc  Sc3  1  0.804552  0.195448  0.560241  1
  Sc  Sc4  1  0.800722  0.602266  0.545643  1
  Sc  Sc5  1  0.397734  0.199278  0.545643  1
  Sc  Sc6  1  0.804552  0.195448  0.939759  1
  Sc  Sc7  1  0.800722  0.602266  0.954357  1
  Sc  Sc8  1  0.397734  0.199278  0.954357  1
  Sc  Sc9  1  0.197288  0.802712  0.050182  1
  Sc  Sc10  1  0.200818  0.396301  0.044596  1
  Sc  Sc11  1  0.603699  0.799182  0.044596  1
  Sc  Sc12  1  0.536429  0.463571  0.250000  1
  Sc  Sc13  1  0.529258  0.081929  0.250000  1
  Sc  Sc14  1  0.918071  0.470742  0.250000  1
  Sc  Sc15  1  0.463527  0.536473  0.750000  1
  Sc  Sc16  1  0.461942  0.920699  0.750000  1
  Sc  Sc17  1  0.079301  0.538058  0.750000  1
  Al  Al18  1  0.893205  0.106795  0.250000  1
  Re  Re19  1  0.890268  0.787139  0.250000  1
  Re  Re20  1  0.212861  0.109732  0.250000  1
  Re  Re21  1  0.106149  0.893851  0.750000  1
  Re  Re22  1  0.109496  0.218734  0.750000  1
  Re  Re23  1  0.781266  0.890504  0.750000  1
  Re  Re24  1  0.004768  0.995232  0.502958  1
  Re  Re25  1  0.004768  0.995232  0.997042  1
  P  P26  1  0.333804  0.666196  0.250000  1
  P  P27  1  0.665260  0.334740  0.750000  1
