# generated using pymatgen
data_Er3Lu(As4O9)2
_symmetry_space_group_name_H-M   'P 1'
_cell_length_a   6.67759802
_cell_length_b   7.48503216
_cell_length_c   9.78970792
_cell_angle_alpha   94.60104595
_cell_angle_beta   104.13947462
_cell_angle_gamma   104.82229585
_symmetry_Int_Tables_number   1
_chemical_formula_structural   Er3Lu(As4O9)2
_chemical_formula_sum   'Er3 Lu1 As8 O18'
_cell_volume   453.34998521
_cell_formula_units_Z   1
loop_
 _symmetry_equiv_pos_site_id
 _symmetry_equiv_pos_as_xyz
  1  'x, y, z'
loop_
 _atom_site_type_symbol
 _atom_site_label
 _atom_site_symmetry_multiplicity
 _atom_site_fract_x
 _atom_site_fract_y
 _atom_site_fract_z
 _atom_site_occupancy
  Er  Er0  1  0.242040  0.939813  0.614500  1
  Er  Er1  1  0.758963  0.061378  0.385240  1
  Er  Er2  1  0.721407  0.529501  0.411273  1
  Lu  Lu3  1  0.279333  0.472726  0.590094  1
  As  As4  1  0.684067  0.774071  0.080345  1
  As  As5  1  0.315854  0.227277  0.918272  1
  As  As6  1  0.168931  0.751195  0.911741  1
  As  As7  1  0.831153  0.248708  0.087293  1
  As  As8  1  0.741229  0.913753  0.709917  1
  As  As9  1  0.257857  0.084875  0.290069  1
  As  As10  1  0.810099  0.351574  0.701767  1
  As  As11  1  0.189541  0.647667  0.299060  1
  O  O12  1  0.722054  0.748262  0.261158  1
  O  O13  1  0.278714  0.254695  0.737714  1
  O  O14  1  0.314900  0.978372  0.866423  1
  O  O15  1  0.684651  0.022198  0.132425  1
  O  O16  1  0.608327  0.326952  0.985432  1
  O  O17  1  0.391539  0.673463  0.014392  1
  O  O18  1  0.124706  0.641757  0.737442  1
  O  O19  1  0.876192  0.357110  0.262028  1
  O  O20  1  0.847963  0.876931  0.560127  1
  O  O21  1  0.152110  0.122971  0.440038  1
  O  O22  1  0.477966  0.764813  0.664993  1
  O  O23  1  0.521361  0.233113  0.334288  1
  O  O24  1  0.370854  0.529922  0.382573  1
  O  O25  1  0.625049  0.467111  0.619676  1
  O  O26  1  0.089738  0.670238  0.455385  1
  O  O27  1  0.913414  0.330623  0.546354  1
  O  O28  1  0.381086  0.899145  0.358531  1
  O  O29  1  0.618902  0.099786  0.641452  1
