# generated using pymatgen
data_Zr6V4Si6N
_symmetry_space_group_name_H-M   'P 1'
_cell_length_a   7.69523800
_cell_length_b   7.69523848
_cell_length_c   5.17489600
_cell_angle_alpha   90.00000000
_cell_angle_beta   90.00000000
_cell_angle_gamma   120.00001512
_symmetry_Int_Tables_number   1
_chemical_formula_structural   Zr6V4Si6N
_chemical_formula_sum   'Zr6 V4 Si6 N1'
_cell_volume   265.38497526
_cell_formula_units_Z   1
loop_
 _symmetry_equiv_pos_site_id
 _symmetry_equiv_pos_as_xyz
  1  'x, y, z'
loop_
 _atom_site_type_symbol
 _atom_site_label
 _atom_site_symmetry_multiplicity
 _atom_site_fract_x
 _atom_site_fract_y
 _atom_site_fract_z
 _atom_site_occupancy
  Zr  Zr0  1  0.000000  0.755915  0.253888  1
  Zr  Zr1  1  0.244085  0.244085  0.253888  1
  Zr  Zr2  1  0.755915  0.000000  0.253888  1
  Zr  Zr3  1  0.000000  0.244085  0.746112  1
  Zr  Zr4  1  0.755915  0.755915  0.746112  1
  Zr  Zr5  1  0.244085  0.000000  0.746112  1
  V  V6  1  0.333333  0.666667  0.500000  1
  V  V7  1  0.666667  0.333333  0.500000  1
  V  V8  1  0.666667  0.333333  0.000000  1
  V  V9  1  0.333333  0.666667  0.000000  1
  Si  Si10  1  0.000000  0.407013  0.242153  1
  Si  Si11  1  0.592987  0.592987  0.242153  1
  Si  Si12  1  0.407013  0.000000  0.242153  1
  Si  Si13  1  0.000000  0.592987  0.757847  1
  Si  Si14  1  0.407013  0.407013  0.757847  1
  Si  Si15  1  0.592987  0.000000  0.757847  1
  N  N16  1  0.000000  0.000000  0.500000  1
