# generated using pymatgen
data_La6AlSn7Hg2
_symmetry_space_group_name_H-M   'P 1'
_cell_length_a   6.69793652
_cell_length_b   6.69793569
_cell_length_c   10.55552352
_cell_angle_alpha   90.08617679
_cell_angle_beta   90.08617642
_cell_angle_gamma   102.54404518
_symmetry_Int_Tables_number   1
_chemical_formula_structural   La6AlSn7Hg2
_chemical_formula_sum   'La6 Al1 Sn7 Hg2'
_cell_volume   462.24038688
_cell_formula_units_Z   1
loop_
 _symmetry_equiv_pos_site_id
 _symmetry_equiv_pos_as_xyz
  1  'x, y, z'
loop_
 _atom_site_type_symbol
 _atom_site_label
 _atom_site_symmetry_multiplicity
 _atom_site_fract_x
 _atom_site_fract_y
 _atom_site_fract_z
 _atom_site_occupancy
  La  La0  1  0.631371  0.631371  0.250569  1
  La  La1  1  0.368749  0.368749  0.749644  1
  La  La2  1  0.204735  0.798524  0.499371  1
  La  La3  1  0.204899  0.796182  0.998489  1
  La  La4  1  0.798524  0.204735  0.499371  1
  La  La5  1  0.796182  0.204899  0.998489  1
  Al  Al6  1  0.302022  0.302022  0.054748  1
  Sn  Sn7  1  0.022870  0.022870  0.243140  1
  Sn  Sn8  1  0.979833  0.979833  0.751385  1
  Sn  Sn9  1  0.692353  0.692353  0.548215  1
  Sn  Sn10  1  0.489657  0.080465  0.244153  1
  Sn  Sn11  1  0.927330  0.509702  0.751740  1
  Sn  Sn12  1  0.509702  0.927330  0.751740  1
  Sn  Sn13  1  0.080465  0.489657  0.244153  1
  Hg  Hg14  1  0.684832  0.684832  0.958890  1
  Hg  Hg15  1  0.306475  0.306475  0.455905  1
