# generated using pymatgen
data_Dy15Lu5(Bi2Te)4
_symmetry_space_group_name_H-M   'P 1'
_cell_length_a   8.15927434
_cell_length_b   9.37902210
_cell_length_c   11.89635038
_cell_angle_alpha   90.00360040
_cell_angle_beta   90.02886239
_cell_angle_gamma   90.01630559
_symmetry_Int_Tables_number   1
_chemical_formula_structural   Dy15Lu5(Bi2Te)4
_chemical_formula_sum   'Dy15 Lu5 Bi8 Te4'
_cell_volume   910.38012614
_cell_formula_units_Z   1
loop_
 _symmetry_equiv_pos_site_id
 _symmetry_equiv_pos_as_xyz
  1  'x, y, z'
loop_
 _atom_site_type_symbol
 _atom_site_label
 _atom_site_symmetry_multiplicity
 _atom_site_fract_x
 _atom_site_fract_y
 _atom_site_fract_z
 _atom_site_occupancy
  Dy  Dy0  1  0.354007  0.751051  0.213820  1
  Dy  Dy1  1  0.853906  0.749528  0.286007  1
  Dy  Dy2  1  0.645434  0.251460  0.786291  1
  Dy  Dy3  1  0.146925  0.250309  0.714488  1
  Dy  Dy4  1  0.811172  0.062310  0.557682  1
  Dy  Dy5  1  0.687881  0.937612  0.057233  1
  Dy  Dy6  1  0.188947  0.562123  0.442611  1
  Dy  Dy7  1  0.477044  0.250631  0.489039  1
  Dy  Dy8  1  0.977984  0.250260  0.010820  1
  Dy  Dy9  1  0.522880  0.750471  0.511152  1
  Dy  Dy10  1  0.022741  0.749585  0.988993  1
  Dy  Dy11  1  0.320922  0.249882  0.216724  1
  Dy  Dy12  1  0.820783  0.251097  0.282256  1
  Dy  Dy13  1  0.679435  0.749383  0.782599  1
  Dy  Dy14  1  0.179329  0.750684  0.717519  1
  Lu  Lu15  1  0.688589  0.565856  0.056935  1
  Lu  Lu16  1  0.188975  0.933898  0.442743  1
  Lu  Lu17  1  0.311534  0.066414  0.943092  1
  Lu  Lu18  1  0.811246  0.433851  0.557440  1
  Lu  Lu19  1  0.311258  0.434537  0.942637  1
  Bi  Bi20  1  0.569812  0.996364  0.325028  1
  Bi  Bi21  1  0.069961  0.504392  0.174606  1
  Bi  Bi22  1  0.429777  0.496477  0.675474  1
  Bi  Bi23  1  0.930382  0.004437  0.825327  1
  Bi  Bi24  1  0.429884  0.004803  0.675047  1
  Bi  Bi25  1  0.930182  0.495789  0.825646  1
  Bi  Bi26  1  0.569919  0.504657  0.325105  1
  Bi  Bi27  1  0.070448  0.995753  0.174513  1
  Te  Te28  1  0.402479  0.749544  0.956533  1
  Te  Te29  1  0.904282  0.746370  0.542715  1
  Te  Te30  1  0.596146  0.254235  0.042377  1
  Te  Te31  1  0.095736  0.246235  0.457549  1
