# generated using pymatgen
data_PrTh5Ir18
_symmetry_space_group_name_H-M   'P 1'
_cell_length_a   5.38138500
_cell_length_b   5.38138378
_cell_length_c   17.77551200
_cell_angle_alpha   90.00000000
_cell_angle_beta   90.00000000
_cell_angle_gamma   120.00000134
_symmetry_Int_Tables_number   1
_chemical_formula_structural   PrTh5Ir18
_chemical_formula_sum   'Pr1 Th5 Ir18'
_cell_volume   445.80072878
_cell_formula_units_Z   1
loop_
 _symmetry_equiv_pos_site_id
 _symmetry_equiv_pos_as_xyz
  1  'x, y, z'
loop_
 _atom_site_type_symbol
 _atom_site_label
 _atom_site_symmetry_multiplicity
 _atom_site_fract_x
 _atom_site_fract_y
 _atom_site_fract_z
 _atom_site_occupancy
  Pr  Pr0  1  0.333333  0.666667  0.540848  1
  Th  Th1  1  0.333333  0.666667  0.957181  1
  Th  Th2  1  0.666667  0.333333  0.042500  1
  Th  Th3  1  0.666667  0.333333  0.459153  1
  Th  Th4  1  0.333333  0.666667  0.747494  1
  Th  Th5  1  0.666667  0.333333  0.250684  1
  Ir  Ir6  1  0.166914  0.833086  0.372910  1
  Ir  Ir7  1  0.166914  0.333828  0.372910  1
  Ir  Ir8  1  0.666172  0.833086  0.372910  1
  Ir  Ir9  1  0.833305  0.166695  0.627716  1
  Ir  Ir10  1  0.833305  0.666608  0.627716  1
  Ir  Ir11  1  0.333392  0.166695  0.627716  1
  Ir  Ir12  1  0.832883  0.167117  0.872790  1
  Ir  Ir13  1  0.832883  0.665763  0.872790  1
  Ir  Ir14  1  0.334237  0.167117  0.872790  1
  Ir  Ir15  1  0.167162  0.832838  0.127054  1
  Ir  Ir16  1  0.167162  0.334324  0.127054  1
  Ir  Ir17  1  0.665676  0.832838  0.127054  1
  Ir  Ir18  1  0.333333  0.666667  0.249949  1
  Ir  Ir19  1  0.666667  0.333333  0.749990  1
  Ir  Ir20  1  0.000000  0.000000  0.250030  1
  Ir  Ir21  1  0.000000  0.000000  0.750274  1
  Ir  Ir22  1  0.000000  0.000000  0.500428  1
  Ir  Ir23  1  0.000000  0.000000  0.000057  1
