# generated using pymatgen
data_YbPr3(GaRu)4
_symmetry_space_group_name_H-M   'P 1'
_cell_length_a   7.50435606
_cell_length_b   4.57812800
_cell_length_c   7.11212641
_cell_angle_alpha   90.00000000
_cell_angle_beta   89.74411438
_cell_angle_gamma   90.00000000
_symmetry_Int_Tables_number   1
_chemical_formula_structural   YbPr3(GaRu)4
_chemical_formula_sum   'Yb1 Pr3 Ga4 Ru4'
_cell_volume   244.34108520
_cell_formula_units_Z   1
loop_
 _symmetry_equiv_pos_site_id
 _symmetry_equiv_pos_as_xyz
  1  'x, y, z'
loop_
 _atom_site_type_symbol
 _atom_site_label
 _atom_site_symmetry_multiplicity
 _atom_site_fract_x
 _atom_site_fract_y
 _atom_site_fract_z
 _atom_site_occupancy
  Yb  Yb0  1  0.976639  0.250000  0.801650  1
  Pr  Pr1  1  0.022905  0.750001  0.187960  1
  Pr  Pr2  1  0.527085  0.750001  0.307779  1
  Pr  Pr3  1  0.473920  0.250000  0.692077  1
  Ga  Ga4  1  0.308415  0.250000  0.107227  1
  Ga  Ga5  1  0.811284  0.250000  0.395341  1
  Ga  Ga6  1  0.183670  0.750001  0.614573  1
  Ga  Ga7  1  0.695731  0.750001  0.892006  1
  Ru  Ru8  1  0.652247  0.250000  0.062863  1
  Ru  Ru9  1  0.152454  0.250000  0.437097  1
  Ru  Ru10  1  0.846815  0.750001  0.565835  1
  Ru  Ru11  1  0.348836  0.750001  0.935590  1
