# generated using pymatgen
data_Tb2Al4Au3
_symmetry_space_group_name_H-M   'P 1'
_cell_length_a   14.05531800
_cell_length_b   14.05531761
_cell_length_c   4.21457000
_cell_angle_alpha   90.00000000
_cell_angle_beta   90.00000000
_cell_angle_gamma   120.00000091
_symmetry_Int_Tables_number   1
_chemical_formula_structural   Tb2Al4Au3
_chemical_formula_sum   'Tb8 Al16 Au12'
_cell_volume   721.04976404
_cell_formula_units_Z   4
loop_
 _symmetry_equiv_pos_site_id
 _symmetry_equiv_pos_as_xyz
  1  'x, y, z'
loop_
 _atom_site_type_symbol
 _atom_site_label
 _atom_site_symmetry_multiplicity
 _atom_site_fract_x
 _atom_site_fract_y
 _atom_site_fract_z
 _atom_site_occupancy
  Tb  Tb0  1  0.448148  0.000000  0.000000  1
  Tb  Tb1  1  0.000000  0.448148  0.000000  1
  Tb  Tb2  1  0.551852  0.551852  0.000000  1
  Tb  Tb3  1  0.333333  0.666667  0.000000  1
  Tb  Tb4  1  0.666667  0.333333  0.000000  1
  Tb  Tb5  1  0.822104  0.000000  0.500000  1
  Tb  Tb6  1  0.000000  0.822104  0.500000  1
  Tb  Tb7  1  0.177896  0.177896  0.500000  1
  Al  Al8  1  0.180431  0.377037  0.000000  1
  Al  Al9  1  0.622963  0.803396  0.000000  1
  Al  Al10  1  0.377037  0.180431  0.000000  1
  Al  Al11  1  0.196604  0.819569  0.000000  1
  Al  Al12  1  0.803396  0.622963  0.000000  1
  Al  Al13  1  0.819569  0.196604  0.000000  1
  Al  Al14  1  0.281099  0.000000  0.500000  1
  Al  Al15  1  0.000000  0.281099  0.500000  1
  Al  Al16  1  0.718901  0.718901  0.500000  1
  Al  Al17  1  0.351508  0.472174  0.500000  1
  Al  Al18  1  0.527826  0.879335  0.500000  1
  Al  Al19  1  0.472174  0.351508  0.500000  1
  Al  Al20  1  0.120665  0.648492  0.500000  1
  Al  Al21  1  0.879335  0.527826  0.500000  1
  Al  Al22  1  0.648492  0.120665  0.500000  1
  Al  Al23  1  0.000000  0.000000  0.000000  1
  Au  Au24  1  0.174375  0.489757  0.500000  1
  Au  Au25  1  0.510243  0.684618  0.500000  1
  Au  Au26  1  0.489757  0.174375  0.500000  1
  Au  Au27  1  0.315382  0.825625  0.500000  1
  Au  Au28  1  0.684618  0.510243  0.500000  1
  Au  Au29  1  0.825625  0.315382  0.500000  1
  Au  Au30  1  0.179118  0.000000  0.000000  1
  Au  Au31  1  0.000000  0.179118  0.000000  1
  Au  Au32  1  0.820882  0.820882  0.000000  1
  Au  Au33  1  0.657230  0.000000  0.000000  1
  Au  Au34  1  0.000000  0.657230  0.000000  1
  Au  Au35  1  0.342770  0.342770  0.000000  1
