# generated using pymatgen
data_Rb2Zr6O13
_symmetry_space_group_name_H-M   'P 1'
_cell_length_a   8.87303636
_cell_length_b   8.87303648
_cell_length_c   9.96597150
_cell_angle_alpha   98.90397547
_cell_angle_beta   98.90397622
_cell_angle_gamma   26.54955763
_symmetry_Int_Tables_number   1
_chemical_formula_structural   Rb2Zr6O13
_chemical_formula_sum   'Rb2 Zr6 O13'
_cell_volume   346.24373971
_cell_formula_units_Z   1
loop_
 _symmetry_equiv_pos_site_id
 _symmetry_equiv_pos_as_xyz
  1  'x, y, z'
loop_
 _atom_site_type_symbol
 _atom_site_label
 _atom_site_symmetry_multiplicity
 _atom_site_fract_x
 _atom_site_fract_y
 _atom_site_fract_z
 _atom_site_occupancy
  Rb  Rb0  1  0.543122  0.543122  0.244686  1
  Rb  Rb1  1  0.456879  0.456879  0.755314  1
  Zr  Zr2  1  0.828945  0.828945  0.064708  1
  Zr  Zr3  1  0.232368  0.232368  0.277388  1
  Zr  Zr4  1  0.886967  0.886967  0.406462  1
  Zr  Zr5  1  0.113033  0.113033  0.593538  1
  Zr  Zr6  1  0.767632  0.767632  0.722612  1
  Zr  Zr7  1  0.171055  0.171055  0.935291  1
  O  O8  1  0.293710  0.293710  0.072312  1
  O  O9  1  0.137982  0.137982  0.119175  1
  O  O10  1  0.921882  0.921882  0.209023  1
  O  O11  1  0.764018  0.764018  0.257201  1
  O  O12  1  0.355386  0.355386  0.382924  1
  O  O13  1  0.164563  0.164563  0.417261  1
  O  O14  1  0.000000  0.000000  0.500000  1
  O  O15  1  0.835437  0.835437  0.582739  1
  O  O16  1  0.644614  0.644614  0.617076  1
  O  O17  1  0.235982  0.235982  0.742799  1
  O  O18  1  0.078118  0.078118  0.790976  1
  O  O19  1  0.862019  0.862019  0.880824  1
  O  O20  1  0.706289  0.706289  0.927687  1
