# generated using pymatgen
data_EuHo2PtO7
_symmetry_space_group_name_H-M   'P 1'
_cell_length_a   6.49282976
_cell_length_b   6.49282994
_cell_length_c   7.48201000
_cell_angle_alpha   90.00000000
_cell_angle_beta   90.00000000
_cell_angle_gamma   108.80781420
_symmetry_Int_Tables_number   1
_chemical_formula_structural   EuHo2PtO7
_chemical_formula_sum   'Eu2 Ho4 Pt2 O14'
_cell_volume   298.57625007
_cell_formula_units_Z   2
loop_
 _symmetry_equiv_pos_site_id
 _symmetry_equiv_pos_as_xyz
  1  'x, y, z'
loop_
 _atom_site_type_symbol
 _atom_site_label
 _atom_site_symmetry_multiplicity
 _atom_site_fract_x
 _atom_site_fract_y
 _atom_site_fract_z
 _atom_site_occupancy
  Eu  Eu0  1  0.500000  0.500000  0.500000  1
  Eu  Eu1  1  0.500000  0.500000  0.000000  1
  Ho  Ho2  1  0.532706  0.999384  0.750000  1
  Ho  Ho3  1  0.999384  0.532706  0.250000  1
  Ho  Ho4  1  0.467294  0.000616  0.250000  1
  Ho  Ho5  1  0.000616  0.467294  0.750000  1
  Pt  Pt6  1  0.000000  0.000000  0.500000  1
  Pt  Pt7  1  0.000000  0.000000  0.000000  1
  O  O8  1  0.675526  0.928622  0.473278  1
  O  O9  1  0.928622  0.675526  0.526722  1
  O  O10  1  0.675526  0.928622  0.026722  1
  O  O11  1  0.928622  0.675526  0.973278  1
  O  O12  1  0.324474  0.071378  0.526722  1
  O  O13  1  0.071378  0.324474  0.473278  1
  O  O14  1  0.324474  0.071378  0.973278  1
  O  O15  1  0.071378  0.324474  0.026722  1
  O  O16  1  0.923643  0.076357  0.750000  1
  O  O17  1  0.076357  0.923643  0.250000  1
  O  O18  1  0.364814  0.635186  0.750000  1
  O  O19  1  0.635186  0.364814  0.250000  1
  O  O20  1  0.638538  0.361462  0.750000  1
  O  O21  1  0.361462  0.638538  0.250000  1
