# generated using pymatgen
data_Ce10Si5Ag
_symmetry_space_group_name_H-M   'P 1'
_cell_length_a   8.48497096
_cell_length_b   8.48497000
_cell_length_c   8.47626474
_cell_angle_alpha   124.86058676
_cell_angle_beta   124.86058501
_cell_angle_gamma   81.83697127
_symmetry_Int_Tables_number   1
_chemical_formula_structural   Ce10Si5Ag
_chemical_formula_sum   'Ce10 Si5 Ag1'
_cell_volume   395.11073424
_cell_formula_units_Z   1
loop_
 _symmetry_equiv_pos_site_id
 _symmetry_equiv_pos_as_xyz
  1  'x, y, z'
loop_
 _atom_site_type_symbol
 _atom_site_label
 _atom_site_symmetry_multiplicity
 _atom_site_fract_x
 _atom_site_fract_y
 _atom_site_fract_z
 _atom_site_occupancy
  Ce  Ce0  1  0.506498  0.669879  0.500000  1
  Ce  Ce1  1  0.830121  0.993502  0.500000  1
  Ce  Ce2  1  0.345434  0.835893  0.870244  1
  Ce  Ce3  1  0.481509  0.334486  0.500000  1
  Ce  Ce4  1  0.165514  0.018491  0.500000  1
  Ce  Ce5  1  0.489970  0.501275  0.991244  1
  Ce  Ce6  1  0.975190  0.465649  0.129756  1
  Ce  Ce7  1  0.664107  0.154566  0.129756  1
  Ce  Ce8  1  0.998725  0.010030  0.008756  1
  Ce  Ce9  1  0.034351  0.524810  0.870244  1
  Si  Si10  1  0.385333  0.888846  0.274179  1
  Si  Si11  1  0.611154  0.114667  0.725821  1
  Si  Si12  1  0.122598  0.377402  0.500000  1
  Si  Si13  1  0.252743  0.247257  0.000000  1
  Si  Si14  1  0.752743  0.747257  0.000000  1
  Ag  Ag15  1  0.884011  0.615989  0.500000  1
