# generated using pymatgen
data_Tb2NdWO7
_symmetry_space_group_name_H-M   'P 1'
_cell_length_a   6.53515733
_cell_length_b   6.53515755
_cell_length_c   7.62031000
_cell_angle_alpha   90.00000000
_cell_angle_beta   90.00000000
_cell_angle_gamma   109.12430632
_symmetry_Int_Tables_number   1
_chemical_formula_structural   Tb2NdWO7
_chemical_formula_sum   'Tb4 Nd2 W2 O14'
_cell_volume   307.48875366
_cell_formula_units_Z   2
loop_
 _symmetry_equiv_pos_site_id
 _symmetry_equiv_pos_as_xyz
  1  'x, y, z'
loop_
 _atom_site_type_symbol
 _atom_site_label
 _atom_site_symmetry_multiplicity
 _atom_site_fract_x
 _atom_site_fract_y
 _atom_site_fract_z
 _atom_site_occupancy
  Tb  Tb0  1  0.533367  0.000875  0.750000  1
  Tb  Tb1  1  0.000875  0.533367  0.250000  1
  Tb  Tb2  1  0.466633  0.999125  0.250000  1
  Tb  Tb3  1  0.999125  0.466633  0.750000  1
  Nd  Nd4  1  0.500000  0.500000  0.500000  1
  Nd  Nd5  1  0.500000  0.500000  0.000000  1
  W  W6  1  0.000000  0.000000  0.500000  1
  W  W7  1  0.000000  0.000000  0.000000  1
  O  O8  1  0.679781  0.928107  0.471148  1
  O  O9  1  0.928107  0.679781  0.528852  1
  O  O10  1  0.679781  0.928107  0.028852  1
  O  O11  1  0.928107  0.679781  0.971148  1
  O  O12  1  0.320219  0.071893  0.528852  1
  O  O13  1  0.071893  0.320219  0.471148  1
  O  O14  1  0.320219  0.071893  0.971148  1
  O  O15  1  0.071893  0.320219  0.028852  1
  O  O16  1  0.929355  0.070645  0.750000  1
  O  O17  1  0.070645  0.929355  0.250000  1
  O  O18  1  0.364064  0.635935  0.750000  1
  O  O19  1  0.635935  0.364064  0.250000  1
  O  O20  1  0.640866  0.359134  0.750000  1
  O  O21  1  0.359134  0.640866  0.250000  1
