# generated using pymatgen
data_Yb6Zn4Pd13
_symmetry_space_group_name_H-M   'P 1'
_cell_length_a   8.24441488
_cell_length_b   8.24441493
_cell_length_c   8.24441400
_cell_angle_alpha   109.47121835
_cell_angle_beta   109.47121846
_cell_angle_gamma   109.47121922
_symmetry_Int_Tables_number   1
_chemical_formula_structural   Yb6Zn4Pd13
_chemical_formula_sum   'Yb6 Zn4 Pd13'
_cell_volume   431.37762262
_cell_formula_units_Z   1
loop_
 _symmetry_equiv_pos_site_id
 _symmetry_equiv_pos_as_xyz
  1  'x, y, z'
loop_
 _atom_site_type_symbol
 _atom_site_label
 _atom_site_symmetry_multiplicity
 _atom_site_fract_x
 _atom_site_fract_y
 _atom_site_fract_z
 _atom_site_occupancy
  Yb  Yb0  1  0.697352  0.697352  0.000000  1
  Yb  Yb1  1  0.302648  0.000000  0.302648  1
  Yb  Yb2  1  0.000000  0.302648  0.302648  1
  Yb  Yb3  1  0.302648  0.302648  0.000000  1
  Yb  Yb4  1  0.697352  0.000000  0.697352  1
  Yb  Yb5  1  0.000000  0.697352  0.697352  1
  Zn  Zn6  1  0.000000  0.000000  0.500000  1
  Zn  Zn7  1  0.000000  0.500000  0.000000  1
  Zn  Zn8  1  0.500000  0.000000  0.000000  1
  Zn  Zn9  1  0.500000  0.500000  0.500000  1
  Pd  Pd10  1  0.331016  0.331016  0.662032  1
  Pd  Pd11  1  0.668984  0.000000  0.331016  1
  Pd  Pd12  1  0.000000  0.668984  0.331016  1
  Pd  Pd13  1  0.668984  0.331016  0.000000  1
  Pd  Pd14  1  0.331016  0.662032  0.331016  1
  Pd  Pd15  1  0.000000  0.331016  0.668984  1
  Pd  Pd16  1  0.331016  0.668984  0.000000  1
  Pd  Pd17  1  0.331016  0.000000  0.668984  1
  Pd  Pd18  1  0.662032  0.331016  0.331016  1
  Pd  Pd19  1  0.668984  0.668984  0.337968  1
  Pd  Pd20  1  0.668984  0.337968  0.668984  1
  Pd  Pd21  1  0.337968  0.668984  0.668984  1
  Pd  Pd22  1  0.000000  0.000000  0.000000  1
