# generated using pymatgen
data_Pr5Gd2ThS12
_symmetry_space_group_name_H-M   'P 1'
_cell_length_a   3.98765300
_cell_length_b   10.63393620
_cell_length_c   10.91723800
_cell_angle_alpha   90.43834063
_cell_angle_beta   90.00000000
_cell_angle_gamma   90.00000000
_symmetry_Int_Tables_number   1
_chemical_formula_structural   Pr5Gd2ThS12
_chemical_formula_sum   'Pr5 Gd2 Th1 S12'
_cell_volume   462.92589877
_cell_formula_units_Z   1
loop_
 _symmetry_equiv_pos_site_id
 _symmetry_equiv_pos_as_xyz
  1  'x, y, z'
loop_
 _atom_site_type_symbol
 _atom_site_label
 _atom_site_symmetry_multiplicity
 _atom_site_fract_x
 _atom_site_fract_y
 _atom_site_fract_z
 _atom_site_occupancy
  Pr  Pr0  1  0.250000  0.000391  0.696484  1
  Pr  Pr1  1  0.750000  0.004334  0.301925  1
  Pr  Pr2  1  0.750000  0.492941  0.811865  1
  Pr  Pr3  1  0.250000  0.503805  0.190836  1
  Pr  Pr4  1  0.250000  0.310967  0.510635  1
  Gd  Gd5  1  0.750000  0.813923  0.989704  1
  Gd  Gd6  1  0.250000  0.185683  0.010588  1
  Th  Th7  1  0.750000  0.688047  0.490087  1
  S  S8  1  0.750000  0.053818  0.885368  1
  S  S9  1  0.250000  0.943913  0.114517  1
  S  S10  1  0.250000  0.557096  0.621856  1
  S  S11  1  0.750000  0.448327  0.379140  1
  S  S12  1  0.250000  0.870887  0.452479  1
  S  S13  1  0.750000  0.123386  0.545042  1
  S  S14  1  0.750000  0.367789  0.046141  1
  S  S15  1  0.250000  0.632603  0.954615  1
  S  S16  1  0.250000  0.295153  0.773339  1
  S  S17  1  0.750000  0.706442  0.230897  1
  S  S18  1  0.750000  0.798379  0.728026  1
  S  S19  1  0.250000  0.202116  0.266456  1
