# generated using pymatgen
data_YPa2(ZnPd)3
_symmetry_space_group_name_H-M   'P 1'
_cell_length_a   7.33827969
_cell_length_b   7.42729375
_cell_length_c   3.80876700
_cell_angle_alpha   90.00000000
_cell_angle_beta   90.00000000
_cell_angle_gamma   120.40208239
_symmetry_Int_Tables_number   1
_chemical_formula_structural   YPa2(ZnPd)3
_chemical_formula_sum   'Y1 Pa2 Zn3 Pd3'
_cell_volume   179.04656466
_cell_formula_units_Z   1
loop_
 _symmetry_equiv_pos_site_id
 _symmetry_equiv_pos_as_xyz
  1  'x, y, z'
loop_
 _atom_site_type_symbol
 _atom_site_label
 _atom_site_symmetry_multiplicity
 _atom_site_fract_x
 _atom_site_fract_y
 _atom_site_fract_z
 _atom_site_occupancy
  Y  Y0  1  0.000000  0.403103  0.000000  1
  Pa  Pa1  1  0.590162  0.593225  0.000000  1
  Pa  Pa2  1  0.409838  0.003063  0.000000  1
  Zn  Zn3  1  0.242614  0.252686  0.500000  1
  Zn  Zn4  1  0.757386  0.010072  0.500000  1
  Zn  Zn5  1  0.000000  0.737352  0.500000  1
  Pd  Pd6  1  0.000000  0.987311  0.000000  1
  Pd  Pd7  1  0.349862  0.681526  0.500000  1
  Pd  Pd8  1  0.650138  0.331663  0.500000  1
