# generated using pymatgen
data_Gd2Si5OsRu2
_symmetry_space_group_name_H-M   'P 1'
_cell_length_a   8.27121628
_cell_length_b   8.21932767
_cell_length_c   8.21851800
_cell_angle_alpha   139.83551399
_cell_angle_beta   108.51331360
_cell_angle_gamma   85.21717374
_symmetry_Int_Tables_number   1
_chemical_formula_structural   Gd2Si5OsRu2
_chemical_formula_sum   'Gd4 Si10 Os2 Ru4'
_cell_volume   329.92991670
_cell_formula_units_Z   2
loop_
 _symmetry_equiv_pos_site_id
 _symmetry_equiv_pos_as_xyz
  1  'x, y, z'
loop_
 _atom_site_type_symbol
 _atom_site_label
 _atom_site_symmetry_multiplicity
 _atom_site_fract_x
 _atom_site_fract_y
 _atom_site_fract_z
 _atom_site_occupancy
  Gd  Gd0  1  0.897790  0.132945  0.765931  1
  Gd  Gd1  1  0.103199  0.868433  0.235851  1
  Gd  Gd2  1  0.632484  0.362314  0.269515  1
  Gd  Gd3  1  0.367665  0.636812  0.729850  1
  Si  Si4  1  0.000408  0.749710  0.749674  1
  Si  Si5  1  0.000353  0.250856  0.250751  1
  Si  Si6  1  0.702011  0.442162  0.728337  1
  Si  Si7  1  0.296866  0.028317  0.741897  1
  Si  Si8  1  0.296874  0.554601  0.267877  1
  Si  Si9  1  0.702104  0.972816  0.259479  1
  Si  Si10  1  0.242396  0.408432  0.835772  1
  Si  Si11  1  0.572052  0.900250  0.670677  1
  Si  Si12  1  0.426745  0.098536  0.326999  1
  Si  Si13  1  0.758270  0.592957  0.166948  1
  Os  Os14  1  0.763372  0.850423  0.912708  1
  Os  Os15  1  0.500631  0.248635  0.748573  1
  Ru  Ru16  1  0.956225  0.356595  0.599896  1
  Ru  Ru17  1  0.044314  0.643706  0.400921  1
  Ru  Ru18  1  0.235628  0.149166  0.086044  1
  Ru  Ru19  1  0.500613  0.752337  0.252299  1
