# generated using pymatgen
data_Tb4Y2Al24Os7Au
_symmetry_space_group_name_H-M   'P 1'
_cell_length_a   8.87509946
_cell_length_b   8.87510173
_cell_length_c   9.56138620
_cell_angle_alpha   89.81562154
_cell_angle_beta   90.18437653
_cell_angle_gamma   120.03683211
_symmetry_Int_Tables_number   1
_chemical_formula_structural   Tb4Y2Al24Os7Au
_chemical_formula_sum   'Tb4 Y2 Al24 Os7 Au1'
_cell_volume   651.97922545
_cell_formula_units_Z   1
loop_
 _symmetry_equiv_pos_site_id
 _symmetry_equiv_pos_as_xyz
  1  'x, y, z'
loop_
 _atom_site_type_symbol
 _atom_site_label
 _atom_site_symmetry_multiplicity
 _atom_site_fract_x
 _atom_site_fract_y
 _atom_site_fract_z
 _atom_site_occupancy
  Tb  Tb0  1  0.190319  0.385208  0.250684  1
  Tb  Tb1  1  0.809681  0.614792  0.749316  1
  Tb  Tb2  1  0.614792  0.809681  0.250684  1
  Tb  Tb3  1  0.385208  0.190319  0.749316  1
  Y  Y4  1  0.194246  0.805754  0.253697  1
  Y  Y5  1  0.805754  0.194246  0.746303  1
  Al  Al6  1  0.328653  0.671347  0.020729  1
  Al  Al7  1  0.671347  0.328653  0.979271  1
  Al  Al8  1  0.666293  0.333707  0.517459  1
  Al  Al9  1  0.333707  0.666293  0.482541  1
  Al  Al10  1  0.162647  0.325878  0.574981  1
  Al  Al11  1  0.837353  0.674122  0.425019  1
  Al  Al12  1  0.674122  0.837353  0.574981  1
  Al  Al13  1  0.848701  0.677487  0.079228  1
  Al  Al14  1  0.325878  0.162647  0.425019  1
  Al  Al15  1  0.151299  0.322513  0.920772  1
  Al  Al16  1  0.163132  0.836868  0.575055  1
  Al  Al17  1  0.322513  0.151299  0.079228  1
  Al  Al18  1  0.836868  0.163132  0.424945  1
  Al  Al19  1  0.677487  0.848701  0.920772  1
  Al  Al20  1  0.836825  0.163175  0.075281  1
  Al  Al21  1  0.163175  0.836825  0.924719  1
  Al  Al22  1  0.560934  0.121155  0.249149  1
  Al  Al23  1  0.439066  0.878845  0.750851  1
  Al  Al24  1  0.878845  0.439066  0.249149  1
  Al  Al25  1  0.121155  0.560934  0.750851  1
  Al  Al26  1  0.563814  0.436186  0.255764  1
  Al  Al27  1  0.436186  0.563814  0.744236  1
  Al  Al28  1  0.999547  0.000453  0.250370  1
  Al  Al29  1  0.000453  0.999547  0.749630  1
  Os  Os30  1  0.500000  0.000000  0.000000  1
  Os  Os31  1  0.000000  0.500000  0.000000  1
  Os  Os32  1  0.500000  0.000000  0.500000  1
  Os  Os33  1  0.000000  0.500000  0.500000  1
  Os  Os34  1  0.500000  0.500000  0.500000  1
  Os  Os35  1  0.000000  0.000000  0.000000  1
  Os  Os36  1  0.000000  0.000000  0.500000  1
  Au  Au37  1  0.500000  0.500000  0.000000  1
