# generated using pymatgen
data_Ho3Al12Os3Pd
_symmetry_space_group_name_H-M   'P 1'
_cell_length_a   8.84213299
_cell_length_b   8.79665998
_cell_length_c   9.56095672
_cell_angle_alpha   90.00000079
_cell_angle_beta   90.16325208
_cell_angle_gamma   119.83001861
_symmetry_Int_Tables_number   1
_chemical_formula_structural   Ho3Al12Os3Pd
_chemical_formula_sum   'Ho6 Al24 Os6 Pd2'
_cell_volume   645.12789812
_cell_formula_units_Z   2
loop_
 _symmetry_equiv_pos_site_id
 _symmetry_equiv_pos_as_xyz
  1  'x, y, z'
loop_
 _atom_site_type_symbol
 _atom_site_label
 _atom_site_symmetry_multiplicity
 _atom_site_fract_x
 _atom_site_fract_y
 _atom_site_fract_z
 _atom_site_occupancy
  Ho  Ho0  1  0.190472  0.387901  0.253810  1
  Ho  Ho1  1  0.809528  0.612099  0.746190  1
  Ho  Ho2  1  0.615063  0.807531  0.253441  1
  Ho  Ho3  1  0.384937  0.192469  0.746559  1
  Ho  Ho4  1  0.190472  0.802571  0.253810  1
  Ho  Ho5  1  0.809528  0.197429  0.746190  1
  Al  Al6  1  0.329076  0.664538  0.026010  1
  Al  Al7  1  0.670924  0.335462  0.973990  1
  Al  Al8  1  0.666325  0.333162  0.521674  1
  Al  Al9  1  0.333675  0.666838  0.478326  1
  Al  Al10  1  0.164790  0.327825  0.576158  1
  Al  Al11  1  0.835210  0.672175  0.423842  1
  Al  Al12  1  0.672956  0.836478  0.575042  1
  Al  Al13  1  0.841911  0.674273  0.078886  1
  Al  Al14  1  0.327044  0.163522  0.424958  1
  Al  Al15  1  0.158089  0.325727  0.921114  1
  Al  Al16  1  0.164790  0.836965  0.576158  1
  Al  Al17  1  0.323129  0.161565  0.080438  1
  Al  Al18  1  0.835210  0.163035  0.423842  1
  Al  Al19  1  0.676871  0.838435  0.919562  1
  Al  Al20  1  0.841911  0.167638  0.078886  1
  Al  Al21  1  0.158089  0.832362  0.921114  1
  Al  Al22  1  0.561881  0.123964  0.251541  1
  Al  Al23  1  0.438119  0.876036  0.748459  1
  Al  Al24  1  0.876309  0.438155  0.248976  1
  Al  Al25  1  0.123691  0.561845  0.751024  1
  Al  Al26  1  0.561881  0.437918  0.251541  1
  Al  Al27  1  0.438119  0.562082  0.748459  1
  Al  Al28  1  0.997586  0.998793  0.250434  1
  Al  Al29  1  0.002414  0.001207  0.749566  1
  Os  Os30  1  0.000000  0.500000  0.000000  1
  Os  Os31  1  0.500000  0.000000  0.500000  1
  Os  Os32  1  0.000000  0.500000  0.500000  1
  Os  Os33  1  0.500000  0.500000  0.500000  1
  Os  Os34  1  0.000000  0.000000  0.000000  1
  Os  Os35  1  0.000000  0.000000  0.500000  1
  Pd  Pd36  1  0.500000  0.000000  0.000000  1
  Pd  Pd37  1  0.500000  0.500000  0.000000  1
