# generated using pymatgen
data_ScMn2(CoP)3
_symmetry_space_group_name_H-M   'P 1'
_cell_length_a   3.54310900
_cell_length_b   10.25620800
_cell_length_c   11.85964800
_cell_angle_alpha   90.00000000
_cell_angle_beta   90.00000000
_cell_angle_gamma   90.00000000
_symmetry_Int_Tables_number   1
_chemical_formula_structural   ScMn2(CoP)3
_chemical_formula_sum   'Sc4 Mn8 Co12 P12'
_cell_volume   430.96612237
_cell_formula_units_Z   4
loop_
 _symmetry_equiv_pos_site_id
 _symmetry_equiv_pos_as_xyz
  1  'x, y, z'
loop_
 _atom_site_type_symbol
 _atom_site_label
 _atom_site_symmetry_multiplicity
 _atom_site_fract_x
 _atom_site_fract_y
 _atom_site_fract_z
 _atom_site_occupancy
  Sc  Sc0  1  0.250000  0.582465  0.708280  1
  Sc  Sc1  1  0.250000  0.917535  0.208280  1
  Sc  Sc2  1  0.750000  0.417535  0.291720  1
  Sc  Sc3  1  0.750000  0.082465  0.791720  1
  Mn  Mn4  1  0.250000  0.714001  0.991086  1
  Mn  Mn5  1  0.250000  0.785999  0.491086  1
  Mn  Mn6  1  0.750000  0.285999  0.008914  1
  Mn  Mn7  1  0.750000  0.214001  0.508914  1
  Mn  Mn8  1  0.250000  0.406553  0.489391  1
  Mn  Mn9  1  0.250000  0.093447  0.989391  1
  Mn  Mn10  1  0.750000  0.593447  0.510609  1
  Mn  Mn11  1  0.750000  0.906553  0.010609  1
  Co  Co12  1  0.250000  0.223048  0.176663  1
  Co  Co13  1  0.250000  0.276953  0.676663  1
  Co  Co14  1  0.750000  0.776953  0.823337  1
  Co  Co15  1  0.750000  0.723047  0.323337  1
  Co  Co16  1  0.250000  0.883593  0.697753  1
  Co  Co17  1  0.250000  0.616407  0.197753  1
  Co  Co18  1  0.750000  0.116407  0.302247  1
  Co  Co19  1  0.750000  0.383593  0.802247  1
  Co  Co20  1  0.250000  0.465062  0.932547  1
  Co  Co21  1  0.250000  0.034938  0.432547  1
  Co  Co22  1  0.750000  0.534938  0.067453  1
  Co  Co23  1  0.750000  0.965062  0.567453  1
  P  P24  1  0.250000  0.419763  0.114865  1
  P  P25  1  0.250000  0.080237  0.614865  1
  P  P26  1  0.750000  0.580237  0.885135  1
  P  P27  1  0.750000  0.919763  0.385135  1
  P  P28  1  0.250000  0.264890  0.865717  1
  P  P29  1  0.250000  0.235110  0.365717  1
  P  P30  1  0.750000  0.735110  0.134283  1
  P  P31  1  0.750000  0.764890  0.634283  1
  P  P32  1  0.250000  0.595138  0.383220  1
  P  P33  1  0.250000  0.904862  0.883220  1
  P  P34  1  0.750000  0.404862  0.616780  1
  P  P35  1  0.750000  0.095138  0.116780  1
