# generated using pymatgen
data_Ho5MgSc2(Co4P3)4
_symmetry_space_group_name_H-M   'P 1'
_cell_length_a   12.18683466
_cell_length_b   12.18683502
_cell_length_c   3.70898900
_cell_angle_alpha   90.00000000
_cell_angle_beta   90.00000000
_cell_angle_gamma   120.17155494
_symmetry_Int_Tables_number   1
_chemical_formula_structural   Ho5MgSc2(Co4P3)4
_chemical_formula_sum   'Ho5 Mg1 Sc2 Co16 P12'
_cell_volume   476.22771216
_cell_formula_units_Z   1
loop_
 _symmetry_equiv_pos_site_id
 _symmetry_equiv_pos_as_xyz
  1  'x, y, z'
loop_
 _atom_site_type_symbol
 _atom_site_label
 _atom_site_symmetry_multiplicity
 _atom_site_fract_x
 _atom_site_fract_y
 _atom_site_fract_z
 _atom_site_occupancy
  Ho  Ho0  1  0.667549  0.332528  0.000000  1
  Ho  Ho1  1  0.332528  0.667549  0.000000  1
  Ho  Ho2  1  0.813590  0.813590  0.500000  1
  Ho  Ho3  1  0.183672  0.999248  0.500000  1
  Ho  Ho4  1  0.999248  0.183672  0.500000  1
  Mg  Mg5  1  0.440830  0.440830  0.000000  1
  Sc  Sc6  1  0.560562  0.999748  0.000000  1
  Sc  Sc7  1  0.999748  0.560562  0.000000  1
  Co  Co8  1  0.875247  0.355476  0.500000  1
  Co  Co9  1  0.642054  0.516787  0.500000  1
  Co  Co10  1  0.478931  0.124223  0.500000  1
  Co  Co11  1  0.355476  0.875247  0.500000  1
  Co  Co12  1  0.516787  0.642054  0.500000  1
  Co  Co13  1  0.124223  0.478931  0.500000  1
  Co  Co14  1  0.806587  0.179623  0.000000  1
  Co  Co15  1  0.818917  0.624900  0.000000  1
  Co  Co16  1  0.375719  0.199213  0.000000  1
  Co  Co17  1  0.179623  0.806587  0.000000  1
  Co  Co18  1  0.624900  0.818917  0.000000  1
  Co  Co19  1  0.199213  0.375719  0.000000  1
  Co  Co20  1  0.280724  0.280724  0.500000  1
  Co  Co21  1  0.721863  0.999359  0.500000  1
  Co  Co22  1  0.999359  0.721863  0.500000  1
  Co  Co23  1  0.001581  0.001581  0.000000  1
  P  P24  1  0.692754  0.170646  0.500000  1
  P  P25  1  0.828275  0.520879  0.500000  1
  P  P26  1  0.480293  0.308093  0.500000  1
  P  P27  1  0.170646  0.692754  0.500000  1
  P  P28  1  0.520879  0.828275  0.500000  1
  P  P29  1  0.308093  0.480293  0.500000  1
  P  P30  1  0.180424  0.180424  0.000000  1
  P  P31  1  0.820861  0.999269  0.000000  1
  P  P32  1  0.999269  0.820861  0.000000  1
  P  P33  1  0.641166  0.641166  0.000000  1
  P  P34  1  0.356147  0.002261  0.000000  1
  P  P35  1  0.002261  0.356147  0.000000  1
