# generated using pymatgen
data_Rb4Sr(PSe4)2
_symmetry_space_group_name_H-M   'P 1'
_cell_length_a   12.05621038
_cell_length_b   12.05621038
_cell_length_c   12.05621038
_cell_angle_alpha   133.36543080
_cell_angle_beta   127.66558816
_cell_angle_gamma   72.68044410
_symmetry_Int_Tables_number   1
_chemical_formula_structural   Rb4Sr(PSe4)2
_chemical_formula_sum   'Rb8 Sr2 P4 Se16'
_cell_volume   985.58977448
_cell_formula_units_Z   2
loop_
 _symmetry_equiv_pos_site_id
 _symmetry_equiv_pos_as_xyz
  1  'x, y, z'
loop_
 _atom_site_type_symbol
 _atom_site_label
 _atom_site_symmetry_multiplicity
 _atom_site_fract_x
 _atom_site_fract_y
 _atom_site_fract_z
 _atom_site_occupancy
  Rb  Rb0  1  0.413532  0.298190  0.884658  1
  Rb  Rb1  1  0.586468  0.701810  0.115342  1
  Rb  Rb2  1  0.913532  0.528874  0.615342  1
  Rb  Rb3  1  0.086468  0.471126  0.384658  1
  Rb  Rb4  1  0.485765  0.235765  0.250000  1
  Rb  Rb5  1  0.014235  0.764235  0.250000  1
  Rb  Rb6  1  0.514235  0.764235  0.750000  1
  Rb  Rb7  1  0.985765  0.235765  0.750000  1
  Sr  Sr8  1  0.250000  0.000000  0.250000  1
  Sr  Sr9  1  0.750000  0.000000  0.750000  1
  P  P10  1  0.874327  0.076538  0.202212  1
  P  P11  1  0.125673  0.923462  0.797788  1
  P  P12  1  0.374327  0.672116  0.297788  1
  P  P13  1  0.625673  0.327884  0.702212  1
  Se  Se14  1  0.236887  0.981937  0.745050  1
  Se  Se15  1  0.763113  0.018063  0.254950  1
  Se  Se16  1  0.736887  0.491838  0.754950  1
  Se  Se17  1  0.263113  0.508162  0.245050  1
  Se  Se18  1  0.245233  0.784640  0.880608  1
  Se  Se19  1  0.095967  0.215360  0.460592  1
  Se  Se20  1  0.404033  0.364625  0.619392  1
  Se  Se21  1  0.254767  0.635375  0.039408  1
  Se  Se22  1  0.754767  0.215360  0.119392  1
  Se  Se23  1  0.904033  0.784640  0.539408  1
  Se  Se24  1  0.595967  0.635375  0.380608  1
  Se  Se25  1  0.745233  0.364625  0.960592  1
  Se  Se26  1  0.395346  0.924236  0.528890  1
  Se  Se27  1  0.604654  0.075764  0.471110  1
  Se  Se28  1  0.895346  0.866456  0.971110  1
  Se  Se29  1  0.104654  0.133544  0.028890  1
