# generated using pymatgen
data_NpZn10Pt
_symmetry_space_group_name_H-M   'P 1'
_cell_length_a   8.26143896
_cell_length_b   8.26862462
_cell_length_c   8.29306326
_cell_angle_alpha   99.95338875
_cell_angle_beta   99.91171819
_cell_angle_gamma   130.83267788
_symmetry_Int_Tables_number   1
_chemical_formula_structural   NpZn10Pt
_chemical_formula_sum   'Np2 Zn20 Pt2'
_cell_volume   390.05239050
_cell_formula_units_Z   2
loop_
 _symmetry_equiv_pos_site_id
 _symmetry_equiv_pos_as_xyz
  1  'x, y, z'
loop_
 _atom_site_type_symbol
 _atom_site_label
 _atom_site_symmetry_multiplicity
 _atom_site_fract_x
 _atom_site_fract_y
 _atom_site_fract_z
 _atom_site_occupancy
  Np  Np0  1  0.245351  0.745351  0.490701  1
  Np  Np1  1  0.004649  0.004649  0.009299  1
  Zn  Zn2  1  0.901868  0.576953  0.083159  1
  Zn  Zn3  1  0.625000  0.875000  0.250000  1
  Zn  Zn4  1  0.424399  0.508505  0.326546  1
  Zn  Zn5  1  0.494343  0.579777  0.672793  1
  Zn  Zn6  1  0.421781  0.094434  0.914537  1
  Zn  Zn7  1  0.755657  0.170223  0.827207  1
  Zn  Zn8  1  0.492756  0.820103  0.914537  1
  Zn  Zn9  1  0.495220  0.495220  0.990441  1
  Zn  Zn10  1  0.757244  0.929897  0.585463  1
  Zn  Zn11  1  0.754780  0.254780  0.509559  1
  Zn  Zn12  1  0.071550  0.656985  0.827207  1
  Zn  Zn13  1  0.348132  0.173047  0.416841  1
  Zn  Zn14  1  0.828219  0.655566  0.585463  1
  Zn  Zn15  1  0.902147  0.818041  0.326546  1
  Zn  Zn16  1  0.178450  0.093015  0.672793  1
  Zn  Zn17  1  0.068709  0.243795  0.416841  1
  Zn  Zn18  1  0.347853  0.931959  0.173454  1
  Zn  Zn19  1  0.825601  0.241495  0.173454  1
  Zn  Zn20  1  0.181291  0.506205  0.083159  1
  Zn  Zn21  1  0.625000  0.375000  0.250000  1
  Pt  Pt22  1  0.125000  0.375000  0.750000  1
  Pt  Pt23  1  0.625000  0.375000  0.750000  1
