# generated using pymatgen
data_Lu8CdPb3Au8
_symmetry_space_group_name_H-M   'P 1'
_cell_length_a   8.04613700
_cell_length_b   8.04613700
_cell_length_c   7.14021100
_cell_angle_alpha   90.00000000
_cell_angle_beta   90.00000000
_cell_angle_gamma   90.00000000
_symmetry_Int_Tables_number   1
_chemical_formula_structural   Lu8CdPb3Au8
_chemical_formula_sum   'Lu8 Cd1 Pb3 Au8'
_cell_volume   462.25954945
_cell_formula_units_Z   1
loop_
 _symmetry_equiv_pos_site_id
 _symmetry_equiv_pos_as_xyz
  1  'x, y, z'
loop_
 _atom_site_type_symbol
 _atom_site_label
 _atom_site_symmetry_multiplicity
 _atom_site_fract_x
 _atom_site_fract_y
 _atom_site_fract_z
 _atom_site_occupancy
  Lu  Lu0  1  0.849629  0.161506  0.497086  1
  Lu  Lu1  1  0.150371  0.838494  0.497086  1
  Lu  Lu2  1  0.338494  0.349629  0.002914  1
  Lu  Lu3  1  0.661506  0.650371  0.002914  1
  Lu  Lu4  1  0.683701  0.674203  0.497657  1
  Lu  Lu5  1  0.316299  0.325797  0.497657  1
  Lu  Lu6  1  0.174204  0.816299  0.002343  1
  Lu  Lu7  1  0.825797  0.183702  0.002343  1
  Cd  Cd8  1  0.000000  0.500000  0.250000  1
  Pb  Pb9  1  0.500000  0.000000  0.250000  1
  Pb  Pb10  1  0.000000  0.500000  0.750000  1
  Pb  Pb11  1  0.500000  0.000000  0.750000  1
  Au  Au12  1  0.632110  0.374385  0.272818  1
  Au  Au13  1  0.367890  0.625615  0.272818  1
  Au  Au14  1  0.129729  0.125387  0.773835  1
  Au  Au15  1  0.870271  0.874613  0.773835  1
  Au  Au16  1  0.374613  0.629729  0.726165  1
  Au  Au17  1  0.625387  0.370271  0.726165  1
  Au  Au18  1  0.874385  0.867890  0.227182  1
  Au  Au19  1  0.125615  0.132110  0.227182  1
