# generated using pymatgen
data_YbLu4Pa3(Pt2Pb)4
_symmetry_space_group_name_H-M   'P 1'
_cell_length_a   7.92141624
_cell_length_b   7.92141539
_cell_length_c   7.11313400
_cell_angle_alpha   90.00000000
_cell_angle_beta   90.00000000
_cell_angle_gamma   90.89729849
_symmetry_Int_Tables_number   1
_chemical_formula_structural   YbLu4Pa3(Pt2Pb)4
_chemical_formula_sum   'Yb1 Lu4 Pa3 Pt8 Pb4'
_cell_volume   446.28609153
_cell_formula_units_Z   1
loop_
 _symmetry_equiv_pos_site_id
 _symmetry_equiv_pos_as_xyz
  1  'x, y, z'
loop_
 _atom_site_type_symbol
 _atom_site_label
 _atom_site_symmetry_multiplicity
 _atom_site_fract_x
 _atom_site_fract_y
 _atom_site_fract_z
 _atom_site_occupancy
  Yb  Yb0  1  0.176656  0.823344  0.500000  1
  Lu  Lu1  1  0.342257  0.345154  0.500000  1
  Lu  Lu2  1  0.654846  0.657743  0.500000  1
  Lu  Lu3  1  0.842709  0.157291  0.000000  1
  Lu  Lu4  1  0.156641  0.843359  0.000000  1
  Pa  Pa5  1  0.679131  0.675967  0.000000  1
  Pa  Pa6  1  0.826351  0.173649  0.500000  1
  Pa  Pa7  1  0.324033  0.320869  0.000000  1
  Pt  Pt8  1  0.864929  0.873280  0.736302  1
  Pt  Pt9  1  0.126720  0.135071  0.736302  1
  Pt  Pt10  1  0.632717  0.367283  0.767477  1
  Pt  Pt11  1  0.632717  0.367283  0.232523  1
  Pt  Pt12  1  0.377930  0.622070  0.220565  1
  Pt  Pt13  1  0.126720  0.135071  0.263698  1
  Pt  Pt14  1  0.864929  0.873280  0.263698  1
  Pt  Pt15  1  0.377930  0.622070  0.779435  1
  Pb  Pb16  1  0.492895  0.996503  0.745846  1
  Pb  Pb17  1  0.492895  0.996503  0.254154  1
  Pb  Pb18  1  0.003497  0.507105  0.745846  1
  Pb  Pb19  1  0.003497  0.507105  0.254154  1
