# generated using pymatgen
data_HoEr11GaCo4Bi
_symmetry_space_group_name_H-M   'P 1'
_cell_length_a   8.28528661
_cell_length_b   8.28528792
_cell_length_c   8.28433164
_cell_angle_alpha   111.78505476
_cell_angle_beta   109.37228064
_cell_angle_gamma   107.29253925
_symmetry_Int_Tables_number   1
_chemical_formula_structural   HoEr11GaCo4Bi
_chemical_formula_sum   'Ho1 Er11 Ga1 Co4 Bi1'
_cell_volume   437.07302035
_cell_formula_units_Z   1
loop_
 _symmetry_equiv_pos_site_id
 _symmetry_equiv_pos_as_xyz
  1  'x, y, z'
loop_
 _atom_site_type_symbol
 _atom_site_label
 _atom_site_symmetry_multiplicity
 _atom_site_fract_x
 _atom_site_fract_y
 _atom_site_fract_z
 _atom_site_occupancy
  Ho  Ho0  1  0.820959  0.220901  0.041860  1
  Er  Er1  1  0.972933  0.269374  0.703342  1
  Er  Er2  1  0.027256  0.730896  0.296635  1
  Er  Er3  1  0.676662  0.860709  0.184121  1
  Er  Er4  1  0.323412  0.507460  0.184121  1
  Er  Er5  1  0.323040  0.139089  0.815785  1
  Er  Er6  1  0.676697  0.492745  0.815785  1
  Er  Er7  1  0.565739  0.269378  0.296635  1
  Er  Er8  1  0.433969  0.730410  0.703342  1
  Er  Er9  1  0.178804  0.778994  0.957798  1
  Er  Er10  1  0.821231  0.778937  0.600169  1
  Er  Er11  1  0.179007  0.221044  0.400051  1
  Ga  Ga12  1  0.000088  0.500240  0.500329  1
  Co  Co13  1  0.114719  0.114390  0.999935  1
  Co  Co14  1  0.885545  0.885215  0.999935  1
  Co  Co15  1  0.658867  0.500180  0.159047  1
  Co  Co16  1  0.341045  0.500008  0.841053  1
  Bi  Bi17  1  0.500026  0.000030  0.500056  1
