# generated using pymatgen
data_YZr(Al3Rh)3
_symmetry_space_group_name_H-M   'P 1'
_cell_length_a   7.51235205
_cell_length_b   7.49096737
_cell_length_c   9.36144400
_cell_angle_alpha   90.00000000
_cell_angle_beta   90.00000000
_cell_angle_gamma   119.67676889
_symmetry_Int_Tables_number   1
_chemical_formula_structural   YZr(Al3Rh)3
_chemical_formula_sum   'Y2 Zr2 Al18 Rh6'
_cell_volume   457.71237486
_cell_formula_units_Z   2
loop_
 _symmetry_equiv_pos_site_id
 _symmetry_equiv_pos_as_xyz
  1  'x, y, z'
loop_
 _atom_site_type_symbol
 _atom_site_label
 _atom_site_symmetry_multiplicity
 _atom_site_fract_x
 _atom_site_fract_y
 _atom_site_fract_z
 _atom_site_occupancy
  Y  Y0  1  0.670825  0.994215  0.250000  1
  Y  Y1  1  0.329175  0.005785  0.750000  1
  Zr  Zr2  1  0.994818  0.670572  0.250000  1
  Zr  Zr3  1  0.005182  0.329428  0.750000  1
  Al  Al4  1  0.125126  0.122751  0.250000  1
  Al  Al5  1  0.874874  0.877249  0.750000  1
  Al  Al6  1  0.999773  0.337534  0.074500  1
  Al  Al7  1  0.000227  0.662466  0.925500  1
  Al  Al8  1  0.000227  0.662466  0.574500  1
  Al  Al9  1  0.331595  0.997700  0.422076  1
  Al  Al10  1  0.999773  0.337534  0.425500  1
  Al  Al11  1  0.668405  0.002300  0.577924  1
  Al  Al12  1  0.668405  0.002300  0.922076  1
  Al  Al13  1  0.331595  0.997700  0.077924  1
  Al  Al14  1  0.330872  0.333510  0.554502  1
  Al  Al15  1  0.669128  0.666490  0.445498  1
  Al  Al16  1  0.669128  0.666490  0.054502  1
  Al  Al17  1  0.330872  0.333510  0.945498  1
  Al  Al18  1  0.333834  0.548773  0.250000  1
  Al  Al19  1  0.666166  0.451227  0.750000  1
  Al  Al20  1  0.555918  0.344354  0.250000  1
  Al  Al21  1  0.444082  0.655646  0.750000  1
  Rh  Rh22  1  0.672182  0.327763  0.999423  1
  Rh  Rh23  1  0.327818  0.672237  0.000577  1
  Rh  Rh24  1  0.327818  0.672237  0.499423  1
  Rh  Rh25  1  0.672182  0.327763  0.500577  1
  Rh  Rh26  1  0.000000  0.000000  0.000000  1
  Rh  Rh27  1  0.000000  0.000000  0.500000  1
