# generated using pymatgen
data_Np(BrO4)2
_symmetry_space_group_name_H-M   'P 1'
_cell_length_a   16.82745900
_cell_length_b   4.40257680
_cell_length_c   6.05769386
_cell_angle_alpha   64.54150212
_cell_angle_beta   90.00000000
_cell_angle_gamma   90.00000000
_symmetry_Int_Tables_number   1
_chemical_formula_structural   Np(BrO4)2
_chemical_formula_sum   'Np2 Br4 O16'
_cell_volume   405.20142059
_cell_formula_units_Z   2
loop_
 _symmetry_equiv_pos_site_id
 _symmetry_equiv_pos_as_xyz
  1  'x, y, z'
loop_
 _atom_site_type_symbol
 _atom_site_label
 _atom_site_symmetry_multiplicity
 _atom_site_fract_x
 _atom_site_fract_y
 _atom_site_fract_z
 _atom_site_occupancy
  Np  Np0  1  0.500000  0.500000  0.000000  1
  Np  Np1  1  0.000000  0.500000  0.500000  1
  Br  Br2  1  0.652626  0.952146  0.241892  1
  Br  Br3  1  0.152626  0.047854  0.258108  1
  Br  Br4  1  0.347374  0.047854  0.758108  1
  Br  Br5  1  0.847374  0.952146  0.741892  1
  O  O6  1  0.443930  0.342542  0.277480  1
  O  O7  1  0.943930  0.657458  0.222520  1
  O  O8  1  0.556070  0.657458  0.722520  1
  O  O9  1  0.056070  0.342542  0.777480  1
  O  O10  1  0.624872  0.324738  0.242669  1
  O  O11  1  0.124872  0.675262  0.257331  1
  O  O12  1  0.937976  0.926812  0.602845  1
  O  O13  1  0.437976  0.073188  0.897155  1
  O  O14  1  0.062024  0.073188  0.397155  1
  O  O15  1  0.562024  0.926812  0.102845  1
  O  O16  1  0.778961  0.038204  0.532089  1
  O  O17  1  0.278961  0.961796  0.967911  1
  O  O18  1  0.221039  0.961796  0.467911  1
  O  O19  1  0.721039  0.038204  0.032089  1
  O  O20  1  0.875128  0.324738  0.742669  1
  O  O21  1  0.375128  0.675262  0.757331  1
