# generated using pymatgen
data_Na6Th2PaBr18
_symmetry_space_group_name_H-M   'P 1'
_cell_length_a   12.82966000
_cell_length_b   12.82965995
_cell_length_c   6.73041900
_cell_angle_alpha   90.00000000
_cell_angle_beta   90.00000000
_cell_angle_gamma   119.99999498
_symmetry_Int_Tables_number   1
_chemical_formula_structural   Na6Th2PaBr18
_chemical_formula_sum   'Na6 Th2 Pa1 Br18'
_cell_volume   959.40736570
_cell_formula_units_Z   1
loop_
 _symmetry_equiv_pos_site_id
 _symmetry_equiv_pos_as_xyz
  1  'x, y, z'
loop_
 _atom_site_type_symbol
 _atom_site_label
 _atom_site_symmetry_multiplicity
 _atom_site_fract_x
 _atom_site_fract_y
 _atom_site_fract_z
 _atom_site_occupancy
  Na  Na0  1  0.000000  0.337114  0.000000  1
  Na  Na1  1  0.662886  0.662886  0.000000  1
  Na  Na2  1  0.337114  0.000000  0.000000  1
  Na  Na3  1  0.000000  0.662886  0.000000  1
  Na  Na4  1  0.337114  0.337114  0.000000  1
  Na  Na5  1  0.662886  0.000000  0.000000  1
  Th  Th6  1  0.333333  0.666667  0.494175  1
  Th  Th7  1  0.666667  0.333333  0.505825  1
  Pa  Pa8  1  0.000000  0.000000  0.000000  1
  Br  Br9  1  0.438616  0.561384  0.248260  1
  Br  Br10  1  0.772517  0.227483  0.267558  1
  Br  Br11  1  0.227483  0.772517  0.732442  1
  Br  Br12  1  0.772517  0.545032  0.267558  1
  Br  Br13  1  0.210928  0.105464  0.766722  1
  Br  Br14  1  0.454968  0.227483  0.267558  1
  Br  Br15  1  0.545032  0.772517  0.732442  1
  Br  Br16  1  0.894536  0.789072  0.766722  1
  Br  Br17  1  0.561384  0.438616  0.751740  1
  Br  Br18  1  0.561384  0.122770  0.751740  1
  Br  Br19  1  0.877230  0.438616  0.751740  1
  Br  Br20  1  0.122770  0.561384  0.248260  1
  Br  Br21  1  0.438616  0.877230  0.248260  1
  Br  Br22  1  0.227483  0.454968  0.732442  1
  Br  Br23  1  0.105464  0.210928  0.233278  1
  Br  Br24  1  0.105464  0.894536  0.233278  1
  Br  Br25  1  0.789072  0.894536  0.233278  1
  Br  Br26  1  0.894536  0.105464  0.766722  1
