# generated using pymatgen
data_Mg2ScNi7B2
_symmetry_space_group_name_H-M   'P 1'
_cell_length_a   4.92294025
_cell_length_b   4.92294128
_cell_length_c   7.46267736
_cell_angle_alpha   109.26815336
_cell_angle_beta   109.26816161
_cell_angle_gamma   60.04682959
_symmetry_Int_Tables_number   1
_chemical_formula_structural   Mg2ScNi7B2
_chemical_formula_sum   'Mg2 Sc1 Ni7 B2'
_cell_volume   144.87597714
_cell_formula_units_Z   1
loop_
 _symmetry_equiv_pos_site_id
 _symmetry_equiv_pos_as_xyz
  1  'x, y, z'
loop_
 _atom_site_type_symbol
 _atom_site_label
 _atom_site_symmetry_multiplicity
 _atom_site_fract_x
 _atom_site_fract_y
 _atom_site_fract_z
 _atom_site_occupancy
  Mg  Mg0  1  0.354461  0.354461  0.062594  1
  Mg  Mg1  1  0.645539  0.645539  0.937406  1
  Sc  Sc2  1  0.500000  0.500000  0.500001  1
  Ni  Ni3  1  0.000000  0.000000  0.000000  1
  Ni  Ni4  1  0.931568  0.931568  0.292954  1
  Ni  Ni5  1  0.931942  0.429271  0.294157  1
  Ni  Ni6  1  0.429271  0.931942  0.294157  1
  Ni  Ni7  1  0.570728  0.068057  0.705843  1
  Ni  Ni8  1  0.068057  0.570728  0.705843  1
  Ni  Ni9  1  0.068431  0.068431  0.707046  1
  B  B10  1  0.833663  0.833663  0.499043  1
  B  B11  1  0.166336  0.166336  0.500957  1
