# generated using pymatgen
data_PrTh3FeCoB20
_symmetry_space_group_name_H-M   'P 1'
_cell_length_a   4.18434300
_cell_length_b   5.63041693
_cell_length_c   11.24736319
_cell_angle_alpha   90.34255385
_cell_angle_beta   90.00000000
_cell_angle_gamma   90.00000000
_symmetry_Int_Tables_number   1
_chemical_formula_structural   PrTh3FeCoB20
_chemical_formula_sum   'Pr1 Th3 Fe1 Co1 B20'
_cell_volume   264.97859295
_cell_formula_units_Z   1
loop_
 _symmetry_equiv_pos_site_id
 _symmetry_equiv_pos_as_xyz
  1  'x, y, z'
loop_
 _atom_site_type_symbol
 _atom_site_label
 _atom_site_symmetry_multiplicity
 _atom_site_fract_x
 _atom_site_fract_y
 _atom_site_fract_z
 _atom_site_occupancy
  Pr  Pr0  1  0.500000  0.301422  0.865088  1
  Th  Th1  1  0.500000  0.701160  0.133072  1
  Th  Th2  1  0.500000  0.794059  0.631575  1
  Th  Th3  1  0.500000  0.207465  0.368948  1
  Fe  Fe4  1  0.000000  0.500275  0.499817  1
  Co  Co5  1  0.000000  0.997540  0.001182  1
  B  B6  1  0.000000  0.126745  0.540280  1
  B  B7  1  0.000000  0.872663  0.459633  1
  B  B8  1  0.000000  0.626575  0.959879  1
  B  B9  1  0.000000  0.372786  0.040817  1
  B  B10  1  0.000000  0.150575  0.697145  1
  B  B11  1  0.000000  0.849107  0.302520  1
  B  B12  1  0.299613  0.201454  0.114047  1
  B  B13  1  0.299430  0.796863  0.886945  1
  B  B14  1  0.700417  0.703231  0.386512  1
  B  B15  1  0.700983  0.296759  0.612872  1
  B  B16  1  0.700570  0.796863  0.886945  1
  B  B17  1  0.700387  0.201454  0.114047  1
  B  B18  1  0.299017  0.296759  0.612872  1
  B  B19  1  0.299583  0.703231  0.386512  1
  B  B20  1  0.000000  0.036625  0.187914  1
  B  B21  1  0.000000  0.963448  0.812789  1
  B  B22  1  0.000000  0.537355  0.312343  1
  B  B23  1  0.000000  0.463806  0.686582  1
  B  B24  1  0.000000  0.348596  0.196963  1
  B  B25  1  0.000000  0.653186  0.802706  1
