# generated using pymatgen
data_Th2Sc3ZnSb3
_symmetry_space_group_name_H-M   'P 1'
_cell_length_a   7.80108100
_cell_length_b   7.74309300
_cell_length_c   14.76729500
_cell_angle_alpha   90.00000000
_cell_angle_beta   90.00000000
_cell_angle_gamma   90.00000000
_symmetry_Int_Tables_number   1
_chemical_formula_structural   Th2Sc3ZnSb3
_chemical_formula_sum   'Th8 Sc12 Zn4 Sb12'
_cell_volume   892.01100708
_cell_formula_units_Z   4
loop_
 _symmetry_equiv_pos_site_id
 _symmetry_equiv_pos_as_xyz
  1  'x, y, z'
loop_
 _atom_site_type_symbol
 _atom_site_label
 _atom_site_symmetry_multiplicity
 _atom_site_fract_x
 _atom_site_fract_y
 _atom_site_fract_z
 _atom_site_occupancy
  Th  Th0  1  0.014417  0.686492  0.599002  1
  Th  Th1  1  0.985583  0.313508  0.400998  1
  Th  Th2  1  0.485583  0.186492  0.400998  1
  Th  Th3  1  0.985583  0.313508  0.099002  1
  Th  Th4  1  0.514417  0.813508  0.599002  1
  Th  Th5  1  0.014417  0.686492  0.900998  1
  Th  Th6  1  0.514417  0.813508  0.900998  1
  Th  Th7  1  0.485583  0.186492  0.099002  1
  Sc  Sc8  1  0.180100  0.993289  0.750000  1
  Sc  Sc9  1  0.819900  0.006711  0.250000  1
  Sc  Sc10  1  0.319900  0.493289  0.250000  1
  Sc  Sc11  1  0.680100  0.506711  0.750000  1
  Sc  Sc12  1  0.353387  0.354634  0.626618  1
  Sc  Sc13  1  0.646613  0.645366  0.373382  1
  Sc  Sc14  1  0.146613  0.854634  0.373382  1
  Sc  Sc15  1  0.646613  0.645366  0.126618  1
  Sc  Sc16  1  0.853387  0.145366  0.626618  1
  Sc  Sc17  1  0.353387  0.354634  0.873382  1
  Sc  Sc18  1  0.853387  0.145366  0.873382  1
  Sc  Sc19  1  0.146613  0.854634  0.126618  1
  Zn  Zn20  1  0.317897  0.645225  0.750000  1
  Zn  Zn21  1  0.682103  0.354775  0.250000  1
  Zn  Zn22  1  0.182103  0.145225  0.250000  1
  Zn  Zn23  1  0.817897  0.854775  0.750000  1
  Sb  Sb24  1  0.049927  0.375185  0.750000  1
  Sb  Sb25  1  0.950073  0.624815  0.250000  1
  Sb  Sb26  1  0.450073  0.875185  0.250000  1
  Sb  Sb27  1  0.549927  0.124815  0.750000  1
  Sb  Sb28  1  0.199173  0.053052  0.545978  1
  Sb  Sb29  1  0.800827  0.946948  0.454022  1
  Sb  Sb30  1  0.300827  0.553052  0.454022  1
  Sb  Sb31  1  0.800827  0.946948  0.045978  1
  Sb  Sb32  1  0.699173  0.446948  0.545978  1
  Sb  Sb33  1  0.199173  0.053052  0.954022  1
  Sb  Sb34  1  0.699173  0.446948  0.954022  1
  Sb  Sb35  1  0.300827  0.553052  0.045978  1
