# generated using pymatgen
data_Ho16InAg3Ir4
_symmetry_space_group_name_H-M   'P 1'
_cell_length_a   9.53950739
_cell_length_b   9.55012666
_cell_length_c   9.55012700
_cell_angle_alpha   60.00000228
_cell_angle_beta   59.96317148
_cell_angle_gamma   59.96317455
_symmetry_Int_Tables_number   1
_chemical_formula_structural   Ho16InAg3Ir4
_chemical_formula_sum   'Ho16 In1 Ag3 Ir4'
_cell_volume   614.87561082
_cell_formula_units_Z   1
loop_
 _symmetry_equiv_pos_site_id
 _symmetry_equiv_pos_as_xyz
  1  'x, y, z'
loop_
 _atom_site_type_symbol
 _atom_site_label
 _atom_site_symmetry_multiplicity
 _atom_site_fract_x
 _atom_site_fract_y
 _atom_site_fract_z
 _atom_site_occupancy
  Ho  Ho0  1  0.438266  0.437252  0.062241  1
  Ho  Ho1  1  0.650282  0.649699  0.050322  1
  Ho  Ho2  1  0.189628  0.809931  0.190510  1
  Ho  Ho3  1  0.065604  0.437043  0.060310  1
  Ho  Ho4  1  0.189628  0.809931  0.809931  1
  Ho  Ho5  1  0.065604  0.437043  0.437043  1
  Ho  Ho6  1  0.809562  0.190754  0.190754  1
  Ho  Ho7  1  0.650282  0.649699  0.649699  1
  Ho  Ho8  1  0.809562  0.190754  0.808929  1
  Ho  Ho9  1  0.189628  0.190510  0.809931  1
  Ho  Ho10  1  0.050639  0.649787  0.649787  1
  Ho  Ho11  1  0.438266  0.062241  0.062241  1
  Ho  Ho12  1  0.065604  0.060310  0.437043  1
  Ho  Ho13  1  0.650282  0.050322  0.649699  1
  Ho  Ho14  1  0.809562  0.808929  0.190754  1
  Ho  Ho15  1  0.438266  0.062241  0.437252  1
  In  In16  1  0.739991  0.420003  0.420003  1
  Ag  Ag17  1  0.416445  0.417412  0.417412  1
  Ag  Ag18  1  0.416445  0.417412  0.748733  1
  Ag  Ag19  1  0.416445  0.748733  0.417412  1
  Ir  Ir20  1  0.425193  0.858269  0.858269  1
  Ir  Ir21  1  0.858272  0.858111  0.858111  1
  Ir  Ir22  1  0.858272  0.425505  0.858111  1
  Ir  Ir23  1  0.858272  0.858111  0.425505  1
