# generated using pymatgen
data_Dy20Ir2Ru3Pt7
_symmetry_space_group_name_H-M   'P 1'
_cell_length_a   10.97533306
_cell_length_b   10.97042497
_cell_length_c   6.40237108
_cell_angle_alpha   89.99608406
_cell_angle_beta   89.98211745
_cell_angle_gamma   90.35259799
_symmetry_Int_Tables_number   1
_chemical_formula_structural   Dy20Ir2Ru3Pt7
_chemical_formula_sum   'Dy20 Ir2 Ru3 Pt7'
_cell_volume   770.85688572
_cell_formula_units_Z   1
loop_
 _symmetry_equiv_pos_site_id
 _symmetry_equiv_pos_as_xyz
  1  'x, y, z'
loop_
 _atom_site_type_symbol
 _atom_site_label
 _atom_site_symmetry_multiplicity
 _atom_site_fract_x
 _atom_site_fract_y
 _atom_site_fract_z
 _atom_site_occupancy
  Dy  Dy0  1  0.297113  0.085654  0.374902  1
  Dy  Dy1  1  0.296994  0.910419  0.874867  1
  Dy  Dy2  1  0.702825  0.086033  0.875071  1
  Dy  Dy3  1  0.703043  0.913796  0.374449  1
  Dy  Dy4  1  0.583392  0.795563  0.874181  1
  Dy  Dy5  1  0.586545  0.203691  0.375692  1
  Dy  Dy6  1  0.412067  0.794342  0.379164  1
  Dy  Dy7  1  0.413775  0.202467  0.875509  1
  Dy  Dy8  1  0.205935  0.415520  0.627399  1
  Dy  Dy9  1  0.206605  0.588975  0.120015  1
  Dy  Dy10  1  0.795358  0.412457  0.123167  1
  Dy  Dy11  1  0.796080  0.587422  0.625877  1
  Dy  Dy12  1  0.913250  0.703754  0.124193  1
  Dy  Dy13  1  0.912678  0.295780  0.626296  1
  Dy  Dy14  1  0.090956  0.704280  0.626548  1
  Dy  Dy15  1  0.087311  0.296140  0.124630  1
  Dy  Dy16  1  0.999868  0.999872  0.499729  1
  Dy  Dy17  1  0.000089  0.000079  0.998723  1
  Dy  Dy18  1  0.498157  0.501328  0.998331  1
  Dy  Dy19  1  0.498735  0.501743  0.500002  1
  Ir  Ir20  1  0.346922  0.652786  0.749503  1
  Ir  Ir21  1  0.999755  0.499746  0.376169  1
  Ru  Ru22  1  0.500362  0.000428  0.127569  1
  Ru  Ru23  1  0.500109  0.000433  0.626339  1
  Ru  Ru24  1  0.999400  0.499861  0.874538  1
  Pt  Pt25  1  0.846896  0.153504  0.249604  1
  Pt  Pt26  1  0.845954  0.846327  0.749966  1
  Pt  Pt27  1  0.153508  0.154189  0.749181  1
  Pt  Pt28  1  0.152716  0.846906  0.249532  1
  Pt  Pt29  1  0.653432  0.346734  0.749641  1
  Pt  Pt30  1  0.654455  0.653933  0.249627  1
  Pt  Pt31  1  0.345712  0.345838  0.249587  1
