# generated using pymatgen
data_KLi6RuO6
_symmetry_space_group_name_H-M   'P 1'
_cell_length_a   5.32418949
_cell_length_b   5.32421692
_cell_length_c   5.32424170
_cell_angle_alpha   101.26049153
_cell_angle_beta   101.25969661
_cell_angle_gamma   101.26005065
_symmetry_Int_Tables_number   1
_chemical_formula_structural   KLi6RuO6
_chemical_formula_sum   'K1 Li6 Ru1 O6'
_cell_volume   140.83419759
_cell_formula_units_Z   1
loop_
 _symmetry_equiv_pos_site_id
 _symmetry_equiv_pos_as_xyz
  1  'x, y, z'
loop_
 _atom_site_type_symbol
 _atom_site_label
 _atom_site_symmetry_multiplicity
 _atom_site_fract_x
 _atom_site_fract_y
 _atom_site_fract_z
 _atom_site_occupancy
  K  K0  1  0.500000  0.500000  0.500000  1
  Li  Li1  1  0.661267  0.338731  0.999998  1
  Li  Li2  1  0.338734  0.661270  0.000002  1
  Li  Li3  1  0.661268  0.000001  0.338733  1
  Li  Li4  1  0.000001  0.661270  0.338732  1
  Li  Li5  1  0.338734  0.999999  0.661268  1
  Li  Li6  1  0.999999  0.338732  0.661269  1
  Ru  Ru7  1  0.000000  0.000000  0.000000  1
  O  O8  1  0.727098  0.727101  0.080372  1
  O  O9  1  0.919629  0.272897  0.272897  1
  O  O10  1  0.272900  0.919627  0.272899  1
  O  O11  1  0.727100  0.080373  0.727101  1
  O  O12  1  0.080371  0.727103  0.727103  1
  O  O13  1  0.272902  0.272899  0.919628  1
