# generated using pymatgen
data_Sr6In4SbAs7
_symmetry_space_group_name_H-M   'P 1'
_cell_length_a   4.54114300
_cell_length_b   7.09360158
_cell_length_c   17.07174133
_cell_angle_alpha   90.04580056
_cell_angle_beta   90.00000000
_cell_angle_gamma   90.00000000
_symmetry_Int_Tables_number   1
_chemical_formula_structural   Sr6In4SbAs7
_chemical_formula_sum   'Sr6 In4 Sb1 As7'
_cell_volume   549.93283778
_cell_formula_units_Z   1
loop_
 _symmetry_equiv_pos_site_id
 _symmetry_equiv_pos_as_xyz
  1  'x, y, z'
loop_
 _atom_site_type_symbol
 _atom_site_label
 _atom_site_symmetry_multiplicity
 _atom_site_fract_x
 _atom_site_fract_y
 _atom_site_fract_z
 _atom_site_occupancy
  Sr  Sr0  1  0.500000  0.494718  0.505690  1
  Sr  Sr1  1  0.000000  0.295164  0.802435  1
  Sr  Sr2  1  0.500000  0.216363  0.302220  1
  Sr  Sr3  1  0.500000  0.795915  0.699089  1
  Sr  Sr4  1  0.000000  0.705246  0.188808  1
  Sr  Sr5  1  0.000000  0.001793  0.998217  1
  In  In6  1  0.500000  0.364672  0.084415  1
  In  In7  1  0.000000  0.133880  0.586396  1
  In  In8  1  0.000000  0.870613  0.419686  1
  In  In9  1  0.500000  0.633904  0.913641  1
  Sb  Sb10  1  0.500000  0.727765  0.331512  1
  As  As11  1  0.500000  0.255200  0.930518  1
  As  As12  1  0.000000  0.247647  0.432915  1
  As  As13  1  0.000000  0.754815  0.571983  1
  As  As14  1  0.500000  0.745310  0.065779  1
  As  As15  1  0.000000  0.758939  0.832885  1
  As  As16  1  0.500000  0.258480  0.668380  1
  As  As17  1  0.000000  0.239578  0.165430  1
