# generated using pymatgen
data_HoTm3Al18(NiRh)3
_symmetry_space_group_name_H-M   'P 1'
_cell_length_a   7.49305234
_cell_length_b   7.49294182
_cell_length_c   9.29450600
_cell_angle_alpha   89.89429361
_cell_angle_beta   89.89732944
_cell_angle_gamma   119.83871392
_symmetry_Int_Tables_number   1
_chemical_formula_structural   HoTm3Al18(NiRh)3
_chemical_formula_sum   'Ho1 Tm3 Al18 Ni3 Rh3'
_cell_volume   452.65648513
_cell_formula_units_Z   1
loop_
 _symmetry_equiv_pos_site_id
 _symmetry_equiv_pos_as_xyz
  1  'x, y, z'
loop_
 _atom_site_type_symbol
 _atom_site_label
 _atom_site_symmetry_multiplicity
 _atom_site_fract_x
 _atom_site_fract_y
 _atom_site_fract_z
 _atom_site_occupancy
  Ho  Ho0  1  0.994810  0.669024  0.249902  1
  Tm  Tm1  1  0.006987  0.332731  0.750192  1
  Tm  Tm2  1  0.667247  0.993015  0.249800  1
  Tm  Tm3  1  0.330970  0.005135  0.750064  1
  Al  Al4  1  0.120165  0.120096  0.249635  1
  Al  Al5  1  0.880067  0.879907  0.750363  1
  Al  Al6  1  0.994404  0.331374  0.074205  1
  Al  Al7  1  0.998719  0.666921  0.925763  1
  Al  Al8  1  0.000350  0.667609  0.574634  1
  Al  Al9  1  0.332534  0.999788  0.425566  1
  Al  Al10  1  0.998611  0.331052  0.425461  1
  Al  Al11  1  0.668819  0.001388  0.574618  1
  Al  Al12  1  0.668494  0.005602  0.925719  1
  Al  Al13  1  0.333231  0.001423  0.074034  1
  Al  Al14  1  0.330034  0.329438  0.551006  1
  Al  Al15  1  0.670434  0.669967  0.449092  1
  Al  Al16  1  0.669802  0.669137  0.050918  1
  Al  Al17  1  0.330871  0.330077  0.948987  1
  Al  Al18  1  0.338956  0.546079  0.249764  1
  Al  Al19  1  0.661764  0.449516  0.752719  1
  Al  Al20  1  0.550294  0.338101  0.247282  1
  Al  Al21  1  0.453885  0.661140  0.750235  1
  Ni  Ni22  1  0.671333  0.328595  0.999961  1
  Ni  Ni23  1  0.999512  0.000544  0.999960  1
  Ni  Ni24  1  0.000260  0.999799  0.500042  1
  Rh  Rh25  1  0.327234  0.672842  0.999913  1
  Rh  Rh26  1  0.328101  0.671972  0.500077  1
  Rh  Rh27  1  0.672111  0.327728  0.500086  1
