# generated using pymatgen
data_Ce2VReH18
_symmetry_space_group_name_H-M   'P 1'
_cell_length_a   4.75817400
_cell_length_b   4.75817352
_cell_length_c   8.93693200
_cell_angle_alpha   90.00000000
_cell_angle_beta   90.00000000
_cell_angle_gamma   120.00000337
_symmetry_Int_Tables_number   1
_chemical_formula_structural   Ce2VReH18
_chemical_formula_sum   'Ce2 V1 Re1 H18'
_cell_volume   175.22645114
_cell_formula_units_Z   1
loop_
 _symmetry_equiv_pos_site_id
 _symmetry_equiv_pos_as_xyz
  1  'x, y, z'
loop_
 _atom_site_type_symbol
 _atom_site_label
 _atom_site_symmetry_multiplicity
 _atom_site_fract_x
 _atom_site_fract_y
 _atom_site_fract_z
 _atom_site_occupancy
  Ce  Ce0  1  0.000000  0.000000  0.026118  1
  Ce  Ce1  1  0.000000  0.000000  0.473882  1
  V  V2  1  0.333333  0.666667  0.250000  1
  Re  Re3  1  0.666667  0.333333  0.750000  1
  H  H4  1  0.480834  0.519166  0.388187  1
  H  H5  1  0.480834  0.961668  0.388187  1
  H  H6  1  0.038332  0.519166  0.388187  1
  H  H7  1  0.959860  0.479930  0.886694  1
  H  H8  1  0.131255  0.262511  0.250000  1
  H  H9  1  0.868985  0.131015  0.750000  1
  H  H10  1  0.262031  0.131015  0.750000  1
  H  H11  1  0.737489  0.868745  0.250000  1
  H  H12  1  0.131255  0.868745  0.250000  1
  H  H13  1  0.868985  0.737969  0.750000  1
  H  H14  1  0.480834  0.961668  0.111813  1
  H  H15  1  0.520070  0.479930  0.613306  1
  H  H16  1  0.959860  0.479930  0.613306  1
  H  H17  1  0.038332  0.519166  0.111813  1
  H  H18  1  0.480834  0.519166  0.111813  1
  H  H19  1  0.520070  0.040140  0.886694  1
  H  H20  1  0.520070  0.479930  0.886694  1
  H  H21  1  0.520070  0.040140  0.613306  1
