# generated using pymatgen
data_DyEr15Cd4Ir3Pd
_symmetry_space_group_name_H-M   'P 1'
_cell_length_a   9.55635806
_cell_length_b   9.55635862
_cell_length_c   9.55914305
_cell_angle_alpha   60.12493043
_cell_angle_beta   60.12493547
_cell_angle_gamma   60.08393721
_symmetry_Int_Tables_number   1
_chemical_formula_structural   DyEr15Cd4Ir3Pd
_chemical_formula_sum   'Dy1 Er15 Cd4 Ir3 Pd1'
_cell_volume   618.84533511
_cell_formula_units_Z   1
loop_
 _symmetry_equiv_pos_site_id
 _symmetry_equiv_pos_as_xyz
  1  'x, y, z'
loop_
 _atom_site_type_symbol
 _atom_site_label
 _atom_site_symmetry_multiplicity
 _atom_site_fract_x
 _atom_site_fract_y
 _atom_site_fract_z
 _atom_site_occupancy
  Dy  Dy0  1  0.186842  0.186842  0.814823  1
  Er  Er1  1  0.597701  0.597701  0.597597  1
  Er  Er2  1  0.604091  0.604091  0.196991  1
  Er  Er3  1  0.604074  0.197018  0.603874  1
  Er  Er4  1  0.197018  0.604074  0.603874  1
  Er  Er5  1  0.054763  0.440689  0.440092  1
  Er  Er6  1  0.438585  0.060447  0.060663  1
  Er  Er7  1  0.440689  0.054763  0.440092  1
  Er  Er8  1  0.060447  0.438585  0.060663  1
  Er  Er9  1  0.440420  0.440420  0.054992  1
  Er  Er10  1  0.060599  0.060599  0.438219  1
  Er  Er11  1  0.188267  0.812737  0.813420  1
  Er  Er12  1  0.814342  0.186984  0.187567  1
  Er  Er13  1  0.812737  0.188267  0.813420  1
  Er  Er14  1  0.186984  0.814342  0.187567  1
  Er  Er15  1  0.813452  0.813452  0.188131  1
  Cd  Cd16  1  0.830973  0.830973  0.830703  1
  Cd  Cd17  1  0.830897  0.830897  0.505410  1
  Cd  Cd18  1  0.830142  0.506061  0.830882  1
  Cd  Cd19  1  0.506061  0.830142  0.830882  1
  Ir  Ir20  1  0.391772  0.391772  0.823973  1
  Ir  Ir21  1  0.391652  0.823810  0.391587  1
  Ir  Ir22  1  0.823810  0.391652  0.391587  1
  Pd  Pd23  1  0.393685  0.393685  0.392989  1
