# generated using pymatgen
data_Sm7Er(Si3Pt)4
_symmetry_space_group_name_H-M   'P 1'
_cell_length_a   8.20646200
_cell_length_b   8.19408479
_cell_length_c   8.37111900
_cell_angle_alpha   90.00000000
_cell_angle_beta   90.00000000
_cell_angle_gamma   120.04997970
_symmetry_Int_Tables_number   1
_chemical_formula_structural   Sm7Er(Si3Pt)4
_chemical_formula_sum   'Sm7 Er1 Si12 Pt4'
_cell_volume   487.24974500
_cell_formula_units_Z   1
loop_
 _symmetry_equiv_pos_site_id
 _symmetry_equiv_pos_as_xyz
  1  'x, y, z'
loop_
 _atom_site_type_symbol
 _atom_site_label
 _atom_site_symmetry_multiplicity
 _atom_site_fract_x
 _atom_site_fract_y
 _atom_site_fract_z
 _atom_site_occupancy
  Sm  Sm0  1  0.999998  0.999996  0.250000  1
  Sm  Sm1  1  0.000023  0.000046  0.750000  1
  Sm  Sm2  1  0.499180  0.500774  0.250000  1
  Sm  Sm3  1  0.499159  0.998319  0.250000  1
  Sm  Sm4  1  0.001594  0.500774  0.250000  1
  Sm  Sm5  1  0.500884  0.498868  0.750000  1
  Sm  Sm6  1  0.997983  0.498868  0.750000  1
  Er  Er7  1  0.500878  0.001757  0.750000  1
  Si  Si8  1  0.834144  0.165413  0.500381  1
  Si  Si9  1  0.834019  0.668039  0.498645  1
  Si  Si10  1  0.331267  0.165413  0.500381  1
  Si  Si11  1  0.834144  0.165413  0.999619  1
  Si  Si12  1  0.834019  0.668039  0.001355  1
  Si  Si13  1  0.331267  0.165413  0.999619  1
  Si  Si14  1  0.165804  0.834544  0.997494  1
  Si  Si15  1  0.668741  0.834544  0.997494  1
  Si  Si16  1  0.166036  0.332070  0.999075  1
  Si  Si17  1  0.165804  0.834544  0.502506  1
  Si  Si18  1  0.668741  0.834544  0.502506  1
  Si  Si19  1  0.166036  0.332070  0.500925  1
  Pt  Pt20  1  0.665589  0.331176  0.500713  1
  Pt  Pt21  1  0.665589  0.331176  0.999287  1
  Pt  Pt22  1  0.334550  0.669100  0.993748  1
  Pt  Pt23  1  0.334550  0.669100  0.506252  1
