# generated using pymatgen
data_YHo5Al24Os7Ru
_symmetry_space_group_name_H-M   'P 1'
_cell_length_a   8.82032503
_cell_length_b   8.82032542
_cell_length_c   9.54561000
_cell_angle_alpha   90.00090850
_cell_angle_beta   89.99909514
_cell_angle_gamma   119.99015039
_symmetry_Int_Tables_number   1
_chemical_formula_structural   YHo5Al24Os7Ru
_chemical_formula_sum   'Y1 Ho5 Al24 Os7 Ru1'
_cell_volume   643.20085332
_cell_formula_units_Z   1
loop_
 _symmetry_equiv_pos_site_id
 _symmetry_equiv_pos_as_xyz
  1  'x, y, z'
loop_
 _atom_site_type_symbol
 _atom_site_label
 _atom_site_symmetry_multiplicity
 _atom_site_fract_x
 _atom_site_fract_y
 _atom_site_fract_z
 _atom_site_occupancy
  Y  Y0  1  0.806822  0.193178  0.750406  1
  Ho  Ho1  1  0.193301  0.386635  0.249547  1
  Ho  Ho2  1  0.806643  0.613395  0.750456  1
  Ho  Ho3  1  0.613365  0.806699  0.249547  1
  Ho  Ho4  1  0.386605  0.193357  0.750456  1
  Ho  Ho5  1  0.193327  0.806673  0.249545  1
  Al  Al6  1  0.333318  0.666682  0.014943  1
  Al  Al7  1  0.666602  0.333398  0.985145  1
  Al  Al8  1  0.666602  0.333398  0.514876  1
  Al  Al9  1  0.333320  0.666680  0.485034  1
  Al  Al10  1  0.162557  0.324911  0.575849  1
  Al  Al11  1  0.837603  0.675159  0.424066  1
  Al  Al12  1  0.675089  0.837443  0.575849  1
  Al  Al13  1  0.837606  0.675169  0.075937  1
  Al  Al14  1  0.324841  0.162397  0.424066  1
  Al  Al15  1  0.162556  0.324905  0.924153  1
  Al  Al16  1  0.162436  0.837564  0.575922  1
  Al  Al17  1  0.324831  0.162394  0.075937  1
  Al  Al18  1  0.837575  0.162425  0.423934  1
  Al  Al19  1  0.675095  0.837444  0.924153  1
  Al  Al20  1  0.837583  0.162417  0.076066  1
  Al  Al21  1  0.162431  0.837569  0.924083  1
  Al  Al22  1  0.560239  0.120478  0.249868  1
  Al  Al23  1  0.439518  0.879337  0.750135  1
  Al  Al24  1  0.879522  0.439761  0.249868  1
  Al  Al25  1  0.120663  0.560482  0.750135  1
  Al  Al26  1  0.560249  0.439751  0.249867  1
  Al  Al27  1  0.439754  0.560246  0.750137  1
  Al  Al28  1  0.000004  0.999996  0.248267  1
  Al  Al29  1  0.000188  0.999812  0.751735  1
  Os  Os30  1  0.499808  0.999882  0.000174  1
  Os  Os31  1  0.000118  0.500192  0.000174  1
  Os  Os32  1  0.499812  0.999881  0.499831  1
  Os  Os33  1  0.499970  0.500030  0.000037  1
  Os  Os34  1  0.000119  0.500188  0.499831  1
  Os  Os35  1  0.499968  0.500032  0.499967  1
  Os  Os36  1  0.999979  0.000021  0.499990  1
  Ru  Ru37  1  0.999982  0.000018  0.000013  1
