# generated using pymatgen
data_PrNdSc6(BO3)8
_symmetry_space_group_name_H-M   'P 1'
_cell_length_a   6.30449583
_cell_length_b   6.30449579
_cell_length_c   12.14696994
_cell_angle_alpha   99.43653788
_cell_angle_beta   99.43654008
_cell_angle_gamma   103.75968931
_symmetry_Int_Tables_number   1
_chemical_formula_structural   PrNdSc6(BO3)8
_chemical_formula_sum   'Pr1 Nd1 Sc6 B8 O24'
_cell_volume   452.10373928
_cell_formula_units_Z   1
loop_
 _symmetry_equiv_pos_site_id
 _symmetry_equiv_pos_as_xyz
  1  'x, y, z'
loop_
 _atom_site_type_symbol
 _atom_site_label
 _atom_site_symmetry_multiplicity
 _atom_site_fract_x
 _atom_site_fract_y
 _atom_site_fract_z
 _atom_site_occupancy
  Pr  Pr0  1  0.034332  0.965669  0.750000  1
  Nd  Nd1  1  0.965856  0.034145  0.250000  1
  Sc  Sc2  1  0.297192  0.797751  0.025154  1
  Sc  Sc3  1  0.426396  0.573605  0.250000  1
  Sc  Sc4  1  0.202249  0.702808  0.474846  1
  Sc  Sc5  1  0.797540  0.297186  0.524701  1
  Sc  Sc6  1  0.573846  0.426156  0.750000  1
  Sc  Sc7  1  0.702814  0.202460  0.975298  1
  B  B8  1  0.778951  0.730578  0.000583  1
  B  B9  1  0.899135  0.505971  0.226259  1
  B  B10  1  0.494028  0.100865  0.273741  1
  B  B11  1  0.269422  0.221049  0.499417  1
  B  B12  1  0.730140  0.778944  0.500105  1
  B  B13  1  0.505858  0.898708  0.726113  1
  B  B14  1  0.101292  0.494142  0.773887  1
  B  B15  1  0.221056  0.269860  0.999896  1
  O  O16  1  0.636842  0.868118  0.004636  1
  O  O17  1  0.292567  0.483078  0.068159  1
  O  O18  1  0.991662  0.814365  0.069419  1
  O  O19  1  0.834396  0.303621  0.149254  1
  O  O20  1  0.432968  0.888447  0.205039  1
  O  O21  1  0.762642  0.646505  0.239701  1
  O  O22  1  0.353494  0.237358  0.260299  1
  O  O23  1  0.111553  0.567032  0.294961  1
  O  O24  1  0.696380  0.165605  0.350746  1
  O  O25  1  0.185635  0.008338  0.430580  1
  O  O26  1  0.516923  0.707434  0.431841  1
  O  O27  1  0.131882  0.363158  0.495364  1
  O  O28  1  0.868069  0.637242  0.504742  1
  O  O29  1  0.482649  0.291775  0.567778  1
  O  O30  1  0.813057  0.991913  0.568387  1
  O  O31  1  0.304631  0.834137  0.648444  1
  O  O32  1  0.888951  0.433080  0.705033  1
  O  O33  1  0.645141  0.761401  0.739881  1
  O  O34  1  0.238599  0.354858  0.760118  1
  O  O35  1  0.566920  0.111049  0.794966  1
  O  O36  1  0.165865  0.695371  0.851556  1
  O  O37  1  0.008087  0.186943  0.931614  1
  O  O38  1  0.708224  0.517351  0.932222  1
  O  O39  1  0.362758  0.131931  0.995259  1
