# generated using pymatgen
data_Yb2Lu2Ga15(SiIr2)3
_symmetry_space_group_name_H-M   'P 1'
_cell_length_a   7.55667733
_cell_length_b   7.47670594
_cell_length_c   9.46226122
_cell_angle_alpha   89.97985250
_cell_angle_beta   90.01711444
_cell_angle_gamma   119.90659501
_symmetry_Int_Tables_number   1
_chemical_formula_structural   Yb2Lu2Ga15(SiIr2)3
_chemical_formula_sum   'Yb2 Lu2 Ga15 Si3 Ir6'
_cell_volume   463.41992870
_cell_formula_units_Z   1
loop_
 _symmetry_equiv_pos_site_id
 _symmetry_equiv_pos_as_xyz
  1  'x, y, z'
loop_
 _atom_site_type_symbol
 _atom_site_label
 _atom_site_symmetry_multiplicity
 _atom_site_fract_x
 _atom_site_fract_y
 _atom_site_fract_z
 _atom_site_occupancy
  Yb  Yb0  1  0.672379  0.001979  0.248323  1
  Yb  Yb1  1  0.324505  0.993491  0.749752  1
  Lu  Lu2  1  0.995965  0.664181  0.247188  1
  Lu  Lu3  1  0.004913  0.343218  0.750903  1
  Ga  Ga4  1  0.129654  0.126362  0.250760  1
  Ga  Ga5  1  0.871387  0.870790  0.751022  1
  Ga  Ga6  1  0.342245  0.003977  0.419714  1
  Ga  Ga7  1  0.998313  0.325916  0.419251  1
  Ga  Ga8  1  0.666084  0.003193  0.580331  1
  Ga  Ga9  1  0.661911  0.999545  0.917670  1
  Ga  Ga10  1  0.340286  0.002822  0.081266  1
  Ga  Ga11  1  0.331171  0.327270  0.571138  1
  Ga  Ga12  1  0.660914  0.670065  0.430755  1
  Ga  Ga13  1  0.660557  0.670427  0.071690  1
  Ga  Ga14  1  0.336826  0.328213  0.927753  1
  Ga  Ga15  1  0.336019  0.547006  0.251172  1
  Ga  Ga16  1  0.662529  0.455438  0.752177  1
  Ga  Ga17  1  0.550184  0.340652  0.250844  1
  Ga  Ga18  1  0.451956  0.662059  0.750881  1
  Si  Si19  1  0.000670  0.328705  0.073379  1
  Si  Si20  1  0.998668  0.671202  0.928493  1
  Si  Si21  1  0.000797  0.665722  0.567695  1
  Ir  Ir22  1  0.698414  0.345247  0.002829  1
  Ir  Ir23  1  0.300932  0.654275  0.998171  1
  Ir  Ir24  1  0.313304  0.666549  0.503573  1
  Ir  Ir25  1  0.687829  0.345728  0.502095  1
  Ir  Ir26  1  0.000388  0.000433  0.000307  1
  Ir  Ir27  1  0.001199  0.985532  0.500867  1
