# generated using pymatgen
data_AcZn9Ag2
_symmetry_space_group_name_H-M   'P 1'
_cell_length_a   8.49688281
_cell_length_b   8.49688257
_cell_length_c   8.50832240
_cell_angle_alpha   99.95953463
_cell_angle_beta   99.44208684
_cell_angle_gamma   131.49431610
_symmetry_Int_Tables_number   1
_chemical_formula_structural   AcZn9Ag2
_chemical_formula_sum   'Ac2 Zn18 Ag4'
_cell_volume   419.60507282
_cell_formula_units_Z   2
loop_
 _symmetry_equiv_pos_site_id
 _symmetry_equiv_pos_as_xyz
  1  'x, y, z'
loop_
 _atom_site_type_symbol
 _atom_site_label
 _atom_site_symmetry_multiplicity
 _atom_site_fract_x
 _atom_site_fract_y
 _atom_site_fract_z
 _atom_site_occupancy
  Ac  Ac0  1  0.248396  0.748397  0.500000  1
  Ac  Ac1  1  0.001899  0.001899  0.999999  1
  Zn  Zn2  1  0.625278  0.378212  0.748519  1
  Zn  Zn3  1  0.125109  0.373985  0.745743  1
  Zn  Zn4  1  0.628241  0.379365  0.254256  1
  Zn  Zn5  1  0.629693  0.876759  0.251482  1
  Zn  Zn6  1  0.182929  0.101428  0.668060  1
  Zn  Zn7  1  0.763011  0.933696  0.583779  1
  Zn  Zn8  1  0.349917  0.179232  0.416221  1
  Zn  Zn9  1  0.433368  0.514869  0.331940  1
  Zn  Zn10  1  0.901692  0.817491  0.329740  1
  Zn  Zn11  1  0.487751  0.571953  0.670260  1
  Zn  Zn12  1  0.067264  0.238641  0.413893  1
  Zn  Zn13  1  0.824747  0.653371  0.586107  1
  Zn  Zn14  1  0.061864  0.642418  0.829376  1
  Zn  Zn15  1  0.486163  0.813462  0.917909  1
  Zn  Zn16  1  0.895553  0.568254  0.082091  1
  Zn  Zn17  1  0.813043  0.232489  0.170625  1
  Zn  Zn18  1  0.351464  0.936814  0.174607  1
  Zn  Zn19  1  0.762207  0.176857  0.825392  1
  Ag  Ag20  1  0.424482  0.094732  0.914116  1
  Ag  Ag21  1  0.180615  0.510365  0.085884  1
  Ag  Ag22  1  0.506060  0.506060  0.000000  1
  Ag  Ag23  1  0.749250  0.249251  0.500000  1
