# generated using pymatgen
data_Li4Dy3Sn4
_symmetry_space_group_name_H-M   'P 1'
_cell_length_a   8.62761851
_cell_length_b   8.62761902
_cell_length_c   8.62761820
_cell_angle_alpha   149.08181330
_cell_angle_beta   131.51284437
_cell_angle_gamma   58.62146307
_symmetry_Int_Tables_number   1
_chemical_formula_structural   Li4Dy3Sn4
_chemical_formula_sum   'Li4 Dy3 Sn4'
_cell_volume   245.16241547
_cell_formula_units_Z   1
loop_
 _symmetry_equiv_pos_site_id
 _symmetry_equiv_pos_as_xyz
  1  'x, y, z'
loop_
 _atom_site_type_symbol
 _atom_site_label
 _atom_site_symmetry_multiplicity
 _atom_site_fract_x
 _atom_site_fract_y
 _atom_site_fract_z
 _atom_site_occupancy
  Li  Li0  1  0.017407  0.326678  0.690730  1
  Li  Li1  1  0.982593  0.673322  0.309270  1
  Li  Li2  1  0.635948  0.326678  0.309270  1
  Li  Li3  1  0.364052  0.673322  0.690730  1
  Dy  Dy4  1  0.000000  0.000000  0.000000  1
  Dy  Dy5  1  0.372153  0.872153  0.500000  1
  Dy  Dy6  1  0.627847  0.127847  0.500000  1
  Sn  Sn7  1  0.213692  0.213692  0.000000  1
  Sn  Sn8  1  0.701748  0.500000  0.201748  1
  Sn  Sn9  1  0.298252  0.500000  0.798252  1
  Sn  Sn10  1  0.786308  0.786308  0.000000  1
