# generated using pymatgen
data_Nd6Mn3Ni16P13Pt
_symmetry_space_group_name_H-M   'P 1'
_cell_length_a   12.90435600
_cell_length_b   12.90435763
_cell_length_c   3.85111700
_cell_angle_alpha   90.00000000
_cell_angle_beta   90.00000000
_cell_angle_gamma   119.99999582
_symmetry_Int_Tables_number   1
_chemical_formula_structural   Nd6Mn3Ni16P13Pt
_chemical_formula_sum   'Nd6 Mn3 Ni16 P13 Pt1'
_cell_volume   555.37981224
_cell_formula_units_Z   1
loop_
 _symmetry_equiv_pos_site_id
 _symmetry_equiv_pos_as_xyz
  1  'x, y, z'
loop_
 _atom_site_type_symbol
 _atom_site_label
 _atom_site_symmetry_multiplicity
 _atom_site_fract_x
 _atom_site_fract_y
 _atom_site_fract_z
 _atom_site_occupancy
  Nd  Nd0  1  0.797461  0.948293  0.000000  1
  Nd  Nd1  1  0.051707  0.849169  0.000000  1
  Nd  Nd2  1  0.150831  0.202539  0.000000  1
  Nd  Nd3  1  0.519278  0.135053  0.500000  1
  Nd  Nd4  1  0.864947  0.384224  0.500000  1
  Nd  Nd5  1  0.615776  0.480722  0.500000  1
  Mn  Mn6  1  0.401761  0.816039  0.500000  1
  Mn  Mn7  1  0.183961  0.585722  0.500000  1
  Mn  Mn8  1  0.414278  0.598239  0.500000  1
  Ni  Ni9  1  0.528322  0.772565  0.000000  1
  Ni  Ni10  1  0.227435  0.755757  0.000000  1
  Ni  Ni11  1  0.244243  0.471678  0.000000  1
  Ni  Ni12  1  0.666667  0.333333  0.000000  1
  Ni  Ni13  1  0.770578  0.686827  0.000000  1
  Ni  Ni14  1  0.313173  0.083752  0.000000  1
  Ni  Ni15  1  0.916248  0.229422  0.000000  1
  Ni  Ni16  1  0.645128  0.736775  0.500000  1
  Ni  Ni17  1  0.263225  0.908353  0.500000  1
  Ni  Ni18  1  0.091647  0.354872  0.500000  1
  Ni  Ni19  1  0.360720  0.259166  0.500000  1
  Ni  Ni20  1  0.740834  0.101554  0.500000  1
  Ni  Ni21  1  0.898446  0.639280  0.500000  1
  Ni  Ni22  1  0.570966  0.983336  0.000000  1
  Ni  Ni23  1  0.016664  0.587630  0.000000  1
  Ni  Ni24  1  0.412370  0.429034  0.000000  1
  P  P25  1  0.846527  0.790572  0.500000  1
  P  P26  1  0.209428  0.055955  0.500000  1
  P  P27  1  0.944045  0.153473  0.500000  1
  P  P28  1  0.607158  0.898635  0.500000  1
  P  P29  1  0.101365  0.708522  0.500000  1
  P  P30  1  0.291478  0.392842  0.500000  1
  P  P31  1  0.468452  0.282510  0.000000  1
  P  P32  1  0.717490  0.185943  0.000000  1
  P  P33  1  0.814057  0.531548  0.000000  1
  P  P34  1  0.376825  0.945342  0.000000  1
  P  P35  1  0.054658  0.431483  0.000000  1
  P  P36  1  0.568517  0.623175  0.000000  1
  P  P37  1  0.333333  0.666667  0.000000  1
  Pt  Pt38  1  0.000000  0.000000  0.500000  1
