# generated using pymatgen
data_SmTl2Bi(Rh2O7)2
_symmetry_space_group_name_H-M   'P 1'
_cell_length_a   7.43285170
_cell_length_b   7.29360019
_cell_length_c   7.29359979
_cell_angle_alpha   58.89946085
_cell_angle_beta   59.27365570
_cell_angle_gamma   59.27365331
_symmetry_Int_Tables_number   1
_chemical_formula_structural   SmTl2Bi(Rh2O7)2
_chemical_formula_sum   'Sm1 Tl2 Bi1 Rh4 O14'
_cell_volume   274.16067067
_cell_formula_units_Z   1
loop_
 _symmetry_equiv_pos_site_id
 _symmetry_equiv_pos_as_xyz
  1  'x, y, z'
loop_
 _atom_site_type_symbol
 _atom_site_label
 _atom_site_symmetry_multiplicity
 _atom_site_fract_x
 _atom_site_fract_y
 _atom_site_fract_z
 _atom_site_occupancy
  Sm  Sm0  1  0.625000  0.125000  0.125000  1
  Tl  Tl1  1  0.125000  0.625000  0.125000  1
  Tl  Tl2  1  0.125000  0.125000  0.625000  1
  Bi  Bi3  1  0.125000  0.125000  0.125000  1
  Rh  Rh4  1  0.625000  0.625000  0.625000  1
  Rh  Rh5  1  0.625000  0.625000  0.125000  1
  Rh  Rh6  1  0.125000  0.625000  0.625000  1
  Rh  Rh7  1  0.625000  0.125000  0.625000  1
  O  O8  1  0.247707  0.248473  0.248473  1
  O  O9  1  0.293526  0.709028  0.291602  1
  O  O10  1  0.956474  0.958398  0.540972  1
  O  O11  1  0.544301  0.956223  0.545808  1
  O  O12  1  0.705699  0.704192  0.293777  1
  O  O13  1  0.958153  0.542800  0.542800  1
  O  O14  1  0.705699  0.293777  0.704192  1
  O  O15  1  0.293526  0.291602  0.709028  1
  O  O16  1  0.711814  0.289033  0.289033  1
  O  O17  1  0.291847  0.707200  0.707200  1
  O  O18  1  0.956474  0.540972  0.958398  1
  O  O19  1  0.544301  0.545808  0.956223  1
  O  O20  1  0.002293  0.001527  0.001527  1
  O  O21  1  0.538186  0.960967  0.960967  1
