# generated using pymatgen
data_YbDyPa2(Al3Ir)6
_symmetry_space_group_name_H-M   'P 1'
_cell_length_a   7.59784849
_cell_length_b   7.60059176
_cell_length_c   9.37796800
_cell_angle_alpha   90.00000000
_cell_angle_beta   90.00000000
_cell_angle_gamma   119.63449877
_symmetry_Int_Tables_number   1
_chemical_formula_structural   YbDyPa2(Al3Ir)6
_chemical_formula_sum   'Yb1 Dy1 Pa2 Al18 Ir6'
_cell_volume   470.72274204
_cell_formula_units_Z   1
loop_
 _symmetry_equiv_pos_site_id
 _symmetry_equiv_pos_as_xyz
  1  'x, y, z'
loop_
 _atom_site_type_symbol
 _atom_site_label
 _atom_site_symmetry_multiplicity
 _atom_site_fract_x
 _atom_site_fract_y
 _atom_site_fract_z
 _atom_site_occupancy
  Yb  Yb0  1  0.670325  0.994135  0.750000  1
  Dy  Dy1  1  0.330894  0.006629  0.250000  1
  Pa  Pa2  1  0.997803  0.671994  0.750000  1
  Pa  Pa3  1  0.002015  0.327815  0.250000  1
  Al  Al4  1  0.130947  0.126762  0.750000  1
  Al  Al5  1  0.868907  0.872369  0.250000  1
  Al  Al6  1  0.999662  0.331041  0.578837  1
  Al  Al7  1  0.999141  0.668097  0.421753  1
  Al  Al8  1  0.999141  0.668097  0.078247  1
  Al  Al9  1  0.339386  0.003440  0.924329  1
  Al  Al10  1  0.999662  0.331041  0.921163  1
  Al  Al11  1  0.661636  0.996217  0.073490  1
  Al  Al12  1  0.661636  0.996217  0.426510  1
  Al  Al13  1  0.339386  0.003440  0.575671  1
  Al  Al14  1  0.335301  0.333527  0.053568  1
  Al  Al15  1  0.664503  0.667133  0.945936  1
  Al  Al16  1  0.664503  0.667133  0.554064  1
  Al  Al17  1  0.335301  0.333527  0.446432  1
  Al  Al18  1  0.339962  0.548182  0.750000  1
  Al  Al19  1  0.659346  0.452474  0.250000  1
  Al  Al20  1  0.549613  0.342786  0.750000  1
  Al  Al21  1  0.451486  0.659113  0.250000  1
  Ir  Ir22  1  0.675619  0.330189  0.498912  1
  Ir  Ir23  1  0.322915  0.668945  0.499747  1
  Ir  Ir24  1  0.322915  0.668945  0.000253  1
  Ir  Ir25  1  0.675619  0.330189  0.001088  1
  Ir  Ir26  1  0.001189  0.000280  0.499395  1
  Ir  Ir27  1  0.001189  0.000280  0.000605  1
