# generated using pymatgen
data_La6TbIrRh2
_symmetry_space_group_name_H-M   'P 1'
_cell_length_a   10.24773923
_cell_length_b   10.24774111
_cell_length_c   6.44060178
_cell_angle_alpha   90.04876653
_cell_angle_beta   89.95122948
_cell_angle_gamma   119.89501251
_symmetry_Int_Tables_number   1
_chemical_formula_structural   La6TbIrRh2
_chemical_formula_sum   'La12 Tb2 Ir2 Rh4'
_cell_volume   586.36975185
_cell_formula_units_Z   2
loop_
 _symmetry_equiv_pos_site_id
 _symmetry_equiv_pos_as_xyz
  1  'x, y, z'
loop_
 _atom_site_type_symbol
 _atom_site_label
 _atom_site_symmetry_multiplicity
 _atom_site_fract_x
 _atom_site_fract_y
 _atom_site_fract_z
 _atom_site_occupancy
  La  La0  1  0.871868  0.745941  0.765212  1
  La  La1  1  0.254059  0.128132  0.765212  1
  La  La2  1  0.873334  0.126666  0.765244  1
  La  La3  1  0.127141  0.254259  0.263950  1
  La  La4  1  0.745741  0.872859  0.263950  1
  La  La5  1  0.127205  0.872795  0.264716  1
  La  La6  1  0.458027  0.915207  0.596419  1
  La  La7  1  0.084793  0.541973  0.596419  1
  La  La8  1  0.458118  0.541882  0.596829  1
  La  La9  1  0.543201  0.085256  0.095396  1
  La  La10  1  0.914744  0.456799  0.095396  1
  La  La11  1  0.542120  0.457880  0.095269  1
  Tb  Tb12  1  0.666645  0.333355  0.567774  1
  Tb  Tb13  1  0.333828  0.666172  0.065489  1
  Ir  Ir14  1  0.189748  0.380221  0.854106  1
  Ir  Ir15  1  0.619779  0.810252  0.854106  1
  Rh  Rh16  1  0.189841  0.810159  0.853701  1
  Rh  Rh17  1  0.809660  0.618793  0.351925  1
  Rh  Rh18  1  0.381207  0.190340  0.351925  1
  Rh  Rh19  1  0.808942  0.191058  0.352013  1
