# generated using pymatgen
data_YTm4Lu(Al3Os)8
_symmetry_space_group_name_H-M   'P 1'
_cell_length_a   8.77074607
_cell_length_b   8.77074533
_cell_length_c   9.58729100
_cell_angle_alpha   90.00000000
_cell_angle_beta   90.00000000
_cell_angle_gamma   119.96661621
_symmetry_Int_Tables_number   1
_chemical_formula_structural   YTm4Lu(Al3Os)8
_chemical_formula_sum   'Y1 Tm4 Lu1 Al24 Os8'
_cell_volume   638.91866699
_cell_formula_units_Z   1
loop_
 _symmetry_equiv_pos_site_id
 _symmetry_equiv_pos_as_xyz
  1  'x, y, z'
loop_
 _atom_site_type_symbol
 _atom_site_label
 _atom_site_symmetry_multiplicity
 _atom_site_fract_x
 _atom_site_fract_y
 _atom_site_fract_z
 _atom_site_occupancy
  Y  Y0  1  0.806887  0.193113  0.750000  1
  Tm  Tm1  1  0.194919  0.390439  0.250000  1
  Tm  Tm2  1  0.804627  0.609543  0.750000  1
  Tm  Tm3  1  0.609561  0.805081  0.250000  1
  Tm  Tm4  1  0.390457  0.195373  0.750000  1
  Lu  Lu5  1  0.195508  0.804492  0.250000  1
  Al  Al6  1  0.333168  0.666832  0.021283  1
  Al  Al7  1  0.666633  0.333367  0.979989  1
  Al  Al8  1  0.666633  0.333367  0.520011  1
  Al  Al9  1  0.333168  0.666832  0.478717  1
  Al  Al10  1  0.164126  0.327431  0.576052  1
  Al  Al11  1  0.836723  0.673497  0.423021  1
  Al  Al12  1  0.672569  0.835874  0.576052  1
  Al  Al13  1  0.836723  0.673497  0.076979  1
  Al  Al14  1  0.326503  0.163277  0.423021  1
  Al  Al15  1  0.164126  0.327431  0.923948  1
  Al  Al16  1  0.163316  0.836684  0.576157  1
  Al  Al17  1  0.326503  0.163277  0.076979  1
  Al  Al18  1  0.836448  0.163552  0.422209  1
  Al  Al19  1  0.672569  0.835874  0.923948  1
  Al  Al20  1  0.836448  0.163552  0.077791  1
  Al  Al21  1  0.163316  0.836684  0.923843  1
  Al  Al22  1  0.561046  0.123011  0.250000  1
  Al  Al23  1  0.437464  0.876178  0.750000  1
  Al  Al24  1  0.876989  0.438954  0.250000  1
  Al  Al25  1  0.123822  0.562536  0.750000  1
  Al  Al26  1  0.561463  0.438537  0.250000  1
  Al  Al27  1  0.438421  0.561579  0.750000  1
  Al  Al28  1  0.000039  0.999961  0.250000  1
  Al  Al29  1  0.001906  0.998094  0.750000  1
  Os  Os30  1  0.498898  0.999472  0.000846  1
  Os  Os31  1  0.000528  0.501102  0.000846  1
  Os  Os32  1  0.498898  0.999472  0.499154  1
  Os  Os33  1  0.499857  0.500143  0.000166  1
  Os  Os34  1  0.000528  0.501102  0.499154  1
  Os  Os35  1  0.499857  0.500143  0.499834  1
  Os  Os36  1  0.999674  0.000326  0.000018  1
  Os  Os37  1  0.999674  0.000326  0.499982  1
