# generated using pymatgen
data_NdThAl5Au3
_symmetry_space_group_name_H-M   'P 1'
_cell_length_a   4.32952300
_cell_length_b   4.34194000
_cell_length_c   10.84252600
_cell_angle_alpha   90.00000000
_cell_angle_beta   90.00000000
_cell_angle_gamma   90.00000000
_symmetry_Int_Tables_number   1
_chemical_formula_structural   NdThAl5Au3
_chemical_formula_sum   'Nd1 Th1 Al5 Au3'
_cell_volume   203.82354047
_cell_formula_units_Z   1
loop_
 _symmetry_equiv_pos_site_id
 _symmetry_equiv_pos_as_xyz
  1  'x, y, z'
loop_
 _atom_site_type_symbol
 _atom_site_label
 _atom_site_symmetry_multiplicity
 _atom_site_fract_x
 _atom_site_fract_y
 _atom_site_fract_z
 _atom_site_occupancy
  Nd  Nd0  1  0.500000  0.000000  0.747216  1
  Th  Th1  1  0.000000  0.500000  0.252111  1
  Al  Al2  1  0.500000  0.500000  0.000421  1
  Al  Al3  1  0.000000  0.000000  0.999393  1
  Al  Al4  1  0.000000  0.500000  0.639487  1
  Al  Al5  1  0.500000  0.000000  0.361258  1
  Al  Al6  1  0.000000  0.000000  0.499993  1
  Au  Au7  1  0.000000  0.500000  0.870023  1
  Au  Au8  1  0.500000  0.000000  0.131625  1
  Au  Au9  1  0.500000  0.500000  0.498471  1
