# generated using pymatgen
data_Sc14Si8Os7
_symmetry_space_group_name_H-M   'P 1'
_cell_length_a   8.94337073
_cell_length_b   8.94339122
_cell_length_c   8.94335400
_cell_angle_alpha   60.00016610
_cell_angle_beta   59.99989435
_cell_angle_gamma   59.99968352
_symmetry_Int_Tables_number   1
_chemical_formula_structural   Sc14Si8Os7
_chemical_formula_sum   'Sc14 Si8 Os7'
_cell_volume   505.81073982
_cell_formula_units_Z   1
loop_
 _symmetry_equiv_pos_site_id
 _symmetry_equiv_pos_as_xyz
  1  'x, y, z'
loop_
 _atom_site_type_symbol
 _atom_site_label
 _atom_site_symmetry_multiplicity
 _atom_site_fract_x
 _atom_site_fract_y
 _atom_site_fract_z
 _atom_site_occupancy
  Sc  Sc0  1  0.180444  0.819600  0.819584  1
  Sc  Sc1  1  0.819556  0.180400  0.180416  1
  Sc  Sc2  1  0.819563  0.180414  0.819615  1
  Sc  Sc3  1  0.819557  0.819623  0.180420  1
  Sc  Sc4  1  0.180437  0.819586  0.180385  1
  Sc  Sc5  1  0.180443  0.180377  0.819580  1
  Sc  Sc6  1  0.628024  0.628096  0.628080  1
  Sc  Sc7  1  0.628022  0.628079  0.115807  1
  Sc  Sc8  1  0.115837  0.628060  0.628046  1
  Sc  Sc9  1  0.628030  0.115800  0.628072  1
  Sc  Sc10  1  0.371976  0.371904  0.371920  1
  Sc  Sc11  1  0.371978  0.371921  0.884193  1
  Sc  Sc12  1  0.371970  0.884200  0.371928  1
  Sc  Sc13  1  0.884163  0.371940  0.371954  1
  Si  Si14  1  0.848291  0.848291  0.848292  1
  Si  Si15  1  0.848293  0.848291  0.455122  1
  Si  Si16  1  0.455118  0.848294  0.848293  1
  Si  Si17  1  0.848294  0.455124  0.848290  1
  Si  Si18  1  0.151709  0.151709  0.151708  1
  Si  Si19  1  0.151707  0.151709  0.544878  1
  Si  Si20  1  0.151706  0.544876  0.151710  1
  Si  Si21  1  0.544882  0.151706  0.151707  1
  Os  Os22  1  0.500000  0.500000  0.500000  1
  Os  Os23  1  0.000000  0.500000  0.500000  1
  Os  Os24  1  0.500000  0.000000  0.000000  1
  Os  Os25  1  0.500000  0.000000  0.500000  1
  Os  Os26  1  0.500000  0.500000  0.000000  1
  Os  Os27  1  0.000000  0.500000  0.000000  1
  Os  Os28  1  0.000000  0.000000  0.500000  1
