# generated using pymatgen
data_TbTh7CrS17
_symmetry_space_group_name_H-M   'P 1'
_cell_length_a   8.00762463
_cell_length_b   8.02315078
_cell_length_c   10.60843900
_cell_angle_alpha   80.57050054
_cell_angle_beta   80.57626161
_cell_angle_gamma   64.85797315
_symmetry_Int_Tables_number   1
_chemical_formula_structural   TbTh7CrS17
_chemical_formula_sum   'Tb1 Th7 Cr1 S17'
_cell_volume   605.25452221
_cell_formula_units_Z   1
loop_
 _symmetry_equiv_pos_site_id
 _symmetry_equiv_pos_as_xyz
  1  'x, y, z'
loop_
 _atom_site_type_symbol
 _atom_site_label
 _atom_site_symmetry_multiplicity
 _atom_site_fract_x
 _atom_site_fract_y
 _atom_site_fract_z
 _atom_site_occupancy
  Tb  Tb0  1  0.812987  0.303310  0.296897  1
  Th  Th1  1  0.300720  0.814096  0.293685  1
  Th  Th2  1  0.185716  0.698403  0.704393  1
  Th  Th3  1  0.698895  0.187169  0.702470  1
  Th  Th4  1  0.206020  0.205424  0.543859  1
  Th  Th5  1  0.794192  0.796116  0.451174  1
  Th  Th6  1  0.684257  0.676963  0.978956  1
  Th  Th7  1  0.317190  0.318362  0.026145  1
  Cr  Cr8  1  0.999558  0.002122  0.000876  1
  S  S9  1  0.824118  0.429834  0.530993  1
  S  S10  1  0.431716  0.821563  0.531967  1
  S  S11  1  0.177697  0.568643  0.467290  1
  S  S12  1  0.571103  0.177244  0.467717  1
  S  S13  1  0.944336  0.316552  0.027907  1
  S  S14  1  0.318703  0.945262  0.025069  1
  S  S15  1  0.055277  0.682717  0.974258  1
  S  S16  1  0.681963  0.055844  0.972926  1
  S  S17  1  0.207683  0.207515  0.279521  1
  S  S18  1  0.790341  0.790215  0.721212  1
  S  S19  1  0.058233  0.056950  0.777559  1
  S  S20  1  0.940034  0.949814  0.223356  1
  S  S21  1  0.302621  0.303534  0.757321  1
  S  S22  1  0.695752  0.695653  0.242507  1
  S  S23  1  0.520256  0.520636  0.831901  1
  S  S24  1  0.478545  0.480394  0.166578  1
  S  S25  1  0.002089  0.995670  0.503468  1
