# generated using pymatgen
data_HfNb5(B2Os5)2
_symmetry_space_group_name_H-M   'P 1'
_cell_length_a   9.56273803
_cell_length_b   9.56273916
_cell_length_c   3.05099800
_cell_angle_alpha   90.00000000
_cell_angle_beta   90.00000000
_cell_angle_gamma   89.99839426
_symmetry_Int_Tables_number   1
_chemical_formula_structural   HfNb5(B2Os5)2
_chemical_formula_sum   'Hf1 Nb5 B4 Os10'
_cell_volume   279.00146952
_cell_formula_units_Z   1
loop_
 _symmetry_equiv_pos_site_id
 _symmetry_equiv_pos_as_xyz
  1  'x, y, z'
loop_
 _atom_site_type_symbol
 _atom_site_label
 _atom_site_symmetry_multiplicity
 _atom_site_fract_x
 _atom_site_fract_y
 _atom_site_fract_z
 _atom_site_occupancy
  Hf  Hf0  1  0.823310  0.676690  0.000000  1
  Nb  Nb1  1  0.177031  0.322969  0.000000  1
  Nb  Nb2  1  0.323078  0.822105  0.000000  1
  Nb  Nb3  1  0.677895  0.176922  0.000000  1
  Nb  Nb4  1  0.499963  0.500163  0.000000  1
  Nb  Nb5  1  0.999837  0.000037  0.000000  1
  B  B6  1  0.621097  0.878903  0.000000  1
  B  B7  1  0.378564  0.121436  0.000000  1
  B  B8  1  0.120650  0.621396  0.000000  1
  B  B9  1  0.878604  0.379350  0.000000  1
  Os  Os10  1  0.567969  0.720210  0.500000  1
  Os  Os11  1  0.428416  0.280820  0.500000  1
  Os  Os12  1  0.074190  0.781694  0.500000  1
  Os  Os13  1  0.929081  0.218903  0.500000  1
  Os  Os14  1  0.281097  0.570919  0.500000  1
  Os  Os15  1  0.718306  0.425810  0.500000  1
  Os  Os16  1  0.219180  0.071584  0.500000  1
  Os  Os17  1  0.779790  0.932031  0.500000  1
  Os  Os18  1  0.499359  0.000641  0.500000  1
  Os  Os19  1  0.002580  0.497420  0.500000  1
