# generated using pymatgen
data_Sm3In3Ag2Pt
_symmetry_space_group_name_H-M   'P 1'
_cell_length_a   8.03832800
_cell_length_b   8.03832865
_cell_length_c   3.86609700
_cell_angle_alpha   90.00000000
_cell_angle_beta   90.00000000
_cell_angle_gamma   119.99999733
_symmetry_Int_Tables_number   1
_chemical_formula_structural   Sm3In3Ag2Pt
_chemical_formula_sum   'Sm3 In3 Ag2 Pt1'
_cell_volume   216.33902664
_cell_formula_units_Z   1
loop_
 _symmetry_equiv_pos_site_id
 _symmetry_equiv_pos_as_xyz
  1  'x, y, z'
loop_
 _atom_site_type_symbol
 _atom_site_label
 _atom_site_symmetry_multiplicity
 _atom_site_fract_x
 _atom_site_fract_y
 _atom_site_fract_z
 _atom_site_occupancy
  Sm  Sm0  1  0.020747  0.607467  0.500000  1
  Sm  Sm1  1  0.586720  0.979253  0.500000  1
  Sm  Sm2  1  0.392533  0.413280  0.500000  1
  In  In3  1  0.990240  0.261953  0.000000  1
  In  In4  1  0.271712  0.009760  0.000000  1
  In  In5  1  0.738047  0.728288  0.000000  1
  Ag  Ag6  1  0.000000  0.000000  0.500000  1
  Ag  Ag7  1  0.666667  0.333333  0.000000  1
  Pt  Pt8  1  0.333333  0.666667  0.000000  1
