# generated using pymatgen
data_HfSc7Si4Pt13Rh
_symmetry_space_group_name_H-M   'P 1'
_cell_length_a   4.01289300
_cell_length_b   6.53718205
_cell_length_c   16.39327453
_cell_angle_alpha   90.04638133
_cell_angle_beta   90.00000000
_cell_angle_gamma   90.00000000
_symmetry_Int_Tables_number   1
_chemical_formula_structural   HfSc7Si4Pt13Rh
_chemical_formula_sum   'Hf1 Sc7 Si4 Pt13 Rh1'
_cell_volume   430.04482809
_cell_formula_units_Z   1
loop_
 _symmetry_equiv_pos_site_id
 _symmetry_equiv_pos_as_xyz
  1  'x, y, z'
loop_
 _atom_site_type_symbol
 _atom_site_label
 _atom_site_symmetry_multiplicity
 _atom_site_fract_x
 _atom_site_fract_y
 _atom_site_fract_z
 _atom_site_occupancy
  Hf  Hf0  1  0.000000  0.282602  0.458077  1
  Sc  Sc1  1  0.000000  0.714549  0.537542  1
  Sc  Sc2  1  0.000000  0.785494  0.039926  1
  Sc  Sc3  1  0.000000  0.214598  0.961099  1
  Sc  Sc4  1  0.000000  0.533085  0.289124  1
  Sc  Sc5  1  0.000000  0.474897  0.709843  1
  Sc  Sc6  1  0.000000  0.025556  0.211762  1
  Sc  Sc7  1  0.000000  0.973520  0.790696  1
  Si  Si8  1  0.500000  0.839547  0.309296  1
  Si  Si9  1  0.500000  0.161005  0.692334  1
  Si  Si10  1  0.500000  0.337189  0.193905  1
  Si  Si11  1  0.500000  0.662045  0.807396  1
  Pt  Pt12  1  0.000000  0.093067  0.616303  1
  Pt  Pt13  1  0.000000  0.407256  0.117880  1
  Pt  Pt14  1  0.000000  0.591366  0.882459  1
  Pt  Pt15  1  0.500000  0.593594  0.421020  1
  Pt  Pt16  1  0.500000  0.404262  0.577769  1
  Pt  Pt17  1  0.500000  0.093826  0.079518  1
  Pt  Pt18  1  0.500000  0.905967  0.921203  1
  Pt  Pt19  1  0.500000  0.499966  0.000360  1
  Pt  Pt20  1  0.500000  0.001173  0.498334  1
  Pt  Pt21  1  0.500000  0.212503  0.333670  1
  Pt  Pt22  1  0.500000  0.784874  0.668135  1
  Pt  Pt23  1  0.500000  0.713961  0.169125  1
  Pt  Pt24  1  0.500000  0.285644  0.831141  1
  Rh  Rh25  1  0.000000  0.908454  0.382080  1
