# generated using pymatgen
data_Tm3Lu5In3Rh
_symmetry_space_group_name_H-M   'P 1'
_cell_length_a   10.24801500
_cell_length_b   10.24801360
_cell_length_c   6.92471400
_cell_angle_alpha   90.00000000
_cell_angle_beta   90.00000000
_cell_angle_gamma   120.00000129
_symmetry_Int_Tables_number   1
_chemical_formula_structural   Tm3Lu5In3Rh
_chemical_formula_sum   'Tm6 Lu10 In6 Rh2'
_cell_volume   629.81342345
_cell_formula_units_Z   2
loop_
 _symmetry_equiv_pos_site_id
 _symmetry_equiv_pos_as_xyz
  1  'x, y, z'
loop_
 _atom_site_type_symbol
 _atom_site_label
 _atom_site_symmetry_multiplicity
 _atom_site_fract_x
 _atom_site_fract_y
 _atom_site_fract_z
 _atom_site_occupancy
  Tm  Tm0  1  0.532471  0.064944  0.524362  1
  Tm  Tm1  1  0.935056  0.467529  0.524362  1
  Tm  Tm2  1  0.532471  0.467529  0.524362  1
  Tm  Tm3  1  0.467529  0.935056  0.024362  1
  Tm  Tm4  1  0.064944  0.532471  0.024362  1
  Tm  Tm5  1  0.467529  0.532471  0.024362  1
  Lu  Lu6  1  0.177050  0.354100  0.728078  1
  Lu  Lu7  1  0.645900  0.822950  0.728078  1
  Lu  Lu8  1  0.177050  0.822950  0.728078  1
  Lu  Lu9  1  0.822950  0.645900  0.228078  1
  Lu  Lu10  1  0.354100  0.177050  0.228078  1
  Lu  Lu11  1  0.822950  0.177050  0.228078  1
  Lu  Lu12  1  0.666667  0.333333  0.905341  1
  Lu  Lu13  1  0.333333  0.666667  0.405341  1
  Lu  Lu14  1  0.000000  0.000000  0.507890  1
  Lu  Lu15  1  0.000000  0.000000  0.007890  1
  In  In16  1  0.837533  0.675065  0.770031  1
  In  In17  1  0.324935  0.162467  0.770031  1
  In  In18  1  0.837533  0.162467  0.770031  1
  In  In19  1  0.162467  0.324935  0.270031  1
  In  In20  1  0.675065  0.837533  0.270031  1
  In  In21  1  0.162467  0.837533  0.270031  1
  Rh  Rh22  1  0.666667  0.333333  0.297198  1
  Rh  Rh23  1  0.333333  0.666667  0.797198  1
