# generated using pymatgen
data_Rb4Pr3Sm(SiSe4)4
_symmetry_space_group_name_H-M   'P 1'
_cell_length_a   7.11972263
_cell_length_b   6.84779933
_cell_length_c   19.07039014
_cell_angle_alpha   72.02335389
_cell_angle_beta   89.96438107
_cell_angle_gamma   90.01962688
_symmetry_Int_Tables_number   1
_chemical_formula_structural   Rb4Pr3Sm(SiSe4)4
_chemical_formula_sum   'Rb4 Pr3 Sm1 Si4 Se16'
_cell_volume   884.37677345
_cell_formula_units_Z   1
loop_
 _symmetry_equiv_pos_site_id
 _symmetry_equiv_pos_as_xyz
  1  'x, y, z'
loop_
 _atom_site_type_symbol
 _atom_site_label
 _atom_site_symmetry_multiplicity
 _atom_site_fract_x
 _atom_site_fract_y
 _atom_site_fract_z
 _atom_site_occupancy
  Rb  Rb0  1  0.250973  0.727123  0.034193  1
  Rb  Rb1  1  0.249097  0.726877  0.533585  1
  Rb  Rb2  1  0.751047  0.272772  0.465759  1
  Rb  Rb3  1  0.748917  0.272378  0.966545  1
  Pr  Pr4  1  0.772363  0.227819  0.226381  1
  Pr  Pr5  1  0.228018  0.772567  0.773916  1
  Pr  Pr6  1  0.728055  0.227585  0.726136  1
  Sm  Sm7  1  0.275227  0.771403  0.273691  1
  Si  Si8  1  0.261299  0.214880  0.837309  1
  Si  Si9  1  0.239205  0.215950  0.335948  1
  Si  Si10  1  0.761387  0.785300  0.662683  1
  Si  Si11  1  0.738499  0.783652  0.164097  1
  Se  Se12  1  0.493916  0.982836  0.647219  1
  Se  Se13  1  0.182770  0.419539  0.217935  1
  Se  Se14  1  0.503700  0.013831  0.351340  1
  Se  Se15  1  0.993752  0.017377  0.852793  1
  Se  Se16  1  0.315123  0.411328  0.717831  1
  Se  Se17  1  0.257833  0.411289  0.913701  1
  Se  Se18  1  0.742822  0.590065  0.086631  1
  Se  Se19  1  0.814930  0.588881  0.782155  1
  Se  Se20  1  0.757864  0.588885  0.586305  1
  Se  Se21  1  0.243610  0.416162  0.411141  1
  Se  Se22  1  0.495923  0.972354  0.861708  1
  Se  Se23  1  0.996054  0.027889  0.638245  1
  Se  Se24  1  0.503536  0.025998  0.139634  1
  Se  Se25  1  0.008453  0.978735  0.150214  1
  Se  Se26  1  0.007570  0.970147  0.359996  1
  Se  Se27  1  0.678055  0.586378  0.282911  1
