# generated using pymatgen
data_ErTm7B24IrRu3
_symmetry_space_group_name_H-M   'P 1'
_cell_length_a   3.62268900
_cell_length_b   9.08374391
_cell_length_c   11.42651702
_cell_angle_alpha   90.02268077
_cell_angle_beta   90.00000000
_cell_angle_gamma   90.00000000
_symmetry_Int_Tables_number   1
_chemical_formula_structural   ErTm7B24IrRu3
_chemical_formula_sum   'Er1 Tm7 B24 Ir1 Ru3'
_cell_volume   376.01898374
_cell_formula_units_Z   1
loop_
 _symmetry_equiv_pos_site_id
 _symmetry_equiv_pos_as_xyz
  1  'x, y, z'
loop_
 _atom_site_type_symbol
 _atom_site_label
 _atom_site_symmetry_multiplicity
 _atom_site_fract_x
 _atom_site_fract_y
 _atom_site_fract_z
 _atom_site_occupancy
  Er  Er0  1  0.000000  0.318562  0.414453  1
  Tm  Tm1  1  0.000000  0.679536  0.589147  1
  Tm  Tm2  1  0.000000  0.823054  0.084004  1
  Tm  Tm3  1  0.000000  0.179051  0.913179  1
  Tm  Tm4  1  0.000000  0.945677  0.373363  1
  Tm  Tm5  1  0.000000  0.055867  0.626868  1
  Tm  Tm6  1  0.000000  0.441919  0.125357  1
  Tm  Tm7  1  0.000000  0.555871  0.873484  1
  B  B8  1  0.500000  0.553801  0.434217  1
  B  B9  1  0.500000  0.446223  0.566643  1
  B  B10  1  0.500000  0.054044  0.066444  1
  B  B11  1  0.500000  0.946340  0.933187  1
  B  B12  1  0.500000  0.749847  0.421615  1
  B  B13  1  0.500000  0.250970  0.579877  1
  B  B14  1  0.500000  0.248304  0.079349  1
  B  B15  1  0.500000  0.751610  0.920416  1
  B  B16  1  0.500000  0.792864  0.265177  1
  B  B17  1  0.500000  0.208207  0.734110  1
  B  B18  1  0.500000  0.292000  0.234406  1
  B  B19  1  0.500000  0.708044  0.765899  1
  B  B20  1  0.500000  0.631829  0.183198  1
  B  B21  1  0.500000  0.368586  0.815232  1
  B  B22  1  0.500000  0.131471  0.315353  1
  B  B23  1  0.500000  0.868209  0.684885  1
  B  B24  1  0.500000  0.982198  0.212926  1
  B  B25  1  0.500000  0.017617  0.786899  1
  B  B26  1  0.500000  0.481351  0.286523  1
  B  B27  1  0.500000  0.517651  0.713275  1
  B  B28  1  0.500000  0.608658  0.030070  1
  B  B29  1  0.500000  0.391438  0.970129  1
  B  B30  1  0.500000  0.107707  0.470457  1
  B  B31  1  0.500000  0.891372  0.529552  1
  Ir  Ir32  1  0.000000  0.637656  0.321527  1
  Ru  Ru33  1  0.000000  0.362458  0.678655  1
  Ru  Ru34  1  0.000000  0.137790  0.179209  1
  Ru  Ru35  1  0.000000  0.862220  0.820914  1
