# generated using pymatgen
data_Nb2BIrRu5
_symmetry_space_group_name_H-M   'P 1'
_cell_length_a   5.64443466
_cell_length_b   5.63815705
_cell_length_c   5.63815650
_cell_angle_alpha   60.07368196
_cell_angle_beta   59.96315947
_cell_angle_gamma   59.96315753
_symmetry_Int_Tables_number   1
_chemical_formula_structural   Nb2BIrRu5
_chemical_formula_sum   'Nb2 B1 Ir1 Ru5'
_cell_volume   126.87576285
_cell_formula_units_Z   1
loop_
 _symmetry_equiv_pos_site_id
 _symmetry_equiv_pos_as_xyz
  1  'x, y, z'
loop_
 _atom_site_type_symbol
 _atom_site_label
 _atom_site_symmetry_multiplicity
 _atom_site_fract_x
 _atom_site_fract_y
 _atom_site_fract_z
 _atom_site_occupancy
  Nb  Nb0  1  0.249923  0.250077  0.250077  1
  Nb  Nb1  1  0.749923  0.750077  0.750077  1
  B  B2  1  0.498573  0.501427  0.501427  1
  Ir  Ir3  1  0.759530  0.240470  0.240470  1
  Ru  Ru4  1  0.241255  0.758745  0.240724  1
  Ru  Ru5  1  0.759276  0.758745  0.240724  1
  Ru  Ru6  1  0.241255  0.240724  0.758745  1
  Ru  Ru7  1  0.759276  0.240724  0.758745  1
  Ru  Ru8  1  0.240990  0.759010  0.759010  1
