# generated using pymatgen
data_MnFe2(PO4)2
_symmetry_space_group_name_H-M   'P 1'
_cell_length_a   5.22473016
_cell_length_b   8.64944001
_cell_length_c   7.86249048
_cell_angle_alpha   89.99679723
_cell_angle_beta   85.93875309
_cell_angle_gamma   89.99713718
_symmetry_Int_Tables_number   1
_chemical_formula_structural   MnFe2(PO4)2
_chemical_formula_sum   'Mn2 Fe4 P4 O16'
_cell_volume   354.42150517
_cell_formula_units_Z   2
loop_
 _symmetry_equiv_pos_site_id
 _symmetry_equiv_pos_as_xyz
  1  'x, y, z'
loop_
 _atom_site_type_symbol
 _atom_site_label
 _atom_site_symmetry_multiplicity
 _atom_site_fract_x
 _atom_site_fract_y
 _atom_site_fract_z
 _atom_site_occupancy
  Mn  Mn0  1  0.500187  0.500227  0.499964  1
  Mn  Mn1  1  0.000159  0.000071  0.999526  1
  Fe  Fe2  1  0.414213  0.146201  0.615902  1
  Fe  Fe3  1  0.585979  0.853772  0.384235  1
  Fe  Fe4  1  0.086037  0.646205  0.884285  1
  Fe  Fe5  1  0.913952  0.353812  0.115808  1
  P  P6  1  0.030925  0.693599  0.295041  1
  P  P7  1  0.468891  0.193576  0.204977  1
  P  P8  1  0.531128  0.806376  0.795113  1
  P  P9  1  0.968948  0.306386  0.704919  1
  O  O10  1  0.040093  0.579616  0.141486  1
  O  O11  1  0.459720  0.079623  0.358625  1
  O  O12  1  0.540384  0.920328  0.641424  1
  O  O13  1  0.959799  0.420335  0.858582  1
  O  O14  1  0.058204  0.142347  0.761067  1
  O  O15  1  0.441846  0.642367  0.739018  1
  O  O16  1  0.558142  0.357598  0.261101  1
  O  O17  1  0.941753  0.857575  0.238880  1
  O  O18  1  0.199445  0.198656  0.134121  1
  O  O19  1  0.300366  0.698610  0.365892  1
  O  O20  1  0.699400  0.301312  0.634170  1
  O  O21  1  0.800591  0.801305  0.865939  1
  O  O22  1  0.174549  0.356286  0.564136  1
  O  O23  1  0.325461  0.856338  0.935798  1
  O  O24  1  0.674507  0.143744  0.064206  1
  O  O25  1  0.825321  0.643738  0.435787  1
