# generated using pymatgen
data_Er4MnAl6Rh
_symmetry_space_group_name_H-M   'P 1'
_cell_length_a   5.51199400
_cell_length_b   5.51199328
_cell_length_c   8.71429700
_cell_angle_alpha   90.00000000
_cell_angle_beta   90.00000000
_cell_angle_gamma   120.00000431
_symmetry_Int_Tables_number   1
_chemical_formula_structural   Er4MnAl6Rh
_chemical_formula_sum   'Er4 Mn1 Al6 Rh1'
_cell_volume   229.28750365
_cell_formula_units_Z   1
loop_
 _symmetry_equiv_pos_site_id
 _symmetry_equiv_pos_as_xyz
  1  'x, y, z'
loop_
 _atom_site_type_symbol
 _atom_site_label
 _atom_site_symmetry_multiplicity
 _atom_site_fract_x
 _atom_site_fract_y
 _atom_site_fract_z
 _atom_site_occupancy
  Er  Er0  1  0.666667  0.333333  0.056433  1
  Er  Er1  1  0.666667  0.333333  0.443444  1
  Er  Er2  1  0.333333  0.666666  0.556556  1
  Er  Er3  1  0.333333  0.666666  0.943567  1
  Mn  Mn4  1  0.000000  0.000000  0.000000  1
  Al  Al5  1  0.163451  0.326901  0.250408  1
  Al  Al6  1  0.163451  0.836549  0.250408  1
  Al  Al7  1  0.673100  0.836549  0.250408  1
  Al  Al8  1  0.326901  0.163451  0.749592  1
  Al  Al9  1  0.836548  0.163451  0.749592  1
  Al  Al10  1  0.836550  0.673099  0.749592  1
  Rh  Rh11  1  0.000000  0.000000  0.500000  1
