# generated using pymatgen
data_HoEr7(TcC2)4
_symmetry_space_group_name_H-M   'P 1'
_cell_length_a   5.04745600
_cell_length_b   6.53166251
_cell_length_c   9.80234776
_cell_angle_alpha   89.95479151
_cell_angle_beta   90.00000000
_cell_angle_gamma   90.00000000
_symmetry_Int_Tables_number   1
_chemical_formula_structural   HoEr7(TcC2)4
_chemical_formula_sum   'Ho1 Er7 Tc4 C8'
_cell_volume   323.16643645
_cell_formula_units_Z   1
loop_
 _symmetry_equiv_pos_site_id
 _symmetry_equiv_pos_as_xyz
  1  'x, y, z'
loop_
 _atom_site_type_symbol
 _atom_site_label
 _atom_site_symmetry_multiplicity
 _atom_site_fract_x
 _atom_site_fract_y
 _atom_site_fract_z
 _atom_site_occupancy
  Ho  Ho0  1  0.750000  0.533628  0.783400  1
  Er  Er1  1  0.250000  0.966153  0.283131  1
  Er  Er2  1  0.750000  0.676344  0.441482  1
  Er  Er3  1  0.250000  0.823777  0.941674  1
  Er  Er4  1  0.750000  0.176428  0.058517  1
  Er  Er5  1  0.250000  0.323579  0.558341  1
  Er  Er6  1  0.250000  0.466122  0.216808  1
  Er  Er7  1  0.750000  0.033746  0.716745  1
  Tc  Tc8  1  0.250000  0.282495  0.867754  1
  Tc  Tc9  1  0.250000  0.782846  0.632143  1
  Tc  Tc10  1  0.750000  0.217131  0.367627  1
  Tc  Tc11  1  0.750000  0.717454  0.132386  1
  C  C12  1  0.250000  0.676466  0.448796  1
  C  C13  1  0.250000  0.550092  0.758333  1
  C  C14  1  0.750000  0.449909  0.241495  1
  C  C15  1  0.750000  0.824268  0.949158  1
  C  C16  1  0.250000  0.050007  0.741513  1
  C  C17  1  0.250000  0.176375  0.051250  1
  C  C18  1  0.750000  0.323242  0.550928  1
  C  C19  1  0.750000  0.949939  0.258518  1
