# generated using pymatgen
data_Ce4(HgRu)3
_symmetry_space_group_name_H-M   'P 1'
_cell_length_a   7.80192800
_cell_length_b   7.80192697
_cell_length_c   3.75750400
_cell_angle_alpha   90.00000000
_cell_angle_beta   90.00000000
_cell_angle_gamma   91.32495402
_symmetry_Int_Tables_number   1
_chemical_formula_structural   Ce4(HgRu)3
_chemical_formula_sum   'Ce4 Hg3 Ru3'
_cell_volume   228.65838900
_cell_formula_units_Z   1
loop_
 _symmetry_equiv_pos_site_id
 _symmetry_equiv_pos_as_xyz
  1  'x, y, z'
loop_
 _atom_site_type_symbol
 _atom_site_label
 _atom_site_symmetry_multiplicity
 _atom_site_fract_x
 _atom_site_fract_y
 _atom_site_fract_z
 _atom_site_occupancy
  Ce  Ce0  1  0.133750  0.366250  0.500000  1
  Ce  Ce1  1  0.339160  0.796574  0.500000  1
  Ce  Ce2  1  0.818288  0.681712  0.500000  1
  Ce  Ce3  1  0.703426  0.160840  0.500000  1
  Hg  Hg4  1  0.503895  0.494088  0.000000  1
  Hg  Hg5  1  0.005912  0.996105  0.000000  1
  Hg  Hg6  1  0.368331  0.131669  0.000000  1
  Ru  Ru7  1  0.631871  0.868129  0.000000  1
  Ru  Ru8  1  0.139405  0.644039  0.000000  1
  Ru  Ru9  1  0.855961  0.360595  0.000000  1
