# generated using pymatgen
data_Tm5Lu7Zr4(CdIr)4
_symmetry_space_group_name_H-M   'P 1'
_cell_length_a   9.36484367
_cell_length_b   9.36245605
_cell_length_c   9.36245614
_cell_angle_alpha   60.00465472
_cell_angle_beta   59.99157304
_cell_angle_gamma   59.99157351
_symmetry_Int_Tables_number   1
_chemical_formula_structural   Tm5Lu7Zr4(CdIr)4
_chemical_formula_sum   'Tm5 Lu7 Zr4 Cd4 Ir4'
_cell_volume   580.39687601
_cell_formula_units_Z   1
loop_
 _symmetry_equiv_pos_site_id
 _symmetry_equiv_pos_as_xyz
  1  'x, y, z'
loop_
 _atom_site_type_symbol
 _atom_site_label
 _atom_site_symmetry_multiplicity
 _atom_site_fract_x
 _atom_site_fract_y
 _atom_site_fract_z
 _atom_site_occupancy
  Tm  Tm0  1  0.808509  0.191491  0.191491  1
  Tm  Tm1  1  0.808884  0.191125  0.808641  1
  Tm  Tm2  1  0.191351  0.808641  0.191125  1
  Tm  Tm3  1  0.808884  0.808641  0.191125  1
  Tm  Tm4  1  0.191351  0.191125  0.808641  1
  Lu  Lu5  1  0.059684  0.440316  0.440316  1
  Lu  Lu6  1  0.440131  0.059869  0.059869  1
  Lu  Lu7  1  0.439942  0.059672  0.440547  1
  Lu  Lu8  1  0.059839  0.440547  0.059672  1
  Lu  Lu9  1  0.439942  0.440547  0.059672  1
  Lu  Lu10  1  0.059839  0.059672  0.440547  1
  Lu  Lu11  1  0.191637  0.808363  0.808363  1
  Zr  Zr12  1  0.599759  0.600113  0.600113  1
  Zr  Zr13  1  0.600010  0.600074  0.199905  1
  Zr  Zr14  1  0.600010  0.199905  0.600074  1
  Zr  Zr15  1  0.200016  0.600113  0.600113  1
  Cd  Cd16  1  0.831500  0.831062  0.831062  1
  Cd  Cd17  1  0.831174  0.831146  0.506505  1
  Cd  Cd18  1  0.831174  0.506505  0.831146  1
  Cd  Cd19  1  0.506375  0.831062  0.831062  1
  Ir  Ir20  1  0.395780  0.395668  0.395668  1
  Ir  Ir21  1  0.395663  0.395971  0.812701  1
  Ir  Ir22  1  0.395663  0.812701  0.395971  1
  Ir  Ir23  1  0.812883  0.395668  0.395668  1
