# generated using pymatgen
data_Tb11Cd9Au4
_symmetry_space_group_name_H-M   'P 1'
_cell_length_a   13.24319823
_cell_length_b   13.24319915
_cell_length_c   3.79208100
_cell_angle_alpha   90.00000000
_cell_angle_beta   90.00000000
_cell_angle_gamma   111.56363111
_symmetry_Int_Tables_number   1
_chemical_formula_structural   Tb11Cd9Au4
_chemical_formula_sum   'Tb11 Cd9 Au4'
_cell_volume   618.51608554
_cell_formula_units_Z   1
loop_
 _symmetry_equiv_pos_site_id
 _symmetry_equiv_pos_as_xyz
  1  'x, y, z'
loop_
 _atom_site_type_symbol
 _atom_site_label
 _atom_site_symmetry_multiplicity
 _atom_site_fract_x
 _atom_site_fract_y
 _atom_site_fract_z
 _atom_site_occupancy
  Tb  Tb0  1  0.418208  0.075446  0.000000  1
  Tb  Tb1  1  0.581792  0.924554  0.000000  1
  Tb  Tb2  1  0.075446  0.418208  0.000000  1
  Tb  Tb3  1  0.924554  0.581792  0.000000  1
  Tb  Tb4  1  0.163656  0.836344  0.000000  1
  Tb  Tb5  1  0.836344  0.163656  0.000000  1
  Tb  Tb6  1  0.365790  0.634210  0.000000  1
  Tb  Tb7  1  0.634210  0.365790  0.000000  1
  Tb  Tb8  1  0.293212  0.293212  0.000000  1
  Tb  Tb9  1  0.706788  0.706788  0.000000  1
  Tb  Tb10  1  0.000000  0.000000  0.000000  1
  Cd  Cd11  1  0.365905  0.845527  0.500000  1
  Cd  Cd12  1  0.634095  0.154473  0.500000  1
  Cd  Cd13  1  0.845527  0.365905  0.500000  1
  Cd  Cd14  1  0.154473  0.634095  0.500000  1
  Cd  Cd15  1  0.211602  0.066552  0.500000  1
  Cd  Cd16  1  0.788398  0.933448  0.500000  1
  Cd  Cd17  1  0.066552  0.211602  0.500000  1
  Cd  Cd18  1  0.933448  0.788398  0.500000  1
  Cd  Cd19  1  0.500000  0.500000  0.500000  1
  Au  Au20  1  0.449006  0.252274  0.500000  1
  Au  Au21  1  0.550994  0.747726  0.500000  1
  Au  Au22  1  0.252274  0.449006  0.500000  1
  Au  Au23  1  0.747726  0.550994  0.500000  1
