# generated using pymatgen
data_TbNd6Y13Sn16
_symmetry_space_group_name_H-M   'P 1'
_cell_length_a   8.09590686
_cell_length_b   8.28256722
_cell_length_c   15.63674142
_cell_angle_alpha   89.99862696
_cell_angle_beta   90.57142554
_cell_angle_gamma   89.98313411
_symmetry_Int_Tables_number   1
_chemical_formula_structural   TbNd6Y13Sn16
_chemical_formula_sum   'Tb1 Nd6 Y13 Sn16'
_cell_volume   1048.46782766
_cell_formula_units_Z   1
loop_
 _symmetry_equiv_pos_site_id
 _symmetry_equiv_pos_as_xyz
  1  'x, y, z'
loop_
 _atom_site_type_symbol
 _atom_site_label
 _atom_site_symmetry_multiplicity
 _atom_site_fract_x
 _atom_site_fract_y
 _atom_site_fract_z
 _atom_site_occupancy
  Tb  Tb0  1  0.017966  0.180172  0.901823  1
  Nd  Nd1  1  0.012205  0.178797  0.597146  1
  Nd  Nd2  1  0.487434  0.678478  0.403914  1
  Nd  Nd3  1  0.984107  0.821610  0.096140  1
  Nd  Nd4  1  0.484031  0.678125  0.096145  1
  Nd  Nd5  1  0.987458  0.821378  0.403966  1
  Nd  Nd6  1  0.512002  0.321492  0.596976  1
  Y  Y7  1  0.363024  0.836826  0.877866  1
  Y  Y8  1  0.858126  0.664730  0.624550  1
  Y  Y9  1  0.641477  0.165289  0.376770  1
  Y  Y10  1  0.136000  0.336706  0.121304  1
  Y  Y11  1  0.635910  0.163154  0.121492  1
  Y  Y12  1  0.141557  0.334672  0.376891  1
  Y  Y13  1  0.358029  0.835512  0.624740  1
  Y  Y14  1  0.862933  0.662923  0.877972  1
  Y  Y15  1  0.518827  0.320307  0.901715  1
  Y  Y16  1  0.193841  0.501438  0.751426  1
  Y  Y17  1  0.693746  0.998576  0.751389  1
  Y  Y18  1  0.805698  0.497808  0.249118  1
  Y  Y19  1  0.305737  0.002105  0.249095  1
  Sn  Sn20  1  0.296962  0.041719  0.039899  1
  Sn  Sn21  1  0.805956  0.460021  0.459009  1
  Sn  Sn22  1  0.693499  0.959568  0.541884  1
  Sn  Sn23  1  0.204048  0.533881  0.956318  1
  Sn  Sn24  1  0.703595  0.965799  0.956514  1
  Sn  Sn25  1  0.193606  0.540976  0.541834  1
  Sn  Sn26  1  0.306129  0.039750  0.459116  1
  Sn  Sn27  1  0.796657  0.457704  0.039827  1
  Sn  Sn28  1  0.559335  0.620157  0.750983  1
  Sn  Sn29  1  0.059142  0.880005  0.751190  1
  Sn  Sn30  1  0.439997  0.377562  0.249242  1
  Sn  Sn31  1  0.940159  0.122543  0.249226  1
  Sn  Sn32  1  0.323773  0.145482  0.752076  1
  Sn  Sn33  1  0.823509  0.354928  0.751882  1
  Sn  Sn34  1  0.676824  0.856745  0.250273  1
  Sn  Sn35  1  0.176702  0.643063  0.250292  1
