# generated using pymatgen
data_Dy8Ti11Si16Rh
_symmetry_space_group_name_H-M   'P 1'
_cell_length_a   7.03196436
_cell_length_b   7.03196436
_cell_length_c   12.86306275
_cell_angle_alpha   89.89073382
_cell_angle_beta   90.10926618
_cell_angle_gamma   89.80520303
_symmetry_Int_Tables_number   1
_chemical_formula_structural   Dy8Ti11Si16Rh
_chemical_formula_sum   'Dy8 Ti11 Si16 Rh1'
_cell_volume   636.05345365
_cell_formula_units_Z   1
loop_
 _symmetry_equiv_pos_site_id
 _symmetry_equiv_pos_as_xyz
  1  'x, y, z'
loop_
 _atom_site_type_symbol
 _atom_site_label
 _atom_site_symmetry_multiplicity
 _atom_site_fract_x
 _atom_site_fract_y
 _atom_site_fract_z
 _atom_site_occupancy
  Dy  Dy0  1  0.996184  0.659911  0.032833  1
  Dy  Dy1  1  0.001649  0.342000  0.532102  1
  Dy  Dy2  1  0.659911  0.996184  0.967167  1
  Dy  Dy3  1  0.158841  0.503149  0.782257  1
  Dy  Dy4  1  0.840628  0.499117  0.284940  1
  Dy  Dy5  1  0.503149  0.158841  0.217743  1
  Dy  Dy6  1  0.499117  0.840628  0.715060  1
  Dy  Dy7  1  0.342000  0.001649  0.467898  1
  Ti  Ti8  1  0.344618  0.506272  0.374748  1
  Ti  Ti9  1  0.850053  0.995777  0.376398  1
  Ti  Ti10  1  0.006556  0.151529  0.124682  1
  Ti  Ti11  1  0.995777  0.850053  0.623602  1
  Ti  Ti12  1  0.506272  0.344618  0.625252  1
  Ti  Ti13  1  0.151529  0.006556  0.875318  1
  Ti  Ti14  1  0.824445  0.172878  0.748797  1
  Ti  Ti15  1  0.172878  0.824445  0.251203  1
  Ti  Ti16  1  0.326571  0.326571  0.000000  1
  Ti  Ti17  1  0.492795  0.651031  0.127511  1
  Ti  Ti18  1  0.651031  0.492795  0.872489  1
  Si  Si19  1  0.049712  0.712748  0.435773  1
  Si  Si20  1  0.952313  0.291440  0.934551  1
  Si  Si21  1  0.712748  0.049712  0.564227  1
  Si  Si22  1  0.208208  0.453056  0.184349  1
  Si  Si23  1  0.790189  0.550254  0.683026  1
  Si  Si24  1  0.453056  0.208208  0.815651  1
  Si  Si25  1  0.550254  0.790189  0.316974  1
  Si  Si26  1  0.291440  0.952313  0.065449  1
  Si  Si27  1  0.797654  0.868217  0.185352  1
  Si  Si28  1  0.297171  0.627536  0.565546  1
  Si  Si29  1  0.704177  0.369463  0.065673  1
  Si  Si30  1  0.627536  0.297171  0.434454  1
  Si  Si31  1  0.369463  0.704177  0.934327  1
  Si  Si32  1  0.130570  0.203352  0.315730  1
  Si  Si33  1  0.203352  0.130570  0.684270  1
  Si  Si34  1  0.868217  0.797654  0.814648  1
  Rh  Rh35  1  0.669937  0.669937  0.500000  1
