# generated using pymatgen
data_CaTbHo5CoI12
_symmetry_space_group_name_H-M   'P 1'
_cell_length_a   9.68451973
_cell_length_b   9.76697355
_cell_length_c   9.77239277
_cell_angle_alpha   106.80635556
_cell_angle_beta   107.03483840
_cell_angle_gamma   106.71028644
_symmetry_Int_Tables_number   1
_chemical_formula_structural   CaTbHo5CoI12
_chemical_formula_sum   'Ca1 Tb1 Ho5 Co1 I12'
_cell_volume   772.92509057
_cell_formula_units_Z   1
loop_
 _symmetry_equiv_pos_site_id
 _symmetry_equiv_pos_as_xyz
  1  'x, y, z'
loop_
 _atom_site_type_symbol
 _atom_site_label
 _atom_site_symmetry_multiplicity
 _atom_site_fract_x
 _atom_site_fract_y
 _atom_site_fract_z
 _atom_site_occupancy
  Ca  Ca0  1  0.500344  0.499846  0.500089  1
  Tb  Tb1  1  0.716044  0.977073  0.907713  1
  Ho  Ho2  1  0.023458  0.095452  0.293266  1
  Ho  Ho3  1  0.095366  0.293322  0.024190  1
  Ho  Ho4  1  0.280909  0.022921  0.091521  1
  Ho  Ho5  1  0.976353  0.904612  0.706755  1
  Ho  Ho6  1  0.905529  0.706886  0.976048  1
  Co  Co7  1  0.999236  0.000136  0.999787  1
  I  I8  1  0.148699  0.456198  0.377561  1
  I  I9  1  0.456191  0.376094  0.149353  1
  I  I10  1  0.377877  0.148624  0.454699  1
  I  I11  1  0.852122  0.544010  0.622520  1
  I  I12  1  0.543873  0.621399  0.850505  1
  I  I13  1  0.621877  0.849963  0.542775  1
  I  I14  1  0.679033  0.070862  0.222568  1
  I  I15  1  0.071000  0.222118  0.678590  1
  I  I16  1  0.224072  0.680272  0.071481  1
  I  I17  1  0.320568  0.929643  0.779810  1
  I  I18  1  0.929529  0.777992  0.321509  1
  I  I19  1  0.777920  0.322575  0.929261  1
