# generated using pymatgen
data_Ho16Er4Ir11Pd
_symmetry_space_group_name_H-M   'P 1'
_cell_length_a   10.86919077
_cell_length_b   10.86919077
_cell_length_c   6.32885227
_cell_angle_alpha   89.97635087
_cell_angle_beta   89.97635087
_cell_angle_gamma   89.73284313
_symmetry_Int_Tables_number   1
_chemical_formula_structural   Ho16Er4Ir11Pd
_chemical_formula_sum   'Ho16 Er4 Ir11 Pd1'
_cell_volume   747.67797271
_cell_formula_units_Z   1
loop_
 _symmetry_equiv_pos_site_id
 _symmetry_equiv_pos_as_xyz
  1  'x, y, z'
loop_
 _atom_site_type_symbol
 _atom_site_label
 _atom_site_symmetry_multiplicity
 _atom_site_fract_x
 _atom_site_fract_y
 _atom_site_fract_z
 _atom_site_occupancy
  Ho  Ho0  1  0.290013  0.087486  0.377589  1
  Ho  Ho1  1  0.292012  0.911406  0.876634  1
  Ho  Ho2  1  0.705832  0.085609  0.870314  1
  Ho  Ho3  1  0.706526  0.906522  0.379421  1
  Ho  Ho4  1  0.587638  0.790417  0.878591  1
  Ho  Ho5  1  0.581781  0.209894  0.377303  1
  Ho  Ho6  1  0.410946  0.790787  0.377819  1
  Ho  Ho7  1  0.411064  0.208525  0.877537  1
  Ho  Ho8  1  0.209583  0.412362  0.621409  1
  Ho  Ho9  1  0.209213  0.589054  0.122181  1
  Ho  Ho10  1  0.790106  0.418219  0.122697  1
  Ho  Ho11  1  0.791475  0.588936  0.622463  1
  Ho  Ho12  1  0.912514  0.709987  0.122411  1
  Ho  Ho13  1  0.914391  0.294168  0.629686  1
  Ho  Ho14  1  0.088594  0.707988  0.623366  1
  Ho  Ho15  1  0.093478  0.293474  0.120579  1
  Er  Er16  1  0.001228  0.997510  0.500975  1
  Er  Er17  1  0.002490  0.998772  0.999025  1
  Er  Er18  1  0.499498  0.499246  0.999323  1
  Er  Er19  1  0.500754  0.500502  0.500677  1
  Ir  Ir20  1  0.847152  0.848834  0.750337  1
  Ir  Ir21  1  0.151166  0.152848  0.749663  1
  Ir  Ir22  1  0.153572  0.846428  0.250000  1
  Ir  Ir23  1  0.654752  0.345248  0.750000  1
  Ir  Ir24  1  0.653344  0.652186  0.249225  1
  Ir  Ir25  1  0.347814  0.346656  0.250775  1
  Ir  Ir26  1  0.346816  0.653184  0.750000  1
  Ir  Ir27  1  0.500853  0.000176  0.124685  1
  Ir  Ir28  1  0.500260  0.000240  0.621999  1
  Ir  Ir29  1  0.999760  0.499740  0.878001  1
  Ir  Ir30  1  0.999824  0.499147  0.375315  1
  Pd  Pd31  1  0.845551  0.154449  0.250000  1
