# generated using pymatgen
data_ZnB2Ru5W2
_symmetry_space_group_name_H-M   'P 1'
_cell_length_a   9.31805700
_cell_length_b   9.31805700
_cell_length_c   2.92043500
_cell_angle_alpha   90.00000000
_cell_angle_beta   90.00000000
_cell_angle_gamma   90.00000000
_symmetry_Int_Tables_number   1
_chemical_formula_structural   ZnB2Ru5W2
_chemical_formula_sum   'Zn2 B4 Ru10 W4'
_cell_volume   253.57023326
_cell_formula_units_Z   2
loop_
 _symmetry_equiv_pos_site_id
 _symmetry_equiv_pos_as_xyz
  1  'x, y, z'
loop_
 _atom_site_type_symbol
 _atom_site_label
 _atom_site_symmetry_multiplicity
 _atom_site_fract_x
 _atom_site_fract_y
 _atom_site_fract_z
 _atom_site_occupancy
  Zn  Zn0  1  0.500000  0.500000  0.000000  1
  Zn  Zn1  1  0.000000  0.000000  0.000000  1
  B  B2  1  0.626123  0.873877  0.000000  1
  B  B3  1  0.373877  0.126123  0.000000  1
  B  B4  1  0.126123  0.626123  0.000000  1
  B  B5  1  0.873877  0.373877  0.000000  1
  Ru  Ru6  1  0.568690  0.716412  0.500000  1
  Ru  Ru7  1  0.431310  0.283588  0.500000  1
  Ru  Ru8  1  0.068690  0.783588  0.500000  1
  Ru  Ru9  1  0.931310  0.216412  0.500000  1
  Ru  Ru10  1  0.283588  0.568690  0.500000  1
  Ru  Ru11  1  0.716412  0.431310  0.500000  1
  Ru  Ru12  1  0.216412  0.068690  0.500000  1
  Ru  Ru13  1  0.783588  0.931310  0.500000  1
  Ru  Ru14  1  0.500000  0.000000  0.500000  1
  Ru  Ru15  1  0.000000  0.500000  0.500000  1
  W  W16  1  0.821357  0.678643  0.000000  1
  W  W17  1  0.178643  0.321357  0.000000  1
  W  W18  1  0.321357  0.821357  0.000000  1
  W  W19  1  0.678643  0.178643  0.000000  1
