# generated using pymatgen
data_TbLu11Tc3Ir
_symmetry_space_group_name_H-M   'P 1'
_cell_length_a   6.16319700
_cell_length_b   7.30105132
_cell_length_c   8.91350300
_cell_angle_alpha   90.00000000
_cell_angle_beta   90.00000000
_cell_angle_gamma   90.01683312
_symmetry_Int_Tables_number   1
_chemical_formula_structural   TbLu11Tc3Ir
_chemical_formula_sum   'Tb1 Lu11 Tc3 Ir1'
_cell_volume   401.08816452
_cell_formula_units_Z   1
loop_
 _symmetry_equiv_pos_site_id
 _symmetry_equiv_pos_as_xyz
  1  'x, y, z'
loop_
 _atom_site_type_symbol
 _atom_site_label
 _atom_site_symmetry_multiplicity
 _atom_site_fract_x
 _atom_site_fract_y
 _atom_site_fract_z
 _atom_site_occupancy
  Tb  Tb0  1  0.127384  0.459106  0.750000  1
  Lu  Lu1  1  0.334436  0.676613  0.063781  1
  Lu  Lu2  1  0.161666  0.174473  0.437325  1
  Lu  Lu3  1  0.661773  0.323067  0.560082  1
  Lu  Lu4  1  0.836717  0.825688  0.939467  1
  Lu  Lu5  1  0.661773  0.323067  0.939918  1
  Lu  Lu6  1  0.836717  0.825688  0.560533  1
  Lu  Lu7  1  0.334436  0.676613  0.436219  1
  Lu  Lu8  1  0.161666  0.174473  0.062675  1
  Lu  Lu9  1  0.875994  0.538620  0.250000  1
  Lu  Lu10  1  0.624062  0.037466  0.250000  1
  Lu  Lu11  1  0.374942  0.961724  0.750000  1
  Tc  Tc12  1  0.040737  0.882941  0.250000  1
  Tc  Tc13  1  0.461130  0.384863  0.250000  1
  Tc  Tc14  1  0.959120  0.116381  0.750000  1
  Ir  Ir15  1  0.547445  0.619218  0.750000  1
