# generated using pymatgen
data_LiEu3(Co4P3)2
_symmetry_space_group_name_H-M   'P 1'
_cell_length_a   3.76775200
_cell_length_b   10.71079700
_cell_length_c   12.38367600
_cell_angle_alpha   90.00000000
_cell_angle_beta   90.00000000
_cell_angle_gamma   90.00000000
_symmetry_Int_Tables_number   1
_chemical_formula_structural   LiEu3(Co4P3)2
_chemical_formula_sum   'Li2 Eu6 Co16 P12'
_cell_volume   499.75100730
_cell_formula_units_Z   2
loop_
 _symmetry_equiv_pos_site_id
 _symmetry_equiv_pos_as_xyz
  1  'x, y, z'
loop_
 _atom_site_type_symbol
 _atom_site_label
 _atom_site_symmetry_multiplicity
 _atom_site_fract_x
 _atom_site_fract_y
 _atom_site_fract_z
 _atom_site_occupancy
  Li  Li0  1  0.500000  0.500000  0.150177  1
  Li  Li1  1  0.000000  0.000000  0.849823  1
  Eu  Eu2  1  0.000000  0.500000  0.524925  1
  Eu  Eu3  1  0.500000  0.000000  0.475075  1
  Eu  Eu4  1  0.500000  0.819627  0.206709  1
  Eu  Eu5  1  0.500000  0.180373  0.206709  1
  Eu  Eu6  1  0.000000  0.680373  0.793291  1
  Eu  Eu7  1  0.000000  0.319627  0.793291  1
  Co  Co8  1  0.500000  0.500000  0.702384  1
  Co  Co9  1  0.000000  0.000000  0.297616  1
  Co  Co10  1  0.000000  0.500000  0.987774  1
  Co  Co11  1  0.500000  0.000000  0.012226  1
  Co  Co12  1  0.500000  0.333573  0.997265  1
  Co  Co13  1  0.500000  0.666427  0.997265  1
  Co  Co14  1  0.000000  0.166427  0.002735  1
  Co  Co15  1  0.000000  0.833573  0.002735  1
  Co  Co16  1  0.500000  0.296954  0.431273  1
  Co  Co17  1  0.500000  0.703046  0.431273  1
  Co  Co18  1  0.000000  0.203046  0.568727  1
  Co  Co19  1  0.000000  0.796954  0.568727  1
  Co  Co20  1  0.500000  0.880533  0.706325  1
  Co  Co21  1  0.500000  0.119467  0.706325  1
  Co  Co22  1  0.000000  0.619467  0.293675  1
  Co  Co23  1  0.000000  0.380533  0.293675  1
  P  P24  1  0.500000  0.500000  0.887138  1
  P  P25  1  0.000000  0.000000  0.112862  1
  P  P26  1  0.500000  0.500000  0.341558  1
  P  P27  1  0.000000  0.000000  0.658442  1
  P  P28  1  0.500000  0.304312  0.614435  1
  P  P29  1  0.500000  0.695688  0.614435  1
  P  P30  1  0.000000  0.195688  0.385565  1
  P  P31  1  0.000000  0.804312  0.385565  1
  P  P32  1  0.500000  0.843104  0.897313  1
  P  P33  1  0.500000  0.156896  0.897313  1
  P  P34  1  0.000000  0.656896  0.102687  1
  P  P35  1  0.000000  0.343104  0.102687  1
