# generated using pymatgen
data_Ce2Dy7Y(Al2Ru3)2
_symmetry_space_group_name_H-M   'P 1'
_cell_length_a   8.45993476
_cell_length_b   8.36548397
_cell_length_c   8.33693790
_cell_angle_alpha   109.95699139
_cell_angle_beta   109.32633452
_cell_angle_gamma   110.23020322
_symmetry_Int_Tables_number   1
_chemical_formula_structural   Ce2Dy7Y(Al2Ru3)2
_chemical_formula_sum   'Ce2 Dy7 Y1 Al4 Ru6'
_cell_volume   447.90236900
_cell_formula_units_Z   1
loop_
 _symmetry_equiv_pos_site_id
 _symmetry_equiv_pos_as_xyz
  1  'x, y, z'
loop_
 _atom_site_type_symbol
 _atom_site_label
 _atom_site_symmetry_multiplicity
 _atom_site_fract_x
 _atom_site_fract_y
 _atom_site_fract_z
 _atom_site_occupancy
  Ce  Ce0  1  0.943711  0.250951  0.195590  1
  Ce  Ce1  1  0.197390  0.942381  0.251599  1
  Dy  Dy2  1  0.781907  0.786352  0.778926  1
  Dy  Dy3  1  0.317350  0.566082  0.754460  1
  Dy  Dy4  1  0.751286  0.316886  0.568001  1
  Dy  Dy5  1  0.567382  0.748539  0.312995  1
  Dy  Dy6  1  0.721098  0.503124  0.998713  1
  Dy  Dy7  1  0.999291  0.719425  0.505780  1
  Dy  Dy8  1  0.500743  0.991679  0.715876  1
  Y  Y9  1  0.254119  0.189120  0.933073  1
  Al  Al10  1  0.416024  0.411085  0.409084  1
  Al  Al11  1  0.091755  0.491611  0.996657  1
  Al  Al12  1  0.998191  0.091073  0.502384  1
  Al  Al13  1  0.502357  0.010461  0.094632  1
  Ru  Ru14  1  0.866330  0.116258  0.739429  1
  Ru  Ru15  1  0.753835  0.903414  0.122368  1
  Ru  Ru16  1  0.126934  0.762898  0.908690  1
  Ru  Ru17  1  0.224102  0.590730  0.363407  1
  Ru  Ru18  1  0.358078  0.221501  0.594789  1
  Ru  Ru19  1  0.628116  0.386430  0.253543  1
