# generated using pymatgen
data_Li2La3Si2AgPb
_symmetry_space_group_name_H-M   'P 1'
_cell_length_a   7.52819483
_cell_length_b   7.52819568
_cell_length_c   4.50997100
_cell_angle_alpha   90.00000000
_cell_angle_beta   90.00000000
_cell_angle_gamma   119.65412897
_symmetry_Int_Tables_number   1
_chemical_formula_structural   Li2La3Si2AgPb
_chemical_formula_sum   'Li2 La3 Si2 Ag1 Pb1'
_cell_volume   222.12079457
_cell_formula_units_Z   1
loop_
 _symmetry_equiv_pos_site_id
 _symmetry_equiv_pos_as_xyz
  1  'x, y, z'
loop_
 _atom_site_type_symbol
 _atom_site_label
 _atom_site_symmetry_multiplicity
 _atom_site_fract_x
 _atom_site_fract_y
 _atom_site_fract_z
 _atom_site_occupancy
  Li  Li0  1  0.241548  0.994619  0.500000  1
  Li  Li1  1  0.994619  0.241548  0.500000  1
  La  La2  1  0.441217  0.441217  0.000000  1
  La  La3  1  0.565350  0.998341  0.000000  1
  La  La4  1  0.998341  0.565350  0.000000  1
  Si  Si5  1  0.671079  0.337043  0.500000  1
  Si  Si6  1  0.337043  0.671079  0.500000  1
  Ag  Ag7  1  0.741852  0.741852  0.500000  1
  Pb  Pb8  1  0.008950  0.008950  0.000000  1
