# generated using pymatgen
data_NdSmCCl
_symmetry_space_group_name_H-M   'P 1'
_cell_length_a   3.74920600
_cell_length_b   3.74920681
_cell_length_c   14.22599000
_cell_angle_alpha   90.00000000
_cell_angle_beta   90.00000000
_cell_angle_gamma   120.00001048
_symmetry_Int_Tables_number   1
_chemical_formula_structural   NdSmCCl
_chemical_formula_sum   'Nd2 Sm2 C2 Cl2'
_cell_volume   173.17762753
_cell_formula_units_Z   2
loop_
 _symmetry_equiv_pos_site_id
 _symmetry_equiv_pos_as_xyz
  1  'x, y, z'
loop_
 _atom_site_type_symbol
 _atom_site_label
 _atom_site_symmetry_multiplicity
 _atom_site_fract_x
 _atom_site_fract_y
 _atom_site_fract_z
 _atom_site_occupancy
  Nd  Nd0  1  0.666667  0.333333  0.595262  1
  Nd  Nd1  1  0.333333  0.666667  0.095262  1
  Sm  Sm2  1  0.333333  0.666667  0.404777  1
  Sm  Sm3  1  0.666667  0.333333  0.904777  1
  C  C4  1  0.000000  0.000000  0.496785  1
  C  C5  1  0.000000  0.000000  0.996785  1
  Cl  Cl6  1  0.666667  0.333333  0.253176  1
  Cl  Cl7  1  0.333333  0.666667  0.753176  1
