# generated using pymatgen
data_Li3Lu3Sn2Pb
_symmetry_space_group_name_H-M   'P 1'
_cell_length_a   7.17016500
_cell_length_b   7.17016385
_cell_length_c   4.57219400
_cell_angle_alpha   90.00000000
_cell_angle_beta   90.00000000
_cell_angle_gamma   120.00000069
_symmetry_Int_Tables_number   1
_chemical_formula_structural   Li3Lu3Sn2Pb
_chemical_formula_sum   'Li3 Lu3 Sn2 Pb1'
_cell_volume   203.56987406
_cell_formula_units_Z   1
loop_
 _symmetry_equiv_pos_site_id
 _symmetry_equiv_pos_as_xyz
  1  'x, y, z'
loop_
 _atom_site_type_symbol
 _atom_site_label
 _atom_site_symmetry_multiplicity
 _atom_site_fract_x
 _atom_site_fract_y
 _atom_site_fract_z
 _atom_site_occupancy
  Li  Li0  1  0.769579  0.000000  0.500001  1
  Li  Li1  1  0.230422  0.230421  0.500001  1
  Li  Li2  1  0.000000  0.769579  0.500001  1
  Lu  Lu3  1  0.444421  0.000000  0.000000  1
  Lu  Lu4  1  0.000000  0.444421  0.000000  1
  Lu  Lu5  1  0.555579  0.555580  0.000000  1
  Sn  Sn6  1  0.666667  0.333334  0.500001  1
  Sn  Sn7  1  0.333334  0.666667  0.500001  1
  Pb  Pb8  1  0.000000  0.000000  0.000000  1
