# generated using pymatgen
data_PrNd9Si5Pd
_symmetry_space_group_name_H-M   'P 1'
_cell_length_a   7.71223458
_cell_length_b   7.71017197
_cell_length_c   9.06884502
_cell_angle_alpha   115.10102018
_cell_angle_beta   115.10095770
_cell_angle_gamma   90.08407476
_symmetry_Int_Tables_number   1
_chemical_formula_structural   PrNd9Si5Pd
_chemical_formula_sum   'Pr1 Nd9 Si5 Pd1'
_cell_volume   431.25536196
_cell_formula_units_Z   1
loop_
 _symmetry_equiv_pos_site_id
 _symmetry_equiv_pos_as_xyz
  1  'x, y, z'
loop_
 _atom_site_type_symbol
 _atom_site_label
 _atom_site_symmetry_multiplicity
 _atom_site_fract_x
 _atom_site_fract_y
 _atom_site_fract_z
 _atom_site_occupancy
  Pr  Pr0  1  0.542595  0.024820  0.713066  1
  Nd  Nd1  1  0.474332  0.474710  0.947857  1
  Nd  Nd2  1  0.025684  0.025690  0.052441  1
  Nd  Nd3  1  0.956139  0.810874  0.285488  1
  Nd  Nd4  1  0.329044  0.474882  0.284925  1
  Nd  Nd5  1  0.810410  0.328995  0.285534  1
  Nd  Nd6  1  0.474880  0.956764  0.285492  1
  Nd  Nd7  1  0.024992  0.171062  0.714998  1
  Nd  Nd8  1  0.689422  0.543469  0.714504  1
  Nd  Nd9  1  0.170900  0.689444  0.714682  1
  Si  Si10  1  0.250813  0.249004  0.499662  1
  Si  Si11  1  0.615544  0.884312  0.000632  1
  Si  Si12  1  0.384514  0.115321  0.000503  1
  Si  Si13  1  0.884537  0.385092  0.000278  1
  Si  Si14  1  0.115705  0.616272  0.000363  1
  Pd  Pd15  1  0.750487  0.749287  0.499579  1
