# generated using pymatgen
data_Na2YCo(P3Rh4)2
_symmetry_space_group_name_H-M   'P 1'
_cell_length_a   3.87290300
_cell_length_b   11.19496100
_cell_length_c   12.56608800
_cell_angle_alpha   90.00000000
_cell_angle_beta   90.00000000
_cell_angle_gamma   90.00000000
_symmetry_Int_Tables_number   1
_chemical_formula_structural   Na2YCo(P3Rh4)2
_chemical_formula_sum   'Na4 Y2 Co2 P12 Rh16'
_cell_volume   544.82785281
_cell_formula_units_Z   2
loop_
 _symmetry_equiv_pos_site_id
 _symmetry_equiv_pos_as_xyz
  1  'x, y, z'
loop_
 _atom_site_type_symbol
 _atom_site_label
 _atom_site_symmetry_multiplicity
 _atom_site_fract_x
 _atom_site_fract_y
 _atom_site_fract_z
 _atom_site_occupancy
  Na  Na0  1  0.500000  0.818781  0.202558  1
  Na  Na1  1  0.500000  0.181219  0.202558  1
  Na  Na2  1  0.000000  0.681219  0.797442  1
  Na  Na3  1  0.000000  0.318781  0.797442  1
  Y  Y4  1  0.000000  0.500000  0.528126  1
  Y  Y5  1  0.500000  0.000000  0.471874  1
  Co  Co6  1  0.000000  0.500000  0.985943  1
  Co  Co7  1  0.500000  0.000000  0.014057  1
  P  P8  1  0.500000  0.500000  0.884755  1
  P  P9  1  0.000000  0.000000  0.115245  1
  P  P10  1  0.500000  0.500000  0.346871  1
  P  P11  1  0.000000  0.000000  0.653129  1
  P  P12  1  0.500000  0.312331  0.621108  1
  P  P13  1  0.500000  0.687669  0.621108  1
  P  P14  1  0.000000  0.187669  0.378892  1
  P  P15  1  0.000000  0.812331  0.378892  1
  P  P16  1  0.500000  0.852416  0.896505  1
  P  P17  1  0.500000  0.147584  0.896505  1
  P  P18  1  0.000000  0.647584  0.103495  1
  P  P19  1  0.000000  0.352416  0.103495  1
  Rh  Rh20  1  0.500000  0.500000  0.162577  1
  Rh  Rh21  1  0.000000  0.000000  0.837423  1
  Rh  Rh22  1  0.500000  0.500000  0.699539  1
  Rh  Rh23  1  0.000000  0.000000  0.300461  1
  Rh  Rh24  1  0.500000  0.334044  0.991586  1
  Rh  Rh25  1  0.500000  0.665956  0.991586  1
  Rh  Rh26  1  0.000000  0.165956  0.008414  1
  Rh  Rh27  1  0.000000  0.834044  0.008414  1
  Rh  Rh28  1  0.500000  0.294509  0.430902  1
  Rh  Rh29  1  0.500000  0.705491  0.430902  1
  Rh  Rh30  1  0.000000  0.205491  0.569098  1
  Rh  Rh31  1  0.000000  0.794509  0.569098  1
  Rh  Rh32  1  0.500000  0.874620  0.711422  1
  Rh  Rh33  1  0.500000  0.125380  0.711422  1
  Rh  Rh34  1  0.000000  0.625380  0.288578  1
  Rh  Rh35  1  0.000000  0.374620  0.288578  1
