# generated using pymatgen
data_Pa3Ni3Ge3As
_symmetry_space_group_name_H-M   'P 1'
_cell_length_a   7.70421807
_cell_length_b   7.68524348
_cell_length_c   7.68279600
_cell_angle_alpha   109.42310386
_cell_angle_beta   109.52323743
_cell_angle_gamma   109.53018040
_symmetry_Int_Tables_number   1
_chemical_formula_structural   Pa3Ni3Ge3As
_chemical_formula_sum   'Pa6 Ni6 Ge6 As2'
_cell_volume   349.90156182
_cell_formula_units_Z   2
loop_
 _symmetry_equiv_pos_site_id
 _symmetry_equiv_pos_as_xyz
  1  'x, y, z'
loop_
 _atom_site_type_symbol
 _atom_site_label
 _atom_site_symmetry_multiplicity
 _atom_site_fract_x
 _atom_site_fract_y
 _atom_site_fract_z
 _atom_site_occupancy
  Pa  Pa0  1  0.626050  0.375391  0.249172  1
  Pa  Pa1  1  0.374716  0.251341  0.626711  1
  Pa  Pa2  1  0.125689  0.749315  0.874062  1
  Pa  Pa3  1  0.751628  0.875252  0.125938  1
  Pa  Pa4  1  0.248004  0.624630  0.373289  1
  Pa  Pa5  1  0.876878  0.126218  0.750828  1
  Ni  Ni6  1  0.874367  0.248455  0.123823  1
  Ni  Ni7  1  0.373396  0.625600  0.751333  1
  Ni  Ni8  1  0.626326  0.750305  0.374173  1
  Ni  Ni9  1  0.752153  0.376132  0.625827  1
  Ni  Ni10  1  0.250544  0.124632  0.876177  1
  Ni  Ni11  1  0.122063  0.874267  0.248667  1
  Ge  Ge12  1  0.499915  0.000714  0.831413  1
  Ge  Ge13  1  0.168502  0.169301  0.168587  1
  Ge  Ge14  1  0.831904  0.498716  0.000178  1
  Ge  Ge15  1  0.002036  0.833272  0.501123  1
  Ge  Ge16  1  0.331726  0.498537  0.999822  1
  Ge  Ge17  1  0.000912  0.332149  0.498877  1
  As  As18  1  0.498989  0.000280  0.334787  1
  As  As19  1  0.664202  0.665492  0.665213  1
