# generated using pymatgen
data_La4In2Pd3Rh
_symmetry_space_group_name_H-M   'P 1'
_cell_length_a   7.91944081
_cell_length_b   7.91944081
_cell_length_c   3.95772200
_cell_angle_alpha   90.00000000
_cell_angle_beta   90.00000000
_cell_angle_gamma   90.09648366
_symmetry_Int_Tables_number   1
_chemical_formula_structural   La4In2Pd3Rh
_chemical_formula_sum   'La4 In2 Pd3 Rh1'
_cell_volume   248.21824658
_cell_formula_units_Z   1
loop_
 _symmetry_equiv_pos_site_id
 _symmetry_equiv_pos_as_xyz
  1  'x, y, z'
loop_
 _atom_site_type_symbol
 _atom_site_label
 _atom_site_symmetry_multiplicity
 _atom_site_fract_x
 _atom_site_fract_y
 _atom_site_fract_z
 _atom_site_occupancy
  La  La0  1  0.164810  0.325240  0.500000  1
  La  La1  1  0.682575  0.182575  0.500000  1
  La  La2  1  0.825240  0.664810  0.500000  1
  La  La3  1  0.328496  0.828496  0.500000  1
  In  In4  1  0.000201  0.999729  0.000000  1
  In  In5  1  0.499729  0.500201  0.000000  1
  Pd  Pd6  1  0.130585  0.630585  0.000000  1
  Pd  Pd7  1  0.630345  0.870633  0.000000  1
  Pd  Pd8  1  0.370633  0.130345  0.000000  1
  Rh  Rh9  1  0.867386  0.367386  0.000000  1
