# generated using pymatgen
data_Ce3GeI3
_symmetry_space_group_name_H-M   'P 1'
_cell_length_a   10.85779660
_cell_length_b   10.85779640
_cell_length_c   10.85779600
_cell_angle_alpha   109.47121803
_cell_angle_beta   109.47121764
_cell_angle_gamma   109.47122138
_symmetry_Int_Tables_number   1
_chemical_formula_structural   Ce3GeI3
_chemical_formula_sum   'Ce12 Ge4 I12'
_cell_volume   985.37878648
_cell_formula_units_Z   4
loop_
 _symmetry_equiv_pos_site_id
 _symmetry_equiv_pos_as_xyz
  1  'x, y, z'
loop_
 _atom_site_type_symbol
 _atom_site_label
 _atom_site_symmetry_multiplicity
 _atom_site_fract_x
 _atom_site_fract_y
 _atom_site_fract_z
 _atom_site_occupancy
  Ce  Ce0  1  0.471295  0.485648  0.235648  1
  Ce  Ce1  1  0.750000  0.235648  0.264352  1
  Ce  Ce2  1  0.750000  0.014352  0.485648  1
  Ce  Ce3  1  0.235648  0.471295  0.485648  1
  Ce  Ce4  1  0.264352  0.750000  0.235648  1
  Ce  Ce5  1  0.028705  0.264352  0.014352  1
  Ce  Ce6  1  0.014352  0.028705  0.264352  1
  Ce  Ce7  1  0.485648  0.750000  0.014352  1
  Ce  Ce8  1  0.485648  0.235648  0.471295  1
  Ce  Ce9  1  0.014352  0.485648  0.750000  1
  Ce  Ce10  1  0.264352  0.014352  0.028705  1
  Ce  Ce11  1  0.235648  0.264352  0.750000  1
  Ge  Ge12  1  0.250000  0.250000  0.250000  1
  Ge  Ge13  1  0.500000  0.000000  0.250000  1
  Ge  Ge14  1  0.000000  0.250000  0.500000  1
  Ge  Ge15  1  0.250000  0.500000  0.000000  1
  I  I16  1  0.250000  0.758515  0.741485  1
  I  I17  1  0.517030  0.508515  0.758515  1
  I  I18  1  0.982970  0.741485  0.991485  1
  I  I19  1  0.741485  0.250000  0.758515  1
  I  I20  1  0.991485  0.982970  0.741485  1
  I  I21  1  0.250000  0.991485  0.508515  1
  I  I22  1  0.758515  0.517030  0.508515  1
  I  I23  1  0.508515  0.250000  0.991485  1
  I  I24  1  0.758515  0.741485  0.250000  1
  I  I25  1  0.741485  0.991485  0.982970  1
  I  I26  1  0.991485  0.508515  0.250000  1
  I  I27  1  0.508515  0.758515  0.517030  1
