# generated using pymatgen
data_Mn3Fe(BMo)4
_symmetry_space_group_name_H-M   'P 1'
_cell_length_a   5.86666857
_cell_length_b   3.16433400
_cell_length_c   6.93200500
_cell_angle_alpha   90.00000000
_cell_angle_beta   89.97517185
_cell_angle_gamma   90.00000000
_symmetry_Int_Tables_number   1
_chemical_formula_structural   Mn3Fe(BMo)4
_chemical_formula_sum   'Mn3 Fe1 B4 Mo4'
_cell_volume   128.68641385
_cell_formula_units_Z   1
loop_
 _symmetry_equiv_pos_site_id
 _symmetry_equiv_pos_as_xyz
  1  'x, y, z'
loop_
 _atom_site_type_symbol
 _atom_site_label
 _atom_site_symmetry_multiplicity
 _atom_site_fract_x
 _atom_site_fract_y
 _atom_site_fract_z
 _atom_site_occupancy
  Mn  Mn0  1  0.142121  0.250000  0.442334  1
  Mn  Mn1  1  0.639958  0.250000  0.056955  1
  Mn  Mn2  1  0.858763  0.750000  0.558105  1
  Fe  Fe3  1  0.358198  0.750000  0.943537  1
  B  B4  1  0.265533  0.250000  0.133831  1
  B  B5  1  0.765858  0.250000  0.364866  1
  B  B6  1  0.735045  0.750000  0.865182  1
  B  B7  1  0.234861  0.750000  0.636393  1
  Mo  Mo8  1  0.029366  0.250000  0.826507  1
  Mo  Mo9  1  0.531020  0.250000  0.671538  1
  Mo  Mo10  1  0.969335  0.750000  0.172387  1
  Mo  Mo11  1  0.469942  0.750000  0.328367  1
