# generated using pymatgen
data_HfZr19Si15Sn
_symmetry_space_group_name_H-M   'P 1'
_cell_length_a   7.21748620
_cell_length_b   7.19019418
_cell_length_c   13.09436494
_cell_angle_alpha   89.94136897
_cell_angle_beta   89.81640229
_cell_angle_gamma   90.20702707
_symmetry_Int_Tables_number   1
_chemical_formula_structural   HfZr19Si15Sn
_chemical_formula_sum   'Hf1 Zr19 Si15 Sn1'
_cell_volume   679.52544632
_cell_formula_units_Z   1
loop_
 _symmetry_equiv_pos_site_id
 _symmetry_equiv_pos_as_xyz
  1  'x, y, z'
loop_
 _atom_site_type_symbol
 _atom_site_label
 _atom_site_symmetry_multiplicity
 _atom_site_fract_x
 _atom_site_fract_y
 _atom_site_fract_z
 _atom_site_occupancy
  Hf  Hf0  1  0.998504  0.146521  0.623009  1
  Zr  Zr1  1  0.676509  0.324527  0.748954  1
  Zr  Zr2  1  0.324635  0.675657  0.251105  1
  Zr  Zr3  1  0.823652  0.824650  0.500757  1
  Zr  Zr4  1  0.181245  0.173888  0.998061  1
  Zr  Zr5  1  0.497995  0.150264  0.534811  1
  Zr  Zr6  1  0.495240  0.842312  0.032067  1
  Zr  Zr7  1  0.646876  0.999721  0.290678  1
  Zr  Zr8  1  0.347625  0.995582  0.782682  1
  Zr  Zr9  1  0.851158  0.511029  0.961248  1
  Zr  Zr10  1  0.150984  0.497787  0.465927  1
  Zr  Zr11  1  0.002000  0.650175  0.714367  1
  Zr  Zr12  1  0.009708  0.358119  0.222029  1
  Zr  Zr13  1  0.489208  0.362332  0.125842  1
  Zr  Zr14  1  0.500839  0.645231  0.626266  1
  Zr  Zr15  1  0.854637  0.000008  0.872331  1
  Zr  Zr16  1  0.147506  0.999570  0.378153  1
  Zr  Zr17  1  0.646773  0.501892  0.374533  1
  Zr  Zr18  1  0.353270  0.498484  0.871249  1
  Zr  Zr19  1  0.012353  0.842700  0.125398  1
  Si  Si20  1  0.204882  0.855389  0.573967  1
  Si  Si21  1  0.644192  0.705870  0.820935  1
  Si  Si22  1  0.356681  0.294926  0.323960  1
  Si  Si23  1  0.855136  0.205434  0.428445  1
  Si  Si24  1  0.144567  0.794457  0.925779  1
  Si  Si25  1  0.705291  0.647992  0.178023  1
  Si  Si26  1  0.293544  0.352815  0.676048  1
  Si  Si27  1  0.543613  0.197070  0.932014  1
  Si  Si28  1  0.447726  0.799180  0.438550  1
  Si  Si29  1  0.698507  0.951063  0.685520  1
  Si  Si30  1  0.302914  0.051433  0.187527  1
  Si  Si31  1  0.801428  0.448753  0.563038  1
  Si  Si32  1  0.197497  0.548086  0.060524  1
  Si  Si33  1  0.948630  0.701903  0.314950  1
  Si  Si34  1  0.049281  0.300910  0.811989  1
  Sn  Sn35  1  0.795395  0.144270  0.079263  1
