# generated using pymatgen
data_Sm10Ge3Se7
_symmetry_space_group_name_H-M   'P 1'
_cell_length_a   11.11998778
_cell_length_b   11.11998762
_cell_length_c   7.32681629
_cell_angle_alpha   83.66188333
_cell_angle_beta   83.66188629
_cell_angle_gamma   141.95746540
_symmetry_Int_Tables_number   1
_chemical_formula_structural   Sm10Ge3Se7
_chemical_formula_sum   'Sm10 Ge3 Se7'
_cell_volume   525.31005535
_cell_formula_units_Z   1
loop_
 _symmetry_equiv_pos_site_id
 _symmetry_equiv_pos_as_xyz
  1  'x, y, z'
loop_
 _atom_site_type_symbol
 _atom_site_label
 _atom_site_symmetry_multiplicity
 _atom_site_fract_x
 _atom_site_fract_y
 _atom_site_fract_z
 _atom_site_occupancy
  Sm  Sm0  1  0.255009  0.255009  0.759054  1
  Sm  Sm1  1  0.851630  0.651890  0.750333  1
  Sm  Sm2  1  0.744991  0.744991  0.240946  1
  Sm  Sm3  1  0.451595  0.047334  0.739368  1
  Sm  Sm4  1  0.348110  0.148370  0.249667  1
  Sm  Sm5  1  0.047334  0.451595  0.739368  1
  Sm  Sm6  1  0.952666  0.548405  0.260632  1
  Sm  Sm7  1  0.651890  0.851630  0.750333  1
  Sm  Sm8  1  0.548405  0.952666  0.260632  1
  Sm  Sm9  1  0.148370  0.348110  0.249667  1
  Ge  Ge10  1  0.500000  0.500000  0.000000  1
  Ge  Ge11  1  0.198320  0.801680  0.500000  1
  Ge  Ge12  1  0.801680  0.198320  0.500000  1
  Se  Se13  1  0.899419  0.100581  0.000000  1
  Se  Se14  1  0.400350  0.599650  0.500000  1
  Se  Se15  1  0.000000  0.000000  0.500000  1
  Se  Se16  1  0.599650  0.400350  0.500000  1
  Se  Se17  1  0.100581  0.899419  0.000000  1
  Se  Se18  1  0.699965  0.300035  0.000000  1
  Se  Se19  1  0.300035  0.699965  0.000000  1
