# generated using pymatgen
data_Cd(S8Cl)3
_symmetry_space_group_name_H-M   'P 1'
_cell_length_a   15.09042675
_cell_length_b   15.09042517
_cell_length_c   15.09042531
_cell_angle_alpha   118.77470553
_cell_angle_beta   118.77469912
_cell_angle_gamma   118.77470117
_symmetry_Int_Tables_number   1
_chemical_formula_structural   Cd(S8Cl)3
_chemical_formula_sum   'Cd1 S24 Cl3'
_cell_volume   982.71334827
_cell_formula_units_Z   1
loop_
 _symmetry_equiv_pos_site_id
 _symmetry_equiv_pos_as_xyz
  1  'x, y, z'
loop_
 _atom_site_type_symbol
 _atom_site_label
 _atom_site_symmetry_multiplicity
 _atom_site_fract_x
 _atom_site_fract_y
 _atom_site_fract_z
 _atom_site_occupancy
  Cd  Cd0  1  0.070072  0.070072  0.070072  1
  S  S1  1  0.020315  0.618780  0.618780  1
  S  S2  1  0.618780  0.618780  0.020315  1
  S  S3  1  0.618780  0.020315  0.618780  1
  S  S4  1  0.234094  0.846590  0.717233  1
  S  S5  1  0.846590  0.717233  0.234094  1
  S  S6  1  0.717233  0.234094  0.846590  1
  S  S7  1  0.846590  0.234094  0.717233  1
  S  S8  1  0.234094  0.717233  0.846590  1
  S  S9  1  0.717233  0.846590  0.234094  1
  S  S10  1  0.102593  0.631822  0.448950  1
  S  S11  1  0.631822  0.448950  0.102593  1
  S  S12  1  0.448950  0.102593  0.631822  1
  S  S13  1  0.631822  0.102593  0.448950  1
  S  S14  1  0.102593  0.448950  0.631822  1
  S  S15  1  0.448950  0.631822  0.102593  1
  S  S16  1  0.354144  0.741478  0.611745  1
  S  S17  1  0.741478  0.611745  0.354144  1
  S  S18  1  0.611745  0.354144  0.741478  1
  S  S19  1  0.741478  0.354144  0.611745  1
  S  S20  1  0.354144  0.611745  0.741478  1
  S  S21  1  0.611745  0.741478  0.354144  1
  S  S22  1  0.191694  0.468993  0.468993  1
  S  S23  1  0.468993  0.468993  0.191694  1
  S  S24  1  0.468993  0.191694  0.468993  1
  Cl  Cl25  1  0.177534  0.017322  0.017322  1
  Cl  Cl26  1  0.017322  0.017322  0.177534  1
  Cl  Cl27  1  0.017322  0.177534  0.017322  1
