# generated using pymatgen
data_Y3Tc(P3Ir4)2
_symmetry_space_group_name_H-M   'P 1'
_cell_length_a   3.97966400
_cell_length_b   11.15852100
_cell_length_c   12.81933000
_cell_angle_alpha   90.00000000
_cell_angle_beta   90.00000000
_cell_angle_gamma   90.00000000
_symmetry_Int_Tables_number   1
_chemical_formula_structural   Y3Tc(P3Ir4)2
_chemical_formula_sum   'Y6 Tc2 P12 Ir16'
_cell_volume   569.27009374
_cell_formula_units_Z   2
loop_
 _symmetry_equiv_pos_site_id
 _symmetry_equiv_pos_as_xyz
  1  'x, y, z'
loop_
 _atom_site_type_symbol
 _atom_site_label
 _atom_site_symmetry_multiplicity
 _atom_site_fract_x
 _atom_site_fract_y
 _atom_site_fract_z
 _atom_site_occupancy
  Y  Y0  1  0.000000  0.500000  0.520820  1
  Y  Y1  1  0.500000  0.000000  0.479180  1
  Y  Y2  1  0.500000  0.819180  0.205780  1
  Y  Y3  1  0.500000  0.180820  0.205780  1
  Y  Y4  1  0.000000  0.680820  0.794220  1
  Y  Y5  1  0.000000  0.319180  0.794220  1
  Tc  Tc6  1  0.500000  0.500000  0.162552  1
  Tc  Tc7  1  0.000000  0.000000  0.837448  1
  P  P8  1  0.500000  0.500000  0.875901  1
  P  P9  1  0.000000  0.000000  0.124099  1
  P  P10  1  0.500000  0.500000  0.348573  1
  P  P11  1  0.000000  0.000000  0.651427  1
  P  P12  1  0.500000  0.315830  0.618108  1
  P  P13  1  0.500000  0.684170  0.618108  1
  P  P14  1  0.000000  0.184170  0.381892  1
  P  P15  1  0.000000  0.815830  0.381892  1
  P  P16  1  0.500000  0.843788  0.886499  1
  P  P17  1  0.500000  0.156212  0.886499  1
  P  P18  1  0.000000  0.656212  0.113501  1
  P  P19  1  0.000000  0.343788  0.113501  1
  Ir  Ir20  1  0.500000  0.500000  0.699781  1
  Ir  Ir21  1  0.000000  0.000000  0.300219  1
  Ir  Ir22  1  0.000000  0.500000  0.997842  1
  Ir  Ir23  1  0.500000  0.000000  0.002158  1
  Ir  Ir24  1  0.500000  0.331967  0.982100  1
  Ir  Ir25  1  0.500000  0.668033  0.982100  1
  Ir  Ir26  1  0.000000  0.168033  0.017900  1
  Ir  Ir27  1  0.000000  0.831967  0.017900  1
  Ir  Ir28  1  0.500000  0.297266  0.431591  1
  Ir  Ir29  1  0.500000  0.702734  0.431591  1
  Ir  Ir30  1  0.000000  0.202734  0.568409  1
  Ir  Ir31  1  0.000000  0.797266  0.568409  1
  Ir  Ir32  1  0.500000  0.872634  0.710931  1
  Ir  Ir33  1  0.500000  0.127366  0.710931  1
  Ir  Ir34  1  0.000000  0.627366  0.289069  1
  Ir  Ir35  1  0.000000  0.372634  0.289069  1
