# generated using pymatgen
data_Sr2GdPaH12
_symmetry_space_group_name_H-M   'P 1'
_cell_length_a   6.84987200
_cell_length_b   7.04543100
_cell_length_c   6.84987200
_cell_angle_alpha   90.00000000
_cell_angle_beta   90.00000000
_cell_angle_gamma   90.00000000
_symmetry_Int_Tables_number   1
_chemical_formula_structural   Sr2GdPaH12
_chemical_formula_sum   'Sr4 Gd2 Pa2 H24'
_cell_volume   330.57688135
_cell_formula_units_Z   2
loop_
 _symmetry_equiv_pos_site_id
 _symmetry_equiv_pos_as_xyz
  1  'x, y, z'
loop_
 _atom_site_type_symbol
 _atom_site_label
 _atom_site_symmetry_multiplicity
 _atom_site_fract_x
 _atom_site_fract_y
 _atom_site_fract_z
 _atom_site_occupancy
  Sr  Sr0  1  0.249990  0.000000  0.500000  1
  Sr  Sr1  1  0.750010  0.000000  0.500000  1
  Sr  Sr2  1  0.000000  0.500000  0.250010  1
  Sr  Sr3  1  0.000000  0.500000  0.749990  1
  Gd  Gd4  1  0.500000  0.750000  0.000000  1
  Gd  Gd5  1  0.500000  0.250000  0.000000  1
  Pa  Pa6  1  0.000000  0.000000  0.000000  1
  Pa  Pa7  1  0.500000  0.500000  0.500000  1
  H  H8  1  0.000000  0.146900  0.277206  1
  H  H9  1  0.500000  0.228173  0.662256  1
  H  H10  1  0.500000  0.771827  0.337744  1
  H  H11  1  0.777206  0.646900  0.500000  1
  H  H12  1  0.222794  0.646900  0.500000  1
  H  H13  1  0.359193  0.500000  0.801835  1
  H  H14  1  0.640807  0.500000  0.801835  1
  H  H15  1  0.301835  0.000000  0.140807  1
  H  H16  1  0.162256  0.271827  0.000000  1
  H  H17  1  0.837744  0.728173  0.000000  1
  H  H18  1  0.301835  0.000000  0.859193  1
  H  H19  1  0.837744  0.271827  0.000000  1
  H  H20  1  0.698165  0.000000  0.140807  1
  H  H21  1  0.698165  0.000000  0.859193  1
  H  H22  1  0.162256  0.728173  0.000000  1
  H  H23  1  0.000000  0.853100  0.722794  1
  H  H24  1  0.000000  0.146900  0.722794  1
  H  H25  1  0.000000  0.853100  0.277206  1
  H  H26  1  0.640807  0.500000  0.198165  1
  H  H27  1  0.359193  0.500000  0.198165  1
  H  H28  1  0.777206  0.353100  0.500000  1
  H  H29  1  0.222794  0.353100  0.500000  1
  H  H30  1  0.500000  0.771827  0.662256  1
  H  H31  1  0.500000  0.228173  0.337744  1
