# generated using pymatgen
data_Yb2Pr6SnPd24
_symmetry_space_group_name_H-M   'P 1'
_cell_length_a   8.52356639
_cell_length_b   8.52356639
_cell_length_c   8.52356639
_cell_angle_alpha   89.79440392
_cell_angle_beta   90.20559608
_cell_angle_gamma   90.20559608
_symmetry_Int_Tables_number   1
_chemical_formula_structural   Yb2Pr6SnPd24
_chemical_formula_sum   'Yb2 Pr6 Sn1 Pd24'
_cell_volume   619.23525818
_cell_formula_units_Z   1
loop_
 _symmetry_equiv_pos_site_id
 _symmetry_equiv_pos_as_xyz
  1  'x, y, z'
loop_
 _atom_site_type_symbol
 _atom_site_label
 _atom_site_symmetry_multiplicity
 _atom_site_fract_x
 _atom_site_fract_y
 _atom_site_fract_z
 _atom_site_occupancy
  Yb  Yb0  1  0.251343  0.748657  0.748657  1
  Yb  Yb1  1  0.748657  0.251343  0.251343  1
  Pr  Pr2  1  0.251474  0.252148  0.252148  1
  Pr  Pr3  1  0.748526  0.747852  0.747852  1
  Pr  Pr4  1  0.747852  0.748526  0.252148  1
  Pr  Pr5  1  0.747852  0.252148  0.748526  1
  Pr  Pr6  1  0.252148  0.251474  0.747852  1
  Pr  Pr7  1  0.252148  0.747852  0.251474  1
  Sn  Sn8  1  0.000000  0.000000  0.000000  1
  Pd  Pd9  1  0.266801  0.501892  0.995872  1
  Pd  Pd10  1  0.733199  0.498108  0.004128  1
  Pd  Pd11  1  0.995872  0.266801  0.498108  1
  Pd  Pd12  1  0.501892  0.266801  0.004128  1
  Pd  Pd13  1  0.004128  0.733199  0.501892  1
  Pd  Pd14  1  0.498108  0.733199  0.995872  1
  Pd  Pd15  1  0.501892  0.004128  0.266801  1
  Pd  Pd16  1  0.266801  0.995872  0.501892  1
  Pd  Pd17  1  0.498108  0.995872  0.733199  1
  Pd  Pd18  1  0.733199  0.004128  0.498108  1
  Pd  Pd19  1  0.995872  0.498108  0.266801  1
  Pd  Pd20  1  0.004128  0.501892  0.733199  1
  Pd  Pd21  1  0.255436  0.502903  0.502903  1
  Pd  Pd22  1  0.744564  0.497097  0.497097  1
  Pd  Pd23  1  0.502903  0.255436  0.497097  1
  Pd  Pd24  1  0.497097  0.744564  0.502903  1
  Pd  Pd25  1  0.502903  0.497097  0.255436  1
  Pd  Pd26  1  0.497097  0.502903  0.744564  1
  Pd  Pd27  1  0.313057  0.997228  0.997228  1
  Pd  Pd28  1  0.686943  0.002772  0.002772  1
  Pd  Pd29  1  0.997228  0.313057  0.002772  1
  Pd  Pd30  1  0.002772  0.686943  0.997228  1
  Pd  Pd31  1  0.997228  0.002772  0.313057  1
  Pd  Pd32  1  0.002772  0.997228  0.686943  1
