# generated using pymatgen
data_YbLu3Ir8
_symmetry_space_group_name_H-M   'P 1'
_cell_length_a   5.31804400
_cell_length_b   5.31804296
_cell_length_c   8.64843400
_cell_angle_alpha   90.00000000
_cell_angle_beta   90.00000000
_cell_angle_gamma   120.00000648
_symmetry_Int_Tables_number   1
_chemical_formula_structural   YbLu3Ir8
_chemical_formula_sum   'Yb1 Lu3 Ir8'
_cell_volume   211.82238140
_cell_formula_units_Z   1
loop_
 _symmetry_equiv_pos_site_id
 _symmetry_equiv_pos_as_xyz
  1  'x, y, z'
loop_
 _atom_site_type_symbol
 _atom_site_label
 _atom_site_symmetry_multiplicity
 _atom_site_fract_x
 _atom_site_fract_y
 _atom_site_fract_z
 _atom_site_occupancy
  Yb  Yb0  1  0.333333  0.666667  0.436431  1
  Lu  Lu1  1  0.333333  0.666667  0.074678  1
  Lu  Lu2  1  0.666667  0.333333  0.562152  1
  Lu  Lu3  1  0.666667  0.333333  0.931222  1
  Ir  Ir4  1  0.000000  0.000000  0.999523  1
  Ir  Ir5  1  0.000000  0.000000  0.499176  1
  Ir  Ir6  1  0.829627  0.659254  0.247884  1
  Ir  Ir7  1  0.170521  0.829479  0.751056  1
  Ir  Ir8  1  0.658957  0.829479  0.751056  1
  Ir  Ir9  1  0.340746  0.170373  0.247884  1
  Ir  Ir10  1  0.829627  0.170373  0.247884  1
  Ir  Ir11  1  0.170521  0.341043  0.751056  1
