# generated using pymatgen
data_Na6Zn16Pt7
_symmetry_space_group_name_H-M   'P 1'
_cell_length_a   8.93135224
_cell_length_b   8.93135244
_cell_length_c   8.93135400
_cell_angle_alpha   60.00000164
_cell_angle_beta   60.00000089
_cell_angle_gamma   60.00000349
_symmetry_Int_Tables_number   1
_chemical_formula_structural   Na6Zn16Pt7
_chemical_formula_sum   'Na6 Zn16 Pt7'
_cell_volume   503.77518419
_cell_formula_units_Z   1
loop_
 _symmetry_equiv_pos_site_id
 _symmetry_equiv_pos_as_xyz
  1  'x, y, z'
loop_
 _atom_site_type_symbol
 _atom_site_label
 _atom_site_symmetry_multiplicity
 _atom_site_fract_x
 _atom_site_fract_y
 _atom_site_fract_z
 _atom_site_occupancy
  Na  Na0  1  0.289514  0.710486  0.710486  1
  Na  Na1  1  0.710486  0.289514  0.289514  1
  Na  Na2  1  0.710486  0.289514  0.710486  1
  Na  Na3  1  0.710486  0.710486  0.289514  1
  Na  Na4  1  0.289514  0.710486  0.289514  1
  Na  Na5  1  0.289514  0.289514  0.710486  1
  Zn  Zn6  1  0.359796  0.880069  0.880069  1
  Zn  Zn7  1  0.880069  0.359796  0.880069  1
  Zn  Zn8  1  0.880069  0.880069  0.880069  1
  Zn  Zn9  1  0.880069  0.880069  0.359796  1
  Zn  Zn10  1  0.119931  0.640204  0.119931  1
  Zn  Zn11  1  0.640204  0.119931  0.119931  1
  Zn  Zn12  1  0.119931  0.119931  0.119931  1
  Zn  Zn13  1  0.119931  0.119931  0.640204  1
  Zn  Zn14  1  0.667790  0.667790  0.996631  1
  Zn  Zn15  1  0.667790  0.667790  0.667790  1
  Zn  Zn16  1  0.667790  0.996631  0.667790  1
  Zn  Zn17  1  0.996631  0.667790  0.667790  1
  Zn  Zn18  1  0.332210  0.332210  0.003369  1
  Zn  Zn19  1  0.332210  0.332210  0.332210  1
  Zn  Zn20  1  0.003369  0.332210  0.332210  1
  Zn  Zn21  1  0.332210  0.003369  0.332210  1
  Pt  Pt22  1  0.000000  0.000000  0.000000  1
  Pt  Pt23  1  0.500000  0.500000  0.000000  1
  Pt  Pt24  1  0.000000  0.000000  0.500000  1
  Pt  Pt25  1  0.000000  0.500000  0.500000  1
  Pt  Pt26  1  0.500000  0.000000  0.500000  1
  Pt  Pt27  1  0.500000  0.000000  0.000000  1
  Pt  Pt28  1  0.000000  0.500000  0.000000  1
