# generated using pymatgen
data_Dy2Y6TiV3O20
_symmetry_space_group_name_H-M   'P 1'
_cell_length_a   3.73171900
_cell_length_b   10.42445974
_cell_length_c   11.30563311
_cell_angle_alpha   90.11413179
_cell_angle_beta   90.00000000
_cell_angle_gamma   90.00000000
_symmetry_Int_Tables_number   1
_chemical_formula_structural   Dy2Y6TiV3O20
_chemical_formula_sum   'Dy2 Y6 Ti1 V3 O20'
_cell_volume   439.80130762
_cell_formula_units_Z   1
loop_
 _symmetry_equiv_pos_site_id
 _symmetry_equiv_pos_as_xyz
  1  'x, y, z'
loop_
 _atom_site_type_symbol
 _atom_site_label
 _atom_site_symmetry_multiplicity
 _atom_site_fract_x
 _atom_site_fract_y
 _atom_site_fract_z
 _atom_site_occupancy
  Dy  Dy0  1  0.750000  0.381202  0.773526  1
  Dy  Dy1  1  0.750000  0.880318  0.725652  1
  Y  Y2  1  0.250000  0.136303  0.943638  1
  Y  Y3  1  0.250000  0.637284  0.554924  1
  Y  Y4  1  0.750000  0.862568  0.055591  1
  Y  Y5  1  0.750000  0.363770  0.445253  1
  Y  Y6  1  0.250000  0.616922  0.224127  1
  Y  Y7  1  0.250000  0.117165  0.275773  1
  Ti  Ti8  1  0.750000  0.326206  0.119153  1
  V  V9  1  0.250000  0.170985  0.618811  1
  V  V10  1  0.250000  0.671167  0.880958  1
  V  V11  1  0.750000  0.828492  0.381294  1
  O  O12  1  0.250000  0.225630  0.457973  1
  O  O13  1  0.250000  0.726467  0.041580  1
  O  O14  1  0.750000  0.774365  0.542566  1
  O  O15  1  0.750000  0.276542  0.956705  1
  O  O16  1  0.250000  0.493964  0.394867  1
  O  O17  1  0.250000  0.994899  0.105609  1
  O  O18  1  0.750000  0.505881  0.606003  1
  O  O19  1  0.750000  0.006300  0.894064  1
  O  O20  1  0.250000  0.265233  0.116816  1
  O  O21  1  0.250000  0.765522  0.383732  1
  O  O22  1  0.750000  0.734850  0.882952  1
  O  O23  1  0.750000  0.234664  0.616746  1
  O  O24  1  0.250000  0.008603  0.654372  1
  O  O25  1  0.250000  0.508605  0.845530  1
  O  O26  1  0.750000  0.991404  0.346410  1
  O  O27  1  0.750000  0.492779  0.154542  1
  O  O28  1  0.250000  0.258471  0.769237  1
  O  O29  1  0.250000  0.758636  0.730842  1
  O  O30  1  0.750000  0.743498  0.230461  1
  O  O31  1  0.750000  0.241307  0.270291  1
