# generated using pymatgen
data_Pr9SmB2Br15
_symmetry_space_group_name_H-M   'P 1'
_cell_length_a   9.45662509
_cell_length_b   10.29870042
_cell_length_c   11.12749391
_cell_angle_alpha   91.15367050
_cell_angle_beta   114.46980540
_cell_angle_gamma   110.86867312
_symmetry_Int_Tables_number   1
_chemical_formula_structural   Pr9SmB2Br15
_chemical_formula_sum   'Pr9 Sm1 B2 Br15'
_cell_volume   903.57723221
_cell_formula_units_Z   1
loop_
 _symmetry_equiv_pos_site_id
 _symmetry_equiv_pos_as_xyz
  1  'x, y, z'
loop_
 _atom_site_type_symbol
 _atom_site_label
 _atom_site_symmetry_multiplicity
 _atom_site_fract_x
 _atom_site_fract_y
 _atom_site_fract_z
 _atom_site_occupancy
  Pr  Pr0  1  0.801971  0.410122  0.276373  1
  Pr  Pr1  1  0.195948  0.589570  0.722690  1
  Pr  Pr2  1  0.675298  0.745793  0.820099  1
  Pr  Pr3  1  0.322980  0.252987  0.179779  1
  Pr  Pr4  1  0.525646  0.704696  0.096315  1
  Pr  Pr5  1  0.473491  0.294885  0.903351  1
  Pr  Pr6  1  0.586179  0.038258  0.325515  1
  Pr  Pr7  1  0.411087  0.960540  0.673517  1
  Pr  Pr8  1  0.728156  0.075638  0.048403  1
  Sm  Sm9  1  0.280826  0.926807  0.953041  1
  B  B10  1  0.464971  0.818273  0.875185  1
  B  B11  1  0.532215  0.180130  0.123687  1
  Br  Br12  1  0.004201  0.997398  0.998553  1
  Br  Br13  1  0.635812  0.882053  0.583698  1
  Br  Br14  1  0.362199  0.117030  0.415979  1
  Br  Br15  1  0.882555  0.298346  0.527096  1
  Br  Br16  1  0.115806  0.700618  0.471893  1
  Br  Br17  1  0.284690  0.765313  0.173059  1
  Br  Br18  1  0.710078  0.237221  0.819196  1
  Br  Br19  1  0.057151  0.344277  0.227103  1
  Br  Br20  1  0.161121  0.052502  0.709317  1
  Br  Br21  1  0.837298  0.942851  0.296676  1
  Br  Br22  1  0.230963  0.410177  0.944242  1
  Br  Br23  1  0.767542  0.589033  0.055312  1
  Br  Br24  1  0.407400  0.463476  0.660212  1
  Br  Br25  1  0.590901  0.535826  0.339530  1
  Br  Br26  1  0.953516  0.666179  0.780178  1
