# generated using pymatgen
data_Ta6Si6MoRu4W
_symmetry_space_group_name_H-M   'P 1'
_cell_length_a   7.50391938
_cell_length_b   7.51422934
_cell_length_c   7.51422978
_cell_angle_alpha   126.86453272
_cell_angle_beta   123.84976980
_cell_angle_gamma   81.00242313
_symmetry_Int_Tables_number   1
_chemical_formula_structural   Ta6Si6MoRu4W
_chemical_formula_sum   'Ta6 Si6 Mo1 Ru4 W1'
_cell_volume   271.26181042
_cell_formula_units_Z   1
loop_
 _symmetry_equiv_pos_site_id
 _symmetry_equiv_pos_as_xyz
  1  'x, y, z'
loop_
 _atom_site_type_symbol
 _atom_site_label
 _atom_site_symmetry_multiplicity
 _atom_site_fract_x
 _atom_site_fract_y
 _atom_site_fract_z
 _atom_site_occupancy
  Ta  Ta0  1  0.941600  0.906498  0.464853  1
  Ta  Ta1  1  0.058400  0.523254  0.964899  1
  Ta  Ta2  1  0.539854  0.511398  0.472790  1
  Ta  Ta3  1  0.460146  0.932935  0.971543  1
  Ta  Ta4  1  0.747573  0.078946  0.831327  1
  Ta  Ta5  1  0.252427  0.083754  0.331373  1
  Si  Si6  1  0.719769  0.447297  0.226427  1
  Si  Si7  1  0.280231  0.506658  0.727529  1
  Si  Si8  1  0.674226  0.182027  0.516844  1
  Si  Si9  1  0.325774  0.842618  0.507800  1
  Si  Si10  1  0.165488  0.182284  0.008078  1
  Si  Si11  1  0.834512  0.842590  0.016795  1
  Mo  Mo12  1  0.500000  0.750579  0.250579  1
  Ru  Ru13  1  0.907408  0.252255  0.413246  1
  Ru  Ru14  1  0.092592  0.505837  0.344846  1
  Ru  Ru15  1  0.339111  0.252374  0.845335  1
  Ru  Ru16  1  0.660889  0.506225  0.913263  1
  W  W17  1  0.000000  0.750271  0.750271  1
