# generated using pymatgen
data_SrSm7(IO6)4
_symmetry_space_group_name_H-M   'P 1'
_cell_length_a   5.67872100
_cell_length_b   7.89183420
_cell_length_c   11.78842601
_cell_angle_alpha   77.00634851
_cell_angle_beta   90.00000000
_cell_angle_gamma   90.00000000
_symmetry_Int_Tables_number   1
_chemical_formula_structural   SrSm7(IO6)4
_chemical_formula_sum   'Sr1 Sm7 I4 O24'
_cell_volume   514.77725049
_cell_formula_units_Z   1
loop_
 _symmetry_equiv_pos_site_id
 _symmetry_equiv_pos_as_xyz
  1  'x, y, z'
loop_
 _atom_site_type_symbol
 _atom_site_label
 _atom_site_symmetry_multiplicity
 _atom_site_fract_x
 _atom_site_fract_y
 _atom_site_fract_z
 _atom_site_occupancy
  Sr  Sr0  1  0.741521  0.000000  0.750000  1
  Sm  Sm1  1  0.245830  0.000000  0.250000  1
  Sm  Sm2  1  0.180033  0.785721  0.576843  1
  Sm  Sm3  1  0.819441  0.789348  0.081235  1
  Sm  Sm4  1  0.687813  0.500000  0.750000  1
  Sm  Sm5  1  0.312704  0.500000  0.250000  1
  Sm  Sm6  1  0.180033  0.214279  0.923157  1
  Sm  Sm7  1  0.819441  0.210652  0.418765  1
  I  I8  1  0.255326  0.721696  0.883083  1
  I  I9  1  0.731829  0.723242  0.389526  1
  I  I10  1  0.255326  0.278304  0.616917  1
  I  I11  1  0.731829  0.276758  0.110474  1
  O  O12  1  0.082222  0.930666  0.892392  1
  O  O13  1  0.521448  0.819069  0.940262  1
  O  O14  1  0.979908  0.948098  0.405788  1
  O  O15  1  0.430515  0.786241  0.735846  1
  O  O16  1  0.468229  0.842262  0.435481  1
  O  O17  1  0.993997  0.695097  0.779804  1
  O  O18  1  0.554915  0.792501  0.230989  1
  O  O19  1  0.826137  0.652628  0.560578  1
  O  O20  1  0.368045  0.496327  0.883290  1
  O  O21  1  0.049507  0.716850  0.251578  1
  O  O22  1  0.368045  0.503673  0.616710  1
  O  O23  1  0.826137  0.347372  0.939422  1
  O  O24  1  0.128195  0.624180  0.031459  1
  O  O25  1  0.616319  0.497011  0.390169  1
  O  O26  1  0.993997  0.304903  0.720196  1
  O  O27  1  0.616319  0.502989  0.109831  1
  O  O28  1  0.128195  0.375820  0.468541  1
  O  O29  1  0.430515  0.213759  0.764154  1
  O  O30  1  0.049507  0.283150  0.248422  1
  O  O31  1  0.521448  0.180931  0.559738  1
  O  O32  1  0.554915  0.207499  0.269011  1
  O  O33  1  0.082222  0.069334  0.607608  1
  O  O34  1  0.468229  0.157738  0.064519  1
  O  O35  1  0.979908  0.051902  0.094212  1
