# generated using pymatgen
data_Pr4ErIrPt2
_symmetry_space_group_name_H-M   'P 1'
_cell_length_a   11.41797400
_cell_length_b   11.41797400
_cell_length_c   6.50802900
_cell_angle_alpha   90.00000000
_cell_angle_beta   90.00000000
_cell_angle_gamma   90.00000000
_symmetry_Int_Tables_number   1
_chemical_formula_structural   Pr4ErIrPt2
_chemical_formula_sum   'Pr16 Er4 Ir4 Pt8'
_cell_volume   848.45258850
_cell_formula_units_Z   4
loop_
 _symmetry_equiv_pos_site_id
 _symmetry_equiv_pos_as_xyz
  1  'x, y, z'
loop_
 _atom_site_type_symbol
 _atom_site_label
 _atom_site_symmetry_multiplicity
 _atom_site_fract_x
 _atom_site_fract_y
 _atom_site_fract_z
 _atom_site_occupancy
  Pr  Pr0  1  0.291295  0.087567  0.377296  1
  Pr  Pr1  1  0.291295  0.912433  0.877296  1
  Pr  Pr2  1  0.708705  0.087567  0.877296  1
  Pr  Pr3  1  0.708705  0.912433  0.377296  1
  Pr  Pr4  1  0.587567  0.791295  0.877296  1
  Pr  Pr5  1  0.587567  0.208705  0.377296  1
  Pr  Pr6  1  0.412433  0.791295  0.377296  1
  Pr  Pr7  1  0.412433  0.208705  0.877296  1
  Pr  Pr8  1  0.208705  0.412433  0.622704  1
  Pr  Pr9  1  0.208705  0.587567  0.122704  1
  Pr  Pr10  1  0.791295  0.412433  0.122704  1
  Pr  Pr11  1  0.791295  0.587567  0.622704  1
  Pr  Pr12  1  0.912433  0.708705  0.122704  1
  Pr  Pr13  1  0.912433  0.291295  0.622704  1
  Pr  Pr14  1  0.087567  0.708705  0.622704  1
  Pr  Pr15  1  0.087567  0.291295  0.122704  1
  Er  Er16  1  0.000000  0.000000  0.500000  1
  Er  Er17  1  0.000000  0.000000  0.000000  1
  Er  Er18  1  0.500000  0.500000  0.000000  1
  Er  Er19  1  0.500000  0.500000  0.500000  1
  Ir  Ir20  1  0.500000  0.000000  0.117118  1
  Ir  Ir21  1  0.500000  0.000000  0.617118  1
  Ir  Ir22  1  0.000000  0.500000  0.882882  1
  Ir  Ir23  1  0.000000  0.500000  0.382882  1
  Pt  Pt24  1  0.854129  0.145871  0.250000  1
  Pt  Pt25  1  0.854129  0.854129  0.750000  1
  Pt  Pt26  1  0.145871  0.145871  0.750000  1
  Pt  Pt27  1  0.145871  0.854129  0.250000  1
  Pt  Pt28  1  0.645871  0.354129  0.750000  1
  Pt  Pt29  1  0.645871  0.645871  0.250000  1
  Pt  Pt30  1  0.354129  0.354129  0.250000  1
  Pt  Pt31  1  0.354129  0.645871  0.750000  1
