# generated using pymatgen
data_PrNd9Si5Ir
_symmetry_space_group_name_H-M   'P 1'
_cell_length_a   7.67128545
_cell_length_b   7.66717984
_cell_length_c   9.08281454
_cell_angle_alpha   114.90131721
_cell_angle_beta   114.91631419
_cell_angle_gamma   90.11149893
_symmetry_Int_Tables_number   1
_chemical_formula_structural   PrNd9Si5Ir
_chemical_formula_sum   'Pr1 Nd9 Si5 Ir1'
_cell_volume   428.88935816
_cell_formula_units_Z   1
loop_
 _symmetry_equiv_pos_site_id
 _symmetry_equiv_pos_as_xyz
  1  'x, y, z'
loop_
 _atom_site_type_symbol
 _atom_site_label
 _atom_site_symmetry_multiplicity
 _atom_site_fract_x
 _atom_site_fract_y
 _atom_site_fract_z
 _atom_site_occupancy
  Pr  Pr0  1  0.549742  0.020446  0.712909  1
  Nd  Nd1  1  0.469192  0.469585  0.938098  1
  Nd  Nd2  1  0.030802  0.030900  0.062173  1
  Nd  Nd3  1  0.949143  0.806851  0.286023  1
  Nd  Nd4  1  0.336990  0.479834  0.285819  1
  Nd  Nd5  1  0.806156  0.336783  0.286353  1
  Nd  Nd6  1  0.479340  0.949396  0.285930  1
  Nd  Nd7  1  0.020147  0.163019  0.714119  1
  Nd  Nd8  1  0.693310  0.550551  0.713948  1
  Nd  Nd9  1  0.163406  0.693758  0.713917  1
  Si  Si10  1  0.250377  0.249470  0.499763  1
  Si  Si11  1  0.615336  0.884539  0.000461  1
  Si  Si12  1  0.384901  0.115013  0.000361  1
  Si  Si13  1  0.885178  0.385096  0.000328  1
  Si  Si14  1  0.115466  0.615431  0.000143  1
  Ir  Ir15  1  0.750515  0.749328  0.499655  1
