# generated using pymatgen
data_Er5Tm5Zn3Bi2Au
_symmetry_space_group_name_H-M   'P 1'
_cell_length_a   8.58923816
_cell_length_b   8.58742552
_cell_length_c   8.58652711
_cell_angle_alpha   124.08618035
_cell_angle_beta   124.09260355
_cell_angle_gamma   83.06543049
_symmetry_Int_Tables_number   1
_chemical_formula_structural   Er5Tm5Zn3Bi2Au
_chemical_formula_sum   'Er5 Tm5 Zn3 Bi2 Au1'
_cell_volume   416.74922464
_cell_formula_units_Z   1
loop_
 _symmetry_equiv_pos_site_id
 _symmetry_equiv_pos_as_xyz
  1  'x, y, z'
loop_
 _atom_site_type_symbol
 _atom_site_label
 _atom_site_symmetry_multiplicity
 _atom_site_fract_x
 _atom_site_fract_y
 _atom_site_fract_z
 _atom_site_occupancy
  Er  Er0  1  0.705658  0.511088  0.500000  1
  Er  Er1  1  0.488895  0.990041  0.194347  1
  Er  Er2  1  0.794550  0.295696  0.805653  1
  Er  Er3  1  0.988878  0.794640  0.500000  1
  Er  Er4  1  0.294872  0.488613  0.500000  1
  Tm  Tm5  1  0.499277  0.499165  0.998828  1
  Tm  Tm6  1  0.000449  0.000337  0.001172  1
  Tm  Tm7  1  0.509995  0.011395  0.804917  1
  Tm  Tm8  1  0.205077  0.706477  0.195083  1
  Tm  Tm9  1  0.011774  0.205464  0.500000  1
  Zn  Zn10  1  0.137849  0.639417  0.777709  1
  Zn  Zn11  1  0.860139  0.361707  0.222291  1
  Zn  Zn12  1  0.639601  0.859923  0.500000  1
  Bi  Bi13  1  0.249284  0.250582  0.999899  1
  Bi  Bi14  1  0.749385  0.750683  0.000101  1
  Au  Au15  1  0.364318  0.134770  0.500000  1
