# generated using pymatgen
data_LaAuBr6
_symmetry_space_group_name_H-M   'P 1'
_cell_length_a   8.19219167
_cell_length_b   10.73033172
_cell_length_c   15.41522736
_cell_angle_alpha   104.04367520
_cell_angle_beta   95.51276838
_cell_angle_gamma   111.90830152
_symmetry_Int_Tables_number   1
_chemical_formula_structural   LaAuBr6
_chemical_formula_sum   'La4 Au4 Br24'
_cell_volume   1193.13515751
_cell_formula_units_Z   4
loop_
 _symmetry_equiv_pos_site_id
 _symmetry_equiv_pos_as_xyz
  1  'x, y, z'
loop_
 _atom_site_type_symbol
 _atom_site_label
 _atom_site_symmetry_multiplicity
 _atom_site_fract_x
 _atom_site_fract_y
 _atom_site_fract_z
 _atom_site_occupancy
  La  La0  1  0.583002  0.921583  0.620944  1
  La  La1  1  0.416998  0.078417  0.379056  1
  La  La2  1  0.977930  0.311255  0.871075  1
  La  La3  1  0.022070  0.688745  0.128925  1
  Au  Au4  1  0.296148  0.631106  0.763767  1
  Au  Au5  1  0.703852  0.368894  0.236233  1
  Au  Au6  1  0.500000  0.500000  0.500000  1
  Au  Au7  1  0.000000  0.000000  0.000000  1
  Br  Br8  1  0.613816  0.730279  0.748014  1
  Br  Br9  1  0.386184  0.269721  0.251986  1
  Br  Br10  1  0.271465  0.842325  0.737545  1
  Br  Br11  1  0.728535  0.157675  0.262455  1
  Br  Br12  1  0.976152  0.535235  0.776152  1
  Br  Br13  1  0.023848  0.464765  0.223848  1
  Br  Br14  1  0.321589  0.416490  0.785390  1
  Br  Br15  1  0.678411  0.583510  0.214610  1
  Br  Br16  1  0.693973  0.370173  0.506812  1
  Br  Br17  1  0.306027  0.629827  0.493188  1
  Br  Br18  1  0.766582  0.722523  0.522269  1
  Br  Br19  1  0.233418  0.277477  0.477731  1
  Br  Br20  1  0.778882  0.100989  0.973542  1
  Br  Br21  1  0.221118  0.899011  0.026458  1
  Br  Br22  1  0.763999  0.799852  0.031174  1
  Br  Br23  1  0.236001  0.200148  0.968826  1
  Br  Br24  1  0.612778  0.189898  0.746149  1
  Br  Br25  1  0.387222  0.810102  0.253851  1
  Br  Br26  1  0.961937  0.055257  0.726660  1
  Br  Br27  1  0.038063  0.944743  0.273340  1
  Br  Br28  1  0.733538  0.051455  0.480280  1
  Br  Br29  1  0.266462  0.948545  0.519720  1
  Br  Br30  1  0.755897  0.436093  0.977382  1
  Br  Br31  1  0.244103  0.563907  0.022618  1
