# generated using pymatgen
data_Rb14Fe7CoSe16
_symmetry_space_group_name_H-M   'P 1'
_cell_length_a   10.43791921
_cell_length_b   10.45417085
_cell_length_c   16.88790134
_cell_angle_alpha   65.33308078
_cell_angle_beta   64.98692308
_cell_angle_gamma   48.42269116
_symmetry_Int_Tables_number   1
_chemical_formula_structural   Rb14Fe7CoSe16
_chemical_formula_sum   'Rb14 Fe7 Co1 Se16'
_cell_volume   1223.56031643
_cell_formula_units_Z   1
loop_
 _symmetry_equiv_pos_site_id
 _symmetry_equiv_pos_as_xyz
  1  'x, y, z'
loop_
 _atom_site_type_symbol
 _atom_site_label
 _atom_site_symmetry_multiplicity
 _atom_site_fract_x
 _atom_site_fract_y
 _atom_site_fract_z
 _atom_site_occupancy
  Rb  Rb0  1  0.229514  0.769126  0.750983  1
  Rb  Rb1  1  0.768202  0.231664  0.250100  1
  Rb  Rb2  1  0.240264  0.747594  0.990806  1
  Rb  Rb3  1  0.252513  0.758342  0.508910  1
  Rb  Rb4  1  0.759177  0.251249  0.010627  1
  Rb  Rb5  1  0.747673  0.240212  0.489947  1
  Rb  Rb6  1  0.003183  0.519313  0.610985  1
  Rb  Rb7  1  0.481758  0.995892  0.889658  1
  Rb  Rb8  1  0.998256  0.480644  0.387892  1
  Rb  Rb9  1  0.520319  0.001950  0.111308  1
  Rb  Rb10  1  0.009893  0.508221  0.862057  1
  Rb  Rb11  1  0.493676  0.990309  0.637598  1
  Rb  Rb12  1  0.988275  0.492721  0.139173  1
  Rb  Rb13  1  0.507783  0.010586  0.361154  1
  Fe  Fe14  1  0.571342  0.314686  0.835287  1
  Fe  Fe15  1  0.318454  0.571690  0.332018  1
  Fe  Fe16  1  0.429873  0.680144  0.167805  1
  Fe  Fe17  1  0.896966  0.209644  0.779680  1
  Fe  Fe18  1  0.787534  0.099904  0.724912  1
  Fe  Fe19  1  0.105734  0.785709  0.223522  1
  Fe  Fe20  1  0.213681  0.893942  0.277363  1
  Co  Co21  1  0.676991  0.443127  0.660238  1
  Se  Se22  1  0.651217  0.511355  0.787412  1
  Se  Se23  1  0.492668  0.353686  0.705941  1
  Se  Se24  1  0.349387  0.485902  0.207706  1
  Se  Se25  1  0.514270  0.651321  0.291808  1
  Se  Se26  1  0.970866  0.197138  0.623335  1
  Se  Se27  1  0.812939  0.013116  0.881531  1
  Se  Se28  1  0.017302  0.813527  0.377356  1
  Se  Se29  1  0.188321  0.979117  0.123733  1
  Se  Se30  1  0.671355  0.607963  0.046590  1
  Se  Se31  1  0.390830  0.330568  0.452150  1
  Se  Se32  1  0.326425  0.390790  0.955155  1
  Se  Se33  1  0.604832  0.679398  0.543547  1
  Se  Se34  1  0.871313  0.858530  0.682893  1
  Se  Se35  1  0.140242  0.127533  0.818626  1
  Se  Se36  1  0.131088  0.134605  0.317458  1
  Se  Se37  1  0.865882  0.868781  0.182732  1
