# generated using pymatgen
data_La5Ni18Ir
_symmetry_space_group_name_H-M   'P 1'
_cell_length_a   5.03229117
_cell_length_b   5.03229039
_cell_length_c   16.70903060
_cell_angle_alpha   81.33911459
_cell_angle_beta   81.33911657
_cell_angle_gamma   60.00000248
_symmetry_Int_Tables_number   1
_chemical_formula_structural   La5Ni18Ir
_chemical_formula_sum   'La5 Ni18 Ir1'
_cell_volume   360.86656219
_cell_formula_units_Z   1
loop_
 _symmetry_equiv_pos_site_id
 _symmetry_equiv_pos_as_xyz
  1  'x, y, z'
loop_
 _atom_site_type_symbol
 _atom_site_label
 _atom_site_symmetry_multiplicity
 _atom_site_fract_x
 _atom_site_fract_y
 _atom_site_fract_z
 _atom_site_occupancy
  La  La0  1  0.000000  0.000000  0.000000  1
  La  La1  1  0.922138  0.922138  0.233587  1
  La  La2  1  0.077862  0.077862  0.766413  1
  La  La3  1  0.848988  0.848988  0.453038  1
  La  La4  1  0.151012  0.151012  0.546962  1
  Ni  Ni5  1  0.747839  0.747840  0.756483  1
  Ni  Ni6  1  0.252160  0.252160  0.243518  1
  Ni  Ni7  1  0.666750  0.666750  0.999753  1
  Ni  Ni8  1  0.333250  0.333250  0.000247  1
  Ni  Ni9  1  0.585876  0.585876  0.242373  1
  Ni  Ni10  1  0.414124  0.414124  0.757627  1
  Ni  Ni11  1  0.378325  0.378325  0.363384  1
  Ni  Ni12  1  0.879965  0.378325  0.363384  1
  Ni  Ni13  1  0.378325  0.879965  0.363384  1
  Ni  Ni14  1  0.621675  0.621675  0.636616  1
  Ni  Ni15  1  0.120035  0.621675  0.636616  1
  Ni  Ni16  1  0.621675  0.120035  0.636616  1
  Ni  Ni17  1  0.459602  0.459602  0.120954  1
  Ni  Ni18  1  0.959841  0.459602  0.120954  1
  Ni  Ni19  1  0.459602  0.959841  0.120954  1
  Ni  Ni20  1  0.540398  0.540398  0.879046  1
  Ni  Ni21  1  0.040159  0.540398  0.879046  1
  Ni  Ni22  1  0.540398  0.040159  0.879046  1
  Ir  Ir23  1  0.500000  0.500000  0.500000  1
