# generated using pymatgen
data_Y3ErTh2(Co3P2)6
_symmetry_space_group_name_H-M   'P 1'
_cell_length_a   3.73120700
_cell_length_b   10.54237306
_cell_length_c   12.21512107
_cell_angle_alpha   90.01186368
_cell_angle_beta   90.00000000
_cell_angle_gamma   90.00000000
_symmetry_Int_Tables_number   1
_chemical_formula_structural   Y3ErTh2(Co3P2)6
_chemical_formula_sum   'Y3 Er1 Th2 Co18 P12'
_cell_volume   480.49125752
_cell_formula_units_Z   1
loop_
 _symmetry_equiv_pos_site_id
 _symmetry_equiv_pos_as_xyz
  1  'x, y, z'
loop_
 _atom_site_type_symbol
 _atom_site_label
 _atom_site_symmetry_multiplicity
 _atom_site_fract_x
 _atom_site_fract_y
 _atom_site_fract_z
 _atom_site_occupancy
  Y  Y0  1  0.500000  0.184209  0.204045  1
  Y  Y1  1  0.000000  0.684306  0.795831  1
  Y  Y2  1  0.000000  0.315644  0.796005  1
  Er  Er3  1  0.500000  0.815837  0.204406  1
  Th  Th4  1  0.000000  0.499937  0.524485  1
  Th  Th5  1  0.500000  0.999821  0.475359  1
  Co  Co6  1  0.500000  0.500230  0.155615  1
  Co  Co7  1  0.000000  0.999786  0.844470  1
  Co  Co8  1  0.500000  0.500087  0.702642  1
  Co  Co9  1  0.000000  0.999096  0.297053  1
  Co  Co10  1  0.000000  0.500485  0.985765  1
  Co  Co11  1  0.500000  0.999548  0.015136  1
  Co  Co12  1  0.500000  0.333556  0.994563  1
  Co  Co13  1  0.500000  0.666925  0.995047  1
  Co  Co14  1  0.000000  0.166146  0.005741  1
  Co  Co15  1  0.000000  0.833436  0.006046  1
  Co  Co16  1  0.500000  0.299228  0.429305  1
  Co  Co17  1  0.500000  0.700848  0.428674  1
  Co  Co18  1  0.000000  0.200563  0.570534  1
  Co  Co19  1  0.000000  0.799331  0.570246  1
  Co  Co20  1  0.500000  0.880288  0.713166  1
  Co  Co21  1  0.500000  0.119594  0.713272  1
  Co  Co22  1  0.000000  0.620424  0.286162  1
  Co  Co23  1  0.000000  0.380531  0.286717  1
  P  P24  1  0.500000  0.500232  0.882092  1
  P  P25  1  0.000000  0.999176  0.118480  1
  P  P26  1  0.500000  0.500113  0.338315  1
  P  P27  1  0.000000  0.999945  0.661491  1
  P  P28  1  0.500000  0.305706  0.618271  1
  P  P29  1  0.500000  0.694312  0.617960  1
  P  P30  1  0.000000  0.194073  0.381607  1
  P  P31  1  0.000000  0.805862  0.380757  1
  P  P32  1  0.500000  0.847057  0.895342  1
  P  P33  1  0.500000  0.152696  0.895566  1
  P  P34  1  0.000000  0.653992  0.105187  1
  P  P35  1  0.000000  0.346978  0.104650  1
