# generated using pymatgen
data_Cr3Sb12PtBr
_symmetry_space_group_name_H-M   'P 1'
_cell_length_a   8.22938479
_cell_length_b   8.22938626
_cell_length_c   8.22938500
_cell_angle_alpha   109.28317706
_cell_angle_beta   109.28316590
_cell_angle_gamma   109.28317877
_symmetry_Int_Tables_number   1
_chemical_formula_structural   Cr3Sb12PtBr
_chemical_formula_sum   'Cr3 Sb12 Pt1 Br1'
_cell_volume   431.98387622
_cell_formula_units_Z   1
loop_
 _symmetry_equiv_pos_site_id
 _symmetry_equiv_pos_as_xyz
  1  'x, y, z'
loop_
 _atom_site_type_symbol
 _atom_site_label
 _atom_site_symmetry_multiplicity
 _atom_site_fract_x
 _atom_site_fract_y
 _atom_site_fract_z
 _atom_site_occupancy
  Cr  Cr0  1  0.000000  0.000000  0.500000  1
  Cr  Cr1  1  0.000000  0.500000  0.000000  1
  Cr  Cr2  1  0.500000  0.000000  0.000000  1
  Sb  Sb3  1  0.656421  0.807691  0.153429  1
  Sb  Sb4  1  0.846571  0.343579  0.192309  1
  Sb  Sb5  1  0.507112  0.848749  0.656250  1
  Sb  Sb6  1  0.848749  0.656250  0.507112  1
  Sb  Sb7  1  0.492888  0.151251  0.343750  1
  Sb  Sb8  1  0.153429  0.656421  0.807691  1
  Sb  Sb9  1  0.807691  0.153429  0.656421  1
  Sb  Sb10  1  0.192309  0.846571  0.343579  1
  Sb  Sb11  1  0.151251  0.343750  0.492888  1
  Sb  Sb12  1  0.656250  0.507112  0.848749  1
  Sb  Sb13  1  0.343750  0.492888  0.151251  1
  Sb  Sb14  1  0.343579  0.192309  0.846571  1
  Pt  Pt15  1  0.500000  0.500000  0.500000  1
  Br  Br16  1  0.000000  0.000000  0.000000  1
