# generated using pymatgen
data_Mn(Zn11Ir)2
_symmetry_space_group_name_H-M   'P 1'
_cell_length_a   7.77116710
_cell_length_b   7.77116807
_cell_length_c   7.77744286
_cell_angle_alpha   72.65704207
_cell_angle_beta   72.65704044
_cell_angle_gamma   58.59582275
_symmetry_Int_Tables_number   1
_chemical_formula_structural   Mn(Zn11Ir)2
_chemical_formula_sum   'Mn1 Zn22 Ir2'
_cell_volume   376.73856840
_cell_formula_units_Z   1
loop_
 _symmetry_equiv_pos_site_id
 _symmetry_equiv_pos_as_xyz
  1  'x, y, z'
loop_
 _atom_site_type_symbol
 _atom_site_label
 _atom_site_symmetry_multiplicity
 _atom_site_fract_x
 _atom_site_fract_y
 _atom_site_fract_z
 _atom_site_occupancy
  Mn  Mn0  1  0.000000  0.000000  0.500000  1
  Zn  Zn1  1  0.337852  0.747695  0.313920  1
  Zn  Zn2  1  0.662148  0.252305  0.686080  1
  Zn  Zn3  1  0.252305  0.662148  0.686080  1
  Zn  Zn4  1  0.747695  0.337852  0.313920  1
  Zn  Zn5  1  0.677420  0.322580  0.000000  1
  Zn  Zn6  1  0.322580  0.677420  0.000000  1
  Zn  Zn7  1  0.832785  0.832785  0.778558  1
  Zn  Zn8  1  0.167215  0.167215  0.221442  1
  Zn  Zn9  1  0.975067  0.975067  0.175593  1
  Zn  Zn10  1  0.024933  0.024933  0.824407  1
  Zn  Zn11  1  0.351014  0.351014  0.278860  1
  Zn  Zn12  1  0.648986  0.648986  0.721140  1
  Zn  Zn13  1  0.686337  0.686337  0.378108  1
  Zn  Zn14  1  0.313663  0.313663  0.621892  1
  Zn  Zn15  1  0.661347  0.025406  0.462024  1
  Zn  Zn16  1  0.338653  0.974594  0.537976  1
  Zn  Zn17  1  0.974594  0.338653  0.537976  1
  Zn  Zn18  1  0.025406  0.661347  0.462024  1
  Zn  Zn19  1  0.618787  0.998187  0.101908  1
  Zn  Zn20  1  0.381213  0.001813  0.898092  1
  Zn  Zn21  1  0.001813  0.381213  0.898092  1
  Zn  Zn22  1  0.998187  0.618787  0.101908  1
  Ir  Ir23  1  0.657289  0.657289  0.054826  1
  Ir  Ir24  1  0.342711  0.342711  0.945174  1
