# generated using pymatgen
data_EuGd2Zn11
_symmetry_space_group_name_H-M   'P 1'
_cell_length_a   8.22049204
_cell_length_b   8.22049228
_cell_length_c   8.22049100
_cell_angle_alpha   148.49223875
_cell_angle_beta   116.37698534
_cell_angle_gamma   72.73180308
_symmetry_Int_Tables_number   1
_chemical_formula_structural   EuGd2Zn11
_chemical_formula_sum   'Eu1 Gd2 Zn11'
_cell_volume   256.08025073
_cell_formula_units_Z   1
loop_
 _symmetry_equiv_pos_site_id
 _symmetry_equiv_pos_as_xyz
  1  'x, y, z'
loop_
 _atom_site_type_symbol
 _atom_site_label
 _atom_site_symmetry_multiplicity
 _atom_site_fract_x
 _atom_site_fract_y
 _atom_site_fract_z
 _atom_site_occupancy
  Eu  Eu0  1  0.000000  0.000000  0.000000  1
  Gd  Gd1  1  0.298015  0.298015  0.000000  1
  Gd  Gd2  1  0.701985  0.701985  0.000000  1
  Zn  Zn3  1  0.500000  0.000000  0.500000  1
  Zn  Zn4  1  0.680702  0.500000  0.180702  1
  Zn  Zn5  1  0.319298  0.500000  0.819298  1
  Zn  Zn6  1  0.693919  0.337560  0.356360  1
  Zn  Zn7  1  0.306081  0.662440  0.643640  1
  Zn  Zn8  1  0.981199  0.337560  0.643640  1
  Zn  Zn9  1  0.018801  0.662440  0.356360  1
  Zn  Zn10  1  0.425195  0.139411  0.285784  1
  Zn  Zn11  1  0.574805  0.860589  0.714216  1
  Zn  Zn12  1  0.853628  0.139411  0.714216  1
  Zn  Zn13  1  0.146372  0.860589  0.285784  1
