# generated using pymatgen
data_DyHoTc3Ge4
_symmetry_space_group_name_H-M   'P 1'
_cell_length_a   8.31346000
_cell_length_b   5.68536271
_cell_length_c   7.00928366
_cell_angle_alpha   76.16495626
_cell_angle_beta   90.00000000
_cell_angle_gamma   90.00000000
_symmetry_Int_Tables_number   1
_chemical_formula_structural   DyHoTc3Ge4
_chemical_formula_sum   'Dy2 Ho2 Tc6 Ge8'
_cell_volume   321.68260604
_cell_formula_units_Z   2
loop_
 _symmetry_equiv_pos_site_id
 _symmetry_equiv_pos_as_xyz
  1  'x, y, z'
loop_
 _atom_site_type_symbol
 _atom_site_label
 _atom_site_symmetry_multiplicity
 _atom_site_fract_x
 _atom_site_fract_y
 _atom_site_fract_z
 _atom_site_occupancy
  Dy  Dy0  1  0.554734  0.076542  0.245264  1
  Dy  Dy1  1  0.054734  0.423458  0.754736  1
  Ho  Ho2  1  0.445381  0.922844  0.755806  1
  Ho  Ho3  1  0.945381  0.577156  0.244194  1
  Tc  Tc4  1  0.204906  0.113165  0.114925  1
  Tc  Tc5  1  0.704906  0.386835  0.885075  1
  Tc  Tc6  1  0.795261  0.886834  0.885310  1
  Tc  Tc7  1  0.295261  0.613166  0.114690  1
  Tc  Tc8  1  0.999738  0.000196  0.499505  1
  Tc  Tc9  1  0.499738  0.499804  0.500495  1
  Ge  Ge10  1  0.900910  0.120028  0.128212  1
  Ge  Ge11  1  0.400910  0.379972  0.871788  1
  Ge  Ge12  1  0.099256  0.879798  0.872219  1
  Ge  Ge13  1  0.599256  0.620202  0.127781  1
  Ge  Ge14  1  0.748867  0.224185  0.577571  1
  Ge  Ge15  1  0.248867  0.275815  0.422429  1
  Ge  Ge16  1  0.250947  0.775878  0.422459  1
  Ge  Ge17  1  0.750947  0.724122  0.577541  1
