# generated using pymatgen
data_CaZrNiBi2
_symmetry_space_group_name_H-M   'P 1'
_cell_length_a   4.40015600
_cell_length_b   4.40015647
_cell_length_c   15.33290600
_cell_angle_alpha   90.00000000
_cell_angle_beta   90.00000000
_cell_angle_gamma   119.99998141
_symmetry_Int_Tables_number   1
_chemical_formula_structural   CaZrNiBi2
_chemical_formula_sum   'Ca2 Zr2 Ni2 Bi4'
_cell_volume   257.09366818
_cell_formula_units_Z   2
loop_
 _symmetry_equiv_pos_site_id
 _symmetry_equiv_pos_as_xyz
  1  'x, y, z'
loop_
 _atom_site_type_symbol
 _atom_site_label
 _atom_site_symmetry_multiplicity
 _atom_site_fract_x
 _atom_site_fract_y
 _atom_site_fract_z
 _atom_site_occupancy
  Ca  Ca0  1  0.666667  0.333333  0.393448  1
  Ca  Ca1  1  0.333333  0.666667  0.893448  1
  Zr  Zr2  1  0.333333  0.666667  0.630938  1
  Zr  Zr3  1  0.666667  0.333333  0.130938  1
  Ni  Ni4  1  0.000000  0.000000  0.695025  1
  Ni  Ni5  1  0.000000  0.000000  0.195025  1
  Bi  Bi6  1  0.333333  0.666667  0.260167  1
  Bi  Bi7  1  0.000000  0.000000  0.020420  1
  Bi  Bi8  1  0.000000  0.000000  0.520420  1
  Bi  Bi9  1  0.666667  0.333333  0.760167  1
