# generated using pymatgen
data_Pr4YP12Ru9Rh10
_symmetry_space_group_name_H-M   'P 1'
_cell_length_a   12.71946600
_cell_length_b   12.71946628
_cell_length_c   3.99019900
_cell_angle_alpha   90.00000000
_cell_angle_beta   90.00000000
_cell_angle_gamma   119.99999928
_symmetry_Int_Tables_number   1
_chemical_formula_structural   Pr4YP12Ru9Rh10
_chemical_formula_sum   'Pr4 Y1 P12 Ru9 Rh10'
_cell_volume   559.06584063
_cell_formula_units_Z   1
loop_
 _symmetry_equiv_pos_site_id
 _symmetry_equiv_pos_as_xyz
  1  'x, y, z'
loop_
 _atom_site_type_symbol
 _atom_site_label
 _atom_site_symmetry_multiplicity
 _atom_site_fract_x
 _atom_site_fract_y
 _atom_site_fract_z
 _atom_site_occupancy
  Pr  Pr0  1  0.813792  0.999969  0.500000  1
  Pr  Pr1  1  0.000031  0.813823  0.500000  1
  Pr  Pr2  1  0.186177  0.186208  0.500000  1
  Pr  Pr3  1  0.666667  0.333333  0.000000  1
  Y  Y4  1  0.333333  0.666667  0.000000  1
  P  P5  1  0.185147  0.999200  0.000000  1
  P  P6  1  0.000800  0.185948  0.000000  1
  P  P7  1  0.814052  0.814853  0.000000  1
  P  P8  1  0.516110  0.690349  0.500000  1
  P  P9  1  0.309651  0.825761  0.500000  1
  P  P10  1  0.174239  0.483890  0.500000  1
  P  P11  1  0.480656  0.170812  0.500000  1
  P  P12  1  0.690156  0.519344  0.500000  1
  P  P13  1  0.829188  0.309844  0.500000  1
  P  P14  1  0.627351  0.000231  0.000000  1
  P  P15  1  0.999769  0.627120  0.000000  1
  P  P16  1  0.372880  0.372649  0.000000  1
  Ru  Ru17  1  0.287383  0.998819  0.500000  1
  Ru  Ru18  1  0.001181  0.288563  0.500000  1
  Ru  Ru19  1  0.711437  0.712617  0.500000  1
  Ru  Ru20  1  0.509378  0.872582  0.500000  1
  Ru  Ru21  1  0.127418  0.636796  0.500000  1
  Ru  Ru22  1  0.363204  0.490622  0.500000  1
  Ru  Ru23  1  0.487080  0.362769  0.500000  1
  Ru  Ru24  1  0.875689  0.512920  0.500000  1
  Ru  Ru25  1  0.637231  0.124311  0.500000  1
  Rh  Rh26  1  0.448875  0.000168  0.000000  1
  Rh  Rh27  1  0.999832  0.448707  0.000000  1
  Rh  Rh28  1  0.551293  0.551125  0.000000  1
  Rh  Rh29  1  0.620848  0.804275  0.000000  1
  Rh  Rh30  1  0.195725  0.816573  0.000000  1
  Rh  Rh31  1  0.183427  0.379152  0.000000  1
  Rh  Rh32  1  0.376931  0.181855  0.000000  1
  Rh  Rh33  1  0.804924  0.623069  0.000000  1
  Rh  Rh34  1  0.818145  0.195076  0.000000  1
  Rh  Rh35  1  0.000000  0.000000  0.000000  1
