# generated using pymatgen
data_Tb3ZnCo2Sn3
_symmetry_space_group_name_H-M   'P 1'
_cell_length_a   7.38542800
_cell_length_b   7.38542864
_cell_length_c   3.94872800
_cell_angle_alpha   90.00000000
_cell_angle_beta   90.00000000
_cell_angle_gamma   119.99999715
_symmetry_Int_Tables_number   1
_chemical_formula_structural   Tb3ZnCo2Sn3
_chemical_formula_sum   'Tb3 Zn1 Co2 Sn3'
_cell_volume   186.52594031
_cell_formula_units_Z   1
loop_
 _symmetry_equiv_pos_site_id
 _symmetry_equiv_pos_as_xyz
  1  'x, y, z'
loop_
 _atom_site_type_symbol
 _atom_site_label
 _atom_site_symmetry_multiplicity
 _atom_site_fract_x
 _atom_site_fract_y
 _atom_site_fract_z
 _atom_site_occupancy
  Tb  Tb0  1  0.606652  0.018698  0.000000  1
  Tb  Tb1  1  0.981302  0.587952  0.000000  1
  Tb  Tb2  1  0.412048  0.393348  0.000000  1
  Zn  Zn3  1  0.333333  0.666667  0.500000  1
  Co  Co4  1  0.666667  0.333333  0.500000  1
  Co  Co5  1  0.000000  0.000000  0.000000  1
  Sn  Sn6  1  0.253288  0.003349  0.500000  1
  Sn  Sn7  1  0.996651  0.249939  0.500000  1
  Sn  Sn8  1  0.750061  0.746712  0.500000  1
