# generated using pymatgen
data_Nd3Y3Zn4Pd12Pt
_symmetry_space_group_name_H-M   'P 1'
_cell_length_a   8.33019658
_cell_length_b   8.33019531
_cell_length_c   8.32697900
_cell_angle_alpha   109.46339463
_cell_angle_beta   109.46339155
_cell_angle_gamma   109.47905166
_symmetry_Int_Tables_number   1
_chemical_formula_structural   Nd3Y3Zn4Pd12Pt
_chemical_formula_sum   'Nd3 Y3 Zn4 Pd12 Pt1'
_cell_volume   444.85444347
_cell_formula_units_Z   1
loop_
 _symmetry_equiv_pos_site_id
 _symmetry_equiv_pos_as_xyz
  1  'x, y, z'
loop_
 _atom_site_type_symbol
 _atom_site_label
 _atom_site_symmetry_multiplicity
 _atom_site_fract_x
 _atom_site_fract_y
 _atom_site_fract_z
 _atom_site_occupancy
  Nd  Nd0  1  0.298167  0.298167  0.000819  1
  Nd  Nd1  1  0.701833  0.000000  0.702652  1
  Nd  Nd2  1  0.000000  0.701833  0.702652  1
  Y  Y3  1  0.698047  0.698047  0.000382  1
  Y  Y4  1  0.301953  0.000000  0.302336  1
  Y  Y5  1  0.000000  0.301953  0.302336  1
  Zn  Zn6  1  0.000000  0.000000  0.494035  1
  Zn  Zn7  1  0.000000  0.502011  0.000097  1
  Zn  Zn8  1  0.502011  0.000000  0.000097  1
  Zn  Zn9  1  0.497989  0.497989  0.498086  1
  Pd  Pd10  1  0.332259  0.332259  0.662686  1
  Pd  Pd11  1  0.667741  0.000000  0.330427  1
  Pd  Pd12  1  0.000000  0.667741  0.330427  1
  Pd  Pd13  1  0.668304  0.333943  0.000362  1
  Pd  Pd14  1  0.331696  0.665639  0.332058  1
  Pd  Pd15  1  0.000000  0.333036  0.665060  1
  Pd  Pd16  1  0.333943  0.668304  0.000362  1
  Pd  Pd17  1  0.333036  0.000000  0.665060  1
  Pd  Pd18  1  0.665639  0.331696  0.332058  1
  Pd  Pd19  1  0.666964  0.666964  0.332024  1
  Pd  Pd20  1  0.666057  0.334361  0.666419  1
  Pd  Pd21  1  0.334361  0.666057  0.666419  1
  Pt  Pt22  1  0.000000  0.000000  0.013145  1
