# generated using pymatgen
data_NaDy4P12Ir9Ru10
_symmetry_space_group_name_H-M   'P 1'
_cell_length_a   12.58222391
_cell_length_b   12.54761786
_cell_length_c   3.97275000
_cell_angle_alpha   90.00000000
_cell_angle_beta   90.00000000
_cell_angle_gamma   119.70243966
_symmetry_Int_Tables_number   1
_chemical_formula_structural   NaDy4P12Ir9Ru10
_chemical_formula_sum   'Na1 Dy4 P12 Ir9 Ru10'
_cell_volume   544.79732055
_cell_formula_units_Z   1
loop_
 _symmetry_equiv_pos_site_id
 _symmetry_equiv_pos_as_xyz
  1  'x, y, z'
loop_
 _atom_site_type_symbol
 _atom_site_label
 _atom_site_symmetry_multiplicity
 _atom_site_fract_x
 _atom_site_fract_y
 _atom_site_fract_z
 _atom_site_occupancy
  Na  Na0  1  0.813310  0.000126  0.500000  1
  Dy  Dy1  1  0.667540  0.333069  0.000000  1
  Dy  Dy2  1  0.331819  0.665862  0.000000  1
  Dy  Dy3  1  0.182876  0.184825  0.500000  1
  Dy  Dy4  1  0.000420  0.817197  0.500000  1
  P  P5  1  0.630752  0.996684  0.000000  1
  P  P6  1  0.365397  0.370967  0.000000  1
  P  P7  1  0.006506  0.636068  0.000000  1
  P  P8  1  0.689779  0.520350  0.500000  1
  P  P9  1  0.829185  0.304544  0.500000  1
  P  P10  1  0.313220  0.830817  0.500000  1
  P  P11  1  0.518771  0.688155  0.500000  1
  P  P12  1  0.180876  0.002263  0.000000  1
  P  P13  1  0.816931  0.818807  0.000000  1
  P  P14  1  0.995828  0.182935  0.000000  1
  P  P15  1  0.479995  0.166925  0.500000  1
  P  P16  1  0.169216  0.482320  0.500000  1
  Ir  Ir17  1  0.618866  0.800587  0.000000  1
  Ir  Ir18  1  0.181940  0.376685  0.000000  1
  Ir  Ir19  1  0.373480  0.184547  0.000000  1
  Ir  Ir20  1  0.195213  0.821587  0.000000  1
  Ir  Ir21  1  0.811929  0.625951  0.000000  1
  Ir  Ir22  1  0.868990  0.504206  0.500000  1
  Ir  Ir23  1  0.494365  0.360381  0.500000  1
  Ir  Ir24  1  0.636129  0.126685  0.500000  1
  Ir  Ir25  1  0.999831  0.000849  0.000000  1
  Ru  Ru26  1  0.127463  0.640750  0.500000  1
  Ru  Ru27  1  0.363187  0.488108  0.500000  1
  Ru  Ru28  1  0.510250  0.871535  0.500000  1
  Ru  Ru29  1  0.717012  0.713895  0.500000  1
  Ru  Ru30  1  0.002640  0.286462  0.500000  1
  Ru  Ru31  1  0.450118  0.001577  0.000000  1
  Ru  Ru32  1  0.552830  0.544070  0.000000  1
  Ru  Ru33  1  0.002016  0.452866  0.000000  1
  Ru  Ru34  1  0.815056  0.195188  0.000000  1
  Ru  Ru35  1  0.286261  0.002158  0.500000  1
