# generated using pymatgen
data_LiSc4InPt10
_symmetry_space_group_name_H-M   'P 1'
_cell_length_a   4.11399400
_cell_length_b   5.64530232
_cell_length_c   11.30773963
_cell_angle_alpha   87.12480797
_cell_angle_beta   90.00000000
_cell_angle_gamma   90.00000000
_symmetry_Int_Tables_number   1
_chemical_formula_structural   LiSc4InPt10
_chemical_formula_sum   'Li1 Sc4 In1 Pt10'
_cell_volume   262.28871834
_cell_formula_units_Z   1
loop_
 _symmetry_equiv_pos_site_id
 _symmetry_equiv_pos_as_xyz
  1  'x, y, z'
loop_
 _atom_site_type_symbol
 _atom_site_label
 _atom_site_symmetry_multiplicity
 _atom_site_fract_x
 _atom_site_fract_y
 _atom_site_fract_z
 _atom_site_occupancy
  Li  Li0  1  0.000000  0.000000  0.500000  1
  Sc  Sc1  1  0.500000  0.742754  0.372368  1
  Sc  Sc2  1  0.500000  0.720646  0.859007  1
  Sc  Sc3  1  0.500000  0.279354  0.140993  1
  Sc  Sc4  1  0.500000  0.257246  0.627632  1
  In  In5  1  0.000000  0.000000  0.000000  1
  Pt  Pt6  1  0.000000  0.010178  0.255174  1
  Pt  Pt7  1  0.000000  0.989822  0.744826  1
  Pt  Pt8  1  0.000000  0.500000  0.000000  1
  Pt  Pt9  1  0.000000  0.500000  0.500000  1
  Pt  Pt10  1  0.000000  0.510257  0.252316  1
  Pt  Pt11  1  0.000000  0.489743  0.747684  1
  Pt  Pt12  1  0.500000  0.242700  0.383097  1
  Pt  Pt13  1  0.500000  0.232235  0.878380  1
  Pt  Pt14  1  0.500000  0.767765  0.121620  1
  Pt  Pt15  1  0.500000  0.757300  0.616903  1
