# generated using pymatgen
data_CeTh3(CuAu)4
_symmetry_space_group_name_H-M   'P 1'
_cell_length_a   4.57492900
_cell_length_b   6.98243696
_cell_length_c   7.91700004
_cell_angle_alpha   89.97571627
_cell_angle_beta   90.00000000
_cell_angle_gamma   90.00000000
_symmetry_Int_Tables_number   1
_chemical_formula_structural   CeTh3(CuAu)4
_chemical_formula_sum   'Ce1 Th3 Cu4 Au4'
_cell_volume   252.90184045
_cell_formula_units_Z   1
loop_
 _symmetry_equiv_pos_site_id
 _symmetry_equiv_pos_as_xyz
  1  'x, y, z'
loop_
 _atom_site_type_symbol
 _atom_site_label
 _atom_site_symmetry_multiplicity
 _atom_site_fract_x
 _atom_site_fract_y
 _atom_site_fract_z
 _atom_site_occupancy
  Ce  Ce0  1  0.250000  0.501204  0.231635  1
  Th  Th1  1  0.750000  0.498464  0.769262  1
  Th  Th2  1  0.250000  0.001111  0.269732  1
  Th  Th3  1  0.750000  0.998715  0.730586  1
  Cu  Cu4  1  0.250000  0.218948  0.917031  1
  Cu  Cu5  1  0.250000  0.717312  0.582947  1
  Cu  Cu6  1  0.750000  0.780827  0.083361  1
  Cu  Cu7  1  0.750000  0.284007  0.415884  1
  Au  Au8  1  0.250000  0.770603  0.916291  1
  Au  Au9  1  0.250000  0.270779  0.583731  1
  Au  Au10  1  0.750000  0.729343  0.414043  1
  Au  Au11  1  0.750000  0.228687  0.085499  1
