# generated using pymatgen
data_CeY7SiPd24
_symmetry_space_group_name_H-M   'P 1'
_cell_length_a   8.35964273
_cell_length_b   8.35964245
_cell_length_c   8.35964300
_cell_angle_alpha   89.93346342
_cell_angle_beta   90.06653725
_cell_angle_gamma   90.06653355
_symmetry_Int_Tables_number   1
_chemical_formula_structural   CeY7SiPd24
_chemical_formula_sum   'Ce1 Y7 Si1 Pd24'
_cell_volume   584.20096989
_cell_formula_units_Z   1
loop_
 _symmetry_equiv_pos_site_id
 _symmetry_equiv_pos_as_xyz
  1  'x, y, z'
loop_
 _atom_site_type_symbol
 _atom_site_label
 _atom_site_symmetry_multiplicity
 _atom_site_fract_x
 _atom_site_fract_y
 _atom_site_fract_z
 _atom_site_occupancy
  Ce  Ce0  1  0.744350  0.255650  0.255650  1
  Y  Y1  1  0.252208  0.253271  0.253271  1
  Y  Y2  1  0.746541  0.746290  0.746290  1
  Y  Y3  1  0.746729  0.747792  0.253271  1
  Y  Y4  1  0.746729  0.253271  0.747792  1
  Y  Y5  1  0.253710  0.253459  0.746290  1
  Y  Y6  1  0.253710  0.746290  0.253459  1
  Y  Y7  1  0.253681  0.746319  0.746319  1
  Si  Si8  1  0.000627  0.999373  0.999373  1
  Pd  Pd9  1  0.258009  0.499715  0.999826  1
  Pd  Pd10  1  0.742178  0.499093  0.001838  1
  Pd  Pd11  1  0.998162  0.257822  0.499093  1
  Pd  Pd12  1  0.500907  0.257822  0.001838  1
  Pd  Pd13  1  0.000174  0.741991  0.499715  1
  Pd  Pd14  1  0.500285  0.741991  0.999826  1
  Pd  Pd15  1  0.500907  0.001838  0.257822  1
  Pd  Pd16  1  0.258009  0.999826  0.499715  1
  Pd  Pd17  1  0.500285  0.999826  0.741991  1
  Pd  Pd18  1  0.742178  0.001838  0.499093  1
  Pd  Pd19  1  0.998162  0.499093  0.257822  1
  Pd  Pd20  1  0.000174  0.499715  0.741991  1
  Pd  Pd21  1  0.252631  0.499792  0.499792  1
  Pd  Pd22  1  0.746966  0.499293  0.499293  1
  Pd  Pd23  1  0.500707  0.253034  0.499293  1
  Pd  Pd24  1  0.500208  0.747369  0.499792  1
  Pd  Pd25  1  0.500707  0.499293  0.253034  1
  Pd  Pd26  1  0.500208  0.499792  0.747369  1
  Pd  Pd27  1  0.280765  0.999743  0.999743  1
  Pd  Pd28  1  0.719679  0.000050  0.000050  1
  Pd  Pd29  1  0.999950  0.280321  0.000050  1
  Pd  Pd30  1  0.000257  0.719235  0.999743  1
  Pd  Pd31  1  0.999950  0.000050  0.280321  1
  Pd  Pd32  1  0.000257  0.999743  0.719235  1
