# generated using pymatgen
data_Ho4InPt11
_symmetry_space_group_name_H-M   'P 1'
_cell_length_a   4.18961600
_cell_length_b   5.83713833
_cell_length_c   11.66493368
_cell_angle_alpha   87.74959638
_cell_angle_beta   90.00000000
_cell_angle_gamma   90.00000000
_symmetry_Int_Tables_number   1
_chemical_formula_structural   Ho4InPt11
_chemical_formula_sum   'Ho4 In1 Pt11'
_cell_volume   285.05023556
_cell_formula_units_Z   1
loop_
 _symmetry_equiv_pos_site_id
 _symmetry_equiv_pos_as_xyz
  1  'x, y, z'
loop_
 _atom_site_type_symbol
 _atom_site_label
 _atom_site_symmetry_multiplicity
 _atom_site_fract_x
 _atom_site_fract_y
 _atom_site_fract_z
 _atom_site_occupancy
  Ho  Ho0  1  0.500000  0.750085  0.375535  1
  Ho  Ho1  1  0.500000  0.723032  0.861682  1
  Ho  Ho2  1  0.500000  0.276968  0.138318  1
  Ho  Ho3  1  0.500000  0.249915  0.624465  1
  In  In4  1  0.000000  0.000000  0.000000  1
  Pt  Pt5  1  0.000000  0.007563  0.249139  1
  Pt  Pt6  1  0.000000  0.992437  0.750861  1
  Pt  Pt7  1  0.000000  0.500000  0.000000  1
  Pt  Pt8  1  0.000000  0.500000  0.500000  1
  Pt  Pt9  1  0.000000  0.509823  0.250554  1
  Pt  Pt10  1  0.000000  0.490177  0.749446  1
  Pt  Pt11  1  0.500000  0.247412  0.378289  1
  Pt  Pt12  1  0.500000  0.234106  0.881177  1
  Pt  Pt13  1  0.500000  0.765894  0.118823  1
  Pt  Pt14  1  0.500000  0.752588  0.621711  1
  Pt  Pt15  1  0.000000  0.000000  0.500000  1
