# generated using pymatgen
data_Tl2Sn(PdSe2)3
_symmetry_space_group_name_H-M   'P 1'
_cell_length_a   7.88284217
_cell_length_b   7.88284200
_cell_length_c   7.88284100
_cell_angle_alpha   55.49815559
_cell_angle_beta   55.49815641
_cell_angle_gamma   55.49814129
_symmetry_Int_Tables_number   1
_chemical_formula_structural   Tl2Sn(PdSe2)3
_chemical_formula_sum   'Tl2 Sn1 Pd3 Se6'
_cell_volume   310.16055121
_cell_formula_units_Z   1
loop_
 _symmetry_equiv_pos_site_id
 _symmetry_equiv_pos_as_xyz
  1  'x, y, z'
loop_
 _atom_site_type_symbol
 _atom_site_label
 _atom_site_symmetry_multiplicity
 _atom_site_fract_x
 _atom_site_fract_y
 _atom_site_fract_z
 _atom_site_occupancy
  Tl  Tl0  1  0.217924  0.217924  0.217924  1
  Tl  Tl1  1  0.782076  0.782076  0.782076  1
  Sn  Sn2  1  0.000000  0.000000  0.000000  1
  Pd  Pd3  1  0.500000  0.500000  0.000000  1
  Pd  Pd4  1  0.500000  0.000000  0.500000  1
  Pd  Pd5  1  0.000000  0.500000  0.500000  1
  Se  Se6  1  0.715376  0.250130  0.250131  1
  Se  Se7  1  0.250130  0.715376  0.250131  1
  Se  Se8  1  0.749870  0.749870  0.284624  1
  Se  Se9  1  0.250130  0.250130  0.715377  1
  Se  Se10  1  0.749870  0.284624  0.749869  1
  Se  Se11  1  0.284624  0.749870  0.749869  1
