# generated using pymatgen
data_Tb16Cd4IrRu3
_symmetry_space_group_name_H-M   'P 1'
_cell_length_a   9.65899195
_cell_length_b   9.67346230
_cell_length_c   9.67346200
_cell_angle_alpha   60.00000104
_cell_angle_beta   59.95043117
_cell_angle_gamma   59.95042956
_symmetry_Int_Tables_number   1
_chemical_formula_structural   Tb16Cd4IrRu3
_chemical_formula_sum   'Tb16 Cd4 Ir1 Ru3'
_cell_volume   638.63818762
_cell_formula_units_Z   1
loop_
 _symmetry_equiv_pos_site_id
 _symmetry_equiv_pos_as_xyz
  1  'x, y, z'
loop_
 _atom_site_type_symbol
 _atom_site_label
 _atom_site_symmetry_multiplicity
 _atom_site_fract_x
 _atom_site_fract_y
 _atom_site_fract_z
 _atom_site_occupancy
  Tb  Tb0  1  0.596317  0.598259  0.598259  1
  Tb  Tb1  1  0.596317  0.598259  0.207166  1
  Tb  Tb2  1  0.596317  0.207166  0.598259  1
  Tb  Tb3  1  0.210483  0.596506  0.596506  1
  Tb  Tb4  1  0.061478  0.439315  0.439315  1
  Tb  Tb5  1  0.439177  0.060838  0.060838  1
  Tb  Tb6  1  0.439177  0.060838  0.439147  1
  Tb  Tb7  1  0.061478  0.439315  0.059893  1
  Tb  Tb8  1  0.439177  0.439147  0.060838  1
  Tb  Tb9  1  0.061478  0.059893  0.439315  1
  Tb  Tb10  1  0.187411  0.812041  0.812041  1
  Tb  Tb11  1  0.811486  0.187991  0.187991  1
  Tb  Tb12  1  0.811486  0.187991  0.812533  1
  Tb  Tb13  1  0.187411  0.812041  0.188507  1
  Tb  Tb14  1  0.811486  0.812533  0.187991  1
  Tb  Tb15  1  0.187411  0.188507  0.812041  1
  Cd  Cd16  1  0.830291  0.829863  0.829863  1
  Cd  Cd17  1  0.830291  0.829863  0.509984  1
  Cd  Cd18  1  0.830291  0.509984  0.829863  1
  Cd  Cd19  1  0.508812  0.830396  0.830396  1
  Ir  Ir20  1  0.827331  0.390890  0.390890  1
  Ru  Ru21  1  0.391632  0.388629  0.388629  1
  Ru  Ru22  1  0.391632  0.388629  0.831111  1
  Ru  Ru23  1  0.391632  0.831111  0.388629  1
