# generated using pymatgen
data_CeHo2NiIr8
_symmetry_space_group_name_H-M   'P 1'
_cell_length_a   5.29258673
_cell_length_b   5.29258664
_cell_length_c   9.17817400
_cell_angle_alpha   73.24232033
_cell_angle_beta   73.24232065
_cell_angle_gamma   60.00000647
_symmetry_Int_Tables_number   1
_chemical_formula_structural   CeHo2NiIr8
_chemical_formula_sum   'Ce1 Ho2 Ni1 Ir8'
_cell_volume   209.94837200
_cell_formula_units_Z   1
loop_
 _symmetry_equiv_pos_site_id
 _symmetry_equiv_pos_as_xyz
  1  'x, y, z'
loop_
 _atom_site_type_symbol
 _atom_site_label
 _atom_site_symmetry_multiplicity
 _atom_site_fract_x
 _atom_site_fract_y
 _atom_site_fract_z
 _atom_site_occupancy
  Ce  Ce0  1  0.000088  0.000088  0.999736  1
  Ho  Ho1  1  0.140850  0.140850  0.577452  1
  Ho  Ho2  1  0.860940  0.860940  0.417182  1
  Ni  Ni3  1  0.666336  0.666336  0.000995  1
  Ir  Ir4  1  0.076821  0.583986  0.755207  1
  Ir  Ir5  1  0.583986  0.583986  0.755207  1
  Ir  Ir6  1  0.583986  0.076821  0.755207  1
  Ir  Ir7  1  0.915373  0.419759  0.245108  1
  Ir  Ir8  1  0.419759  0.419759  0.245108  1
  Ir  Ir9  1  0.419759  0.915373  0.245108  1
  Ir  Ir10  1  0.332976  0.332976  0.001071  1
  Ir  Ir11  1  0.499127  0.499127  0.502618  1
