# generated using pymatgen
data_Ti3Ga3PdPt2
_symmetry_space_group_name_H-M   'P 1'
_cell_length_a   7.04493600
_cell_length_b   7.04493726
_cell_length_c   6.70311000
_cell_angle_alpha   90.00000000
_cell_angle_beta   90.00000000
_cell_angle_gamma   119.99999408
_symmetry_Int_Tables_number   1
_chemical_formula_structural   Ti3Ga3PdPt2
_chemical_formula_sum   'Ti6 Ga6 Pd2 Pt4'
_cell_volume   288.11189296
_cell_formula_units_Z   2
loop_
 _symmetry_equiv_pos_site_id
 _symmetry_equiv_pos_as_xyz
  1  'x, y, z'
loop_
 _atom_site_type_symbol
 _atom_site_label
 _atom_site_symmetry_multiplicity
 _atom_site_fract_x
 _atom_site_fract_y
 _atom_site_fract_z
 _atom_site_occupancy
  Ti  Ti0  1  0.387715  0.418858  0.750000  1
  Ti  Ti1  1  0.031143  0.612285  0.750000  1
  Ti  Ti2  1  0.581142  0.968857  0.750000  1
  Ti  Ti3  1  0.612285  0.031143  0.250000  1
  Ti  Ti4  1  0.968857  0.581142  0.250000  1
  Ti  Ti5  1  0.418858  0.387715  0.250000  1
  Ga  Ga6  1  0.272863  0.000000  0.000000  1
  Ga  Ga7  1  0.727137  0.727137  0.000000  1
  Ga  Ga8  1  0.000000  0.272863  0.000000  1
  Ga  Ga9  1  0.727137  0.727137  0.500000  1
  Ga  Ga10  1  0.272863  0.000000  0.500000  1
  Ga  Ga11  1  0.000000  0.272863  0.500000  1
  Pd  Pd12  1  0.000000  0.000000  0.750000  1
  Pd  Pd13  1  0.000000  0.000000  0.250000  1
  Pt  Pt14  1  0.666667  0.333333  0.961911  1
  Pt  Pt15  1  0.666667  0.333333  0.538089  1
  Pt  Pt16  1  0.333333  0.666667  0.461911  1
  Pt  Pt17  1  0.333333  0.666667  0.038089  1
