# generated using pymatgen
data_Dy17(ThRu4)3
_symmetry_space_group_name_H-M   'P 1'
_cell_length_a   10.94117406
_cell_length_b   10.82264726
_cell_length_c   6.38513928
_cell_angle_alpha   90.08992466
_cell_angle_beta   89.74220606
_cell_angle_gamma   89.93201065
_symmetry_Int_Tables_number   1
_chemical_formula_structural   Dy17(ThRu4)3
_chemical_formula_sum   'Dy17 Th3 Ru12'
_cell_volume   756.07097472
_cell_formula_units_Z   1
loop_
 _symmetry_equiv_pos_site_id
 _symmetry_equiv_pos_as_xyz
  1  'x, y, z'
loop_
 _atom_site_type_symbol
 _atom_site_label
 _atom_site_symmetry_multiplicity
 _atom_site_fract_x
 _atom_site_fract_y
 _atom_site_fract_z
 _atom_site_occupancy
  Dy  Dy0  1  0.707916  0.910013  0.376376  1
  Dy  Dy1  1  0.590305  0.786575  0.880637  1
  Dy  Dy2  1  0.590610  0.210047  0.379334  1
  Dy  Dy3  1  0.417491  0.786994  0.379257  1
  Dy  Dy4  1  0.411497  0.213301  0.878581  1
  Dy  Dy5  1  0.206166  0.415036  0.620315  1
  Dy  Dy6  1  0.206325  0.587263  0.121797  1
  Dy  Dy7  1  0.791814  0.415016  0.121176  1
  Dy  Dy8  1  0.793291  0.586801  0.621787  1
  Dy  Dy9  1  0.913059  0.707420  0.119454  1
  Dy  Dy10  1  0.916000  0.294895  0.616732  1
  Dy  Dy11  1  0.083283  0.705568  0.619462  1
  Dy  Dy12  1  0.084226  0.295868  0.114201  1
  Dy  Dy13  1  0.995399  0.997460  0.495761  1
  Dy  Dy14  1  0.001248  0.001339  0.996793  1
  Dy  Dy15  1  0.499446  0.499181  0.009137  1
  Dy  Dy16  1  0.501295  0.498210  0.508862  1
  Th  Th17  1  0.291220  0.092486  0.378294  1
  Th  Th18  1  0.292308  0.906368  0.878444  1
  Th  Th19  1  0.708703  0.090204  0.878917  1
  Ru  Ru20  1  0.843623  0.151157  0.239303  1
  Ru  Ru21  1  0.841118  0.854921  0.755100  1
  Ru  Ru22  1  0.159093  0.144922  0.739450  1
  Ru  Ru23  1  0.160483  0.854787  0.245259  1
  Ru  Ru24  1  0.655083  0.341543  0.757082  1
  Ru  Ru25  1  0.653662  0.648915  0.254678  1
  Ru  Ru26  1  0.344970  0.343733  0.259248  1
  Ru  Ru27  1  0.346653  0.657322  0.757619  1
  Ru  Ru28  1  0.496097  0.000697  0.123269  1
  Ru  Ru29  1  0.499020  0.999517  0.628947  1
  Ru  Ru30  1  0.999640  0.501156  0.872886  1
  Ru  Ru31  1  0.998955  0.501283  0.371844  1
