# generated using pymatgen
data_Be3(FeB)2
_symmetry_space_group_name_H-M   'P 1'
_cell_length_a   5.29112520
_cell_length_b   5.29112488
_cell_length_c   5.49984200
_cell_angle_alpha   98.43048005
_cell_angle_beta   98.43046859
_cell_angle_gamma   43.71217309
_symmetry_Int_Tables_number   1
_chemical_formula_structural   Be3(FeB)2
_chemical_formula_sum   'Be6 Fe4 B4'
_cell_volume   105.06543032
_cell_formula_units_Z   2
loop_
 _symmetry_equiv_pos_site_id
 _symmetry_equiv_pos_as_xyz
  1  'x, y, z'
loop_
 _atom_site_type_symbol
 _atom_site_label
 _atom_site_symmetry_multiplicity
 _atom_site_fract_x
 _atom_site_fract_y
 _atom_site_fract_z
 _atom_site_occupancy
  Be  Be0  1  0.082064  0.351003  0.812682  1
  Be  Be1  1  0.648997  0.917936  0.687318  1
  Be  Be2  1  0.917936  0.648997  0.187318  1
  Be  Be3  1  0.351003  0.082064  0.312682  1
  Be  Be4  1  0.829523  0.170477  0.750000  1
  Be  Be5  1  0.170477  0.829523  0.250000  1
  Fe  Fe6  1  0.231057  0.549128  0.567762  1
  Fe  Fe7  1  0.450872  0.768943  0.932238  1
  Fe  Fe8  1  0.768943  0.450872  0.432238  1
  Fe  Fe9  1  0.549128  0.231057  0.067762  1
  B  B10  1  0.069917  0.737981  0.922570  1
  B  B11  1  0.262019  0.930083  0.577430  1
  B  B12  1  0.930083  0.262019  0.077430  1
  B  B13  1  0.737981  0.069917  0.422570  1
