# generated using pymatgen
data_Eu2TeP
_symmetry_space_group_name_H-M   'P 1'
_cell_length_a   7.77277004
_cell_length_b   7.77277019
_cell_length_c   7.77276994
_cell_angle_alpha   32.63141412
_cell_angle_beta   32.63141593
_cell_angle_gamma   32.63141831
_symmetry_Int_Tables_number   1
_chemical_formula_structural   Eu2TeP
_chemical_formula_sum   'Eu2 Te1 P1'
_cell_volume   121.44225492
_cell_formula_units_Z   1
loop_
 _symmetry_equiv_pos_site_id
 _symmetry_equiv_pos_as_xyz
  1  'x, y, z'
loop_
 _atom_site_type_symbol
 _atom_site_label
 _atom_site_symmetry_multiplicity
 _atom_site_fract_x
 _atom_site_fract_y
 _atom_site_fract_z
 _atom_site_occupancy
  Eu  Eu0  1  0.760228  0.760228  0.760228  1
  Eu  Eu1  1  0.239772  0.239772  0.239772  1
  Te  Te2  1  0.000000  0.000000  0.000000  1
  P  P3  1  0.500000  0.500000  0.500000  1
