# generated using pymatgen
data_TbPr3(Ga3Ir)6
_symmetry_space_group_name_H-M   'P 1'
_cell_length_a   7.66239193
_cell_length_b   7.67162135
_cell_length_c   9.65262600
_cell_angle_alpha   90.00000000
_cell_angle_beta   90.00000000
_cell_angle_gamma   119.71786586
_symmetry_Int_Tables_number   1
_chemical_formula_structural   TbPr3(Ga3Ir)6
_chemical_formula_sum   'Tb1 Pr3 Ga18 Ir6'
_cell_volume   492.78254003
_cell_formula_units_Z   1
loop_
 _symmetry_equiv_pos_site_id
 _symmetry_equiv_pos_as_xyz
  1  'x, y, z'
loop_
 _atom_site_type_symbol
 _atom_site_label
 _atom_site_symmetry_multiplicity
 _atom_site_fract_x
 _atom_site_fract_y
 _atom_site_fract_z
 _atom_site_occupancy
  Tb  Tb0  1  0.331028  0.002296  0.750000  1
  Pr  Pr1  1  0.997094  0.668413  0.250000  1
  Pr  Pr2  1  0.002378  0.331218  0.750000  1
  Pr  Pr3  1  0.668825  0.997235  0.250000  1
  Ga  Ga4  1  0.129981  0.129118  0.250000  1
  Ga  Ga5  1  0.872979  0.871379  0.750000  1
  Ga  Ga6  1  0.002458  0.334516  0.077643  1
  Ga  Ga7  1  0.000430  0.667993  0.920054  1
  Ga  Ga8  1  0.000430  0.667993  0.579946  1
  Ga  Ga9  1  0.334523  0.001651  0.424903  1
  Ga  Ga10  1  0.002458  0.334516  0.422357  1
  Ga  Ga11  1  0.662731  0.998277  0.579999  1
  Ga  Ga12  1  0.662731  0.998277  0.920001  1
  Ga  Ga13  1  0.334523  0.001651  0.075097  1
  Ga  Ga14  1  0.333874  0.331979  0.561308  1
  Ga  Ga15  1  0.666101  0.666035  0.442591  1
  Ga  Ga16  1  0.666101  0.666035  0.057409  1
  Ga  Ga17  1  0.333874  0.331979  0.938692  1
  Ga  Ga18  1  0.339512  0.544463  0.250000  1
  Ga  Ga19  1  0.658219  0.452957  0.750000  1
  Ga  Ga20  1  0.543786  0.338567  0.250000  1
  Ga  Ga21  1  0.455494  0.662411  0.750000  1
  Ir  Ir22  1  0.670828  0.329079  0.999057  1
  Ir  Ir23  1  0.328904  0.670932  0.998943  1
  Ir  Ir24  1  0.328904  0.670932  0.501057  1
  Ir  Ir25  1  0.670828  0.329079  0.500943  1
  Ir  Ir26  1  0.000504  0.000511  0.998768  1
  Ir  Ir27  1  0.000504  0.000511  0.501232  1
