# generated using pymatgen
data_LuTi3(AsRh5)2
_symmetry_space_group_name_H-M   'P 1'
_cell_length_a   3.98898100
_cell_length_b   5.55190641
_cell_length_c   10.76031820
_cell_angle_alpha   89.54433240
_cell_angle_beta   90.00000000
_cell_angle_gamma   90.00000000
_symmetry_Int_Tables_number   1
_chemical_formula_structural   LuTi3(AsRh5)2
_chemical_formula_sum   'Lu1 Ti3 As2 Rh10'
_cell_volume   238.29530413
_cell_formula_units_Z   1
loop_
 _symmetry_equiv_pos_site_id
 _symmetry_equiv_pos_as_xyz
  1  'x, y, z'
loop_
 _atom_site_type_symbol
 _atom_site_label
 _atom_site_symmetry_multiplicity
 _atom_site_fract_x
 _atom_site_fract_y
 _atom_site_fract_z
 _atom_site_occupancy
  Lu  Lu0  1  0.500000  0.325863  0.360751  1
  Ti  Ti1  1  0.500000  0.668957  0.646182  1
  Ti  Ti2  1  0.500000  0.163934  0.857438  1
  Ti  Ti3  1  0.500000  0.830098  0.144517  1
  As  As4  1  0.000000  0.995123  0.503825  1
  As  As5  1  0.000000  0.501950  0.997974  1
  Rh  Rh6  1  0.500000  0.306033  0.095839  1
  Rh  Rh7  1  0.500000  0.690679  0.892028  1
  Rh  Rh8  1  0.500000  0.819662  0.391938  1
  Rh  Rh9  1  0.500000  0.190788  0.615786  1
  Rh  Rh10  1  0.000000  0.923298  0.742753  1
  Rh  Rh11  1  0.000000  0.061845  0.246810  1
  Rh  Rh12  1  0.000000  0.422463  0.761809  1
  Rh  Rh13  1  0.000000  0.578110  0.234170  1
  Rh  Rh14  1  0.000000  0.524620  0.511893  1
  Rh  Rh15  1  0.000000  0.996577  0.996286  1
