# generated using pymatgen
data_Yb2(P2Pd7)3
_symmetry_space_group_name_H-M   'P 1'
_cell_length_a   8.61867678
_cell_length_b   8.61864774
_cell_length_c   8.61798501
_cell_angle_alpha   59.99978936
_cell_angle_beta   59.99892239
_cell_angle_gamma   60.00187447
_symmetry_Int_Tables_number   1
_chemical_formula_structural   Yb2(P2Pd7)3
_chemical_formula_sum   'Yb2 P6 Pd21'
_cell_volume   452.66027647
_cell_formula_units_Z   1
loop_
 _symmetry_equiv_pos_site_id
 _symmetry_equiv_pos_as_xyz
  1  'x, y, z'
loop_
 _atom_site_type_symbol
 _atom_site_label
 _atom_site_symmetry_multiplicity
 _atom_site_fract_x
 _atom_site_fract_y
 _atom_site_fract_z
 _atom_site_occupancy
  Yb  Yb0  1  0.249985  0.249983  0.250023  1
  Yb  Yb1  1  0.750015  0.750017  0.749977  1
  P  P2  1  0.738107  0.738097  0.261942  1
  P  P3  1  0.261893  0.261903  0.738058  1
  P  P4  1  0.261843  0.738196  0.738029  1
  P  P5  1  0.738192  0.261856  0.738017  1
  P  P6  1  0.261808  0.738144  0.261983  1
  P  P7  1  0.738157  0.261804  0.261971  1
  Pd  Pd8  1  0.000000  0.000000  0.000000  1
  Pd  Pd9  1  0.615131  0.615121  0.615027  1
  Pd  Pd10  1  0.384950  0.845256  0.384896  1
  Pd  Pd11  1  0.656063  0.343914  0.000015  1
  Pd  Pd12  1  0.999902  0.344081  0.656144  1
  Pd  Pd13  1  0.655964  0.000070  0.000091  1
  Pd  Pd14  1  0.615113  0.615142  0.154699  1
  Pd  Pd15  1  0.999969  0.999959  0.656038  1
  Pd  Pd16  1  0.999937  0.343998  0.999924  1
  Pd  Pd17  1  0.655921  0.000110  0.343837  1
  Pd  Pd18  1  0.344036  0.999930  0.999909  1
  Pd  Pd19  1  0.000063  0.656002  0.000076  1
  Pd  Pd20  1  0.344079  0.999890  0.656163  1
  Pd  Pd21  1  0.000098  0.655919  0.343856  1
  Pd  Pd22  1  0.343937  0.656086  0.999985  1
  Pd  Pd23  1  0.154756  0.615055  0.615079  1
  Pd  Pd24  1  0.384869  0.384879  0.384973  1
  Pd  Pd25  1  0.845244  0.384945  0.384921  1
  Pd  Pd26  1  0.384887  0.384858  0.845301  1
  Pd  Pd27  1  0.615050  0.154744  0.615104  1
  Pd  Pd28  1  0.000031  0.000041  0.343962  1
