# generated using pymatgen
data_Y3Er3(Si3Ru)8
_symmetry_space_group_name_H-M   'P 1'
_cell_length_a   10.11781791
_cell_length_b   10.11781816
_cell_length_c   8.13735276
_cell_angle_alpha   90.04546455
_cell_angle_beta   89.95453651
_cell_angle_gamma   132.61831260
_symmetry_Int_Tables_number   1
_chemical_formula_structural   Y3Er3(Si3Ru)8
_chemical_formula_sum   'Y3 Er3 Si24 Ru8'
_cell_volume   613.00515728
_cell_formula_units_Z   1
loop_
 _symmetry_equiv_pos_site_id
 _symmetry_equiv_pos_as_xyz
  1  'x, y, z'
loop_
 _atom_site_type_symbol
 _atom_site_label
 _atom_site_symmetry_multiplicity
 _atom_site_fract_x
 _atom_site_fract_y
 _atom_site_fract_z
 _atom_site_occupancy
  Y  Y0  1  0.497728  0.997728  0.250000  1
  Y  Y1  1  0.002277  0.502277  0.750000  1
  Y  Y2  1  0.502705  0.002705  0.750000  1
  Er  Er3  1  0.997487  0.497487  0.250000  1
  Er  Er4  1  0.500032  0.499955  0.499947  1
  Er  Er5  1  0.999955  0.000032  0.000053  1
  Si  Si6  1  0.387791  0.154627  0.004462  1
  Si  Si7  1  0.654627  0.887791  0.495538  1
  Si  Si8  1  0.111645  0.344173  0.503766  1
  Si  Si9  1  0.844173  0.611645  0.996234  1
  Si  Si10  1  0.612272  0.845488  0.995175  1
  Si  Si11  1  0.345488  0.112272  0.504825  1
  Si  Si12  1  0.888300  0.655587  0.494766  1
  Si  Si13  1  0.155587  0.388300  0.005234  1
  Si  Si14  1  0.612989  0.378998  0.228002  1
  Si  Si15  1  0.878998  0.112989  0.271998  1
  Si  Si16  1  0.886420  0.120548  0.728768  1
  Si  Si17  1  0.620548  0.386420  0.771232  1
  Si  Si18  1  0.387856  0.621920  0.771426  1
  Si  Si19  1  0.121920  0.887856  0.728574  1
  Si  Si20  1  0.705763  0.294733  0.000450  1
  Si  Si21  1  0.794733  0.205763  0.499550  1
  Si  Si22  1  0.294236  0.705369  0.000527  1
  Si  Si23  1  0.205369  0.794236  0.499473  1
  Si  Si24  1  0.168020  0.167952  0.333174  1
  Si  Si25  1  0.667952  0.668020  0.166826  1
  Si  Si26  1  0.332077  0.331955  0.833150  1
  Si  Si27  1  0.831955  0.832077  0.666850  1
  Si  Si28  1  0.378651  0.612560  0.228390  1
  Si  Si29  1  0.112560  0.878651  0.271610  1
  Ru  Ru30  1  0.625952  0.625650  0.872533  1
  Ru  Ru31  1  0.125650  0.125952  0.627467  1
  Ru  Ru32  1  0.874034  0.874313  0.372687  1
  Ru  Ru33  1  0.374313  0.374034  0.127313  1
  Ru  Ru34  1  0.329297  0.666495  0.499237  1
  Ru  Ru35  1  0.166495  0.829297  0.000763  1
  Ru  Ru36  1  0.670624  0.333519  0.498632  1
  Ru  Ru37  1  0.833519  0.170624  0.001368  1
