# generated using pymatgen
data_Ti2CrFe4MoP4
_symmetry_space_group_name_H-M   'P 1'
_cell_length_a   3.60784900
_cell_length_b   5.93839873
_cell_length_c   6.74240391
_cell_angle_alpha   89.50616001
_cell_angle_beta   90.00000000
_cell_angle_gamma   90.00000000
_symmetry_Int_Tables_number   1
_chemical_formula_structural   Ti2CrFe4MoP4
_chemical_formula_sum   'Ti2 Cr1 Fe4 Mo1 P4'
_cell_volume   144.44959931
_cell_formula_units_Z   1
loop_
 _symmetry_equiv_pos_site_id
 _symmetry_equiv_pos_as_xyz
  1  'x, y, z'
loop_
 _atom_site_type_symbol
 _atom_site_label
 _atom_site_symmetry_multiplicity
 _atom_site_fract_x
 _atom_site_fract_y
 _atom_site_fract_z
 _atom_site_occupancy
  Ti  Ti0  1  0.250000  0.520929  0.683671  1
  Ti  Ti1  1  0.750000  0.474878  0.318474  1
  Cr  Cr2  1  0.250000  0.024753  0.823740  1
  Fe  Fe3  1  0.250000  0.145143  0.444397  1
  Fe  Fe4  1  0.250000  0.643946  0.061254  1
  Fe  Fe5  1  0.750000  0.855284  0.561616  1
  Fe  Fe6  1  0.750000  0.354124  0.936392  1
  Mo  Mo7  1  0.750000  0.978567  0.169712  1
  P  P8  1  0.250000  0.774944  0.378529  1
  P  P9  1  0.250000  0.272137  0.115644  1
  P  P10  1  0.750000  0.220402  0.626521  1
  P  P11  1  0.750000  0.734896  0.880050  1
