# generated using pymatgen
data_CeHf2BiF14
_symmetry_space_group_name_H-M   'P 1'
_cell_length_a   5.87992341
_cell_length_b   6.27701781
_cell_length_c   8.50947874
_cell_angle_alpha   101.67130187
_cell_angle_beta   89.73969753
_cell_angle_gamma   90.03000499
_symmetry_Int_Tables_number   1
_chemical_formula_structural   CeHf2BiF14
_chemical_formula_sum   'Ce1 Hf2 Bi1 F14'
_cell_volume   307.57425654
_cell_formula_units_Z   1
loop_
 _symmetry_equiv_pos_site_id
 _symmetry_equiv_pos_as_xyz
  1  'x, y, z'
loop_
 _atom_site_type_symbol
 _atom_site_label
 _atom_site_symmetry_multiplicity
 _atom_site_fract_x
 _atom_site_fract_y
 _atom_site_fract_z
 _atom_site_occupancy
  Ce  Ce0  1  0.199638  0.340857  0.313057  1
  Hf  Hf1  1  0.709599  0.810178  0.222874  1
  Hf  Hf2  1  0.209348  0.188958  0.776243  1
  Bi  Bi3  1  0.694373  0.657438  0.682521  1
  F  F4  1  0.877038  0.447695  0.476660  1
  F  F5  1  0.390347  0.554413  0.526148  1
  F  F6  1  0.422884  0.934934  0.768967  1
  F  F7  1  0.919701  0.066261  0.230374  1
  F  F8  1  0.953499  0.973995  0.759969  1
  F  F9  1  0.452981  0.027348  0.241355  1
  F  F10  1  0.002489  0.443821  0.785882  1
  F  F11  1  0.502254  0.553866  0.214015  1
  F  F12  1  0.702978  0.758252  0.985424  1
  F  F13  1  0.206651  0.241783  0.016846  1
  F  F14  1  0.711339  0.854105  0.466145  1
  F  F15  1  0.213851  0.142886  0.535102  1
  F  F16  1  0.492147  0.377530  0.780233  1
  F  F17  1  0.991600  0.625679  0.218186  1
