# generated using pymatgen
data_TbDy17Ho2(CoBi2)4
_symmetry_space_group_name_H-M   'P 1'
_cell_length_a   7.99858263
_cell_length_b   8.88193882
_cell_length_c   12.40002400
_cell_angle_alpha   90.01752009
_cell_angle_beta   89.97636676
_cell_angle_gamma   89.98287002
_symmetry_Int_Tables_number   1
_chemical_formula_structural   TbDy17Ho2(CoBi2)4
_chemical_formula_sum   'Tb1 Dy17 Ho2 Co4 Bi8'
_cell_volume   880.93377710
_cell_formula_units_Z   1
loop_
 _symmetry_equiv_pos_site_id
 _symmetry_equiv_pos_as_xyz
  1  'x, y, z'
loop_
 _atom_site_type_symbol
 _atom_site_label
 _atom_site_symmetry_multiplicity
 _atom_site_fract_x
 _atom_site_fract_y
 _atom_site_fract_z
 _atom_site_occupancy
  Tb  Tb0  1  0.346111  0.750027  0.699995  1
  Dy  Dy1  1  0.653892  0.249974  0.300015  1
  Dy  Dy2  1  0.846296  0.249875  0.800188  1
  Dy  Dy3  1  0.153701  0.750126  0.199810  1
  Dy  Dy4  1  0.884883  0.750284  0.810580  1
  Dy  Dy5  1  0.115107  0.249717  0.189420  1
  Dy  Dy6  1  0.384825  0.250034  0.689712  1
  Dy  Dy7  1  0.615171  0.749966  0.310293  1
  Dy  Dy8  1  0.676341  0.538015  0.563070  1
  Dy  Dy9  1  0.323670  0.461968  0.436921  1
  Dy  Dy10  1  0.176294  0.462003  0.936944  1
  Dy  Dy11  1  0.323693  0.038037  0.436893  1
  Dy  Dy12  1  0.823701  0.537995  0.063059  1
  Dy  Dy13  1  0.676317  0.961981  0.563098  1
  Dy  Dy14  1  0.052094  0.750024  0.498011  1
  Dy  Dy15  1  0.947887  0.249977  0.501984  1
  Dy  Dy16  1  0.552239  0.249772  0.002018  1
  Dy  Dy17  1  0.447767  0.750228  0.997986  1
  Ho  Ho18  1  0.824615  0.961890  0.062995  1
  Ho  Ho19  1  0.175381  0.038104  0.937007  1
  Co  Co20  1  0.066253  0.750417  0.991651  1
  Co  Co21  1  0.933753  0.249584  0.008350  1
  Co  Co22  1  0.566474  0.250001  0.508480  1
  Co  Co23  1  0.433536  0.750000  0.491505  1
  Bi  Bi24  1  0.572225  0.509827  0.826412  1
  Bi  Bi25  1  0.427793  0.490154  0.173599  1
  Bi  Bi26  1  0.072146  0.490162  0.673665  1
  Bi  Bi27  1  0.428234  0.009780  0.173538  1
  Bi  Bi28  1  0.927836  0.509822  0.326332  1
  Bi  Bi29  1  0.571783  0.990239  0.826473  1
  Bi  Bi30  1  0.927727  0.990149  0.326271  1
  Bi  Bi31  1  0.072255  0.009868  0.673726  1
