# generated using pymatgen
data_TcSb16
_symmetry_space_group_name_H-M   'P 1'
_cell_length_a   7.66394653
_cell_length_b   7.66394653
_cell_length_c   12.64643200
_cell_angle_alpha   56.65945801
_cell_angle_beta   56.65945800
_cell_angle_gamma   66.37058271
_symmetry_Int_Tables_number   1
_chemical_formula_structural   TcSb16
_chemical_formula_sum   'Tc1 Sb16'
_cell_volume   513.20458219
_cell_formula_units_Z   1
loop_
 _symmetry_equiv_pos_site_id
 _symmetry_equiv_pos_as_xyz
  1  'x, y, z'
loop_
 _atom_site_type_symbol
 _atom_site_label
 _atom_site_symmetry_multiplicity
 _atom_site_fract_x
 _atom_site_fract_y
 _atom_site_fract_z
 _atom_site_occupancy
  Tc  Tc0  1  0.725467  0.725467  0.563642  1
  Sb  Sb1  1  0.884534  0.884534  0.844588  1
  Sb  Sb2  1  0.327921  0.327921  0.903728  1
  Sb  Sb3  1  0.665909  0.176948  0.118703  1
  Sb  Sb4  1  0.176948  0.665909  0.118703  1
  Sb  Sb5  1  0.000937  0.000937  0.353672  1
  Sb  Sb6  1  0.485952  0.485952  0.378798  1
  Sb  Sb7  1  0.529410  0.060462  0.624884  1
  Sb  Sb8  1  0.060462  0.529410  0.624884  1
  Sb  Sb9  1  0.202724  0.202724  0.398670  1
  Sb  Sb10  1  0.746008  0.746008  0.337176  1
  Sb  Sb11  1  0.286064  0.783210  0.621699  1
  Sb  Sb12  1  0.783210  0.286064  0.621699  1
  Sb  Sb13  1  0.074390  0.074390  0.895346  1
  Sb  Sb14  1  0.577926  0.577926  0.864036  1
  Sb  Sb15  1  0.389852  0.893585  0.132086  1
  Sb  Sb16  1  0.893585  0.389852  0.132086  1
