# generated using pymatgen
data_Sr3GaP3
_symmetry_space_group_name_H-M   'P 1'
_cell_length_a   9.98742423
_cell_length_b   9.98742429
_cell_length_c   12.47960700
_cell_angle_alpha   90.00000000
_cell_angle_beta   90.00000000
_cell_angle_gamma   142.38676140
_symmetry_Int_Tables_number   1
_chemical_formula_structural   Sr3GaP3
_chemical_formula_sum   'Sr12 Ga4 P12'
_cell_volume   759.75112497
_cell_formula_units_Z   4
loop_
 _symmetry_equiv_pos_site_id
 _symmetry_equiv_pos_as_xyz
  1  'x, y, z'
loop_
 _atom_site_type_symbol
 _atom_site_label
 _atom_site_symmetry_multiplicity
 _atom_site_fract_x
 _atom_site_fract_y
 _atom_site_fract_z
 _atom_site_occupancy
  Sr  Sr0  1  0.821014  0.821014  0.648790  1
  Sr  Sr1  1  0.178986  0.178986  0.351210  1
  Sr  Sr2  1  0.678986  0.678986  0.148790  1
  Sr  Sr3  1  0.321014  0.321014  0.851210  1
  Sr  Sr4  1  0.133283  0.487050  0.130989  1
  Sr  Sr5  1  0.512950  0.866717  0.869011  1
  Sr  Sr6  1  0.012950  0.366717  0.630989  1
  Sr  Sr7  1  0.633283  0.987050  0.369011  1
  Sr  Sr8  1  0.866717  0.512950  0.869011  1
  Sr  Sr9  1  0.487050  0.133283  0.130989  1
  Sr  Sr10  1  0.987050  0.633283  0.369011  1
  Sr  Sr11  1  0.366717  0.012950  0.630989  1
  Ga  Ga12  1  0.913567  0.086433  0.000000  1
  Ga  Ga13  1  0.413567  0.586433  0.500000  1
  Ga  Ga14  1  0.086433  0.913567  0.000000  1
  Ga  Ga15  1  0.586433  0.413567  0.500000  1
  P  P16  1  0.295301  0.295301  0.602260  1
  P  P17  1  0.704699  0.704699  0.397740  1
  P  P18  1  0.204699  0.204699  0.102260  1
  P  P19  1  0.795301  0.795301  0.897740  1
  P  P20  1  0.547654  0.865567  0.619899  1
  P  P21  1  0.134433  0.452346  0.380101  1
  P  P22  1  0.634433  0.952346  0.119899  1
  P  P23  1  0.047654  0.365567  0.880101  1
  P  P24  1  0.452346  0.134433  0.380101  1
  P  P25  1  0.865567  0.547654  0.619899  1
  P  P26  1  0.365567  0.047654  0.880101  1
  P  P27  1  0.952346  0.634433  0.119899  1
