# generated using pymatgen
data_Th(Al3Cr)3
_symmetry_space_group_name_H-M   'P 1'
_cell_length_a   6.94904670
_cell_length_b   6.94904661
_cell_length_c   6.85859342
_cell_angle_alpha   97.65998301
_cell_angle_beta   97.65998431
_cell_angle_gamma   136.86441037
_symmetry_Int_Tables_number   1
_chemical_formula_structural   Th(Al3Cr)3
_chemical_formula_sum   'Th1 Al9 Cr3'
_cell_volume   211.03660849
_cell_formula_units_Z   1
loop_
 _symmetry_equiv_pos_site_id
 _symmetry_equiv_pos_as_xyz
  1  'x, y, z'
loop_
 _atom_site_type_symbol
 _atom_site_label
 _atom_site_symmetry_multiplicity
 _atom_site_fract_x
 _atom_site_fract_y
 _atom_site_fract_z
 _atom_site_occupancy
  Th  Th0  1  0.000000  0.000000  0.000000  1
  Al  Al1  1  0.283910  0.514266  0.781644  1
  Al  Al2  1  0.514266  0.283910  0.781644  1
  Al  Al3  1  0.485734  0.716090  0.218356  1
  Al  Al4  1  0.716090  0.485734  0.218356  1
  Al  Al5  1  0.355191  0.999308  0.338958  1
  Al  Al6  1  0.644809  0.000692  0.661042  1
  Al  Al7  1  0.000692  0.644809  0.661042  1
  Al  Al8  1  0.999308  0.355191  0.338958  1
  Al  Al9  1  0.000000  0.000000  0.500000  1
  Cr  Cr10  1  0.500000  0.500000  0.500000  1
  Cr  Cr11  1  0.000000  0.500000  0.000000  1
  Cr  Cr12  1  0.500000  0.000000  0.000000  1
