# generated using pymatgen
data_SmGd4GaSn2
_symmetry_space_group_name_H-M   'P 1'
_cell_length_a   9.24553757
_cell_length_b   9.24553863
_cell_length_c   9.24553800
_cell_angle_alpha   96.17654843
_cell_angle_beta   96.17654914
_cell_angle_gamma   141.70358602
_symmetry_Int_Tables_number   1
_chemical_formula_structural   SmGd4GaSn2
_chemical_formula_sum   'Sm2 Gd8 Ga2 Sn4'
_cell_volume   462.67991563
_cell_formula_units_Z   2
loop_
 _symmetry_equiv_pos_site_id
 _symmetry_equiv_pos_as_xyz
  1  'x, y, z'
loop_
 _atom_site_type_symbol
 _atom_site_label
 _atom_site_symmetry_multiplicity
 _atom_site_fract_x
 _atom_site_fract_y
 _atom_site_fract_z
 _atom_site_occupancy
  Sm  Sm0  1  0.750000  0.250000  0.500000  1
  Sm  Sm1  1  0.250000  0.750000  0.500000  1
  Gd  Gd2  1  0.919928  0.208765  0.128694  1
  Gd  Gd3  1  0.208765  0.080072  0.288837  1
  Gd  Gd4  1  0.791235  0.919928  0.711163  1
  Gd  Gd5  1  0.080072  0.791235  0.871306  1
  Gd  Gd6  1  0.708765  0.419928  0.128694  1
  Gd  Gd7  1  0.291235  0.580072  0.871306  1
  Gd  Gd8  1  0.580072  0.708765  0.288837  1
  Gd  Gd9  1  0.419928  0.291235  0.711163  1
  Ga  Ga10  1  0.750000  0.750000  0.000000  1
  Ga  Ga11  1  0.250000  0.250000  0.000000  1
  Sn  Sn12  1  0.838409  0.661591  0.500000  1
  Sn  Sn13  1  0.661591  0.161591  0.823180  1
  Sn  Sn14  1  0.338409  0.838409  0.176820  1
  Sn  Sn15  1  0.161591  0.338409  0.500000  1
