# generated using pymatgen
data_Lu8Ti12Si15As
_symmetry_space_group_name_H-M   'P 1'
_cell_length_a   6.99096872
_cell_length_b   6.98438068
_cell_length_c   12.82084637
_cell_angle_alpha   89.96334934
_cell_angle_beta   89.83774651
_cell_angle_gamma   89.94431836
_symmetry_Int_Tables_number   1
_chemical_formula_structural   Lu8Ti12Si15As
_chemical_formula_sum   'Lu8 Ti12 Si15 As1'
_cell_volume   626.00805663
_cell_formula_units_Z   1
loop_
 _symmetry_equiv_pos_site_id
 _symmetry_equiv_pos_as_xyz
  1  'x, y, z'
loop_
 _atom_site_type_symbol
 _atom_site_label
 _atom_site_symmetry_multiplicity
 _atom_site_fract_x
 _atom_site_fract_y
 _atom_site_fract_z
 _atom_site_occupancy
  Lu  Lu0  1  0.341739  0.000679  0.466010  1
  Lu  Lu1  1  0.498441  0.842176  0.717664  1
  Lu  Lu2  1  0.501508  0.158806  0.216785  1
  Lu  Lu3  1  0.840314  0.497654  0.282939  1
  Lu  Lu4  1  0.158955  0.500961  0.783303  1
  Lu  Lu5  1  0.660639  0.995782  0.967941  1
  Lu  Lu6  1  0.998323  0.343686  0.531463  1
  Lu  Lu7  1  0.998605  0.658888  0.033111  1
  Ti  Ti8  1  0.326759  0.327215  0.999838  1
  Ti  Ti9  1  0.172802  0.827329  0.249850  1
  Ti  Ti10  1  0.824352  0.173159  0.750184  1
  Ti  Ti11  1  0.672413  0.672301  0.500092  1
  Ti  Ti12  1  0.153002  0.008368  0.875018  1
  Ti  Ti13  1  0.492981  0.650826  0.125086  1
  Ti  Ti14  1  0.508061  0.348552  0.626644  1
  Ti  Ti15  1  0.653107  0.495609  0.875486  1
  Ti  Ti16  1  0.348143  0.506849  0.374527  1
  Ti  Ti17  1  0.848445  0.993273  0.375252  1
  Ti  Ti18  1  0.007108  0.150540  0.124639  1
  Ti  Ti19  1  0.990650  0.845114  0.623562  1
  Si  Si20  1  0.367209  0.704247  0.932209  1
  Si  Si21  1  0.630892  0.296832  0.432950  1
  Si  Si22  1  0.704167  0.367817  0.067953  1
  Si  Si23  1  0.296667  0.632222  0.567662  1
  Si  Si24  1  0.796081  0.867703  0.182732  1
  Si  Si25  1  0.132307  0.203856  0.317757  1
  Si  Si26  1  0.868993  0.797022  0.817212  1
  Si  Si27  1  0.292940  0.953546  0.064493  1
  Si  Si28  1  0.546431  0.792168  0.314384  1
  Si  Si29  1  0.462082  0.209155  0.819463  1
  Si  Si30  1  0.792473  0.546220  0.685403  1
  Si  Si31  1  0.207158  0.453567  0.185408  1
  Si  Si32  1  0.706637  0.045866  0.564331  1
  Si  Si33  1  0.954045  0.292665  0.935429  1
  Si  Si34  1  0.046372  0.707886  0.434768  1
  As  As35  1  0.199198  0.131459  0.678452  1
