# generated using pymatgen
data_Er3Tm13MgNi4Hg3
_symmetry_space_group_name_H-M   'P 1'
_cell_length_a   9.44060680
_cell_length_b   9.40795233
_cell_length_c   9.40795200
_cell_angle_alpha   60.00000118
_cell_angle_beta   60.11435609
_cell_angle_gamma   60.11435502
_symmetry_Int_Tables_number   1
_chemical_formula_structural   Er3Tm13MgNi4Hg3
_chemical_formula_sum   'Er3 Tm13 Mg1 Ni4 Hg3'
_cell_volume   591.86632305
_cell_formula_units_Z   1
loop_
 _symmetry_equiv_pos_site_id
 _symmetry_equiv_pos_as_xyz
  1  'x, y, z'
loop_
 _atom_site_type_symbol
 _atom_site_label
 _atom_site_symmetry_multiplicity
 _atom_site_fract_x
 _atom_site_fract_y
 _atom_site_fract_z
 _atom_site_occupancy
  Er  Er0  1  0.598564  0.597363  0.597363  1
  Er  Er1  1  0.598564  0.597363  0.206711  1
  Er  Er2  1  0.598564  0.206711  0.597363  1
  Tm  Tm3  1  0.195800  0.601400  0.601400  1
  Tm  Tm4  1  0.059395  0.439412  0.439412  1
  Tm  Tm5  1  0.435296  0.063855  0.063855  1
  Tm  Tm6  1  0.435296  0.063855  0.436996  1
  Tm  Tm7  1  0.059395  0.439412  0.061782  1
  Tm  Tm8  1  0.435296  0.436996  0.063855  1
  Tm  Tm9  1  0.059395  0.061782  0.439412  1
  Tm  Tm10  1  0.185214  0.814392  0.814392  1
  Tm  Tm11  1  0.814161  0.185722  0.185722  1
  Tm  Tm12  1  0.814161  0.185722  0.814395  1
  Tm  Tm13  1  0.185214  0.814392  0.186002  1
  Tm  Tm14  1  0.814161  0.814395  0.185722  1
  Tm  Tm15  1  0.185214  0.186002  0.814392  1
  Mg  Mg16  1  0.535048  0.821650  0.821650  1
  Ni  Ni17  1  0.387940  0.394149  0.394149  1
  Ni  Ni18  1  0.387940  0.394149  0.823762  1
  Ni  Ni19  1  0.387940  0.823762  0.394149  1
  Ni  Ni20  1  0.824294  0.391902  0.391902  1
  Hg  Hg21  1  0.834382  0.836739  0.836739  1
  Hg  Hg22  1  0.834382  0.836739  0.492141  1
  Hg  Hg23  1  0.834382  0.492141  0.836739  1
