# generated using pymatgen
data_TiVP4(PbO8)2
_symmetry_space_group_name_H-M   'P 1'
_cell_length_a   5.22984333
_cell_length_b   8.30413431
_cell_length_c   8.85739504
_cell_angle_alpha   114.68114670
_cell_angle_beta   107.27669575
_cell_angle_gamma   89.83305625
_symmetry_Int_Tables_number   1
_chemical_formula_structural   TiVP4(PbO8)2
_chemical_formula_sum   'Ti1 V1 P4 Pb2 O16'
_cell_volume   330.49233467
_cell_formula_units_Z   1
loop_
 _symmetry_equiv_pos_site_id
 _symmetry_equiv_pos_as_xyz
  1  'x, y, z'
loop_
 _atom_site_type_symbol
 _atom_site_label
 _atom_site_symmetry_multiplicity
 _atom_site_fract_x
 _atom_site_fract_y
 _atom_site_fract_z
 _atom_site_occupancy
  Ti  Ti0  1  0.500000  0.500001  0.500000  1
  V  V1  1  0.999989  0.999996  0.499996  1
  P  P2  1  0.906528  0.256391  0.290605  1
  P  P3  1  0.381380  0.759489  0.286987  1
  P  P4  1  0.618621  0.240512  0.713014  1
  P  P5  1  0.093473  0.743609  0.709395  1
  Pb  Pb6  1  0.336051  0.248439  0.993508  1
  Pb  Pb7  1  0.663951  0.751562  0.006496  1
  O  O8  1  0.760854  0.110282  0.106138  1
  O  O9  1  0.336880  0.615433  0.099431  1
  O  O10  1  0.171160  0.349270  0.298986  1
  O  O11  1  0.121969  0.851803  0.295452  1
  O  O12  1  0.712719  0.398797  0.339859  1
  O  O13  1  0.624561  0.899337  0.331628  1
  O  O14  1  0.984417  0.185222  0.433390  1
  O  O15  1  0.446585  0.684209  0.424684  1
  O  O16  1  0.553416  0.315791  0.575316  1
  O  O17  1  0.015583  0.814778  0.566610  1
  O  O18  1  0.375439  0.100663  0.668371  1
  O  O19  1  0.287282  0.601203  0.660141  1
  O  O20  1  0.878032  0.148196  0.704548  1
  O  O21  1  0.828840  0.650730  0.701014  1
  O  O22  1  0.663121  0.384566  0.900569  1
  O  O23  1  0.239148  0.889719  0.893861  1
