# generated using pymatgen
data_Sc3USi2Ru3
_symmetry_space_group_name_H-M   'P 1'
_cell_length_a   6.72211700
_cell_length_b   6.72211854
_cell_length_c   4.00480200
_cell_angle_alpha   90.00000000
_cell_angle_beta   90.00000000
_cell_angle_gamma   120.00000719
_symmetry_Int_Tables_number   1
_chemical_formula_structural   Sc3USi2Ru3
_chemical_formula_sum   'Sc3 U1 Si2 Ru3'
_cell_volume   156.71980521
_cell_formula_units_Z   1
loop_
 _symmetry_equiv_pos_site_id
 _symmetry_equiv_pos_as_xyz
  1  'x, y, z'
loop_
 _atom_site_type_symbol
 _atom_site_label
 _atom_site_symmetry_multiplicity
 _atom_site_fract_x
 _atom_site_fract_y
 _atom_site_fract_z
 _atom_site_occupancy
  Sc  Sc0  1  0.460016  0.460016  0.000000  1
  Sc  Sc1  1  0.539984  0.000000  0.000000  1
  Sc  Sc2  1  0.000000  0.539984  0.000000  1
  U  U3  1  0.000000  0.000000  0.000000  1
  Si  Si4  1  0.666667  0.333333  0.500000  1
  Si  Si5  1  0.333333  0.666667  0.500000  1
  Ru  Ru6  1  0.000000  0.246858  0.500000  1
  Ru  Ru7  1  0.753142  0.753142  0.500000  1
  Ru  Ru8  1  0.246858  0.000000  0.500000  1
