# generated using pymatgen
data_Ho3MnGaCo9B4
_symmetry_space_group_name_H-M   'P 1'
_cell_length_a   5.10313501
_cell_length_b   5.10221740
_cell_length_c   9.63977901
_cell_angle_alpha   89.99532910
_cell_angle_beta   90.00119816
_cell_angle_gamma   120.00511734
_symmetry_Int_Tables_number   1
_chemical_formula_structural   Ho3MnGaCo9B4
_chemical_formula_sum   'Ho3 Mn1 Ga1 Co9 B4'
_cell_volume   217.35584769
_cell_formula_units_Z   1
loop_
 _symmetry_equiv_pos_site_id
 _symmetry_equiv_pos_as_xyz
  1  'x, y, z'
loop_
 _atom_site_type_symbol
 _atom_site_label
 _atom_site_symmetry_multiplicity
 _atom_site_fract_x
 _atom_site_fract_y
 _atom_site_fract_z
 _atom_site_occupancy
  Ho  Ho0  1  0.999953  0.999975  0.999974  1
  Ho  Ho1  1  0.999994  0.999998  0.340657  1
  Ho  Ho2  1  0.999997  0.999995  0.659338  1
  Mn  Mn3  1  0.333523  0.666807  0.999987  1
  Ga  Ga4  1  0.666430  0.333152  0.999995  1
  Co  Co5  1  0.499817  0.999640  0.500012  1
  Co  Co6  1  0.499816  0.500178  0.500014  1
  Co  Co7  1  0.000366  0.500183  0.500007  1
  Co  Co8  1  0.499363  0.998729  0.207440  1
  Co  Co9  1  0.499341  0.500666  0.207412  1
  Co  Co10  1  0.001303  0.500658  0.207378  1
  Co  Co11  1  0.499352  0.998701  0.792573  1
  Co  Co12  1  0.499344  0.500649  0.792573  1
  Co  Co13  1  0.001290  0.500640  0.792616  1
  B  B14  1  0.333328  0.666723  0.349868  1
  B  B15  1  0.666677  0.333304  0.350245  1
  B  B16  1  0.666718  0.333399  0.649766  1
  B  B17  1  0.333286  0.666601  0.650146  1
