# generated using pymatgen
data_Ce2Mn4Tc13C3
_symmetry_space_group_name_H-M   'P 1'
_cell_length_a   6.88979655
_cell_length_b   6.88979683
_cell_length_c   6.91929122
_cell_angle_alpha   82.61473666
_cell_angle_beta   82.61473218
_cell_angle_gamma   82.18431183
_symmetry_Int_Tables_number   1
_chemical_formula_structural   Ce2Mn4Tc13C3
_chemical_formula_sum   'Ce2 Mn4 Tc13 C3'
_cell_volume   320.63493352
_cell_formula_units_Z   1
loop_
 _symmetry_equiv_pos_site_id
 _symmetry_equiv_pos_as_xyz
  1  'x, y, z'
loop_
 _atom_site_type_symbol
 _atom_site_label
 _atom_site_symmetry_multiplicity
 _atom_site_fract_x
 _atom_site_fract_y
 _atom_site_fract_z
 _atom_site_occupancy
  Ce  Ce0  1  0.651853  0.649316  0.653714  1
  Ce  Ce1  1  0.350684  0.348147  0.346286  1
  Mn  Mn2  1  0.999333  0.000667  0.500000  1
  Mn  Mn3  1  0.997532  0.498502  0.998533  1
  Mn  Mn4  1  0.501498  0.002468  0.001467  1
  Mn  Mn5  1  0.724252  0.275748  0.000000  1
  Tc  Tc6  1  0.278422  0.721578  0.000000  1
  Tc  Tc7  1  0.722062  0.005830  0.272652  1
  Tc  Tc8  1  0.994170  0.277938  0.727348  1
  Tc  Tc9  1  0.275464  0.999749  0.724465  1
  Tc  Tc10  1  0.000251  0.724536  0.275535  1
  Tc  Tc11  1  0.351068  0.347064  0.860985  1
  Tc  Tc12  1  0.347711  0.861557  0.346954  1
  Tc  Tc13  1  0.859697  0.348926  0.344680  1
  Tc  Tc14  1  0.652936  0.648932  0.139015  1
  Tc  Tc15  1  0.651074  0.140303  0.655320  1
  Tc  Tc16  1  0.138443  0.652289  0.653046  1
  Tc  Tc17  1  0.897423  0.905567  0.901472  1
  Tc  Tc18  1  0.094433  0.102577  0.098528  1
  C  C19  1  0.508855  0.491145  0.000000  1
  C  C20  1  0.501480  0.998640  0.501243  1
  C  C21  1  0.001360  0.498520  0.498757  1
