# generated using pymatgen
data_Er2Ga(BRh2)3
_symmetry_space_group_name_H-M   'P 1'
_cell_length_a   5.47210400
_cell_length_b   5.47210393
_cell_length_c   13.22199100
_cell_angle_alpha   90.00000000
_cell_angle_beta   90.00000000
_cell_angle_gamma   120.00000040
_symmetry_Int_Tables_number   1
_chemical_formula_structural   Er2Ga(BRh2)3
_chemical_formula_sum   'Er4 Ga2 B6 Rh12'
_cell_volume   342.87527384
_cell_formula_units_Z   2
loop_
 _symmetry_equiv_pos_site_id
 _symmetry_equiv_pos_as_xyz
  1  'x, y, z'
loop_
 _atom_site_type_symbol
 _atom_site_label
 _atom_site_symmetry_multiplicity
 _atom_site_fract_x
 _atom_site_fract_y
 _atom_site_fract_z
 _atom_site_occupancy
  Er  Er0  1  0.000000  0.000000  0.000000  1
  Er  Er1  1  0.000000  0.000000  0.500000  1
  Er  Er2  1  0.000000  0.000000  0.741890  1
  Er  Er3  1  0.000000  0.000000  0.258110  1
  Ga  Ga4  1  0.666667  0.333333  0.000000  1
  Ga  Ga5  1  0.333333  0.666667  0.000000  1
  B  B6  1  0.666667  0.333333  0.500000  1
  B  B7  1  0.333333  0.666667  0.500000  1
  B  B8  1  0.666667  0.333333  0.734118  1
  B  B9  1  0.333333  0.666667  0.734118  1
  B  B10  1  0.333333  0.666667  0.265882  1
  B  B11  1  0.666667  0.333333  0.265882  1
  Rh  Rh12  1  0.500000  0.500000  0.842980  1
  Rh  Rh13  1  0.500000  0.000000  0.842980  1
  Rh  Rh14  1  0.000000  0.500000  0.842980  1
  Rh  Rh15  1  0.500000  0.500000  0.157020  1
  Rh  Rh16  1  0.500000  0.000000  0.157020  1
  Rh  Rh17  1  0.000000  0.500000  0.157020  1
  Rh  Rh18  1  0.500000  0.500000  0.614544  1
  Rh  Rh19  1  0.500000  0.000000  0.614544  1
  Rh  Rh20  1  0.000000  0.500000  0.614544  1
  Rh  Rh21  1  0.500000  0.500000  0.385456  1
  Rh  Rh22  1  0.500000  0.000000  0.385456  1
  Rh  Rh23  1  0.000000  0.500000  0.385456  1
