# generated using pymatgen
data_Dy2Lu14CdHg3Rh4
_symmetry_space_group_name_H-M   'P 1'
_cell_length_a   9.44395034
_cell_length_b   9.42915959
_cell_length_c   9.41657529
_cell_angle_alpha   59.92982140
_cell_angle_beta   59.90378945
_cell_angle_gamma   59.94809214
_symmetry_Int_Tables_number   1
_chemical_formula_structural   Dy2Lu14CdHg3Rh4
_chemical_formula_sum   'Dy2 Lu14 Cd1 Hg3 Rh4'
_cell_volume   591.95286287
_cell_formula_units_Z   1
loop_
 _symmetry_equiv_pos_site_id
 _symmetry_equiv_pos_as_xyz
  1  'x, y, z'
loop_
 _atom_site_type_symbol
 _atom_site_label
 _atom_site_symmetry_multiplicity
 _atom_site_fract_x
 _atom_site_fract_y
 _atom_site_fract_z
 _atom_site_occupancy
  Dy  Dy0  1  0.937028  0.936722  0.563534  1
  Dy  Dy1  1  0.562715  0.936722  0.563534  1
  Lu  Lu2  1  0.563246  0.563385  0.937081  1
  Lu  Lu3  1  0.148417  0.555819  0.147349  1
  Lu  Lu4  1  0.687902  0.313718  0.310477  1
  Lu  Lu5  1  0.937166  0.562612  0.563056  1
  Lu  Lu6  1  0.936288  0.563385  0.937081  1
  Lu  Lu7  1  0.688620  0.688650  0.310898  1
  Lu  Lu8  1  0.562550  0.936849  0.938049  1
  Lu  Lu9  1  0.149937  0.148972  0.148517  1
  Lu  Lu10  1  0.311832  0.688650  0.310898  1
  Lu  Lu11  1  0.552573  0.148972  0.148517  1
  Lu  Lu12  1  0.310896  0.313291  0.688638  1
  Lu  Lu13  1  0.311511  0.687763  0.689215  1
  Lu  Lu14  1  0.149293  0.148895  0.552519  1
  Lu  Lu15  1  0.687175  0.313291  0.688638  1
  Cd  Cd16  1  0.919075  0.242809  0.919042  1
  Hg  Hg17  1  0.914028  0.916128  0.915907  1
  Hg  Hg18  1  0.253936  0.916128  0.915907  1
  Hg  Hg19  1  0.915743  0.916005  0.252507  1
  Rh  Rh20  1  0.356309  0.356770  0.930610  1
  Rh  Rh21  1  0.356109  0.357581  0.355944  1
  Rh  Rh22  1  0.930366  0.357581  0.355944  1
  Rh  Rh23  1  0.357282  0.929301  0.356134  1
