# generated using pymatgen
data_YbPa2(GaIr)3
_symmetry_space_group_name_H-M   'P 1'
_cell_length_a   7.16405900
_cell_length_b   7.21303526
_cell_length_c   3.90014600
_cell_angle_alpha   90.00000000
_cell_angle_beta   90.00000000
_cell_angle_gamma   119.77562908
_symmetry_Int_Tables_number   1
_chemical_formula_structural   YbPa2(GaIr)3
_chemical_formula_sum   'Yb1 Pa2 Ga3 Ir3'
_cell_volume   174.93075592
_cell_formula_units_Z   1
loop_
 _symmetry_equiv_pos_site_id
 _symmetry_equiv_pos_as_xyz
  1  'x, y, z'
loop_
 _atom_site_type_symbol
 _atom_site_label
 _atom_site_symmetry_multiplicity
 _atom_site_fract_x
 _atom_site_fract_y
 _atom_site_fract_z
 _atom_site_occupancy
  Yb  Yb0  1  0.408258  0.000000  0.500000  1
  Pa  Pa1  1  0.001610  0.413297  0.500000  1
  Pa  Pa2  1  0.588313  0.586703  0.500000  1
  Ga  Ga3  1  0.016845  0.769283  0.000000  1
  Ga  Ga4  1  0.247562  0.230717  0.000000  1
  Ga  Ga5  1  0.734242  0.000000  0.000000  1
  Ir  Ir6  1  0.330343  0.636733  0.000000  1
  Ir  Ir7  1  0.693611  0.363267  0.000000  1
  Ir  Ir8  1  0.979216  0.000000  0.500000  1
