# generated using pymatgen
data_Er3Zn3Cu2Rh
_symmetry_space_group_name_H-M   'P 1'
_cell_length_a   7.00603400
_cell_length_b   7.00603363
_cell_length_c   3.93413400
_cell_angle_alpha   90.00000000
_cell_angle_beta   90.00000000
_cell_angle_gamma   120.00000173
_symmetry_Int_Tables_number   1
_chemical_formula_structural   Er3Zn3Cu2Rh
_chemical_formula_sum   'Er3 Zn3 Cu2 Rh1'
_cell_volume   167.23386648
_cell_formula_units_Z   1
loop_
 _symmetry_equiv_pos_site_id
 _symmetry_equiv_pos_as_xyz
  1  'x, y, z'
loop_
 _atom_site_type_symbol
 _atom_site_label
 _atom_site_symmetry_multiplicity
 _atom_site_fract_x
 _atom_site_fract_y
 _atom_site_fract_z
 _atom_site_occupancy
  Er  Er0  1  0.583230  0.992344  0.500000  1
  Er  Er1  1  0.409115  0.416770  0.500000  1
  Er  Er2  1  0.007656  0.590885  0.500000  1
  Zn  Zn3  1  0.763195  0.761146  0.000000  1
  Zn  Zn4  1  0.997949  0.236805  0.000000  1
  Zn  Zn5  1  0.238854  0.002051  0.000000  1
  Cu  Cu6  1  0.000000  0.000000  0.500000  1
  Cu  Cu7  1  0.666667  0.333333  0.000000  1
  Rh  Rh8  1  0.333333  0.666667  0.000000  1
