# generated using pymatgen
data_Zr8ReSi16Os10Ru
_symmetry_space_group_name_H-M   'P 1'
_cell_length_a   9.96126882
_cell_length_b   9.98130887
_cell_length_c   13.43371650
_cell_angle_alpha   53.83249863
_cell_angle_beta   53.75975486
_cell_angle_gamma   31.49123071
_symmetry_Int_Tables_number   1
_chemical_formula_structural   Zr8ReSi16Os10Ru
_chemical_formula_sum   'Zr8 Re1 Si16 Os10 Ru1'
_cell_volume   550.87433114
_cell_formula_units_Z   1
loop_
 _symmetry_equiv_pos_site_id
 _symmetry_equiv_pos_as_xyz
  1  'x, y, z'
loop_
 _atom_site_type_symbol
 _atom_site_label
 _atom_site_symmetry_multiplicity
 _atom_site_fract_x
 _atom_site_fract_y
 _atom_site_fract_z
 _atom_site_occupancy
  Zr  Zr0  1  0.039977  0.293921  0.636059  1
  Zr  Zr1  1  0.703996  0.960769  0.865928  1
  Zr  Zr2  1  0.961098  0.703979  0.364250  1
  Zr  Zr3  1  0.292092  0.041429  0.135206  1
  Zr  Zr4  1  0.300048  0.551840  0.650130  1
  Zr  Zr5  1  0.448719  0.697886  0.852323  1
  Zr  Zr6  1  0.701880  0.446770  0.349094  1
  Zr  Zr7  1  0.553458  0.301054  0.147813  1
  Re  Re8  1  0.757084  0.488281  0.066655  1
  Si  Si9  1  0.970688  0.253397  0.895367  1
  Si  Si10  1  0.750916  0.021673  0.607126  1
  Si  Si11  1  0.026227  0.747952  0.106112  1
  Si  Si12  1  0.251848  0.974788  0.393300  1
  Si  Si13  1  0.139608  0.389867  0.897699  1
  Si  Si14  1  0.613488  0.857279  0.604621  1
  Si  Si15  1  0.856862  0.613107  0.102834  1
  Si  Si16  1  0.387411  0.144048  0.395271  1
  Si  Si17  1  0.090114  0.571075  0.563545  1
  Si  Si18  1  0.423323  0.919157  0.933195  1
  Si  Si19  1  0.910136  0.428379  0.436139  1
  Si  Si20  1  0.571978  0.087677  0.065161  1
  Si  Si21  1  0.622349  0.378939  0.749382  1
  Si  Si22  1  0.379352  0.617253  0.251833  1
  Si  Si23  1  0.129376  0.871259  0.749483  1
  Si  Si24  1  0.870590  0.127792  0.251025  1
  Os  Os25  1  0.908943  0.131148  0.585154  1
  Os  Os26  1  0.870411  0.088475  0.914727  1
  Os  Os27  1  0.095596  0.864321  0.414588  1
  Os  Os28  1  0.136128  0.905884  0.085088  1
  Os  Os29  1  0.828334  0.646234  0.780422  1
  Os  Os30  1  0.353787  0.172455  0.718323  1
  Os  Os31  1  0.170771  0.354596  0.218772  1
  Os  Os32  1  0.645967  0.828099  0.281800  1
  Os  Os33  1  0.235973  0.519483  0.930072  1
  Os  Os34  1  0.480226  0.770196  0.568970  1
  Ru  Ru35  1  0.521244  0.229537  0.432530  1
