# generated using pymatgen
data_Th4AgSn2Ru3
_symmetry_space_group_name_H-M   'P 1'
_cell_length_a   7.82888809
_cell_length_b   7.82888809
_cell_length_c   3.85148500
_cell_angle_alpha   90.00000000
_cell_angle_beta   90.00000000
_cell_angle_gamma   91.75876505
_symmetry_Int_Tables_number   1
_chemical_formula_structural   Th4AgSn2Ru3
_chemical_formula_sum   'Th4 Ag1 Sn2 Ru3'
_cell_volume   235.95204163
_cell_formula_units_Z   1
loop_
 _symmetry_equiv_pos_site_id
 _symmetry_equiv_pos_as_xyz
  1  'x, y, z'
loop_
 _atom_site_type_symbol
 _atom_site_label
 _atom_site_symmetry_multiplicity
 _atom_site_fract_x
 _atom_site_fract_y
 _atom_site_fract_z
 _atom_site_occupancy
  Th  Th0  1  0.340349  0.802665  0.500000  1
  Th  Th1  1  0.822934  0.677066  0.500000  1
  Th  Th2  1  0.147007  0.352993  0.500000  1
  Th  Th3  1  0.697335  0.159651  0.500000  1
  Ag  Ag4  1  0.366975  0.133025  0.000000  1
  Sn  Sn5  1  0.006115  0.995158  0.000000  1
  Sn  Sn6  1  0.504842  0.493885  0.000000  1
  Ru  Ru7  1  0.857198  0.367068  0.000000  1
  Ru  Ru8  1  0.132932  0.642802  0.000000  1
  Ru  Ru9  1  0.624312  0.875688  0.000000  1
