# generated using pymatgen
data_Dy4Tc2(OsRu)3
_symmetry_space_group_name_H-M   'P 1'
_cell_length_a   5.41012335
_cell_length_b   5.17005575
_cell_length_c   9.11036300
_cell_angle_alpha   90.00000000
_cell_angle_beta   90.00000000
_cell_angle_gamma   120.90209038
_symmetry_Int_Tables_number   1
_chemical_formula_structural   Dy4Tc2(OsRu)3
_chemical_formula_sum   'Dy4 Tc2 Os3 Ru3'
_cell_volume   218.64962235
_cell_formula_units_Z   1
loop_
 _symmetry_equiv_pos_site_id
 _symmetry_equiv_pos_as_xyz
  1  'x, y, z'
loop_
 _atom_site_type_symbol
 _atom_site_label
 _atom_site_symmetry_multiplicity
 _atom_site_fract_x
 _atom_site_fract_y
 _atom_site_fract_z
 _atom_site_occupancy
  Dy  Dy0  1  0.668791  0.336563  0.565746  1
  Dy  Dy1  1  0.330590  0.663303  0.434056  1
  Dy  Dy2  1  0.330590  0.663303  0.065944  1
  Dy  Dy3  1  0.668791  0.336563  0.934254  1
  Tc  Tc4  1  0.168608  0.335534  0.750000  1
  Tc  Tc5  1  0.837405  0.666166  0.250000  1
  Os  Os6  1  0.171563  0.829796  0.750000  1
  Os  Os7  1  0.657884  0.828900  0.750000  1
  Os  Os8  1  0.833965  0.172294  0.250000  1
  Ru  Ru9  1  0.991416  0.996546  0.499233  1
  Ru  Ru10  1  0.991416  0.996546  0.000767  1
  Ru  Ru11  1  0.348979  0.174483  0.250000  1
