# generated using pymatgen
data_Hf2Sc2Co6Si6Ir
_symmetry_space_group_name_H-M   'P 1'
_cell_length_a   6.69015109
_cell_length_b   6.68178340
_cell_length_c   6.68178313
_cell_angle_alpha   109.41938795
_cell_angle_beta   109.47176745
_cell_angle_gamma   109.47177147
_symmetry_Int_Tables_number   1
_chemical_formula_structural   Hf2Sc2Co6Si6Ir
_chemical_formula_sum   'Hf2 Sc2 Co6 Si6 Ir1'
_cell_volume   230.07548397
_cell_formula_units_Z   1
loop_
 _symmetry_equiv_pos_site_id
 _symmetry_equiv_pos_as_xyz
  1  'x, y, z'
loop_
 _atom_site_type_symbol
 _atom_site_label
 _atom_site_symmetry_multiplicity
 _atom_site_fract_x
 _atom_site_fract_y
 _atom_site_fract_z
 _atom_site_occupancy
  Hf  Hf0  1  0.000000  0.000000  0.500000  1
  Hf  Hf1  1  0.000000  0.500000  0.000000  1
  Sc  Sc2  1  0.500000  0.000000  0.000000  1
  Sc  Sc3  1  0.500000  0.500000  0.500000  1
  Co  Co4  1  0.752053  0.249951  0.502101  1
  Co  Co5  1  0.752053  0.502101  0.249951  1
  Co  Co6  1  0.500000  0.250000  0.750000  1
  Co  Co7  1  0.247947  0.497899  0.750049  1
  Co  Co8  1  0.247947  0.750049  0.497899  1
  Co  Co9  1  0.500000  0.750000  0.250000  1
  Si  Si10  1  0.668104  0.670926  0.997177  1
  Si  Si11  1  0.331896  0.002823  0.329074  1
  Si  Si12  1  0.000000  0.329188  0.329188  1
  Si  Si13  1  0.331896  0.329074  0.002823  1
  Si  Si14  1  0.668104  0.997177  0.670926  1
  Si  Si15  1  0.000000  0.670812  0.670812  1
  Ir  Ir16  1  0.000000  0.000000  0.000000  1
