# generated using pymatgen
data_CaTb(NdSi)4
_symmetry_space_group_name_H-M   'P 1'
_cell_length_a   7.65224000
_cell_length_b   7.65224000
_cell_length_c   4.40808700
_cell_angle_alpha   90.00000000
_cell_angle_beta   90.00000000
_cell_angle_gamma   90.00000000
_symmetry_Int_Tables_number   1
_chemical_formula_structural   CaTb(NdSi)4
_chemical_formula_sum   'Ca1 Tb1 Nd4 Si4'
_cell_volume   258.12336753
_cell_formula_units_Z   1
loop_
 _symmetry_equiv_pos_site_id
 _symmetry_equiv_pos_as_xyz
  1  'x, y, z'
loop_
 _atom_site_type_symbol
 _atom_site_label
 _atom_site_symmetry_multiplicity
 _atom_site_fract_x
 _atom_site_fract_y
 _atom_site_fract_z
 _atom_site_occupancy
  Ca  Ca0  1  0.500000  0.500000  0.000000  1
  Tb  Tb1  1  0.000000  0.000000  0.000000  1
  Nd  Nd2  1  0.675978  0.178601  0.500000  1
  Nd  Nd3  1  0.821399  0.675978  0.500000  1
  Nd  Nd4  1  0.178601  0.324022  0.500000  1
  Nd  Nd5  1  0.324022  0.821399  0.500000  1
  Si  Si6  1  0.618151  0.893820  0.000000  1
  Si  Si7  1  0.893820  0.381849  0.000000  1
  Si  Si8  1  0.106180  0.618151  0.000000  1
  Si  Si9  1  0.381849  0.106180  0.000000  1
