# generated using pymatgen
data_Th3HgPd12
_symmetry_space_group_name_H-M   'P 1'
_cell_length_a   5.89490700
_cell_length_b   5.89490656
_cell_length_c   9.72572500
_cell_angle_alpha   90.00000000
_cell_angle_beta   90.00000000
_cell_angle_gamma   119.99999684
_symmetry_Int_Tables_number   1
_chemical_formula_structural   Th3HgPd12
_chemical_formula_sum   'Th3 Hg1 Pd12'
_cell_volume   292.68907676
_cell_formula_units_Z   1
loop_
 _symmetry_equiv_pos_site_id
 _symmetry_equiv_pos_as_xyz
  1  'x, y, z'
loop_
 _atom_site_type_symbol
 _atom_site_label
 _atom_site_symmetry_multiplicity
 _atom_site_fract_x
 _atom_site_fract_y
 _atom_site_fract_z
 _atom_site_occupancy
  Th  Th0  1  0.000000  0.000000  0.493006  1
  Th  Th1  1  0.000000  0.000000  0.006994  1
  Th  Th2  1  0.666667  0.333333  0.750000  1
  Hg  Hg3  1  0.333333  0.666667  0.250000  1
  Pd  Pd4  1  0.499632  0.500368  0.499265  1
  Pd  Pd5  1  0.499632  0.999264  0.499265  1
  Pd  Pd6  1  0.000736  0.500368  0.499265  1
  Pd  Pd7  1  0.499632  0.500368  0.000735  1
  Pd  Pd8  1  0.499632  0.999264  0.000735  1
  Pd  Pd9  1  0.000736  0.500368  0.000735  1
  Pd  Pd10  1  0.825594  0.651188  0.250000  1
  Pd  Pd11  1  0.348812  0.174406  0.250000  1
  Pd  Pd12  1  0.825594  0.174406  0.250000  1
  Pd  Pd13  1  0.172593  0.345186  0.750000  1
  Pd  Pd14  1  0.654814  0.827407  0.750000  1
  Pd  Pd15  1  0.172593  0.827407  0.750000  1
