# generated using pymatgen
data_Np3TiBi5
_symmetry_space_group_name_H-M   'P 1'
_cell_length_a   9.46168400
_cell_length_b   9.46168425
_cell_length_c   6.36471400
_cell_angle_alpha   90.00000000
_cell_angle_beta   90.00000000
_cell_angle_gamma   119.99999911
_symmetry_Int_Tables_number   1
_chemical_formula_structural   Np3TiBi5
_chemical_formula_sum   'Np6 Ti2 Bi10'
_cell_volume   493.45371103
_cell_formula_units_Z   2
loop_
 _symmetry_equiv_pos_site_id
 _symmetry_equiv_pos_as_xyz
  1  'x, y, z'
loop_
 _atom_site_type_symbol
 _atom_site_label
 _atom_site_symmetry_multiplicity
 _atom_site_fract_x
 _atom_site_fract_y
 _atom_site_fract_z
 _atom_site_occupancy
  Np  Np0  1  0.385716  0.000000  0.750000  1
  Np  Np1  1  0.385716  0.385716  0.250000  1
  Np  Np2  1  0.000000  0.614284  0.250000  1
  Np  Np3  1  0.000000  0.385716  0.750000  1
  Np  Np4  1  0.614284  0.614284  0.750000  1
  Np  Np5  1  0.614284  0.000000  0.250000  1
  Ti  Ti6  1  0.000000  0.000000  0.000000  1
  Ti  Ti7  1  0.000000  0.000000  0.500000  1
  Bi  Bi8  1  0.666667  0.333333  0.500000  1
  Bi  Bi9  1  0.333333  0.666667  0.000000  1
  Bi  Bi10  1  0.740772  0.000000  0.750000  1
  Bi  Bi11  1  0.740772  0.740772  0.250000  1
  Bi  Bi12  1  0.333333  0.666667  0.500000  1
  Bi  Bi13  1  0.666667  0.333333  0.000000  1
  Bi  Bi14  1  0.259228  0.000000  0.250000  1
  Bi  Bi15  1  0.259228  0.259228  0.750000  1
  Bi  Bi16  1  0.000000  0.740772  0.750000  1
  Bi  Bi17  1  0.000000  0.259228  0.250000  1
