# generated using pymatgen
data_Er9Tm11Sn3Pb13
_symmetry_space_group_name_H-M   'P 1'
_cell_length_a   8.12248904
_cell_length_b   8.16467948
_cell_length_c   15.45514400
_cell_angle_alpha   90.00134373
_cell_angle_beta   89.99940709
_cell_angle_gamma   89.82060387
_symmetry_Int_Tables_number   1
_chemical_formula_structural   Er9Tm11Sn3Pb13
_chemical_formula_sum   'Er9 Tm11 Sn3 Pb13'
_cell_volume   1024.94179053
_cell_formula_units_Z   1
loop_
 _symmetry_equiv_pos_site_id
 _symmetry_equiv_pos_as_xyz
  1  'x, y, z'
loop_
 _atom_site_type_symbol
 _atom_site_label
 _atom_site_symmetry_multiplicity
 _atom_site_fract_x
 _atom_site_fract_y
 _atom_site_fract_z
 _atom_site_occupancy
  Er  Er0  1  0.878836  0.661734  0.876619  1
  Er  Er1  1  0.538257  0.327360  0.898316  1
  Er  Er2  1  0.037778  0.172211  0.601697  1
  Er  Er3  1  0.462264  0.672203  0.399571  1
  Er  Er4  1  0.962131  0.824219  0.099898  1
  Er  Er5  1  0.462279  0.672182  0.100437  1
  Er  Er6  1  0.962125  0.824192  0.400142  1
  Er  Er7  1  0.538269  0.327390  0.601671  1
  Er  Er8  1  0.037774  0.172200  0.898280  1
  Tm  Tm9  1  0.379496  0.838888  0.876501  1
  Tm  Tm10  1  0.878845  0.661707  0.623419  1
  Tm  Tm11  1  0.618590  0.161780  0.377652  1
  Tm  Tm12  1  0.123375  0.340810  0.121271  1
  Tm  Tm13  1  0.618590  0.161794  0.122355  1
  Tm  Tm14  1  0.123385  0.340791  0.378715  1
  Tm  Tm15  1  0.379513  0.838896  0.623493  1
  Tm  Tm16  1  0.211256  0.507752  0.749980  1
  Tm  Tm17  1  0.711401  0.992567  0.749981  1
  Tm  Tm18  1  0.787645  0.494289  0.249999  1
  Tm  Tm19  1  0.290842  0.006776  0.249998  1
  Sn  Sn20  1  0.574574  0.624299  0.749975  1
  Sn  Sn21  1  0.074391  0.875722  0.749963  1
  Sn  Sn22  1  0.425144  0.375710  0.250003  1
  Pb  Pb23  1  0.281482  0.031833  0.041590  1
  Pb  Pb24  1  0.781947  0.467105  0.458582  1
  Pb  Pb25  1  0.717775  0.967906  0.541872  1
  Pb  Pb26  1  0.218037  0.532982  0.957386  1
  Pb  Pb27  1  0.717713  0.968009  0.958139  1
  Pb  Pb28  1  0.217936  0.533002  0.542628  1
  Pb  Pb29  1  0.281483  0.031843  0.458408  1
  Pb  Pb30  1  0.781907  0.467032  0.041480  1
  Pb  Pb31  1  0.926919  0.125469  0.249996  1
  Pb  Pb32  1  0.349240  0.153536  0.750006  1
  Pb  Pb33  1  0.848358  0.346834  0.749977  1
  Pb  Pb34  1  0.649932  0.845482  0.250001  1
  Pb  Pb35  1  0.150510  0.653497  0.249998  1
