# generated using pymatgen
data_CaNd19Si15Ru
_symmetry_space_group_name_H-M   'P 1'
_cell_length_a   7.77345011
_cell_length_b   7.92011059
_cell_length_c   15.14477258
_cell_angle_alpha   89.76679982
_cell_angle_beta   89.60012115
_cell_angle_gamma   89.86984858
_symmetry_Int_Tables_number   1
_chemical_formula_structural   CaNd19Si15Ru
_chemical_formula_sum   'Ca1 Nd19 Si15 Ru1'
_cell_volume   932.37914455
_cell_formula_units_Z   1
loop_
 _symmetry_equiv_pos_site_id
 _symmetry_equiv_pos_as_xyz
  1  'x, y, z'
loop_
 _atom_site_type_symbol
 _atom_site_label
 _atom_site_symmetry_multiplicity
 _atom_site_fract_x
 _atom_site_fract_y
 _atom_site_fract_z
 _atom_site_occupancy
  Ca  Ca0  1  0.137972  0.508224  0.748899  1
  Nd  Nd1  1  0.814092  0.334909  0.612607  1
  Nd  Nd2  1  0.454401  0.686297  0.897520  1
  Nd  Nd3  1  0.957710  0.813102  0.897544  1
  Nd  Nd4  1  0.185721  0.683572  0.121066  1
  Nd  Nd5  1  0.690801  0.818249  0.121040  1
  Nd  Nd6  1  0.307594  0.178948  0.878037  1
  Nd  Nd7  1  0.185863  0.680747  0.379654  1
  Nd  Nd8  1  0.043936  0.189143  0.103842  1
  Nd  Nd9  1  0.310600  0.181378  0.622269  1
  Nd  Nd10  1  0.858819  0.492359  0.261923  1
  Nd  Nd11  1  0.365516  0.007328  0.254261  1
  Nd  Nd12  1  0.535351  0.316542  0.398979  1
  Nd  Nd13  1  0.813183  0.317855  0.878125  1
  Nd  Nd14  1  0.963269  0.810161  0.598603  1
  Nd  Nd15  1  0.459088  0.684495  0.601339  1
  Nd  Nd16  1  0.039761  0.189037  0.401582  1
  Nd  Nd17  1  0.695538  0.810440  0.384867  1
  Nd  Nd18  1  0.638906  0.996936  0.747749  1
  Nd  Nd19  1  0.545161  0.312650  0.103449  1
  Si  Si20  1  0.479348  0.602972  0.245534  1
  Si  Si21  1  0.252981  0.378952  0.247286  1
  Si  Si22  1  0.520373  0.400506  0.750969  1
  Si  Si23  1  0.631154  0.024721  0.957635  1
  Si  Si24  1  0.015638  0.095996  0.748434  1
  Si  Si25  1  0.744368  0.622716  0.750789  1
  Si  Si26  1  0.750383  0.119721  0.248078  1
  Si  Si27  1  0.365570  0.970703  0.462109  1
  Si  Si28  1  0.982666  0.903584  0.248544  1
  Si  Si29  1  0.364554  0.975397  0.041005  1
  Si  Si30  1  0.634159  0.023747  0.542752  1
  Si  Si31  1  0.134744  0.473487  0.960676  1
  Si  Si32  1  0.146230  0.473461  0.537524  1
  Si  Si33  1  0.864838  0.525987  0.039317  1
  Si  Si34  1  0.247114  0.879099  0.750669  1
  Ru  Ru35  1  0.862603  0.516581  0.455323  1
