# generated using pymatgen
data_Yb2Ga3SiPt4
_symmetry_space_group_name_H-M   'P 1'
_cell_length_a   4.21703900
_cell_length_b   4.21703900
_cell_length_c   10.48436400
_cell_angle_alpha   90.00000000
_cell_angle_beta   90.00000000
_cell_angle_gamma   90.00000000
_symmetry_Int_Tables_number   1
_chemical_formula_structural   Yb2Ga3SiPt4
_chemical_formula_sum   'Yb2 Ga3 Si1 Pt4'
_cell_volume   186.44782672
_cell_formula_units_Z   1
loop_
 _symmetry_equiv_pos_site_id
 _symmetry_equiv_pos_as_xyz
  1  'x, y, z'
loop_
 _atom_site_type_symbol
 _atom_site_label
 _atom_site_symmetry_multiplicity
 _atom_site_fract_x
 _atom_site_fract_y
 _atom_site_fract_z
 _atom_site_occupancy
  Yb  Yb0  1  0.000000  0.500000  0.248638  1
  Yb  Yb1  1  0.500000  0.000000  0.748545  1
  Ga  Ga2  1  0.000000  0.000000  0.495760  1
  Ga  Ga3  1  0.500000  0.500000  0.495760  1
  Ga  Ga4  1  0.000000  0.500000  0.873355  1
  Si  Si5  1  0.500000  0.000000  0.126016  1
  Pt  Pt6  1  0.000000  0.000000  0.011381  1
  Pt  Pt7  1  0.500000  0.500000  0.011381  1
  Pt  Pt8  1  0.000000  0.500000  0.637305  1
  Pt  Pt9  1  0.500000  0.000000  0.351859  1
