# generated using pymatgen
data_La16Dy4Ir11Rh
_symmetry_space_group_name_H-M   'P 1'
_cell_length_a   11.37404400
_cell_length_b   11.37404400
_cell_length_c   6.58702300
_cell_angle_alpha   90.00000000
_cell_angle_beta   90.00000000
_cell_angle_gamma   90.00000000
_symmetry_Int_Tables_number   1
_chemical_formula_structural   La16Dy4Ir11Rh
_chemical_formula_sum   'La16 Dy4 Ir11 Rh1'
_cell_volume   852.15576772
_cell_formula_units_Z   1
loop_
 _symmetry_equiv_pos_site_id
 _symmetry_equiv_pos_as_xyz
  1  'x, y, z'
loop_
 _atom_site_type_symbol
 _atom_site_label
 _atom_site_symmetry_multiplicity
 _atom_site_fract_x
 _atom_site_fract_y
 _atom_site_fract_z
 _atom_site_occupancy
  La  La0  1  0.288086  0.088836  0.392813  1
  La  La1  1  0.287533  0.911007  0.890011  1
  La  La2  1  0.712467  0.088993  0.890011  1
  La  La3  1  0.711914  0.911164  0.392813  1
  La  La4  1  0.588993  0.787533  0.890011  1
  La  La5  1  0.588836  0.211914  0.392813  1
  La  La6  1  0.411164  0.788086  0.392813  1
  La  La7  1  0.411007  0.212467  0.890011  1
  La  La8  1  0.211655  0.411534  0.608885  1
  La  La9  1  0.211694  0.588874  0.109073  1
  La  La10  1  0.788306  0.411126  0.109073  1
  La  La11  1  0.788345  0.588466  0.608885  1
  La  La12  1  0.911126  0.711694  0.109073  1
  La  La13  1  0.911534  0.288345  0.608885  1
  La  La14  1  0.088466  0.711655  0.608885  1
  La  La15  1  0.088874  0.288306  0.109073  1
  Dy  Dy16  1  0.000000  0.000000  0.500077  1
  Dy  Dy17  1  0.000000  0.000000  0.000164  1
  Dy  Dy18  1  0.500000  0.500000  0.000164  1
  Dy  Dy19  1  0.500000  0.500000  0.500077  1
  Ir  Ir20  1  0.850042  0.147858  0.250185  1
  Ir  Ir21  1  0.851203  0.851045  0.749473  1
  Ir  Ir22  1  0.148797  0.148955  0.749473  1
  Ir  Ir23  1  0.149958  0.852142  0.250185  1
  Ir  Ir24  1  0.648955  0.351203  0.749473  1
  Ir  Ir25  1  0.647858  0.649958  0.250185  1
  Ir  Ir26  1  0.352142  0.350042  0.250185  1
  Ir  Ir27  1  0.351045  0.648797  0.749473  1
  Ir  Ir28  1  0.500000  0.000000  0.624250  1
  Ir  Ir29  1  0.000000  0.500000  0.877948  1
  Ir  Ir30  1  0.000000  0.500000  0.377920  1
  Rh  Rh31  1  0.500000  0.000000  0.117644  1
