# generated using pymatgen
data_RbLi6RhO6
_symmetry_space_group_name_H-M   'P 1'
_cell_length_a   5.36328016
_cell_length_b   5.36328017
_cell_length_c   5.36327986
_cell_angle_alpha   101.25720077
_cell_angle_beta   101.25720263
_cell_angle_gamma   101.25720175
_symmetry_Int_Tables_number   1
_chemical_formula_structural   RbLi6RhO6
_chemical_formula_sum   'Rb1 Li6 Rh1 O6'
_cell_volume   143.96262065
_cell_formula_units_Z   1
loop_
 _symmetry_equiv_pos_site_id
 _symmetry_equiv_pos_as_xyz
  1  'x, y, z'
loop_
 _atom_site_type_symbol
 _atom_site_label
 _atom_site_symmetry_multiplicity
 _atom_site_fract_x
 _atom_site_fract_y
 _atom_site_fract_z
 _atom_site_occupancy
  Rb  Rb0  1  0.500000  0.500000  0.500000  1
  Li  Li1  1  0.000000  0.336675  0.663325  1
  Li  Li2  1  0.663325  0.000000  0.336675  1
  Li  Li3  1  0.663325  0.336675  0.000000  1
  Li  Li4  1  0.336675  0.000000  0.663325  1
  Li  Li5  1  0.000000  0.663325  0.336675  1
  Li  Li6  1  0.336675  0.663325  0.000000  1
  Rh  Rh7  1  0.000000  0.000000  0.000000  1
  O  O8  1  0.080367  0.726718  0.726718  1
  O  O9  1  0.726718  0.726718  0.080367  1
  O  O10  1  0.919633  0.273282  0.273282  1
  O  O11  1  0.273282  0.273282  0.919633  1
  O  O12  1  0.273282  0.919633  0.273282  1
  O  O13  1  0.726718  0.080367  0.726718  1
