# generated using pymatgen
data_YbNpF6
_symmetry_space_group_name_H-M   'P 1'
_cell_length_a   4.60051900
_cell_length_b   6.34857100
_cell_length_c   6.97240300
_cell_angle_alpha   90.00000000
_cell_angle_beta   90.00000000
_cell_angle_gamma   90.00000000
_symmetry_Int_Tables_number   1
_chemical_formula_structural   YbNpF6
_chemical_formula_sum   'Yb2 Np2 F12'
_cell_volume   203.64103266
_cell_formula_units_Z   2
loop_
 _symmetry_equiv_pos_site_id
 _symmetry_equiv_pos_as_xyz
  1  'x, y, z'
loop_
 _atom_site_type_symbol
 _atom_site_label
 _atom_site_symmetry_multiplicity
 _atom_site_fract_x
 _atom_site_fract_y
 _atom_site_fract_z
 _atom_site_occupancy
  Yb  Yb0  1  0.547637  0.133924  0.750000  1
  Yb  Yb1  1  0.047637  0.366076  0.250000  1
  Np  Np2  1  0.949691  0.623635  0.750000  1
  Np  Np3  1  0.449691  0.876365  0.250000  1
  F  F4  1  0.103522  0.952815  0.750000  1
  F  F5  1  0.603522  0.547185  0.250000  1
  F  F6  1  0.401794  0.482608  0.750000  1
  F  F7  1  0.901794  0.017392  0.250000  1
  F  F8  1  0.366842  0.161754  0.065314  1
  F  F9  1  0.866842  0.338246  0.934686  1
  F  F10  1  0.131836  0.666901  0.437439  1
  F  F11  1  0.631836  0.833099  0.562561  1
  F  F12  1  0.631836  0.833099  0.937439  1
  F  F13  1  0.131836  0.666901  0.062561  1
  F  F14  1  0.866842  0.338246  0.565314  1
  F  F15  1  0.366842  0.161754  0.434686  1
