# generated using pymatgen
data_Y3Er7In8(IrPd)2
_symmetry_space_group_name_H-M   'P 1'
_cell_length_a   3.61331500
_cell_length_b   8.12156978
_cell_length_c   18.21859993
_cell_angle_alpha   90.02910783
_cell_angle_beta   90.00000000
_cell_angle_gamma   90.00000000
_symmetry_Int_Tables_number   1
_chemical_formula_structural   Y3Er7In8(IrPd)2
_chemical_formula_sum   'Y3 Er7 In8 Ir2 Pd2'
_cell_volume   534.63913699
_cell_formula_units_Z   1
loop_
 _symmetry_equiv_pos_site_id
 _symmetry_equiv_pos_as_xyz
  1  'x, y, z'
loop_
 _atom_site_type_symbol
 _atom_site_label
 _atom_site_symmetry_multiplicity
 _atom_site_fract_x
 _atom_site_fract_y
 _atom_site_fract_z
 _atom_site_occupancy
  Y  Y0  1  0.000000  0.500005  0.500011  1
  Y  Y1  1  0.000000  0.999995  0.999959  1
  Y  Y2  1  0.000000  0.728397  0.277831  1
  Er  Er3  1  0.000000  0.272018  0.722624  1
  Er  Er4  1  0.000000  0.746894  0.779903  1
  Er  Er5  1  0.000000  0.252870  0.220067  1
  Er  Er6  1  0.000000  0.613074  0.087190  1
  Er  Er7  1  0.000000  0.386699  0.912658  1
  Er  Er8  1  0.000000  0.885015  0.584730  1
  Er  Er9  1  0.000000  0.115061  0.415356  1
  In  In10  1  0.500000  0.708361  0.932148  1
  In  In11  1  0.500000  0.291397  0.067789  1
  In  In12  1  0.500000  0.792326  0.432509  1
  In  In13  1  0.500000  0.208027  0.567987  1
  In  In14  1  0.500000  0.579215  0.648417  1
  In  In15  1  0.500000  0.419971  0.351680  1
  In  In16  1  0.500000  0.922799  0.149824  1
  In  In17  1  0.500000  0.077553  0.849911  1
  Ir  Ir18  1  0.500000  0.517300  0.194979  1
  Ir  Ir19  1  0.500000  0.480643  0.804253  1
  Pd  Pd20  1  0.500000  0.980652  0.696047  1
  Pd  Pd21  1  0.500000  0.021728  0.304124  1
