# generated using pymatgen
data_Lu4Ge3As3Ir7
_symmetry_space_group_name_H-M   'P 1'
_cell_length_a   7.21225240
_cell_length_b   7.21225352
_cell_length_c   7.21796800
_cell_angle_alpha   109.48726894
_cell_angle_beta   109.48727208
_cell_angle_gamma   109.45516526
_symmetry_Int_Tables_number   1
_chemical_formula_structural   Lu4Ge3As3Ir7
_chemical_formula_sum   'Lu4 Ge3 As3 Ir7'
_cell_volume   288.96743593
_cell_formula_units_Z   1
loop_
 _symmetry_equiv_pos_site_id
 _symmetry_equiv_pos_as_xyz
  1  'x, y, z'
loop_
 _atom_site_type_symbol
 _atom_site_label
 _atom_site_symmetry_multiplicity
 _atom_site_fract_x
 _atom_site_fract_y
 _atom_site_fract_z
 _atom_site_occupancy
  Lu  Lu0  1  0.000000  0.000000  0.501485  1
  Lu  Lu1  1  0.000000  0.499070  0.998757  1
  Lu  Lu2  1  0.499070  0.000000  0.998757  1
  Lu  Lu3  1  0.500930  0.500930  0.499687  1
  Ge  Ge4  1  0.313189  0.313189  0.998174  1
  Ge  Ge5  1  0.686811  0.000000  0.684985  1
  Ge  Ge6  1  0.000000  0.686811  0.684985  1
  As  As7  1  0.679379  0.679379  0.998473  1
  As  As8  1  0.320621  0.000000  0.319094  1
  As  As9  1  0.000000  0.320621  0.319094  1
  Ir  Ir10  1  0.751494  0.251563  0.501199  1
  Ir  Ir11  1  0.748437  0.499931  0.249636  1
  Ir  Ir12  1  0.500069  0.248506  0.749705  1
  Ir  Ir13  1  0.248506  0.500069  0.749705  1
  Ir  Ir14  1  0.251563  0.751494  0.501199  1
  Ir  Ir15  1  0.499931  0.748437  0.249636  1
  Ir  Ir16  1  0.000000  0.000000  0.995432  1
