# generated using pymatgen
data_Ta5Ti7Al8(IrN)4
_symmetry_space_group_name_H-M   'P 1'
_cell_length_a   8.20673066
_cell_length_b   8.19846707
_cell_length_c   8.20490337
_cell_angle_alpha   60.02397178
_cell_angle_beta   59.93813709
_cell_angle_gamma   60.03544151
_symmetry_Int_Tables_number   1
_chemical_formula_structural   Ta5Ti7Al8(IrN)4
_chemical_formula_sum   'Ta5 Ti7 Al8 Ir4 N4'
_cell_volume   390.34850641
_cell_formula_units_Z   1
loop_
 _symmetry_equiv_pos_site_id
 _symmetry_equiv_pos_as_xyz
  1  'x, y, z'
loop_
 _atom_site_type_symbol
 _atom_site_label
 _atom_site_symmetry_multiplicity
 _atom_site_fract_x
 _atom_site_fract_y
 _atom_site_fract_z
 _atom_site_occupancy
  Ta  Ta0  1  0.812876  0.814477  0.186864  1
  Ta  Ta1  1  0.060874  0.436432  0.438471  1
  Ta  Ta2  1  0.439048  0.062855  0.061721  1
  Ta  Ta3  1  0.062271  0.064939  0.437491  1
  Ta  Ta4  1  0.062037  0.437314  0.063554  1
  Ti  Ti5  1  0.437157  0.062406  0.437235  1
  Ti  Ti6  1  0.185395  0.813979  0.186443  1
  Ti  Ti7  1  0.185926  0.815418  0.812999  1
  Ti  Ti8  1  0.813035  0.184363  0.187193  1
  Ti  Ti9  1  0.813808  0.185671  0.813513  1
  Ti  Ti10  1  0.438335  0.435675  0.061872  1
  Ti  Ti11  1  0.186820  0.185029  0.812796  1
  Al  Al12  1  0.415671  0.752258  0.417561  1
  Al  Al13  1  0.834717  0.835954  0.497093  1
  Al  Al14  1  0.495601  0.833728  0.834806  1
  Al  Al15  1  0.835845  0.835273  0.832509  1
  Al  Al16  1  0.749365  0.416007  0.416772  1
  Al  Al17  1  0.417368  0.414411  0.414529  1
  Al  Al18  1  0.416589  0.417903  0.751270  1
  Al  Al19  1  0.833601  0.495168  0.835721  1
  Ir  Ir20  1  0.623437  0.124953  0.626301  1
  Ir  Ir21  1  0.624180  0.625268  0.124616  1
  Ir  Ir22  1  0.125420  0.623687  0.624915  1
  Ir  Ir23  1  0.625356  0.625511  0.625202  1
  N  N24  1  0.130249  0.626520  0.122247  1
  N  N25  1  0.126782  0.122909  0.628901  1
  N  N26  1  0.624201  0.129048  0.125387  1
  N  N27  1  0.124035  0.122842  0.122017  1
