# generated using pymatgen
data_K4Li2ErAlBi4
_symmetry_space_group_name_H-M   'P 1'
_cell_length_a   9.71229552
_cell_length_b   9.71229641
_cell_length_c   9.71229470
_cell_angle_alpha   137.19294835
_cell_angle_beta   61.84355551
_cell_angle_gamma   137.58124591
_symmetry_Int_Tables_number   1
_chemical_formula_structural   K4Li2ErAlBi4
_chemical_formula_sum   'K4 Li2 Er1 Al1 Bi4'
_cell_volume   415.05200532
_cell_formula_units_Z   1
loop_
 _symmetry_equiv_pos_site_id
 _symmetry_equiv_pos_as_xyz
  1  'x, y, z'
loop_
 _atom_site_type_symbol
 _atom_site_label
 _atom_site_symmetry_multiplicity
 _atom_site_fract_x
 _atom_site_fract_y
 _atom_site_fract_z
 _atom_site_occupancy
  K  K0  1  0.334224  0.772174  0.095044  1
  K  K1  1  0.165776  0.260819  0.437947  1
  K  K2  1  0.822871  0.727827  0.562052  1
  K  K3  1  0.677130  0.239181  0.904956  1
  Li  Li4  1  0.750000  0.250000  0.500000  1
  Li  Li5  1  0.250000  0.749999  0.500000  1
  Er  Er6  1  0.250000  0.250000  0.000000  1
  Al  Al7  1  0.750000  0.750000  0.000000  1
  Bi  Bi8  1  0.884459  0.225852  0.140050  1
  Bi  Bi9  1  0.615543  0.755592  0.341394  1
  Bi  Bi10  1  0.414198  0.274149  0.658606  1
  Bi  Bi11  1  0.085802  0.744409  0.859951  1
