# generated using pymatgen
data_La2Pr6InPd24
_symmetry_space_group_name_H-M   'P 1'
_cell_length_a   8.58321156
_cell_length_b   8.58321112
_cell_length_c   8.58321100
_cell_angle_alpha   89.97926642
_cell_angle_beta   90.02073358
_cell_angle_gamma   90.02073441
_symmetry_Int_Tables_number   1
_chemical_formula_structural   La2Pr6InPd24
_chemical_formula_sum   'La2 Pr6 In1 Pd24'
_cell_volume   632.33805054
_cell_formula_units_Z   1
loop_
 _symmetry_equiv_pos_site_id
 _symmetry_equiv_pos_as_xyz
  1  'x, y, z'
loop_
 _atom_site_type_symbol
 _atom_site_label
 _atom_site_symmetry_multiplicity
 _atom_site_fract_x
 _atom_site_fract_y
 _atom_site_fract_z
 _atom_site_occupancy
  La  La0  1  0.252550  0.747450  0.747450  1
  La  La1  1  0.747450  0.252550  0.252550  1
  Pr  Pr2  1  0.251697  0.251748  0.251748  1
  Pr  Pr3  1  0.748303  0.748252  0.748252  1
  Pr  Pr4  1  0.748252  0.748303  0.251748  1
  Pr  Pr5  1  0.748252  0.251748  0.748303  1
  Pr  Pr6  1  0.251748  0.251697  0.748252  1
  Pr  Pr7  1  0.251748  0.748252  0.251697  1
  In  In8  1  0.000000  0.000000  0.000000  1
  Pd  Pd9  1  0.267502  0.499961  0.999974  1
  Pd  Pd10  1  0.732498  0.500039  0.000026  1
  Pd  Pd11  1  0.999974  0.267502  0.500039  1
  Pd  Pd12  1  0.499961  0.267502  0.000026  1
  Pd  Pd13  1  0.000026  0.732498  0.499961  1
  Pd  Pd14  1  0.500039  0.732498  0.999974  1
  Pd  Pd15  1  0.499961  0.000026  0.267502  1
  Pd  Pd16  1  0.267502  0.999974  0.499961  1
  Pd  Pd17  1  0.500039  0.999974  0.732498  1
  Pd  Pd18  1  0.732498  0.000026  0.500039  1
  Pd  Pd19  1  0.999974  0.500039  0.267502  1
  Pd  Pd20  1  0.000026  0.499961  0.732498  1
  Pd  Pd21  1  0.255502  0.499966  0.499966  1
  Pd  Pd22  1  0.744498  0.500034  0.500034  1
  Pd  Pd23  1  0.499966  0.255502  0.500034  1
  Pd  Pd24  1  0.500034  0.744498  0.499966  1
  Pd  Pd25  1  0.499966  0.500034  0.255502  1
  Pd  Pd26  1  0.500034  0.499966  0.744498  1
  Pd  Pd27  1  0.314302  0.000220  0.000220  1
  Pd  Pd28  1  0.685698  0.999780  0.999780  1
  Pd  Pd29  1  0.000220  0.314302  0.999780  1
  Pd  Pd30  1  0.999780  0.685698  0.000220  1
  Pd  Pd31  1  0.000220  0.999780  0.314302  1
  Pd  Pd32  1  0.999780  0.000220  0.685698  1
