# generated using pymatgen
data_Pr5(Tl2Pd)2
_symmetry_space_group_name_H-M   'P 1'
_cell_length_a   8.34362600
_cell_length_b   18.90097200
_cell_length_c   3.82626300
_cell_angle_alpha   90.00000000
_cell_angle_beta   90.00000000
_cell_angle_gamma   90.00000000
_symmetry_Int_Tables_number   1
_chemical_formula_structural   Pr5(Tl2Pd)2
_chemical_formula_sum   'Pr10 Tl8 Pd4'
_cell_volume   603.41178181
_cell_formula_units_Z   2
loop_
 _symmetry_equiv_pos_site_id
 _symmetry_equiv_pos_as_xyz
  1  'x, y, z'
loop_
 _atom_site_type_symbol
 _atom_site_label
 _atom_site_symmetry_multiplicity
 _atom_site_fract_x
 _atom_site_fract_y
 _atom_site_fract_z
 _atom_site_occupancy
  Pr  Pr0  1  0.500000  0.500000  0.000000  1
  Pr  Pr1  1  0.000000  0.000000  0.000000  1
  Pr  Pr2  1  0.741771  0.281601  0.000000  1
  Pr  Pr3  1  0.258229  0.718399  0.000000  1
  Pr  Pr4  1  0.758229  0.781601  0.000000  1
  Pr  Pr5  1  0.241771  0.218399  0.000000  1
  Pr  Pr6  1  0.621163  0.084535  0.000000  1
  Pr  Pr7  1  0.378837  0.915465  0.000000  1
  Pr  Pr8  1  0.878837  0.584535  0.000000  1
  Pr  Pr9  1  0.121163  0.415465  0.000000  1
  Tl  Tl10  1  0.705010  0.931988  0.500000  1
  Tl  Tl11  1  0.294990  0.068012  0.500000  1
  Tl  Tl12  1  0.794990  0.431988  0.500000  1
  Tl  Tl13  1  0.205010  0.568012  0.500000  1
  Tl  Tl14  1  0.579385  0.650578  0.500000  1
  Tl  Tl15  1  0.420615  0.349422  0.500000  1
  Tl  Tl16  1  0.920615  0.150578  0.500000  1
  Tl  Tl17  1  0.079385  0.849422  0.500000  1
  Pd  Pd18  1  0.524683  0.196321  0.500000  1
  Pd  Pd19  1  0.475317  0.803679  0.500000  1
  Pd  Pd20  1  0.975317  0.696321  0.500000  1
  Pd  Pd21  1  0.024683  0.303679  0.500000  1
