# generated using pymatgen
data_K8Li4ErIn3As8
_symmetry_space_group_name_H-M   'P 1'
_cell_length_a   10.23294022
_cell_length_b   10.23294076
_cell_length_c   6.53631068
_cell_angle_alpha   89.89164128
_cell_angle_beta   90.10835898
_cell_angle_gamma   100.70088940
_symmetry_Int_Tables_number   1
_chemical_formula_structural   K8Li4ErIn3As8
_chemical_formula_sum   'K8 Li4 Er1 In3 As8'
_cell_volume   672.53271451
_cell_formula_units_Z   1
loop_
 _symmetry_equiv_pos_site_id
 _symmetry_equiv_pos_as_xyz
  1  'x, y, z'
loop_
 _atom_site_type_symbol
 _atom_site_label
 _atom_site_symmetry_multiplicity
 _atom_site_fract_x
 _atom_site_fract_y
 _atom_site_fract_z
 _atom_site_occupancy
  K  K0  1  0.572964  0.926796  0.751812  1
  K  K1  1  0.926796  0.572964  0.248188  1
  K  K2  1  0.425091  0.067302  0.244460  1
  K  K3  1  0.067302  0.425091  0.755540  1
  K  K4  1  0.679677  0.326903  0.783411  1
  K  K5  1  0.827486  0.173398  0.275515  1
  K  K6  1  0.326903  0.679677  0.216589  1
  K  K7  1  0.173398  0.827486  0.724485  1
  Li  Li8  1  0.621595  0.621595  0.000000  1
  Li  Li9  1  0.879454  0.879454  0.500000  1
  Li  Li10  1  0.379313  0.379313  0.000000  1
  Li  Li11  1  0.116887  0.116887  0.500000  1
  Er  Er12  1  0.373571  0.373571  0.500000  1
  In  In13  1  0.866643  0.866643  0.000000  1
  In  In14  1  0.631634  0.631634  0.500000  1
  In  In15  1  0.130442  0.130442  0.000000  1
  As  As16  1  0.349134  0.150381  0.751412  1
  As  As17  1  0.150381  0.349134  0.248588  1
  As  As18  1  0.649804  0.850351  0.252501  1
  As  As19  1  0.850351  0.649804  0.747499  1
  As  As20  1  0.901542  0.095051  0.768706  1
  As  As21  1  0.601300  0.403284  0.264296  1
  As  As22  1  0.095051  0.901542  0.231294  1
  As  As23  1  0.403284  0.601300  0.735704  1
