# generated using pymatgen
data_PrDy2Sc3MnBi2
_symmetry_space_group_name_H-M   'P 1'
_cell_length_a   4.34142500
_cell_length_b   8.00151158
_cell_length_c   8.00151157
_cell_angle_alpha   120.32186974
_cell_angle_beta   90.00000000
_cell_angle_gamma   90.00000000
_symmetry_Int_Tables_number   1
_chemical_formula_structural   PrDy2Sc3MnBi2
_chemical_formula_sum   'Pr1 Dy2 Sc3 Mn1 Bi2'
_cell_volume   239.93260763
_cell_formula_units_Z   1
loop_
 _symmetry_equiv_pos_site_id
 _symmetry_equiv_pos_as_xyz
  1  'x, y, z'
loop_
 _atom_site_type_symbol
 _atom_site_label
 _atom_site_symmetry_multiplicity
 _atom_site_fract_x
 _atom_site_fract_y
 _atom_site_fract_z
 _atom_site_occupancy
  Pr  Pr0  1  0.000000  0.394404  0.394404  1
  Dy  Dy1  1  0.000000  0.001248  0.612652  1
  Dy  Dy2  1  0.000000  0.612652  0.001248  1
  Sc  Sc3  1  0.500000  0.775539  0.775539  1
  Sc  Sc4  1  0.500000  0.998201  0.220454  1
  Sc  Sc5  1  0.500000  0.220454  0.998201  1
  Mn  Mn6  1  0.000000  0.993087  0.993087  1
  Bi  Bi7  1  0.500000  0.673072  0.331343  1
  Bi  Bi8  1  0.500000  0.331343  0.673072  1
