# generated using pymatgen
data_Dy4Er(In2Co)2
_symmetry_space_group_name_H-M   'P 1'
_cell_length_a   3.58357400
_cell_length_b   7.93008000
_cell_length_c   18.00975900
_cell_angle_alpha   90.00000000
_cell_angle_beta   90.00000000
_cell_angle_gamma   90.00000000
_symmetry_Int_Tables_number   1
_chemical_formula_structural   Dy4Er(In2Co)2
_chemical_formula_sum   'Dy8 Er2 In8 Co4'
_cell_volume   511.80184465
_cell_formula_units_Z   2
loop_
 _symmetry_equiv_pos_site_id
 _symmetry_equiv_pos_as_xyz
  1  'x, y, z'
loop_
 _atom_site_type_symbol
 _atom_site_label
 _atom_site_symmetry_multiplicity
 _atom_site_fract_x
 _atom_site_fract_y
 _atom_site_fract_z
 _atom_site_occupancy
  Dy  Dy0  1  0.500000  0.115917  0.090054  1
  Dy  Dy1  1  0.500000  0.753546  0.721642  1
  Dy  Dy2  1  0.500000  0.253546  0.778358  1
  Dy  Dy3  1  0.500000  0.499795  0.999812  1
  Dy  Dy4  1  0.500000  0.746955  0.221597  1
  Dy  Dy5  1  0.500000  0.246955  0.278403  1
  Dy  Dy6  1  0.500000  0.999795  0.500188  1
  Dy  Dy7  1  0.500000  0.615917  0.409946  1
  Er  Er8  1  0.500000  0.384356  0.590743  1
  Er  Er9  1  0.500000  0.884356  0.909257  1
  In  In10  1  0.000000  0.794345  0.069109  1
  In  In11  1  0.000000  0.929062  0.347506  1
  In  In12  1  0.000000  0.072475  0.652550  1
  In  In13  1  0.000000  0.572475  0.847450  1
  In  In14  1  0.000000  0.704242  0.569808  1
  In  In15  1  0.000000  0.204242  0.930192  1
  In  In16  1  0.000000  0.294345  0.430891  1
  In  In17  1  0.000000  0.429062  0.152494  1
  Co  Co18  1  0.000000  0.976919  0.805017  1
  Co  Co19  1  0.000000  0.522389  0.304805  1
  Co  Co20  1  0.000000  0.476919  0.694983  1
  Co  Co21  1  0.000000  0.022389  0.195195  1
