# generated using pymatgen
data_Tb20Ru7Pt5
_symmetry_space_group_name_H-M   'P 1'
_cell_length_a   10.95240745
_cell_length_b   10.95240788
_cell_length_c   6.48685640
_cell_angle_alpha   90.05846066
_cell_angle_beta   90.05846619
_cell_angle_gamma   89.70693267
_symmetry_Int_Tables_number   1
_chemical_formula_structural   Tb20Ru7Pt5
_chemical_formula_sum   'Tb20 Ru7 Pt5'
_cell_volume   778.12139067
_cell_formula_units_Z   1
loop_
 _symmetry_equiv_pos_site_id
 _symmetry_equiv_pos_as_xyz
  1  'x, y, z'
loop_
 _atom_site_type_symbol
 _atom_site_label
 _atom_site_symmetry_multiplicity
 _atom_site_fract_x
 _atom_site_fract_y
 _atom_site_fract_z
 _atom_site_occupancy
  Tb  Tb0  1  0.296780  0.089141  0.373894  1
  Tb  Tb1  1  0.297051  0.910001  0.873854  1
  Tb  Tb2  1  0.701747  0.083719  0.873342  1
  Tb  Tb3  1  0.702457  0.910475  0.375065  1
  Tb  Tb4  1  0.584019  0.789974  0.878753  1
  Tb  Tb5  1  0.582209  0.205589  0.373254  1
  Tb  Tb6  1  0.415294  0.792528  0.378191  1
  Tb  Tb7  1  0.412348  0.206700  0.880719  1
  Tb  Tb8  1  0.210026  0.415981  0.621247  1
  Tb  Tb9  1  0.207472  0.584706  0.121809  1
  Tb  Tb10  1  0.794411  0.417791  0.126746  1
  Tb  Tb11  1  0.793300  0.587652  0.619281  1
  Tb  Tb12  1  0.910859  0.703220  0.126106  1
  Tb  Tb13  1  0.916281  0.298253  0.626658  1
  Tb  Tb14  1  0.089999  0.702949  0.626146  1
  Tb  Tb15  1  0.089525  0.297543  0.124935  1
  Tb  Tb16  1  0.999969  0.999859  0.499497  1
  Tb  Tb17  1  0.000141  0.000031  0.000503  1
  Tb  Tb18  1  0.497235  0.501671  0.002322  1
  Tb  Tb19  1  0.498329  0.502765  0.497678  1
  Ru  Ru20  1  0.653273  0.651647  0.249051  1
  Ru  Ru21  1  0.348353  0.346727  0.250949  1
  Ru  Ru22  1  0.346299  0.653701  0.750000  1
  Ru  Ru23  1  0.499762  0.000319  0.121058  1
  Ru  Ru24  1  0.500115  0.000299  0.622830  1
  Ru  Ru25  1  0.999701  0.499885  0.877170  1
  Ru  Ru26  1  0.999681  0.500238  0.378942  1
  Pt  Pt27  1  0.847145  0.152855  0.250000  1
  Pt  Pt28  1  0.848654  0.849102  0.750085  1
  Pt  Pt29  1  0.150898  0.151346  0.749915  1
  Pt  Pt30  1  0.151845  0.848155  0.250000  1
  Pt  Pt31  1  0.654820  0.345180  0.750000  1
