# generated using pymatgen
data_Ho6MgCo(P3Rh4)4
_symmetry_space_group_name_H-M   'P 1'
_cell_length_a   3.89995100
_cell_length_b   11.18301300
_cell_length_c   12.81774800
_cell_angle_alpha   90.00000000
_cell_angle_beta   90.00000000
_cell_angle_gamma   90.00000000
_symmetry_Int_Tables_number   1
_chemical_formula_structural   Ho6MgCo(P3Rh4)4
_chemical_formula_sum   'Ho6 Mg1 Co1 P12 Rh16'
_cell_volume   559.02304210
_cell_formula_units_Z   1
loop_
 _symmetry_equiv_pos_site_id
 _symmetry_equiv_pos_as_xyz
  1  'x, y, z'
loop_
 _atom_site_type_symbol
 _atom_site_label
 _atom_site_symmetry_multiplicity
 _atom_site_fract_x
 _atom_site_fract_y
 _atom_site_fract_z
 _atom_site_occupancy
  Ho  Ho0  1  0.000000  0.500000  0.520052  1
  Ho  Ho1  1  0.500000  0.000000  0.478079  1
  Ho  Ho2  1  0.500000  0.820480  0.204113  1
  Ho  Ho3  1  0.500000  0.179520  0.204113  1
  Ho  Ho4  1  0.000000  0.686289  0.797238  1
  Ho  Ho5  1  0.000000  0.313711  0.797238  1
  Mg  Mg6  1  0.500000  0.500000  0.157385  1
  Co  Co7  1  0.500000  0.000000  0.021681  1
  P  P8  1  0.500000  0.315680  0.619040  1
  P  P9  1  0.500000  0.684320  0.619040  1
  P  P10  1  0.000000  0.185887  0.382120  1
  P  P11  1  0.000000  0.814113  0.382120  1
  P  P12  1  0.500000  0.500000  0.879119  1
  P  P13  1  0.000000  0.000000  0.119659  1
  P  P14  1  0.500000  0.856924  0.893662  1
  P  P15  1  0.500000  0.143076  0.893662  1
  P  P16  1  0.000000  0.663549  0.106419  1
  P  P17  1  0.000000  0.336451  0.106419  1
  P  P18  1  0.500000  0.500000  0.355704  1
  P  P19  1  0.000000  0.000000  0.646210  1
  Rh  Rh20  1  0.000000  0.500000  0.982584  1
  Rh  Rh21  1  0.500000  0.290278  0.433122  1
  Rh  Rh22  1  0.500000  0.709722  0.433122  1
  Rh  Rh23  1  0.000000  0.204571  0.571539  1
  Rh  Rh24  1  0.000000  0.795429  0.571539  1
  Rh  Rh25  1  0.500000  0.873838  0.711044  1
  Rh  Rh26  1  0.500000  0.126162  0.711044  1
  Rh  Rh27  1  0.000000  0.627236  0.288521  1
  Rh  Rh28  1  0.000000  0.372764  0.288521  1
  Rh  Rh29  1  0.500000  0.328574  0.993915  1
  Rh  Rh30  1  0.500000  0.671426  0.993915  1
  Rh  Rh31  1  0.000000  0.158577  0.004471  1
  Rh  Rh32  1  0.000000  0.841423  0.004471  1
  Rh  Rh33  1  0.000000  0.000000  0.828121  1
  Rh  Rh34  1  0.500000  0.500000  0.702409  1
  Rh  Rh35  1  0.000000  0.000000  0.298591  1
