# generated using pymatgen
data_Ti16Co7Re
_symmetry_space_group_name_H-M   'P 1'
_cell_length_a   7.95364300
_cell_length_b   7.95364357
_cell_length_c   8.06659265
_cell_angle_alpha   119.53788424
_cell_angle_beta   90.00000000
_cell_angle_gamma   120.00000179
_symmetry_Int_Tables_number   1
_chemical_formula_structural   Ti16Co7Re
_chemical_formula_sum   'Ti16 Co7 Re1'
_cell_volume   363.33377822
_cell_formula_units_Z   1
loop_
 _symmetry_equiv_pos_site_id
 _symmetry_equiv_pos_as_xyz
  1  'x, y, z'
loop_
 _atom_site_type_symbol
 _atom_site_label
 _atom_site_symmetry_multiplicity
 _atom_site_fract_x
 _atom_site_fract_y
 _atom_site_fract_z
 _atom_site_occupancy
  Ti  Ti0  1  0.980535  0.961070  0.007079  1
  Ti  Ti1  1  0.980535  0.526544  0.007079  1
  Ti  Ti2  1  0.546008  0.526544  0.007079  1
  Ti  Ti3  1  0.430692  0.861384  0.180957  1
  Ti  Ti4  1  0.430693  0.250267  0.180958  1
  Ti  Ti5  1  0.819574  0.250267  0.180959  1
  Ti  Ti6  1  0.188992  0.377984  0.437186  1
  Ti  Ti7  1  0.188992  0.748194  0.437186  1
  Ti  Ti8  1  0.559202  0.748194  0.437186  1
  Ti  Ti9  1  0.998367  0.996734  0.495100  1
  Ti  Ti10  1  0.815977  0.246369  0.562345  1
  Ti  Ti11  1  0.815977  0.631954  0.562345  1
  Ti  Ti12  1  0.430393  0.246369  0.562346  1
  Ti  Ti13  1  0.559358  0.118717  0.808342  1
  Ti  Ti14  1  0.189627  0.748984  0.808342  1
  Ti  Ti15  1  0.559358  0.748984  0.808342  1
  Co  Co16  1  0.781400  0.562798  0.237084  1
  Co  Co17  1  0.174285  0.955685  0.237084  1
  Co  Co18  1  0.781400  0.955685  0.237084  1
  Co  Co19  1  0.868512  0.081735  0.794958  1
  Co  Co20  1  0.213224  0.081735  0.794959  1
  Co  Co21  1  0.213224  0.426448  0.794959  1
  Co  Co22  1  0.767178  0.534357  0.801536  1
  Re  Re23  1  0.206506  0.413010  0.119514  1
