# generated using pymatgen
data_Er2ZnB2Ir4Ru
_symmetry_space_group_name_H-M   'P 1'
_cell_length_a   9.61945200
_cell_length_b   9.61945200
_cell_length_c   3.09179500
_cell_angle_alpha   90.00000000
_cell_angle_beta   90.00000000
_cell_angle_gamma   90.00000000
_symmetry_Int_Tables_number   1
_chemical_formula_structural   Er2ZnB2Ir4Ru
_chemical_formula_sum   'Er4 Zn2 B4 Ir8 Ru2'
_cell_volume   286.09571572
_cell_formula_units_Z   2
loop_
 _symmetry_equiv_pos_site_id
 _symmetry_equiv_pos_as_xyz
  1  'x, y, z'
loop_
 _atom_site_type_symbol
 _atom_site_label
 _atom_site_symmetry_multiplicity
 _atom_site_fract_x
 _atom_site_fract_y
 _atom_site_fract_z
 _atom_site_occupancy
  Er  Er0  1  0.325206  0.825206  0.000000  1
  Er  Er1  1  0.674794  0.174794  0.000000  1
  Er  Er2  1  0.174794  0.325206  0.000000  1
  Er  Er3  1  0.825206  0.674794  0.000000  1
  Zn  Zn4  1  0.500000  0.500000  0.000000  1
  Zn  Zn5  1  0.000000  0.000000  0.000000  1
  B  B6  1  0.122162  0.622162  0.000000  1
  B  B7  1  0.877838  0.377838  0.000000  1
  B  B8  1  0.377838  0.122162  0.000000  1
  B  B9  1  0.622162  0.877838  0.000000  1
  Ir  Ir10  1  0.569069  0.718522  0.500000  1
  Ir  Ir11  1  0.430931  0.281478  0.500000  1
  Ir  Ir12  1  0.930931  0.218522  0.500000  1
  Ir  Ir13  1  0.069069  0.781478  0.500000  1
  Ir  Ir14  1  0.781478  0.930931  0.500000  1
  Ir  Ir15  1  0.218522  0.069069  0.500000  1
  Ir  Ir16  1  0.281478  0.569069  0.500000  1
  Ir  Ir17  1  0.718522  0.430931  0.500000  1
  Ru  Ru18  1  0.000000  0.500000  0.500000  1
  Ru  Ru19  1  0.500000  0.000000  0.500000  1
