# generated using pymatgen
data_Ta3Ag(PO4)6
_symmetry_space_group_name_H-M   'P 1'
_cell_length_a   8.73688931
_cell_length_b   9.09241546
_cell_length_c   8.73699200
_cell_angle_alpha   89.99868559
_cell_angle_beta   59.99951352
_cell_angle_gamma   118.71391651
_symmetry_Int_Tables_number   1
_chemical_formula_structural   Ta3Ag(PO4)6
_chemical_formula_sum   'Ta3 Ag1 P6 O24'
_cell_volume   500.09169638
_cell_formula_units_Z   1
loop_
 _symmetry_equiv_pos_site_id
 _symmetry_equiv_pos_as_xyz
  1  'x, y, z'
loop_
 _atom_site_type_symbol
 _atom_site_label
 _atom_site_symmetry_multiplicity
 _atom_site_fract_x
 _atom_site_fract_y
 _atom_site_fract_z
 _atom_site_occupancy
  Ta  Ta0  1  0.287179  0.930666  0.356379  1
  Ta  Ta1  1  0.282912  0.424257  0.858520  1
  Ta  Ta2  1  0.713144  0.569635  0.143386  1
  Ag  Ag3  1  0.708779  0.063096  0.645584  1
  P  P4  1  0.783350  0.750800  0.751997  1
  P  P5  1  0.496847  0.248697  0.534961  1
  P  P6  1  0.502961  0.750830  0.464577  1
  P  P7  1  0.216966  0.248733  0.248024  1
  P  P8  1  0.783796  0.248718  0.968124  1
  P  P9  1  0.215514  0.750800  0.032412  1
  O  O10  1  0.681019  0.908401  0.461879  1
  O  O11  1  0.991251  0.708590  0.105191  1
  O  O12  1  0.217947  0.583382  0.001169  1
  O  O13  1  0.243597  0.787359  0.194191  1
  O  O14  1  0.991270  0.272324  0.926934  1
  O  O15  1  0.795410  0.415558  0.018299  1
  O  O16  1  0.767881  0.243535  0.804099  1
  O  O17  1  0.813957  0.708644  0.903477  1
  O  O18  1  0.981663  0.787330  0.562129  1
  O  O19  1  0.671642  0.243575  0.524228  1
  O  O20  1  0.765466  0.908325  0.772544  1
  O  O21  1  0.584673  0.583357  0.780865  1
  O  O22  1  0.593675  0.085487  0.146018  1
  O  O23  1  0.601833  0.415515  0.379734  1
  O  O24  1  0.199346  0.272279  0.081750  1
  O  O25  1  0.354152  0.272291  0.718829  1
  O  O26  1  0.612285  0.708649  0.282517  1
  O  O27  1  0.345875  0.085439  0.508082  1
  O  O28  1  0.370339  0.908333  0.857011  1
  O  O29  1  0.364409  0.583413  0.634417  1
  O  O30  1  0.231664  0.085526  0.260281  1
  O  O31  1  0.433987  0.415603  0.186182  1
  O  O32  1  0.349593  0.787308  0.456113  1
  O  O33  1  0.047752  0.243552  0.427966  1
