# generated using pymatgen
data_Dy5Er5Si5Pb
_symmetry_space_group_name_H-M   'P 1'
_cell_length_a   8.49828924
_cell_length_b   8.53314024
_cell_length_c   6.36424900
_cell_angle_alpha   90.00000000
_cell_angle_beta   90.00000000
_cell_angle_gamma   119.92685806
_symmetry_Int_Tables_number   1
_chemical_formula_structural   Dy5Er5Si5Pb
_chemical_formula_sum   'Dy5 Er5 Si5 Pb1'
_cell_volume   399.97956260
_cell_formula_units_Z   1
loop_
 _symmetry_equiv_pos_site_id
 _symmetry_equiv_pos_as_xyz
  1  'x, y, z'
loop_
 _atom_site_type_symbol
 _atom_site_label
 _atom_site_symmetry_multiplicity
 _atom_site_fract_x
 _atom_site_fract_y
 _atom_site_fract_z
 _atom_site_occupancy
  Dy  Dy0  1  0.998524  0.243167  0.250000  1
  Dy  Dy1  1  0.755828  0.757156  0.250000  1
  Dy  Dy2  1  0.766572  0.999886  0.750000  1
  Dy  Dy3  1  0.240591  0.252819  0.750000  1
  Dy  Dy4  1  0.240605  0.999843  0.250000  1
  Er  Er5  1  0.987334  0.746546  0.750000  1
  Er  Er6  1  0.675061  0.343986  0.003786  1
  Er  Er7  1  0.331146  0.656290  0.496147  1
  Er  Er8  1  0.331146  0.656290  0.003853  1
  Er  Er9  1  0.675061  0.343986  0.496214  1
  Si  Si10  1  0.394100  0.392531  0.250000  1
  Si  Si11  1  0.001507  0.607339  0.250000  1
  Si  Si12  1  0.998341  0.395277  0.750000  1
  Si  Si13  1  0.604276  0.605408  0.750000  1
  Si  Si14  1  0.605451  0.999969  0.250000  1
  Pb  Pb15  1  0.394456  0.999509  0.750000  1
