# generated using pymatgen
data_Tb3HoGa4Ir3Pd
_symmetry_space_group_name_H-M   'P 1'
_cell_length_a   4.36671800
_cell_length_b   6.86164617
_cell_length_c   7.79911127
_cell_angle_alpha   90.21546424
_cell_angle_beta   90.00000000
_cell_angle_gamma   90.00000000
_symmetry_Int_Tables_number   1
_chemical_formula_structural   Tb3HoGa4Ir3Pd
_chemical_formula_sum   'Tb3 Ho1 Ga4 Ir3 Pd1'
_cell_volume   233.68213442
_cell_formula_units_Z   1
loop_
 _symmetry_equiv_pos_site_id
 _symmetry_equiv_pos_as_xyz
  1  'x, y, z'
loop_
 _atom_site_type_symbol
 _atom_site_label
 _atom_site_symmetry_multiplicity
 _atom_site_fract_x
 _atom_site_fract_y
 _atom_site_fract_z
 _atom_site_occupancy
  Tb  Tb0  1  0.250000  0.031600  0.810045  1
  Tb  Tb1  1  0.250000  0.521437  0.684342  1
  Tb  Tb2  1  0.750000  0.979832  0.195114  1
  Ho  Ho3  1  0.750000  0.476591  0.310824  1
  Ga  Ga4  1  0.250000  0.156331  0.429753  1
  Ga  Ga5  1  0.250000  0.653509  0.070722  1
  Ga  Ga6  1  0.750000  0.845364  0.567365  1
  Ga  Ga7  1  0.750000  0.339300  0.930915  1
  Ir  Ir8  1  0.250000  0.766892  0.389712  1
  Ir  Ir9  1  0.250000  0.269408  0.110253  1
  Ir  Ir10  1  0.750000  0.231489  0.609833  1
  Pd  Pd11  1  0.750000  0.728248  0.891124  1
