# generated using pymatgen
data_Rb4Tb4Bi3(SbSe4)5
_symmetry_space_group_name_H-M   'P 1'
_cell_length_a   4.14160100
_cell_length_b   12.41742511
_cell_length_c   22.22493832
_cell_angle_alpha   90.17920938
_cell_angle_beta   90.00000000
_cell_angle_gamma   90.00000000
_symmetry_Int_Tables_number   1
_chemical_formula_structural   Rb4Tb4Bi3(SbSe4)5
_chemical_formula_sum   'Rb4 Tb4 Bi3 Sb5 Se20'
_cell_volume   1142.97898674
_cell_formula_units_Z   1
loop_
 _symmetry_equiv_pos_site_id
 _symmetry_equiv_pos_as_xyz
  1  'x, y, z'
loop_
 _atom_site_type_symbol
 _atom_site_label
 _atom_site_symmetry_multiplicity
 _atom_site_fract_x
 _atom_site_fract_y
 _atom_site_fract_z
 _atom_site_occupancy
  Rb  Rb0  1  0.250000  0.489288  0.210657  1
  Rb  Rb1  1  0.750000  0.511168  0.789717  1
  Rb  Rb2  1  0.750000  0.989746  0.289658  1
  Rb  Rb3  1  0.250000  0.010733  0.709884  1
  Tb  Tb4  1  0.250000  0.364645  0.024119  1
  Tb  Tb5  1  0.750000  0.635426  0.975948  1
  Tb  Tb6  1  0.750000  0.863723  0.476547  1
  Tb  Tb7  1  0.250000  0.135927  0.523704  1
  Bi  Bi8  1  0.750000  0.404668  0.574383  1
  Bi  Bi9  1  0.750000  0.095585  0.075210  1
  Bi  Bi10  1  0.250000  0.904496  0.924818  1
  Sb  Sb11  1  0.250000  0.805601  0.125995  1
  Sb  Sb12  1  0.750000  0.194426  0.874007  1
  Sb  Sb13  1  0.750000  0.307571  0.374737  1
  Sb  Sb14  1  0.250000  0.693570  0.625233  1
  Sb  Sb15  1  0.250000  0.597245  0.425272  1
  Se  Se16  1  0.250000  0.803485  0.389191  1
  Se  Se17  1  0.750000  0.189988  0.610953  1
  Se  Se18  1  0.750000  0.310795  0.111243  1
  Se  Se19  1  0.250000  0.689285  0.888835  1
  Se  Se20  1  0.250000  0.252688  0.299420  1
  Se  Se21  1  0.750000  0.748632  0.700419  1
  Se  Se22  1  0.750000  0.751252  0.201052  1
  Se  Se23  1  0.250000  0.248739  0.799025  1
  Se  Se24  1  0.250000  0.356079  0.480228  1
  Se  Se25  1  0.750000  0.642536  0.517626  1
  Se  Se26  1  0.750000  0.856466  0.019683  1
  Se  Se27  1  0.250000  0.143528  0.980454  1
  Se  Se28  1  0.250000  0.020014  0.159758  1
  Se  Se29  1  0.750000  0.979913  0.840391  1
  Se  Se30  1  0.750000  0.523422  0.343048  1
  Se  Se31  1  0.250000  0.480537  0.659392  1
  Se  Se32  1  0.250000  0.584022  0.061182  1
  Se  Se33  1  0.750000  0.416033  0.938907  1
  Se  Se34  1  0.750000  0.082338  0.438373  1
  Se  Se35  1  0.250000  0.916431  0.560929  1
