# generated using pymatgen
data_Y12Ho4Cd4RuPt3
_symmetry_space_group_name_H-M   'P 1'
_cell_length_a   9.70415868
_cell_length_b   9.70415895
_cell_length_c   9.70415913
_cell_angle_alpha   59.64538781
_cell_angle_beta   59.64538480
_cell_angle_gamma   59.64539221
_symmetry_Int_Tables_number   1
_chemical_formula_structural   Y12Ho4Cd4RuPt3
_chemical_formula_sum   'Y12 Ho4 Cd4 Ru1 Pt3'
_cell_volume   640.98095358
_cell_formula_units_Z   1
loop_
 _symmetry_equiv_pos_site_id
 _symmetry_equiv_pos_as_xyz
  1  'x, y, z'
loop_
 _atom_site_type_symbol
 _atom_site_label
 _atom_site_symmetry_multiplicity
 _atom_site_fract_x
 _atom_site_fract_y
 _atom_site_fract_z
 _atom_site_occupancy
  Y  Y0  1  0.814335  0.189294  0.189294  1
  Y  Y1  1  0.189466  0.809365  0.809365  1
  Y  Y2  1  0.189294  0.814335  0.189294  1
  Y  Y3  1  0.809365  0.189466  0.809365  1
  Y  Y4  1  0.189294  0.189294  0.814335  1
  Y  Y5  1  0.809365  0.809365  0.189466  1
  Y  Y6  1  0.936291  0.564617  0.564617  1
  Y  Y7  1  0.560373  0.936845  0.936845  1
  Y  Y8  1  0.564617  0.936291  0.564617  1
  Y  Y9  1  0.936845  0.560373  0.936845  1
  Y  Y10  1  0.564617  0.564617  0.936291  1
  Y  Y11  1  0.936845  0.936845  0.560373  1
  Ho  Ho12  1  0.351614  0.351614  0.351614  1
  Ho  Ho13  1  0.349294  0.349294  0.949340  1
  Ho  Ho14  1  0.349294  0.949340  0.349294  1
  Ho  Ho15  1  0.949340  0.349294  0.349294  1
  Cd  Cd16  1  0.580251  0.580251  0.580251  1
  Cd  Cd17  1  0.581208  0.581208  0.254735  1
  Cd  Cd18  1  0.581208  0.254735  0.581208  1
  Cd  Cd19  1  0.254735  0.581208  0.581208  1
  Ru  Ru20  1  0.143930  0.143930  0.143930  1
  Pt  Pt21  1  0.144472  0.144472  0.569470  1
  Pt  Pt22  1  0.144472  0.569470  0.144472  1
  Pt  Pt23  1  0.569470  0.144472  0.144472  1
