# generated using pymatgen
data_Si3SnI16
_symmetry_space_group_name_H-M   'P 1'
_cell_length_a   7.90984103
_cell_length_b   12.06604573
_cell_length_c   12.35504362
_cell_angle_alpha   102.55793471
_cell_angle_beta   89.99282169
_cell_angle_gamma   89.99441844
_symmetry_Int_Tables_number   1
_chemical_formula_structural   Si3SnI16
_chemical_formula_sum   'Si3 Sn1 I16'
_cell_volume   1150.96183745
_cell_formula_units_Z   1
loop_
 _symmetry_equiv_pos_site_id
 _symmetry_equiv_pos_as_xyz
  1  'x, y, z'
loop_
 _atom_site_type_symbol
 _atom_site_label
 _atom_site_symmetry_multiplicity
 _atom_site_fract_x
 _atom_site_fract_y
 _atom_site_fract_z
 _atom_site_occupancy
  Si  Si0  1  0.070553  0.248706  0.357035  1
  Si  Si1  1  0.928395  0.751109  0.642855  1
  Si  Si2  1  0.428778  0.248854  0.856962  1
  Sn  Sn3  1  0.572593  0.750878  0.142879  1
  I  I4  1  0.574471  0.201315  0.016459  1
  I  I5  1  0.897235  0.691749  0.087963  1
  I  I6  1  0.068173  0.083500  0.200649  1
  I  I7  1  0.412080  0.575010  0.203375  1
  I  I8  1  0.926350  0.408536  0.302506  1
  I  I9  1  0.567302  0.933637  0.315154  1
  I  I10  1  0.364465  0.302724  0.407942  1
  I  I11  1  0.074088  0.799141  0.483600  1
  I  I12  1  0.926059  0.201719  0.517256  1
  I  I13  1  0.634304  0.697615  0.592063  1
  I  I14  1  0.432341  0.083589  0.700646  1
  I  I15  1  0.072568  0.590717  0.696369  1
  I  I16  1  0.573058  0.408961  0.802731  1
  I  I17  1  0.932231  0.916828  0.798836  1
  I  I18  1  0.134473  0.302115  0.907323  1
  I  I19  1  0.410477  0.803300  0.967398  1
