# generated using pymatgen
data_Y2Ti3Si7Pt9
_symmetry_space_group_name_H-M   'P 1'
_cell_length_a   9.92023000
_cell_length_b   9.92022983
_cell_length_c   3.95248000
_cell_angle_alpha   90.00000000
_cell_angle_beta   90.00000000
_cell_angle_gamma   120.00000055
_symmetry_Int_Tables_number   1
_chemical_formula_structural   Y2Ti3Si7Pt9
_chemical_formula_sum   'Y2 Ti3 Si7 Pt9'
_cell_volume   336.85561100
_cell_formula_units_Z   1
loop_
 _symmetry_equiv_pos_site_id
 _symmetry_equiv_pos_as_xyz
  1  'x, y, z'
loop_
 _atom_site_type_symbol
 _atom_site_label
 _atom_site_symmetry_multiplicity
 _atom_site_fract_x
 _atom_site_fract_y
 _atom_site_fract_z
 _atom_site_occupancy
  Y  Y0  1  0.000000  0.000000  0.000000  1
  Y  Y1  1  0.333333  0.666667  0.500000  1
  Ti  Ti2  1  0.884224  0.452910  0.500000  1
  Ti  Ti3  1  0.568686  0.115776  0.500000  1
  Ti  Ti4  1  0.547090  0.431314  0.500000  1
  Si  Si5  1  0.255175  0.209580  0.500000  1
  Si  Si6  1  0.790420  0.045595  0.500000  1
  Si  Si7  1  0.954405  0.744825  0.500000  1
  Si  Si8  1  0.553816  0.636927  0.000000  1
  Si  Si9  1  0.363073  0.916887  0.000000  1
  Si  Si10  1  0.083113  0.446184  0.000000  1
  Si  Si11  1  0.666667  0.333333  0.000000  1
  Pt  Pt12  1  0.224266  0.942737  0.500000  1
  Pt  Pt13  1  0.057263  0.281532  0.500000  1
  Pt  Pt14  1  0.718468  0.775734  0.500000  1
  Pt  Pt15  1  0.307176  0.408161  0.000000  1
  Pt  Pt16  1  0.591839  0.899015  0.000000  1
  Pt  Pt17  1  0.100985  0.692824  0.000000  1
  Pt  Pt18  1  0.389733  0.175235  0.000000  1
  Pt  Pt19  1  0.824765  0.214498  0.000000  1
  Pt  Pt20  1  0.785502  0.610267  0.000000  1
