# generated using pymatgen
data_LiEr16Hg3Rh4
_symmetry_space_group_name_H-M   'P 1'
_cell_length_a   9.52025862
_cell_length_b   9.54006392
_cell_length_c   9.52025900
_cell_angle_alpha   60.06865240
_cell_angle_beta   60.00000217
_cell_angle_gamma   60.06865768
_symmetry_Int_Tables_number   1
_chemical_formula_structural   LiEr16Hg3Rh4
_chemical_formula_sum   'Li1 Er16 Hg3 Rh4'
_cell_volume   612.04548956
_cell_formula_units_Z   1
loop_
 _symmetry_equiv_pos_site_id
 _symmetry_equiv_pos_as_xyz
  1  'x, y, z'
loop_
 _atom_site_type_symbol
 _atom_site_label
 _atom_site_symmetry_multiplicity
 _atom_site_fract_x
 _atom_site_fract_y
 _atom_site_fract_z
 _atom_site_occupancy
  Li  Li0  1  0.433019  0.700942  0.433019  1
  Er  Er1  1  0.188028  0.189564  0.811203  1
  Er  Er2  1  0.435860  0.064290  0.063991  1
  Er  Er3  1  0.435860  0.064290  0.435860  1
  Er  Er4  1  0.064791  0.435572  0.064791  1
  Er  Er5  1  0.643664  0.069009  0.643664  1
  Er  Er6  1  0.184716  0.815695  0.814874  1
  Er  Er7  1  0.063991  0.064290  0.435860  1
  Er  Er8  1  0.811203  0.189564  0.188028  1
  Er  Er9  1  0.814874  0.815695  0.184716  1
  Er  Er10  1  0.650941  0.647142  0.050976  1
  Er  Er11  1  0.650941  0.647142  0.650941  1
  Er  Er12  1  0.064791  0.435572  0.434847  1
  Er  Er13  1  0.050976  0.647142  0.650941  1
  Er  Er14  1  0.811203  0.189564  0.811203  1
  Er  Er15  1  0.434847  0.435572  0.064791  1
  Er  Er16  1  0.184716  0.815695  0.184716  1
  Hg  Hg17  1  0.412478  0.421027  0.754017  1
  Hg  Hg18  1  0.754017  0.421027  0.412478  1
  Hg  Hg19  1  0.412478  0.421027  0.412478  1
  Rh  Rh20  1  0.856959  0.429122  0.856959  1
  Rh  Rh21  1  0.853918  0.860354  0.431811  1
  Rh  Rh22  1  0.431811  0.860354  0.853918  1
  Rh  Rh23  1  0.853918  0.860354  0.853918  1
