# generated using pymatgen
data_Ce2Dy2AlZnRu4
_symmetry_space_group_name_H-M   'P 1'
_cell_length_a   5.70562305
_cell_length_b   5.70562291
_cell_length_c   7.03219175
_cell_angle_alpha   87.51560226
_cell_angle_beta   92.48439889
_cell_angle_gamma   117.40769948
_symmetry_Int_Tables_number   1
_chemical_formula_structural   Ce2Dy2AlZnRu4
_chemical_formula_sum   'Ce2 Dy2 Al1 Zn1 Ru4'
_cell_volume   202.96900808
_cell_formula_units_Z   1
loop_
 _symmetry_equiv_pos_site_id
 _symmetry_equiv_pos_as_xyz
  1  'x, y, z'
loop_
 _atom_site_type_symbol
 _atom_site_label
 _atom_site_symmetry_multiplicity
 _atom_site_fract_x
 _atom_site_fract_y
 _atom_site_fract_z
 _atom_site_occupancy
  Ce  Ce0  1  0.168859  0.831141  0.585237  1
  Ce  Ce1  1  0.831141  0.168859  0.414763  1
  Dy  Dy2  1  0.344313  0.655687  0.085548  1
  Dy  Dy3  1  0.655687  0.344313  0.914452  1
  Al  Al4  1  0.500000  0.500000  0.500000  1
  Zn  Zn5  1  0.000000  0.000000  0.000000  1
  Ru  Ru6  1  0.868015  0.636121  0.267509  1
  Ru  Ru7  1  0.636121  0.868015  0.732491  1
  Ru  Ru8  1  0.131985  0.363879  0.732491  1
  Ru  Ru9  1  0.363879  0.131985  0.267509  1
