# generated using pymatgen
data_TmCoP3Ir3W
_symmetry_space_group_name_H-M   'P 1'
_cell_length_a   3.92075800
_cell_length_b   10.70869200
_cell_length_c   12.36653900
_cell_angle_alpha   90.00000000
_cell_angle_beta   90.00000000
_cell_angle_gamma   90.00000000
_symmetry_Int_Tables_number   1
_chemical_formula_structural   TmCoP3Ir3W
_chemical_formula_sum   'Tm4 Co4 P12 Ir12 W4'
_cell_volume   519.22385398
_cell_formula_units_Z   4
loop_
 _symmetry_equiv_pos_site_id
 _symmetry_equiv_pos_as_xyz
  1  'x, y, z'
loop_
 _atom_site_type_symbol
 _atom_site_label
 _atom_site_symmetry_multiplicity
 _atom_site_fract_x
 _atom_site_fract_y
 _atom_site_fract_z
 _atom_site_occupancy
  Tm  Tm0  1  0.250000  0.583311  0.708958  1
  Tm  Tm1  1  0.250000  0.916689  0.208958  1
  Tm  Tm2  1  0.750000  0.416689  0.291042  1
  Tm  Tm3  1  0.750000  0.083311  0.791042  1
  Co  Co4  1  0.250000  0.461099  0.936350  1
  Co  Co5  1  0.250000  0.038901  0.436350  1
  Co  Co6  1  0.750000  0.538901  0.063650  1
  Co  Co7  1  0.750000  0.961099  0.563650  1
  P  P8  1  0.250000  0.424834  0.108285  1
  P  P9  1  0.250000  0.075166  0.608285  1
  P  P10  1  0.750000  0.575166  0.891715  1
  P  P11  1  0.750000  0.924834  0.391715  1
  P  P12  1  0.250000  0.268794  0.871179  1
  P  P13  1  0.250000  0.231206  0.371179  1
  P  P14  1  0.750000  0.731206  0.128821  1
  P  P15  1  0.750000  0.768794  0.628821  1
  P  P16  1  0.250000  0.596039  0.389423  1
  P  P17  1  0.250000  0.903961  0.889423  1
  P  P18  1  0.750000  0.403961  0.610577  1
  P  P19  1  0.750000  0.096039  0.110577  1
  Ir  Ir20  1  0.250000  0.404307  0.482505  1
  Ir  Ir21  1  0.250000  0.095693  0.982505  1
  Ir  Ir22  1  0.750000  0.595693  0.517495  1
  Ir  Ir23  1  0.750000  0.904307  0.017495  1
  Ir  Ir24  1  0.250000  0.233253  0.181852  1
  Ir  Ir25  1  0.250000  0.266747  0.681852  1
  Ir  Ir26  1  0.750000  0.766747  0.818148  1
  Ir  Ir27  1  0.750000  0.733253  0.318148  1
  Ir  Ir28  1  0.250000  0.889478  0.700086  1
  Ir  Ir29  1  0.250000  0.610522  0.200086  1
  Ir  Ir30  1  0.750000  0.110522  0.299914  1
  Ir  Ir31  1  0.750000  0.389478  0.799914  1
  W  W32  1  0.250000  0.709009  0.982618  1
  W  W33  1  0.250000  0.790991  0.482618  1
  W  W34  1  0.750000  0.290991  0.017382  1
  W  W35  1  0.750000  0.209009  0.517382  1
