# generated using pymatgen
data_Ho16Ni3Ag4Ru
_symmetry_space_group_name_H-M   'P 1'
_cell_length_a   9.42475217
_cell_length_b   9.42236256
_cell_length_c   9.44070406
_cell_angle_alpha   59.74882554
_cell_angle_beta   59.87205139
_cell_angle_gamma   59.94590098
_symmetry_Int_Tables_number   1
_chemical_formula_structural   Ho16Ni3Ag4Ru
_chemical_formula_sum   'Ho16 Ni3 Ag4 Ru1'
_cell_volume   590.86867508
_cell_formula_units_Z   1
loop_
 _symmetry_equiv_pos_site_id
 _symmetry_equiv_pos_as_xyz
  1  'x, y, z'
loop_
 _atom_site_type_symbol
 _atom_site_label
 _atom_site_symmetry_multiplicity
 _atom_site_fract_x
 _atom_site_fract_y
 _atom_site_fract_z
 _atom_site_occupancy
  Ho  Ho0  1  0.349091  0.348445  0.349001  1
  Ho  Ho1  1  0.352569  0.353632  0.949788  1
  Ho  Ho2  1  0.353074  0.949885  0.353210  1
  Ho  Ho3  1  0.950721  0.353266  0.352773  1
  Ho  Ho4  1  0.810301  0.187389  0.187363  1
  Ho  Ho5  1  0.187659  0.810285  0.810409  1
  Ho  Ho6  1  0.187396  0.810855  0.187753  1
  Ho  Ho7  1  0.810392  0.187656  0.810029  1
  Ho  Ho8  1  0.187360  0.187280  0.810723  1
  Ho  Ho9  1  0.810389  0.810393  0.187619  1
  Ho  Ho10  1  0.934872  0.564802  0.564812  1
  Ho  Ho11  1  0.559877  0.937160  0.937227  1
  Ho  Ho12  1  0.564693  0.934665  0.565073  1
  Ho  Ho13  1  0.936825  0.559808  0.937042  1
  Ho  Ho14  1  0.564416  0.564760  0.935037  1
  Ho  Ho15  1  0.936963  0.937012  0.560013  1
  Ni  Ni16  1  0.143825  0.142129  0.573208  1
  Ni  Ni17  1  0.143315  0.573526  0.143077  1
  Ni  Ni18  1  0.572413  0.143414  0.141801  1
  Ag  Ag19  1  0.582543  0.582383  0.582361  1
  Ag  Ag20  1  0.582301  0.581998  0.253684  1
  Ag  Ag21  1  0.582184  0.253508  0.582168  1
  Ag  Ag22  1  0.253573  0.582036  0.582357  1
  Ru  Ru23  1  0.143248  0.143712  0.143473  1
