# generated using pymatgen
data_Rb2LiTmAs2
_symmetry_space_group_name_H-M   'P 1'
_cell_length_a   10.56013977
_cell_length_b   10.56013893
_cell_length_c   6.79956800
_cell_angle_alpha   90.00000000
_cell_angle_beta   90.00000000
_cell_angle_gamma   99.86018012
_symmetry_Int_Tables_number   1
_chemical_formula_structural   Rb2LiTmAs2
_chemical_formula_sum   'Rb8 Li4 Tm4 As8'
_cell_volume   747.06367457
_cell_formula_units_Z   4
loop_
 _symmetry_equiv_pos_site_id
 _symmetry_equiv_pos_as_xyz
  1  'x, y, z'
loop_
 _atom_site_type_symbol
 _atom_site_label
 _atom_site_symmetry_multiplicity
 _atom_site_fract_x
 _atom_site_fract_y
 _atom_site_fract_z
 _atom_site_occupancy
  Rb  Rb0  1  0.069646  0.430354  0.750000  1
  Rb  Rb1  1  0.676023  0.323977  0.790201  1
  Rb  Rb2  1  0.323977  0.676023  0.209799  1
  Rb  Rb3  1  0.569646  0.930354  0.750000  1
  Rb  Rb4  1  0.430354  0.069646  0.250000  1
  Rb  Rb5  1  0.930354  0.569646  0.250000  1
  Rb  Rb6  1  0.823977  0.176023  0.290201  1
  Rb  Rb7  1  0.176023  0.823977  0.709799  1
  Li  Li8  1  0.119656  0.119656  0.500000  1
  Li  Li9  1  0.880344  0.880344  0.500000  1
  Li  Li10  1  0.380344  0.380344  0.000000  1
  Li  Li11  1  0.619656  0.619656  0.000000  1
  Tm  Tm12  1  0.869082  0.869082  0.000000  1
  Tm  Tm13  1  0.369082  0.369082  0.500000  1
  Tm  Tm14  1  0.630918  0.630918  0.500000  1
  Tm  Tm15  1  0.130918  0.130918  0.000000  1
  As  As16  1  0.841707  0.658293  0.750000  1
  As  As17  1  0.090455  0.909545  0.233919  1
  As  As18  1  0.409545  0.590455  0.733919  1
  As  As19  1  0.590455  0.409545  0.266081  1
  As  As20  1  0.658293  0.841707  0.250000  1
  As  As21  1  0.158293  0.341707  0.250000  1
  As  As22  1  0.341707  0.158293  0.750000  1
  As  As23  1  0.909545  0.090455  0.766081  1
