# generated using pymatgen
data_Sc12Re3Si12Ag
_symmetry_space_group_name_H-M   'P 1'
_cell_length_a   4.01226500
_cell_length_b   10.45994930
_cell_length_c   11.78595492
_cell_angle_alpha   90.21348875
_cell_angle_beta   90.00000000
_cell_angle_gamma   90.00000000
_symmetry_Int_Tables_number   1
_chemical_formula_structural   Sc12Re3Si12Ag
_chemical_formula_sum   'Sc12 Re3 Si12 Ag1'
_cell_volume   494.63056539
_cell_formula_units_Z   1
loop_
 _symmetry_equiv_pos_site_id
 _symmetry_equiv_pos_as_xyz
  1  'x, y, z'
loop_
 _atom_site_type_symbol
 _atom_site_label
 _atom_site_symmetry_multiplicity
 _atom_site_fract_x
 _atom_site_fract_y
 _atom_site_fract_z
 _atom_site_occupancy
  Sc  Sc0  1  0.250000  0.876421  0.024234  1
  Sc  Sc1  1  0.250000  0.624137  0.515712  1
  Sc  Sc2  1  0.750000  0.128884  0.985912  1
  Sc  Sc3  1  0.750000  0.377813  0.480613  1
  Sc  Sc4  1  0.250000  0.923320  0.601467  1
  Sc  Sc5  1  0.250000  0.577902  0.107313  1
  Sc  Sc6  1  0.750000  0.076498  0.393403  1
  Sc  Sc7  1  0.750000  0.423482  0.894115  1
  Sc  Sc8  1  0.250000  0.654879  0.797157  1
  Sc  Sc9  1  0.250000  0.838309  0.297269  1
  Sc  Sc10  1  0.750000  0.338885  0.203171  1
  Sc  Sc11  1  0.750000  0.164519  0.700304  1
  Re  Re12  1  0.250000  0.390408  0.676832  1
  Re  Re13  1  0.250000  0.109570  0.176046  1
  Re  Re14  1  0.750000  0.609641  0.323293  1
  Si  Si15  1  0.250000  0.028804  0.828037  1
  Si  Si16  1  0.250000  0.481681  0.322325  1
  Si  Si17  1  0.750000  0.981665  0.176299  1
  Si  Si18  1  0.750000  0.516485  0.677031  1
  Si  Si19  1  0.250000  0.255259  0.843900  1
  Si  Si20  1  0.250000  0.246666  0.344560  1
  Si  Si21  1  0.750000  0.747395  0.156154  1
  Si  Si22  1  0.750000  0.747899  0.649216  1
  Si  Si23  1  0.250000  0.195209  0.543855  1
  Si  Si24  1  0.250000  0.308306  0.045992  1
  Si  Si25  1  0.750000  0.808324  0.452338  1
  Si  Si26  1  0.750000  0.682027  0.959672  1
  Ag  Ag27  1  0.750000  0.885614  0.823781  1
