# generated using pymatgen
data_Ba12AlRe3N16
_symmetry_space_group_name_H-M   'P 1'
_cell_length_a   11.12524935
_cell_length_b   10.72735690
_cell_length_c   8.64677021
_cell_angle_alpha   69.13577658
_cell_angle_beta   64.54888112
_cell_angle_gamma   46.57341776
_symmetry_Int_Tables_number   1
_chemical_formula_structural   Ba12AlRe3N16
_chemical_formula_sum   'Ba12 Al1 Re3 N16'
_cell_volume   673.81369991
_cell_formula_units_Z   1
loop_
 _symmetry_equiv_pos_site_id
 _symmetry_equiv_pos_as_xyz
  1  'x, y, z'
loop_
 _atom_site_type_symbol
 _atom_site_label
 _atom_site_symmetry_multiplicity
 _atom_site_fract_x
 _atom_site_fract_y
 _atom_site_fract_z
 _atom_site_occupancy
  Ba  Ba0  1  0.548230  0.952338  0.966627  1
  Ba  Ba1  1  0.966627  0.532804  0.548230  1
  Ba  Ba2  1  0.290453  0.710265  0.716205  1
  Ba  Ba3  1  0.146230  0.103141  0.853148  1
  Ba  Ba4  1  0.163350  0.121386  0.368959  1
  Ba  Ba5  1  0.368959  0.346305  0.163350  1
  Ba  Ba6  1  0.716205  0.283076  0.290453  1
  Ba  Ba7  1  0.853148  0.897480  0.146230  1
  Ba  Ba8  1  0.359902  0.334397  0.642550  1
  Ba  Ba9  1  0.891766  0.903711  0.595932  1
  Ba  Ba10  1  0.642550  0.663151  0.359902  1
  Ba  Ba11  1  0.595932  0.608592  0.891766  1
  Al  Al12  1  0.475653  0.024347  0.475653  1
  Re  Re13  1  0.019648  0.480352  0.019648  1
  Re  Re14  1  0.773732  0.226268  0.773732  1
  Re  Re15  1  0.231715  0.768285  0.231715  1
  N  N16  1  0.035463  0.628372  0.840460  1
  N  N17  1  0.713973  0.266310  0.996246  1
  N  N18  1  0.637623  0.054821  0.449678  1
  N  N19  1  0.449678  0.857879  0.637623  1
  N  N20  1  0.214372  0.618383  0.408190  1
  N  N21  1  0.762953  0.403875  0.625075  1
  N  N22  1  0.996246  0.023471  0.713973  1
  N  N23  1  0.525975  0.990061  0.240096  1
  N  N24  1  0.408190  0.759055  0.214372  1
  N  N25  1  0.982098  0.538879  0.223348  1
  N  N26  1  0.270805  0.709274  0.029545  1
  N  N27  1  0.840460  0.495705  0.035463  1
  N  N28  1  0.223348  0.255675  0.982098  1
  N  N29  1  0.625075  0.208097  0.762953  1
  N  N30  1  0.240096  0.243868  0.525975  1
  N  N31  1  0.029545  0.990376  0.270805  1
