# generated using pymatgen
data_ErTm(Ni2B)12
_symmetry_space_group_name_H-M   'P 1'
_cell_length_a   6.00648939
_cell_length_b   6.00648914
_cell_length_c   10.92176180
_cell_angle_alpha   89.98686180
_cell_angle_beta   89.98686447
_cell_angle_gamma   104.60284733
_symmetry_Int_Tables_number   1
_chemical_formula_structural   ErTm(Ni2B)12
_chemical_formula_sum   'Er1 Tm1 Ni24 B12'
_cell_volume   381.30571491
_cell_formula_units_Z   1
loop_
 _symmetry_equiv_pos_site_id
 _symmetry_equiv_pos_as_xyz
  1  'x, y, z'
loop_
 _atom_site_type_symbol
 _atom_site_label
 _atom_site_symmetry_multiplicity
 _atom_site_fract_x
 _atom_site_fract_y
 _atom_site_fract_z
 _atom_site_occupancy
  Er  Er0  1  0.833527  0.833527  0.004733  1
  Tm  Tm1  1  0.166363  0.166363  0.505467  1
  Ni  Ni2  1  0.998687  0.631578  0.562514  1
  Ni  Ni3  1  0.733579  0.341993  0.432148  1
  Ni  Ni4  1  0.341993  0.733579  0.432148  1
  Ni  Ni5  1  0.658001  0.267158  0.931758  1
  Ni  Ni6  1  0.001309  0.368381  0.062651  1
  Ni  Ni7  1  0.368381  0.001309  0.062651  1
  Ni  Ni8  1  0.631578  0.998687  0.562514  1
  Ni  Ni9  1  0.434850  0.434850  0.080173  1
  Ni  Ni10  1  0.212446  0.472698  0.722394  1
  Ni  Ni11  1  0.787230  0.526839  0.222760  1
  Ni  Ni12  1  0.526839  0.787230  0.222760  1
  Ni  Ni13  1  0.472698  0.212446  0.722394  1
  Ni  Ni14  1  0.564417  0.564417  0.579750  1
  Ni  Ni15  1  0.215681  0.215681  0.901321  1
  Ni  Ni16  1  0.144873  0.882562  0.744628  1
  Ni  Ni17  1  0.855417  0.117941  0.244721  1
  Ni  Ni18  1  0.117941  0.855417  0.244721  1
  Ni  Ni19  1  0.882562  0.144873  0.744628  1
  Ni  Ni20  1  0.544897  0.805215  0.767266  1
  Ni  Ni21  1  0.454489  0.194776  0.267399  1
  Ni  Ni22  1  0.194776  0.454489  0.267399  1
  Ni  Ni23  1  0.805215  0.544897  0.767266  1
  Ni  Ni24  1  0.785292  0.785292  0.401671  1
  Ni  Ni25  1  0.267158  0.658001  0.931758  1
  B  B26  1  0.400683  0.987528  0.876808  1
  B  B27  1  0.599008  0.012048  0.376947  1
  B  B28  1  0.012048  0.599008  0.376947  1
  B  B29  1  0.987528  0.400683  0.876808  1
  B  B30  1  0.328517  0.761391  0.615565  1
  B  B31  1  0.671587  0.239115  0.115727  1
  B  B32  1  0.239115  0.671587  0.115727  1
  B  B33  1  0.761391  0.328517  0.615565  1
  B  B34  1  0.512165  0.512165  0.347684  1
  B  B35  1  0.487794  0.487794  0.846707  1
  B  B36  1  0.163743  0.163743  0.160106  1
  B  B37  1  0.836219  0.836219  0.659820  1
