# generated using pymatgen
data_Lu3Si5PPd20
_symmetry_space_group_name_H-M   'P 1'
_cell_length_a   8.67561117
_cell_length_b   8.68323844
_cell_length_c   8.68323800
_cell_angle_alpha   59.94188812
_cell_angle_beta   60.02906257
_cell_angle_gamma   60.02905307
_symmetry_Int_Tables_number   1
_chemical_formula_structural   Lu3Si5PPd20
_chemical_formula_sum   'Lu3 Si5 P1 Pd20'
_cell_volume   462.53846582
_cell_formula_units_Z   1
loop_
 _symmetry_equiv_pos_site_id
 _symmetry_equiv_pos_as_xyz
  1  'x, y, z'
loop_
 _atom_site_type_symbol
 _atom_site_label
 _atom_site_symmetry_multiplicity
 _atom_site_fract_x
 _atom_site_fract_y
 _atom_site_fract_z
 _atom_site_occupancy
  Lu  Lu0  1  0.247852  0.252501  0.252307  1
  Lu  Lu1  1  0.747499  0.752148  0.752660  1
  Lu  Lu2  1  0.002000  0.998000  0.997885  1
  Si  Si3  1  0.268173  0.731827  0.731748  1
  Si  Si4  1  0.265961  0.734039  0.268265  1
  Si  Si5  1  0.731671  0.268329  0.733819  1
  Si  Si6  1  0.266027  0.268344  0.733919  1
  Si  Si7  1  0.731656  0.733973  0.268290  1
  P  P8  1  0.733675  0.266325  0.266410  1
  Pd  Pd9  1  0.384625  0.382971  0.382845  1
  Pd  Pd10  1  0.617522  0.617915  0.617880  1
  Pd  Pd11  1  0.382085  0.382478  0.853317  1
  Pd  Pd12  1  0.382070  0.853383  0.382370  1
  Pd  Pd13  1  0.617029  0.615375  0.150440  1
  Pd  Pd14  1  0.616964  0.150467  0.615362  1
  Pd  Pd15  1  0.849533  0.383036  0.382793  1
  Pd  Pd16  1  0.146617  0.617930  0.617822  1
  Pd  Pd17  1  0.347307  0.997688  0.997677  1
  Pd  Pd18  1  0.657325  0.997606  0.997752  1
  Pd  Pd19  1  0.002394  0.342675  0.652684  1
  Pd  Pd20  1  0.002312  0.652693  0.342673  1
  Pd  Pd21  1  0.998681  0.343745  0.001470  1
  Pd  Pd22  1  0.656255  0.001319  0.343896  1
  Pd  Pd23  1  0.999922  0.655099  0.000071  1
  Pd  Pd24  1  0.344901  0.000078  0.655092  1
  Pd  Pd25  1  0.998585  0.001415  0.343860  1
  Pd  Pd26  1  0.999944  0.000056  0.655121  1
  Pd  Pd27  1  0.656543  0.343457  0.001445  1
  Pd  Pd28  1  0.344870  0.655130  0.000130  1
