# generated using pymatgen
data_Ba4MnRuO8
_symmetry_space_group_name_H-M   'P 1'
_cell_length_a   7.23923255
_cell_length_b   7.23923145
_cell_length_c   5.84573600
_cell_angle_alpha   90.00000000
_cell_angle_beta   90.00000000
_cell_angle_gamma   132.33869661
_symmetry_Int_Tables_number   1
_chemical_formula_structural   Ba4MnRuO8
_chemical_formula_sum   'Ba4 Mn1 Ru1 O8'
_cell_volume   226.44997232
_cell_formula_units_Z   1
loop_
 _symmetry_equiv_pos_site_id
 _symmetry_equiv_pos_as_xyz
  1  'x, y, z'
loop_
 _atom_site_type_symbol
 _atom_site_label
 _atom_site_symmetry_multiplicity
 _atom_site_fract_x
 _atom_site_fract_y
 _atom_site_fract_z
 _atom_site_occupancy
  Ba  Ba0  1  0.641931  0.358069  0.000000  1
  Ba  Ba1  1  0.143599  0.856401  0.500000  1
  Ba  Ba2  1  0.856401  0.143599  0.500000  1
  Ba  Ba3  1  0.358069  0.641931  0.000000  1
  Mn  Mn4  1  0.500000  0.500000  0.500000  1
  Ru  Ru5  1  0.000000  0.000000  0.000000  1
  O  O6  1  0.759076  0.759076  0.758594  1
  O  O7  1  0.240924  0.240924  0.241406  1
  O  O8  1  0.240924  0.240924  0.758594  1
  O  O9  1  0.759076  0.759076  0.241406  1
  O  O10  1  0.847003  0.152997  0.000000  1
  O  O11  1  0.352013  0.647987  0.500000  1
  O  O12  1  0.647987  0.352013  0.500000  1
  O  O13  1  0.152997  0.847003  0.000000  1
