# generated using pymatgen
data_Ca3NdSc2(RuO6)2
_symmetry_space_group_name_H-M   'P 1'
_cell_length_a   5.51378166
_cell_length_b   5.69635441
_cell_length_c   7.90854077
_cell_angle_alpha   89.87612382
_cell_angle_beta   89.64766506
_cell_angle_gamma   90.01679984
_symmetry_Int_Tables_number   1
_chemical_formula_structural   Ca3NdSc2(RuO6)2
_chemical_formula_sum   'Ca3 Nd1 Sc2 Ru2 O12'
_cell_volume   248.38975416
_cell_formula_units_Z   1
loop_
 _symmetry_equiv_pos_site_id
 _symmetry_equiv_pos_as_xyz
  1  'x, y, z'
loop_
 _atom_site_type_symbol
 _atom_site_label
 _atom_site_symmetry_multiplicity
 _atom_site_fract_x
 _atom_site_fract_y
 _atom_site_fract_z
 _atom_site_occupancy
  Ca  Ca0  1  0.485950  0.445707  0.250418  1
  Ca  Ca1  1  0.513870  0.553255  0.749461  1
  Ca  Ca2  1  0.986671  0.054675  0.749940  1
  Nd  Nd3  1  0.014251  0.942261  0.249713  1
  Sc  Sc4  1  0.999207  0.497084  0.995371  1
  Sc  Sc5  1  0.500925  0.001738  0.505153  1
  Ru  Ru6  1  0.999139  0.498952  0.501319  1
  Ru  Ru7  1  0.501165  0.000389  0.998413  1
  O  O8  1  0.096910  0.468976  0.741718  1
  O  O9  1  0.206698  0.197589  0.048333  1
  O  O10  1  0.193382  0.208610  0.449221  1
  O  O11  1  0.301623  0.713960  0.055204  1
  O  O12  1  0.288335  0.702404  0.446662  1
  O  O13  1  0.405757  0.965894  0.758452  1
  O  O14  1  0.593527  0.031342  0.244743  1
  O  O15  1  0.708453  0.302595  0.549444  1
  O  O16  1  0.693479  0.288807  0.948082  1
  O  O17  1  0.796468  0.805395  0.955899  1
  O  O18  1  0.809644  0.793032  0.546965  1
  O  O19  1  0.904547  0.527334  0.255489  1
