# generated using pymatgen
data_Pu(BO2)3
_symmetry_space_group_name_H-M   'P 1'
_cell_length_a   6.54670152
_cell_length_b   6.54664754
_cell_length_c   6.41922334
_cell_angle_alpha   61.68929891
_cell_angle_beta   61.68865040
_cell_angle_gamma   79.05778110
_symmetry_Int_Tables_number   1
_chemical_formula_structural   Pu(BO2)3
_chemical_formula_sum   'Pu2 B6 O12'
_cell_volume   213.02203773
_cell_formula_units_Z   2
loop_
 _symmetry_equiv_pos_site_id
 _symmetry_equiv_pos_as_xyz
  1  'x, y, z'
loop_
 _atom_site_type_symbol
 _atom_site_label
 _atom_site_symmetry_multiplicity
 _atom_site_fract_x
 _atom_site_fract_y
 _atom_site_fract_z
 _atom_site_occupancy
  Pu  Pu0  1  0.730711  0.269290  0.250001  1
  Pu  Pu1  1  0.269289  0.730710  0.749999  1
  B  B2  1  0.263083  0.736917  0.249999  1
  B  B3  1  0.171125  0.309678  0.403250  1
  B  B4  1  0.309680  0.171127  0.903246  1
  B  B5  1  0.690320  0.828873  0.096754  1
  B  B6  1  0.828875  0.690322  0.596750  1
  B  B7  1  0.736917  0.263083  0.750001  1
  O  O8  1  0.066962  0.731139  0.493783  1
  O  O9  1  0.465352  0.736719  0.294508  1
  O  O10  1  0.313683  0.145364  0.478390  1
  O  O11  1  0.145361  0.313684  0.978383  1
  O  O12  1  0.263274  0.534647  0.205492  1
  O  O13  1  0.268869  0.933038  0.006212  1
  O  O14  1  0.731131  0.066962  0.993788  1
  O  O15  1  0.736726  0.465353  0.794508  1
  O  O16  1  0.854639  0.686316  0.021617  1
  O  O17  1  0.686317  0.854636  0.521610  1
  O  O18  1  0.534648  0.263281  0.705492  1
  O  O19  1  0.933038  0.268861  0.506217  1
