# generated using pymatgen
data_Ta5FeCo4B5
_symmetry_space_group_name_H-M   'P 1'
_cell_length_a   3.27136900
_cell_length_b   5.92035600
_cell_length_c   17.03771700
_cell_angle_alpha   90.00000000
_cell_angle_beta   90.00000000
_cell_angle_gamma   90.00000000
_symmetry_Int_Tables_number   1
_chemical_formula_structural   Ta5FeCo4B5
_chemical_formula_sum   'Ta10 Fe2 Co8 B10'
_cell_volume   329.98086486
_cell_formula_units_Z   2
loop_
 _symmetry_equiv_pos_site_id
 _symmetry_equiv_pos_as_xyz
  1  'x, y, z'
loop_
 _atom_site_type_symbol
 _atom_site_label
 _atom_site_symmetry_multiplicity
 _atom_site_fract_x
 _atom_site_fract_y
 _atom_site_fract_z
 _atom_site_occupancy
  Ta  Ta0  1  0.000000  0.471963  0.320942  1
  Ta  Ta1  1  0.000000  0.471963  0.679058  1
  Ta  Ta2  1  0.500000  0.528037  0.179058  1
  Ta  Ta3  1  0.500000  0.528037  0.820942  1
  Ta  Ta4  1  0.000000  0.978186  0.375547  1
  Ta  Ta5  1  0.000000  0.978186  0.624453  1
  Ta  Ta6  1  0.500000  0.021814  0.124453  1
  Ta  Ta7  1  0.500000  0.021814  0.875547  1
  Ta  Ta8  1  0.000000  0.354627  0.500000  1
  Ta  Ta9  1  0.500000  0.645373  0.000000  1
  Fe  Fe10  1  0.000000  0.992815  0.000000  1
  Fe  Fe11  1  0.500000  0.007185  0.500000  1
  Co  Co12  1  0.000000  0.854994  0.226179  1
  Co  Co13  1  0.000000  0.854994  0.773821  1
  Co  Co14  1  0.500000  0.145006  0.273821  1
  Co  Co15  1  0.500000  0.145006  0.726179  1
  Co  Co16  1  0.000000  0.350556  0.071207  1
  Co  Co17  1  0.000000  0.350556  0.928793  1
  Co  Co18  1  0.500000  0.649444  0.428793  1
  Co  Co19  1  0.500000  0.649444  0.571207  1
  B  B20  1  0.000000  0.233358  0.201980  1
  B  B21  1  0.000000  0.233358  0.798020  1
  B  B22  1  0.500000  0.766642  0.298020  1
  B  B23  1  0.500000  0.766642  0.701980  1
  B  B24  1  0.000000  0.730318  0.100982  1
  B  B25  1  0.000000  0.730318  0.899018  1
  B  B26  1  0.500000  0.269682  0.399018  1
  B  B27  1  0.500000  0.269682  0.600982  1
  B  B28  1  0.000000  0.769054  0.500000  1
  B  B29  1  0.500000  0.230946  0.000000  1
