# generated using pymatgen
data_K2PuO5
_symmetry_space_group_name_H-M   'P 1'
_cell_length_a   6.04355200
_cell_length_b   7.87542000
_cell_length_c   11.95583000
_cell_angle_alpha   90.00000000
_cell_angle_beta   90.00000000
_cell_angle_gamma   90.00000000
_symmetry_Int_Tables_number   1
_chemical_formula_structural   K2PuO5
_chemical_formula_sum   'K8 Pu4 O20'
_cell_volume   569.04382981
_cell_formula_units_Z   4
loop_
 _symmetry_equiv_pos_site_id
 _symmetry_equiv_pos_as_xyz
  1  'x, y, z'
loop_
 _atom_site_type_symbol
 _atom_site_label
 _atom_site_symmetry_multiplicity
 _atom_site_fract_x
 _atom_site_fract_y
 _atom_site_fract_z
 _atom_site_occupancy
  K  K0  1  0.250000  0.493947  0.262918  1
  K  K1  1  0.750000  0.506053  0.737082  1
  K  K2  1  0.250000  0.993947  0.237082  1
  K  K3  1  0.750000  0.006053  0.762918  1
  K  K4  1  0.250000  0.145528  0.580899  1
  K  K5  1  0.750000  0.854472  0.419101  1
  K  K6  1  0.250000  0.645528  0.919101  1
  K  K7  1  0.750000  0.354472  0.080899  1
  Pu  Pu8  1  0.250000  0.165837  0.942630  1
  Pu  Pu9  1  0.750000  0.834163  0.057370  1
  Pu  Pu10  1  0.250000  0.665837  0.557370  1
  Pu  Pu11  1  0.750000  0.334163  0.442630  1
  O  O12  1  0.474635  0.824946  0.609856  1
  O  O13  1  0.974635  0.175054  0.390144  1
  O  O14  1  0.525365  0.675054  0.109856  1
  O  O15  1  0.474635  0.324946  0.890144  1
  O  O16  1  0.974635  0.675054  0.109856  1
  O  O17  1  0.025365  0.824946  0.609856  1
  O  O18  1  0.525365  0.175054  0.390144  1
  O  O19  1  0.025365  0.324946  0.890144  1
  O  O20  1  0.750000  0.454953  0.307269  1
  O  O21  1  0.500000  0.000000  0.000000  1
  O  O22  1  0.000000  0.500000  0.500000  1
  O  O23  1  0.500000  0.500000  0.500000  1
  O  O24  1  0.250000  0.545047  0.692731  1
  O  O25  1  0.750000  0.954953  0.192731  1
  O  O26  1  0.250000  0.045047  0.807269  1
  O  O27  1  0.750000  0.233344  0.587108  1
  O  O28  1  0.250000  0.266656  0.087108  1
  O  O29  1  0.750000  0.733344  0.912892  1
  O  O30  1  0.000000  0.000000  0.000000  1
  O  O31  1  0.250000  0.766656  0.412892  1
