# generated using pymatgen
data_SmDy16Er3Pb16
_symmetry_space_group_name_H-M   'P 1'
_cell_length_a   8.21445854
_cell_length_b   8.28778326
_cell_length_c   15.67018410
_cell_angle_alpha   90.01034596
_cell_angle_beta   89.69498359
_cell_angle_gamma   89.94983426
_symmetry_Int_Tables_number   1
_chemical_formula_structural   SmDy16Er3Pb16
_chemical_formula_sum   'Sm1 Dy16 Er3 Pb16'
_cell_volume   1066.80513693
_cell_formula_units_Z   1
loop_
 _symmetry_equiv_pos_site_id
 _symmetry_equiv_pos_as_xyz
  1  'x, y, z'
loop_
 _atom_site_type_symbol
 _atom_site_label
 _atom_site_symmetry_multiplicity
 _atom_site_fract_x
 _atom_site_fract_y
 _atom_site_fract_z
 _atom_site_occupancy
  Sm  Sm0  1  0.966995  0.822489  0.598326  1
  Dy  Dy1  1  0.623832  0.157665  0.621361  1
  Dy  Dy2  1  0.121739  0.341301  0.879801  1
  Dy  Dy3  1  0.378096  0.842376  0.120978  1
  Dy  Dy4  1  0.875482  0.657681  0.377852  1
  Dy  Dy5  1  0.376195  0.842504  0.378493  1
  Dy  Dy6  1  0.878633  0.657957  0.121114  1
  Dy  Dy7  1  0.621064  0.157857  0.879364  1
  Dy  Dy8  1  0.123018  0.341903  0.621432  1
  Dy  Dy9  1  0.463225  0.675268  0.599578  1
  Dy  Dy10  1  0.960128  0.825095  0.899012  1
  Dy  Dy11  1  0.538969  0.324614  0.100748  1
  Dy  Dy12  1  0.037046  0.176515  0.399750  1
  Dy  Dy13  1  0.535795  0.324244  0.400285  1
  Dy  Dy14  1  0.039071  0.175228  0.100866  1
  Dy  Dy15  1  0.461578  0.675269  0.900449  1
  Dy  Dy16  1  0.790237  0.495769  0.750538  1
  Er  Er17  1  0.290743  0.004719  0.750745  1
  Er  Er18  1  0.209260  0.504049  0.249848  1
  Er  Er19  1  0.709097  0.995732  0.249191  1
  Pb  Pb20  1  0.717378  0.967758  0.455339  1
  Pb  Pb21  1  0.220229  0.532035  0.043671  1
  Pb  Pb22  1  0.279315  0.031471  0.956878  1
  Pb  Pb23  1  0.780654  0.464497  0.542277  1
  Pb  Pb24  1  0.285245  0.037377  0.542540  1
  Pb  Pb25  1  0.779919  0.467372  0.957381  1
  Pb  Pb26  1  0.720174  0.967502  0.043225  1
  Pb  Pb27  1  0.217323  0.535033  0.457012  1
  Pb  Pb28  1  0.426993  0.373916  0.750227  1
  Pb  Pb29  1  0.927597  0.125730  0.750377  1
  Pb  Pb30  1  0.571794  0.625575  0.249678  1
  Pb  Pb31  1  0.072200  0.874396  0.249865  1
  Pb  Pb32  1  0.649514  0.845425  0.750046  1
  Pb  Pb33  1  0.152928  0.653572  0.751244  1
  Pb  Pb34  1  0.349459  0.155370  0.250284  1
  Pb  Pb35  1  0.849075  0.344738  0.250223  1
