# generated using pymatgen
data_La2MnAl20IrRu2
_symmetry_space_group_name_H-M   'P 1'
_cell_length_a   6.88911679
_cell_length_b   6.89198841
_cell_length_c   9.19201675
_cell_angle_alpha   90.14036904
_cell_angle_beta   89.99192772
_cell_angle_gamma   96.84779847
_symmetry_Int_Tables_number   1
_chemical_formula_structural   La2MnAl20IrRu2
_chemical_formula_sum   'La2 Mn1 Al20 Ir1 Ru2'
_cell_volume   433.31965814
_cell_formula_units_Z   1
loop_
 _symmetry_equiv_pos_site_id
 _symmetry_equiv_pos_as_xyz
  1  'x, y, z'
loop_
 _atom_site_type_symbol
 _atom_site_label
 _atom_site_symmetry_multiplicity
 _atom_site_fract_x
 _atom_site_fract_y
 _atom_site_fract_z
 _atom_site_occupancy
  La  La0  1  0.874957  0.120643  0.747538  1
  La  La1  1  0.125043  0.879357  0.252462  1
  Mn  Mn2  1  0.500000  0.000000  0.500000  1
  Al  Al3  1  0.617741  0.373767  0.550472  1
  Al  Al4  1  0.382259  0.626233  0.449528  1
  Al  Al5  1  0.378466  0.622498  0.050585  1
  Al  Al6  1  0.621534  0.377502  0.949415  1
  Al  Al7  1  0.232991  0.224322  0.497696  1
  Al  Al8  1  0.767009  0.775678  0.502304  1
  Al  Al9  1  0.771966  0.773156  0.001067  1
  Al  Al10  1  0.228034  0.226844  0.998933  1
  Al  Al11  1  0.839023  0.162594  0.101362  1
  Al  Al12  1  0.160977  0.837406  0.898638  1
  Al  Al13  1  0.168142  0.841280  0.601485  1
  Al  Al14  1  0.831858  0.158720  0.398515  1
  Al  Al15  1  0.860185  0.591149  0.751113  1
  Al  Al16  1  0.139815  0.408851  0.248887  1
  Al  Al17  1  0.411707  0.137319  0.747158  1
  Al  Al18  1  0.588293  0.862681  0.252842  1
  Al  Al19  1  0.221821  0.481600  0.752660  1
  Al  Al20  1  0.778179  0.518400  0.247340  1
  Al  Al21  1  0.517756  0.779784  0.746847  1
  Al  Al22  1  0.482244  0.220216  0.253153  1
  Ir  Ir23  1  0.000000  0.500000  0.500000  1
  Ru  Ru24  1  0.000000  0.500000  0.000000  1
  Ru  Ru25  1  0.500000  0.000000  0.000000  1
