# generated using pymatgen
data_HfH3NF4
_symmetry_space_group_name_H-M   'P 1'
_cell_length_a   5.67473887
_cell_length_b   7.01722185
_cell_length_c   7.53751440
_cell_angle_alpha   111.64914407
_cell_angle_beta   107.43352962
_cell_angle_gamma   95.38393297
_symmetry_Int_Tables_number   1
_chemical_formula_structural   HfH3NF4
_chemical_formula_sum   'Hf2 H6 N2 F8'
_cell_volume   258.99910446
_cell_formula_units_Z   2
loop_
 _symmetry_equiv_pos_site_id
 _symmetry_equiv_pos_as_xyz
  1  'x, y, z'
loop_
 _atom_site_type_symbol
 _atom_site_label
 _atom_site_symmetry_multiplicity
 _atom_site_fract_x
 _atom_site_fract_y
 _atom_site_fract_z
 _atom_site_occupancy
  Hf  Hf0  1  0.496622  0.798354  0.273236  1
  Hf  Hf1  1  0.503363  0.201655  0.726773  1
  H  H2  1  0.783434  0.144135  0.074134  1
  H  H3  1  0.941075  0.368572  0.096987  1
  H  H4  1  0.038089  0.855713  0.065566  1
  H  H5  1  0.961938  0.144246  0.934387  1
  H  H6  1  0.058972  0.631348  0.902965  1
  H  H7  1  0.216615  0.855832  0.925887  1
  N  N8  1  0.838113  0.219173  0.992996  1
  N  N9  1  0.162011  0.780911  0.007009  1
  F  F10  1  0.679404  0.003739  0.209388  1
  F  F11  1  0.708485  0.609480  0.195498  1
  F  F12  1  0.258828  0.583106  0.278885  1
  F  F13  1  0.313639  0.052110  0.417521  1
  F  F14  1  0.686330  0.947877  0.582502  1
  F  F15  1  0.741111  0.416986  0.721185  1
  F  F16  1  0.291330  0.390417  0.804331  1
  F  F17  1  0.320645  0.996346  0.790741  1
