# generated using pymatgen
data_NaCe(PrB12)2
_symmetry_space_group_name_H-M   'P 1'
_cell_length_a   7.17003681
_cell_length_b   7.17003799
_cell_length_c   5.88605100
_cell_angle_alpha   90.00000000
_cell_angle_beta   90.00000000
_cell_angle_gamma   109.27374375
_symmetry_Int_Tables_number   1
_chemical_formula_structural   NaCe(PrB12)2
_chemical_formula_sum   'Na1 Ce1 Pr2 B24'
_cell_volume   285.63861457
_cell_formula_units_Z   1
loop_
 _symmetry_equiv_pos_site_id
 _symmetry_equiv_pos_as_xyz
  1  'x, y, z'
loop_
 _atom_site_type_symbol
 _atom_site_label
 _atom_site_symmetry_multiplicity
 _atom_site_fract_x
 _atom_site_fract_y
 _atom_site_fract_z
 _atom_site_occupancy
  Na  Na0  1  0.000000  0.000000  0.000000  1
  Ce  Ce1  1  0.500000  0.500000  0.000000  1
  Pr  Pr2  1  0.752647  0.247353  0.500000  1
  Pr  Pr3  1  0.247353  0.752647  0.500000  1
  B  B4  1  0.175797  0.325008  0.650305  1
  B  B5  1  0.924052  0.574977  0.148456  1
  B  B6  1  0.674992  0.824203  0.650305  1
  B  B7  1  0.425023  0.075948  0.148456  1
  B  B8  1  0.175797  0.325008  0.349695  1
  B  B9  1  0.924052  0.574977  0.851544  1
  B  B10  1  0.674992  0.824203  0.349695  1
  B  B11  1  0.425023  0.075948  0.851544  1
  B  B12  1  0.400182  0.400182  0.500000  1
  B  B13  1  0.148608  0.650886  0.000000  1
  B  B14  1  0.899395  0.899395  0.500000  1
  B  B15  1  0.650886  0.148608  0.000000  1
  B  B16  1  0.325008  0.175797  0.650305  1
  B  B17  1  0.075948  0.425023  0.148456  1
  B  B18  1  0.824203  0.674992  0.650305  1
  B  B19  1  0.574977  0.924052  0.148456  1
  B  B20  1  0.100605  0.100605  0.500000  1
  B  B21  1  0.851392  0.349114  0.000000  1
  B  B22  1  0.599818  0.599818  0.500000  1
  B  B23  1  0.349114  0.851392  0.000000  1
  B  B24  1  0.325008  0.175797  0.349695  1
  B  B25  1  0.075948  0.425023  0.851544  1
  B  B26  1  0.824203  0.674992  0.349695  1
  B  B27  1  0.574977  0.924052  0.851544  1
