# generated using pymatgen
data_Zr5Sc3Ta11VSi16
_symmetry_space_group_name_H-M   'P 1'
_cell_length_a   6.86079980
_cell_length_b   6.86696008
_cell_length_c   12.70530130
_cell_angle_alpha   90.10835263
_cell_angle_beta   89.91728855
_cell_angle_gamma   89.90153614
_symmetry_Int_Tables_number   1
_chemical_formula_structural   Zr5Sc3Ta11VSi16
_chemical_formula_sum   'Zr5 Sc3 Ta11 V1 Si16'
_cell_volume   598.58022543
_cell_formula_units_Z   1
loop_
 _symmetry_equiv_pos_site_id
 _symmetry_equiv_pos_as_xyz
  1  'x, y, z'
loop_
 _atom_site_type_symbol
 _atom_site_label
 _atom_site_symmetry_multiplicity
 _atom_site_fract_x
 _atom_site_fract_y
 _atom_site_fract_z
 _atom_site_occupancy
  Zr  Zr0  1  0.002752  0.660281  0.032091  1
  Zr  Zr1  1  0.839024  0.503446  0.281806  1
  Zr  Zr2  1  0.160190  0.498047  0.781291  1
  Zr  Zr3  1  0.502560  0.840004  0.716772  1
  Zr  Zr4  1  0.496452  0.160651  0.218879  1
  Sc  Sc5  1  0.998783  0.340483  0.529425  1
  Sc  Sc6  1  0.661671  0.001537  0.970194  1
  Sc  Sc7  1  0.338741  0.998984  0.469985  1
  Ta  Ta8  1  0.329659  0.332141  0.999854  1
  Ta  Ta9  1  0.169342  0.831618  0.250938  1
  Ta  Ta10  1  0.830378  0.169366  0.749077  1
  Ta  Ta11  1  0.669952  0.667557  0.499427  1
  Ta  Ta12  1  0.004383  0.154284  0.126747  1
  Ta  Ta13  1  0.347112  0.504592  0.375431  1
  Ta  Ta14  1  0.652689  0.495346  0.875547  1
  Ta  Ta15  1  0.507386  0.345449  0.623606  1
  Ta  Ta16  1  0.495699  0.655284  0.124987  1
  Ta  Ta17  1  0.996153  0.845597  0.627684  1
  Ta  Ta18  1  0.152823  0.004988  0.873390  1
  V  V19  1  0.844994  0.991726  0.372452  1
  Si  Si20  1  0.300652  0.957606  0.063049  1
  Si  Si21  1  0.545454  0.804116  0.316664  1
  Si  Si22  1  0.458610  0.198308  0.814045  1
  Si  Si23  1  0.801702  0.541495  0.684885  1
  Si  Si24  1  0.201124  0.456367  0.187609  1
  Si  Si25  1  0.704202  0.041297  0.558494  1
  Si  Si26  1  0.954797  0.298308  0.936859  1
  Si  Si27  1  0.040175  0.706680  0.436709  1
  Si  Si28  1  0.706379  0.364789  0.072721  1
  Si  Si29  1  0.126874  0.202489  0.324711  1
  Si  Si30  1  0.862844  0.793533  0.822588  1
  Si  Si31  1  0.206587  0.136790  0.676504  1
  Si  Si32  1  0.793474  0.867754  0.181441  1
  Si  Si33  1  0.292488  0.634242  0.571052  1
  Si  Si34  1  0.365592  0.708476  0.927652  1
  Si  Si35  1  0.638301  0.286368  0.425434  1
