# generated using pymatgen
data_Nd8Cu3Si12Ag
_symmetry_space_group_name_H-M   'P 1'
_cell_length_a   8.15890400
_cell_length_b   8.15890475
_cell_length_c   8.56758700
_cell_angle_alpha   90.00000000
_cell_angle_beta   90.00000000
_cell_angle_gamma   119.99999695
_symmetry_Int_Tables_number   1
_chemical_formula_structural   Nd8Cu3Si12Ag
_chemical_formula_sum   'Nd8 Cu3 Si12 Ag1'
_cell_volume   493.91572654
_cell_formula_units_Z   1
loop_
 _symmetry_equiv_pos_site_id
 _symmetry_equiv_pos_as_xyz
  1  'x, y, z'
loop_
 _atom_site_type_symbol
 _atom_site_label
 _atom_site_symmetry_multiplicity
 _atom_site_fract_x
 _atom_site_fract_y
 _atom_site_fract_z
 _atom_site_occupancy
  Nd  Nd0  1  0.498314  0.501686  0.752032  1
  Nd  Nd1  1  0.498377  0.501623  0.247967  1
  Nd  Nd2  1  0.003373  0.501686  0.752032  1
  Nd  Nd3  1  0.003247  0.501623  0.247967  1
  Nd  Nd4  1  0.498314  0.996627  0.752032  1
  Nd  Nd5  1  0.498377  0.996753  0.247967  1
  Nd  Nd6  1  0.000000  0.000000  0.751506  1
  Nd  Nd7  1  0.000000  0.000000  0.248503  1
  Cu  Cu8  1  0.666667  0.333333  0.999834  1
  Cu  Cu9  1  0.333333  0.666667  0.000376  1
  Cu  Cu10  1  0.333333  0.666667  0.499782  1
  Si  Si11  1  0.830727  0.169273  0.000036  1
  Si  Si12  1  0.168795  0.831205  0.999952  1
  Si  Si13  1  0.338545  0.169273  0.000036  1
  Si  Si14  1  0.169959  0.830041  0.499910  1
  Si  Si15  1  0.662410  0.831205  0.999952  1
  Si  Si16  1  0.837594  0.162406  0.500094  1
  Si  Si17  1  0.830727  0.661455  0.000036  1
  Si  Si18  1  0.660080  0.830041  0.499910  1
  Si  Si19  1  0.168795  0.337590  0.999952  1
  Si  Si20  1  0.324813  0.162406  0.500094  1
  Si  Si21  1  0.169959  0.339920  0.499910  1
  Si  Si22  1  0.837594  0.675187  0.500094  1
  Ag  Ag23  1  0.666667  0.333333  0.500027  1
