# generated using pymatgen
data_Y3Ho13Cd4OsPd3
_symmetry_space_group_name_H-M   'P 1'
_cell_length_a   9.68093148
_cell_length_b   9.68277814
_cell_length_c   9.68140663
_cell_angle_alpha   59.48484370
_cell_angle_beta   59.46190593
_cell_angle_gamma   59.46461711
_symmetry_Int_Tables_number   1
_chemical_formula_structural   Y3Ho13Cd4OsPd3
_chemical_formula_sum   'Y3 Ho13 Cd4 Os1 Pd3'
_cell_volume   633.98287743
_cell_formula_units_Z   1
loop_
 _symmetry_equiv_pos_site_id
 _symmetry_equiv_pos_as_xyz
  1  'x, y, z'
loop_
 _atom_site_type_symbol
 _atom_site_label
 _atom_site_symmetry_multiplicity
 _atom_site_fract_x
 _atom_site_fract_y
 _atom_site_fract_z
 _atom_site_occupancy
  Y  Y0  1  0.937362  0.558550  0.937247  1
  Y  Y1  1  0.566098  0.566428  0.934396  1
  Y  Y2  1  0.937015  0.937127  0.558640  1
  Ho  Ho3  1  0.353064  0.353076  0.353538  1
  Ho  Ho4  1  0.350692  0.350349  0.944637  1
  Ho  Ho5  1  0.350817  0.944624  0.350485  1
  Ho  Ho6  1  0.944610  0.350685  0.350702  1
  Ho  Ho7  1  0.816141  0.188161  0.188571  1
  Ho  Ho8  1  0.188315  0.810632  0.810353  1
  Ho  Ho9  1  0.188437  0.816118  0.188441  1
  Ho  Ho10  1  0.810522  0.188077  0.810488  1
  Ho  Ho11  1  0.188599  0.188210  0.816061  1
  Ho  Ho12  1  0.810389  0.810633  0.188288  1
  Ho  Ho13  1  0.934965  0.566000  0.565605  1
  Ho  Ho14  1  0.557885  0.937775  0.937519  1
  Ho  Ho15  1  0.566031  0.934879  0.566025  1
  Cd  Cd16  1  0.580526  0.580562  0.580293  1
  Cd  Cd17  1  0.580862  0.581258  0.254123  1
  Cd  Cd18  1  0.580960  0.253657  0.581313  1
  Cd  Cd19  1  0.254087  0.580958  0.580929  1
  Os  Os20  1  0.144290  0.143915  0.143873  1
  Pd  Pd21  1  0.144757  0.144697  0.569016  1
  Pd  Pd22  1  0.144511  0.569171  0.144721  1
  Pd  Pd23  1  0.569064  0.144459  0.144735  1
