# generated using pymatgen
data_Tb2Nd2Tm2CoBr10
_symmetry_space_group_name_H-M   'P 1'
_cell_length_a   7.40049670
_cell_length_b   9.19090118
_cell_length_c   9.29206774
_cell_angle_alpha   106.98956162
_cell_angle_beta   95.75245217
_cell_angle_gamma   106.34475512
_symmetry_Int_Tables_number   1
_chemical_formula_structural   Tb2Nd2Tm2CoBr10
_chemical_formula_sum   'Tb2 Nd2 Tm2 Co1 Br10'
_cell_volume   568.43073310
_cell_formula_units_Z   1
loop_
 _symmetry_equiv_pos_site_id
 _symmetry_equiv_pos_as_xyz
  1  'x, y, z'
loop_
 _atom_site_type_symbol
 _atom_site_label
 _atom_site_symmetry_multiplicity
 _atom_site_fract_x
 _atom_site_fract_y
 _atom_site_fract_z
 _atom_site_occupancy
  Tb  Tb0  1  0.354462  0.135351  0.673025  1
  Tb  Tb1  1  0.645538  0.864649  0.326975  1
  Nd  Nd2  1  0.874028  0.950628  0.736792  1
  Nd  Nd3  1  0.125972  0.049372  0.263208  1
  Tm  Tm4  1  0.028455  0.707760  0.410737  1
  Tm  Tm5  1  0.971545  0.292240  0.589263  1
  Co  Co6  1  0.000000  0.000000  0.500000  1
  Br  Br7  1  0.443596  0.819322  0.583027  1
  Br  Br8  1  0.556404  0.180678  0.416973  1
  Br  Br9  1  0.917255  0.618707  0.666408  1
  Br  Br10  1  0.082745  0.381293  0.333592  1
  Br  Br11  1  0.257681  0.081279  0.949560  1
  Br  Br12  1  0.742319  0.918721  0.050440  1
  Br  Br13  1  0.340183  0.452513  0.767733  1
  Br  Br14  1  0.659817  0.547487  0.232267  1
  Br  Br15  1  0.781316  0.262581  0.836961  1
  Br  Br16  1  0.218684  0.737419  0.163039  1
