# generated using pymatgen
data_Ce2Er3P12PdRu18
_symmetry_space_group_name_H-M   'P 1'
_cell_length_a   12.63108601
_cell_length_b   12.63108421
_cell_length_c   3.97334300
_cell_angle_alpha   90.00000000
_cell_angle_beta   90.00000000
_cell_angle_gamma   120.59816082
_symmetry_Int_Tables_number   1
_chemical_formula_structural   Ce2Er3P12PdRu18
_chemical_formula_sum   'Ce2 Er3 P12 Pd1 Ru18'
_cell_volume   545.65562046
_cell_formula_units_Z   1
loop_
 _symmetry_equiv_pos_site_id
 _symmetry_equiv_pos_as_xyz
  1  'x, y, z'
loop_
 _atom_site_type_symbol
 _atom_site_label
 _atom_site_symmetry_multiplicity
 _atom_site_fract_x
 _atom_site_fract_y
 _atom_site_fract_z
 _atom_site_occupancy
  Ce  Ce0  1  0.816567  0.999367  0.500000  1
  Ce  Ce1  1  0.999367  0.816567  0.500000  1
  Er  Er2  1  0.185777  0.185777  0.500000  1
  Er  Er3  1  0.328547  0.669579  0.000000  1
  Er  Er4  1  0.669579  0.328547  0.000000  1
  P  P5  1  0.807314  0.807314  0.000000  1
  P  P6  1  0.186307  0.005970  0.000000  1
  P  P7  1  0.005970  0.186307  0.000000  1
  P  P8  1  0.174448  0.481877  0.500000  1
  P  P9  1  0.516448  0.700097  0.500000  1
  P  P10  1  0.304916  0.831888  0.500000  1
  P  P11  1  0.700097  0.516448  0.500000  1
  P  P12  1  0.831888  0.304916  0.500000  1
  P  P13  1  0.481877  0.174448  0.500000  1
  P  P14  1  0.364995  0.364995  0.000000  1
  P  P15  1  0.624751  0.000290  0.000000  1
  P  P16  1  0.000290  0.624751  0.000000  1
  Pd  Pd17  1  0.551254  0.551254  0.000000  1
  Ru  Ru18  1  0.445143  0.002545  0.000000  1
  Ru  Ru19  1  0.002545  0.445143  0.000000  1
  Ru  Ru20  1  0.707661  0.707661  0.500000  1
  Ru  Ru21  1  0.284218  0.003998  0.500000  1
  Ru  Ru22  1  0.003998  0.284218  0.500000  1
  Ru  Ru23  1  0.187924  0.380882  0.000000  1
  Ru  Ru24  1  0.618731  0.805876  0.000000  1
  Ru  Ru25  1  0.189988  0.818255  0.000000  1
  Ru  Ru26  1  0.805876  0.618731  0.000000  1
  Ru  Ru27  1  0.818255  0.189988  0.000000  1
  Ru  Ru28  1  0.380882  0.187924  0.000000  1
  Ru  Ru29  1  0.367600  0.494828  0.500000  1
  Ru  Ru30  1  0.506008  0.877280  0.500000  1
  Ru  Ru31  1  0.127598  0.636115  0.500000  1
  Ru  Ru32  1  0.877280  0.506008  0.500000  1
  Ru  Ru33  1  0.636115  0.127598  0.500000  1
  Ru  Ru34  1  0.494828  0.367600  0.500000  1
  Ru  Ru35  1  0.994956  0.994956  0.000000  1
