# generated using pymatgen
data_Co3Ni3Te8
_symmetry_space_group_name_H-M   'P 1'
_cell_length_a   7.48458970
_cell_length_b   7.48459015
_cell_length_c   7.51571491
_cell_angle_alpha   60.13689319
_cell_angle_beta   60.13689392
_cell_angle_gamma   59.99999505
_symmetry_Int_Tables_number   1
_chemical_formula_structural   Co3Ni3Te8
_chemical_formula_sum   'Co3 Ni3 Te8'
_cell_volume   298.32306442
_cell_formula_units_Z   1
loop_
 _symmetry_equiv_pos_site_id
 _symmetry_equiv_pos_as_xyz
  1  'x, y, z'
loop_
 _atom_site_type_symbol
 _atom_site_label
 _atom_site_symmetry_multiplicity
 _atom_site_fract_x
 _atom_site_fract_y
 _atom_site_fract_z
 _atom_site_occupancy
  Co  Co0  1  0.125000  0.125000  0.125000  1
  Co  Co1  1  0.125000  0.625000  0.125000  1
  Co  Co2  1  0.625000  0.125000  0.125000  1
  Ni  Ni3  1  0.499404  0.499404  0.501789  1
  Ni  Ni4  1  0.125000  0.125000  0.625000  1
  Ni  Ni5  1  0.750596  0.750596  0.748211  1
  Te  Te6  1  0.881700  0.881700  0.888854  1
  Te  Te7  1  0.884576  0.884576  0.346272  1
  Te  Te8  1  0.368300  0.368300  0.361146  1
  Te  Te9  1  0.365424  0.365424  0.903728  1
  Te  Te10  1  0.881700  0.347748  0.888854  1
  Te  Te11  1  0.368300  0.902252  0.361146  1
  Te  Te12  1  0.902252  0.368300  0.361146  1
  Te  Te13  1  0.347748  0.881700  0.888854  1
