# generated using pymatgen
data_Y2ErZnIn3Pt2
_symmetry_space_group_name_H-M   'P 1'
_cell_length_a   7.69331837
_cell_length_b   7.73697620
_cell_length_c   3.85120700
_cell_angle_alpha   90.00000000
_cell_angle_beta   90.00000000
_cell_angle_gamma   120.18789920
_symmetry_Int_Tables_number   1
_chemical_formula_structural   Y2ErZnIn3Pt2
_chemical_formula_sum   'Y2 Er1 Zn1 In3 Pt2'
_cell_volume   198.14679433
_cell_formula_units_Z   1
loop_
 _symmetry_equiv_pos_site_id
 _symmetry_equiv_pos_as_xyz
  1  'x, y, z'
loop_
 _atom_site_type_symbol
 _atom_site_label
 _atom_site_symmetry_multiplicity
 _atom_site_fract_x
 _atom_site_fract_y
 _atom_site_fract_z
 _atom_site_occupancy
  Y  Y0  1  0.593256  0.000189  0.500000  1
  Y  Y1  1  0.406744  0.406933  0.500000  1
  Er  Er2  1  0.000000  0.592560  0.500000  1
  Zn  Zn3  1  0.000000  0.999659  0.500000  1
  In  In4  1  0.740903  0.739568  0.000000  1
  In  In5  1  0.000000  0.260632  0.000000  1
  In  In6  1  0.259097  0.998664  0.000000  1
  Pt  Pt7  1  0.330696  0.666246  0.000000  1
  Pt  Pt8  1  0.669304  0.335549  0.000000  1
