# generated using pymatgen
data_Y2HoEr(GaCo)4
_symmetry_space_group_name_H-M   'P 1'
_cell_length_a   4.41983600
_cell_length_b   6.86019153
_cell_length_c   7.00781864
_cell_angle_alpha   89.74818287
_cell_angle_beta   90.00000000
_cell_angle_gamma   90.00000000
_symmetry_Int_Tables_number   1
_chemical_formula_structural   Y2HoEr(GaCo)4
_chemical_formula_sum   'Y2 Ho1 Er1 Ga4 Co4'
_cell_volume   212.48146663
_cell_formula_units_Z   1
loop_
 _symmetry_equiv_pos_site_id
 _symmetry_equiv_pos_as_xyz
  1  'x, y, z'
loop_
 _atom_site_type_symbol
 _atom_site_label
 _atom_site_symmetry_multiplicity
 _atom_site_fract_x
 _atom_site_fract_y
 _atom_site_fract_z
 _atom_site_occupancy
  Y  Y0  1  0.250000  0.304243  0.522027  1
  Y  Y1  1  0.750000  0.695432  0.478426  1
  Ho  Ho2  1  0.750000  0.804838  0.977486  1
  Er  Er3  1  0.250000  0.196161  0.022778  1
  Ga  Ga4  1  0.250000  0.894677  0.695232  1
  Ga  Ga5  1  0.250000  0.606133  0.193129  1
  Ga  Ga6  1  0.750000  0.105679  0.304184  1
  Ga  Ga7  1  0.750000  0.393022  0.807495  1
  Co  Co8  1  0.250000  0.937623  0.341664  1
  Co  Co9  1  0.250000  0.563166  0.845033  1
  Co  Co10  1  0.750000  0.062845  0.657473  1
  Co  Co11  1  0.750000  0.436181  0.155076  1
