# generated using pymatgen
data_Er4MgCo2Sb
_symmetry_space_group_name_H-M   'P 1'
_cell_length_a   8.82223265
_cell_length_b   8.82223268
_cell_length_c   8.82223214
_cell_angle_alpha   131.42104491
_cell_angle_beta   131.42103387
_cell_angle_gamma   71.14498398
_symmetry_Int_Tables_number   1
_chemical_formula_structural   Er4MgCo2Sb
_chemical_formula_sum   'Er8 Mg2 Co4 Sb2'
_cell_volume   378.01214712
_cell_formula_units_Z   2
loop_
 _symmetry_equiv_pos_site_id
 _symmetry_equiv_pos_as_xyz
  1  'x, y, z'
loop_
 _atom_site_type_symbol
 _atom_site_label
 _atom_site_symmetry_multiplicity
 _atom_site_fract_x
 _atom_site_fract_y
 _atom_site_fract_z
 _atom_site_occupancy
  Er  Er0  1  0.804816  0.304816  0.860972  1
  Er  Er1  1  0.195184  0.695184  0.139028  1
  Er  Er2  1  0.443843  0.943843  0.139028  1
  Er  Er3  1  0.304816  0.443843  0.500000  1
  Er  Er4  1  0.056157  0.195184  0.500000  1
  Er  Er5  1  0.556157  0.056157  0.860972  1
  Er  Er6  1  0.695184  0.556157  0.500000  1
  Er  Er7  1  0.943843  0.804816  0.500000  1
  Mg  Mg8  1  0.000000  0.000000  0.000000  1
  Mg  Mg9  1  0.500000  0.500000  0.000000  1
  Co  Co10  1  0.110070  0.610070  0.720138  1
  Co  Co11  1  0.889930  0.389930  0.279862  1
  Co  Co12  1  0.610070  0.889930  0.500000  1
  Co  Co13  1  0.389930  0.110070  0.500000  1
  Sb  Sb14  1  0.250000  0.250000  0.000000  1
  Sb  Sb15  1  0.750000  0.750000  0.000000  1
