# generated using pymatgen
data_Pr12Al3SnI12
_symmetry_space_group_name_H-M   'P 1'
_cell_length_a   10.95183694
_cell_length_b   11.09237377
_cell_length_c   11.09237411
_cell_angle_alpha   109.72644687
_cell_angle_beta   109.21476971
_cell_angle_gamma   109.21477041
_symmetry_Int_Tables_number   1
_chemical_formula_structural   Pr12Al3SnI12
_chemical_formula_sum   'Pr12 Al3 Sn1 I12'
_cell_volume   1040.58805079
_cell_formula_units_Z   1
loop_
 _symmetry_equiv_pos_site_id
 _symmetry_equiv_pos_as_xyz
  1  'x, y, z'
loop_
 _atom_site_type_symbol
 _atom_site_label
 _atom_site_symmetry_multiplicity
 _atom_site_fract_x
 _atom_site_fract_y
 _atom_site_fract_z
 _atom_site_occupancy
  Pr  Pr0  1  0.479136  0.482847  0.243102  1
  Pr  Pr1  1  0.750000  0.238845  0.261155  1
  Pr  Pr2  1  0.750000  0.012651  0.487349  1
  Pr  Pr3  1  0.237349  0.474699  0.487349  1
  Pr  Pr4  1  0.263967  0.760255  0.243102  1
  Pr  Pr5  1  0.020864  0.256898  0.017153  1
  Pr  Pr6  1  0.011155  0.022309  0.261155  1
  Pr  Pr7  1  0.496288  0.760255  0.017153  1
  Pr  Pr8  1  0.488845  0.238845  0.477691  1
  Pr  Pr9  1  0.003712  0.482847  0.739745  1
  Pr  Pr10  1  0.262651  0.012651  0.025301  1
  Pr  Pr11  1  0.236033  0.256898  0.739745  1
  Al  Al12  1  0.250000  0.248947  0.251053  1
  Al  Al13  1  0.501053  0.002105  0.251053  1
  Al  Al14  1  0.998947  0.248947  0.497895  1
  Sn  Sn15  1  0.250000  0.500000  0.000000  1
  I  I16  1  0.250000  0.755334  0.744666  1
  I  I17  1  0.514156  0.507663  0.757407  1
  I  I18  1  0.985844  0.742593  0.992337  1
  I  I19  1  0.743250  0.249745  0.757407  1
  I  I20  1  0.994666  0.989334  0.744666  1
  I  I21  1  0.250000  0.992338  0.507662  1
  I  I22  1  0.757662  0.515323  0.507662  1
  I  I23  1  0.506494  0.249745  0.992337  1
  I  I24  1  0.756750  0.742593  0.250255  1
  I  I25  1  0.742338  0.992338  0.984677  1
  I  I26  1  0.993506  0.507663  0.250255  1
  I  I27  1  0.505334  0.755334  0.510666  1
