# generated using pymatgen
data_Tm12Co8Si7Ni
_symmetry_space_group_name_H-M   'P 1'
_cell_length_a   5.42143302
_cell_length_b   7.47591851
_cell_length_c   12.53825300
_cell_angle_alpha   90.00000000
_cell_angle_beta   90.00000000
_cell_angle_gamma   90.59446964
_symmetry_Int_Tables_number   1
_chemical_formula_structural   Tm12Co8Si7Ni
_chemical_formula_sum   'Tm12 Co8 Si7 Ni1'
_cell_volume   508.15044188
_cell_formula_units_Z   1
loop_
 _symmetry_equiv_pos_site_id
 _symmetry_equiv_pos_as_xyz
  1  'x, y, z'
loop_
 _atom_site_type_symbol
 _atom_site_label
 _atom_site_symmetry_multiplicity
 _atom_site_fract_x
 _atom_site_fract_y
 _atom_site_fract_z
 _atom_site_occupancy
  Tm  Tm0  1  0.631277  0.243355  0.250000  1
  Tm  Tm1  1  0.374639  0.746077  0.750000  1
  Tm  Tm2  1  0.365492  0.761841  0.250000  1
  Tm  Tm3  1  0.631209  0.247370  0.750000  1
  Tm  Tm4  1  0.139234  0.390827  0.103204  1
  Tm  Tm5  1  0.862702  0.604947  0.899467  1
  Tm  Tm6  1  0.862702  0.604947  0.600533  1
  Tm  Tm7  1  0.859380  0.899976  0.398505  1
  Tm  Tm8  1  0.139234  0.390827  0.396796  1
  Tm  Tm9  1  0.143792  0.102898  0.601499  1
  Tm  Tm10  1  0.143792  0.102898  0.898501  1
  Tm  Tm11  1  0.859380  0.899976  0.101495  1
  Co  Co12  1  0.361486  0.031050  0.085584  1
  Co  Co13  1  0.642162  0.972970  0.911831  1
  Co  Co14  1  0.642162  0.972970  0.588169  1
  Co  Co15  1  0.630777  0.528253  0.412286  1
  Co  Co16  1  0.361486  0.031050  0.414416  1
  Co  Co17  1  0.363640  0.469660  0.587590  1
  Co  Co18  1  0.363640  0.469660  0.912410  1
  Co  Co19  1  0.630777  0.528253  0.087714  1
  Si  Si20  1  0.852478  0.897854  0.750000  1
  Si  Si21  1  0.839669  0.598925  0.250000  1
  Si  Si22  1  0.150652  0.398096  0.750000  1
  Si  Si23  1  0.613156  0.252273  0.998354  1
  Si  Si24  1  0.388047  0.749952  0.999252  1
  Si  Si25  1  0.388047  0.749952  0.500748  1
  Si  Si26  1  0.613156  0.252273  0.501646  1
  Ni  Ni27  1  0.145833  0.100869  0.250000  1
