# generated using pymatgen
data_Sc2ReC2
_symmetry_space_group_name_H-M   'P 1'
_cell_length_a   4.77240800
_cell_length_b   6.27392400
_cell_length_c   9.35963300
_cell_angle_alpha   90.00000000
_cell_angle_beta   90.00000000
_cell_angle_gamma   90.00000000
_symmetry_Int_Tables_number   1
_chemical_formula_structural   Sc2ReC2
_chemical_formula_sum   'Sc8 Re4 C8'
_cell_volume   280.24355822
_cell_formula_units_Z   4
loop_
 _symmetry_equiv_pos_site_id
 _symmetry_equiv_pos_as_xyz
  1  'x, y, z'
loop_
 _atom_site_type_symbol
 _atom_site_label
 _atom_site_symmetry_multiplicity
 _atom_site_fract_x
 _atom_site_fract_y
 _atom_site_fract_z
 _atom_site_occupancy
  Sc  Sc0  1  0.250000  0.836709  0.936840  1
  Sc  Sc1  1  0.250000  0.336709  0.563160  1
  Sc  Sc2  1  0.750000  0.163291  0.063160  1
  Sc  Sc3  1  0.750000  0.663291  0.436840  1
  Sc  Sc4  1  0.250000  0.452711  0.220587  1
  Sc  Sc5  1  0.250000  0.952711  0.279413  1
  Sc  Sc6  1  0.750000  0.547289  0.779413  1
  Sc  Sc7  1  0.750000  0.047289  0.720587  1
  Re  Re8  1  0.250000  0.303327  0.879124  1
  Re  Re9  1  0.250000  0.803327  0.620876  1
  Re  Re10  1  0.750000  0.696673  0.120876  1
  Re  Re11  1  0.750000  0.196673  0.379124  1
  C  C12  1  0.250000  0.071274  0.742677  1
  C  C13  1  0.250000  0.571274  0.757323  1
  C  C14  1  0.750000  0.928726  0.257323  1
  C  C15  1  0.750000  0.428726  0.242677  1
  C  C16  1  0.250000  0.662494  0.435544  1
  C  C17  1  0.250000  0.162494  0.064456  1
  C  C18  1  0.750000  0.337506  0.564456  1
  C  C19  1  0.750000  0.837506  0.935544  1
