# generated using pymatgen
data_Cs6InTe4F
_symmetry_space_group_name_H-M   'P 1'
_cell_length_a   12.23123000
_cell_length_b   12.23122922
_cell_length_c   8.64656700
_cell_angle_alpha   90.00000000
_cell_angle_beta   90.00000000
_cell_angle_gamma   120.00000211
_symmetry_Int_Tables_number   1
_chemical_formula_structural   Cs6InTe4F
_chemical_formula_sum   'Cs12 In2 Te8 F2'
_cell_volume   1120.24901726
_cell_formula_units_Z   2
loop_
 _symmetry_equiv_pos_site_id
 _symmetry_equiv_pos_as_xyz
  1  'x, y, z'
loop_
 _atom_site_type_symbol
 _atom_site_label
 _atom_site_symmetry_multiplicity
 _atom_site_fract_x
 _atom_site_fract_y
 _atom_site_fract_z
 _atom_site_occupancy
  Cs  Cs0  1  0.112216  0.887784  0.512273  1
  Cs  Cs1  1  0.775567  0.887784  0.512273  1
  Cs  Cs2  1  0.956583  0.478292  0.316436  1
  Cs  Cs3  1  0.521708  0.478292  0.316436  1
  Cs  Cs4  1  0.887784  0.775567  0.012273  1
  Cs  Cs5  1  0.224433  0.112216  0.012273  1
  Cs  Cs6  1  0.521708  0.043417  0.316436  1
  Cs  Cs7  1  0.112216  0.224433  0.512273  1
  Cs  Cs8  1  0.887784  0.112216  0.012273  1
  Cs  Cs9  1  0.043417  0.521708  0.816436  1
  Cs  Cs10  1  0.478292  0.956583  0.816436  1
  Cs  Cs11  1  0.478292  0.521708  0.816436  1
  In  In12  1  0.666667  0.333333  0.707848  1
  In  In13  1  0.333333  0.666667  0.207848  1
  Te  Te14  1  0.408953  0.204477  0.607360  1
  Te  Te15  1  0.591047  0.795523  0.107360  1
  Te  Te16  1  0.666667  0.333333  0.034111  1
  Te  Te17  1  0.795523  0.591047  0.607360  1
  Te  Te18  1  0.204477  0.408953  0.107360  1
  Te  Te19  1  0.333333  0.666667  0.534111  1
  Te  Te20  1  0.204477  0.795523  0.107360  1
  Te  Te21  1  0.795523  0.204477  0.607360  1
  F  F22  1  0.000000  0.000000  0.290435  1
  F  F23  1  0.000000  0.000000  0.790435  1
