# generated using pymatgen
data_La2HoLu3Ta2O14
_symmetry_space_group_name_H-M   'P 1'
_cell_length_a   6.46398731
_cell_length_b   6.46201626
_cell_length_c   7.57677703
_cell_angle_alpha   90.00878849
_cell_angle_beta   90.00292799
_cell_angle_gamma   108.93201416
_symmetry_Int_Tables_number   1
_chemical_formula_structural   La2HoLu3Ta2O14
_chemical_formula_sum   'La2 Ho1 Lu3 Ta2 O14'
_cell_volume   299.36443516
_cell_formula_units_Z   1
loop_
 _symmetry_equiv_pos_site_id
 _symmetry_equiv_pos_as_xyz
  1  'x, y, z'
loop_
 _atom_site_type_symbol
 _atom_site_label
 _atom_site_symmetry_multiplicity
 _atom_site_fract_x
 _atom_site_fract_y
 _atom_site_fract_z
 _atom_site_occupancy
  La  La0  1  0.504934  0.505209  0.500705  1
  La  La1  1  0.496189  0.496694  0.999291  1
  Ho  Ho2  1  0.466359  0.998850  0.252726  1
  Lu  Lu3  1  0.002196  0.530047  0.247426  1
  Lu  Lu4  1  0.997575  0.469228  0.747521  1
  Lu  Lu5  1  0.531646  0.002353  0.752624  1
  Ta  Ta6  1  0.000118  0.000224  0.501069  1
  Ta  Ta7  1  0.999796  0.999867  0.998950  1
  O  O8  1  0.934215  0.067344  0.750010  1
  O  O9  1  0.065089  0.933321  0.249980  1
  O  O10  1  0.350673  0.643875  0.250039  1
  O  O11  1  0.649499  0.350953  0.749933  1
  O  O12  1  0.357982  0.641832  0.749994  1
  O  O13  1  0.644520  0.364373  0.249805  1
  O  O14  1  0.323223  0.068749  0.966506  1
  O  O15  1  0.676196  0.929898  0.472044  1
  O  O16  1  0.318263  0.063518  0.540174  1
  O  O17  1  0.680961  0.935000  0.034758  1
  O  O18  1  0.062270  0.318181  0.461677  1
  O  O19  1  0.937940  0.681087  0.961619  1
  O  O20  1  0.932927  0.676182  0.531602  1
  O  O21  1  0.067429  0.323216  0.031547  1
