# generated using pymatgen
data_Li2Tb16CdInRh4
_symmetry_space_group_name_H-M   'P 1'
_cell_length_a   9.68877582
_cell_length_b   9.68877524
_cell_length_c   9.68139225
_cell_angle_alpha   59.88929186
_cell_angle_beta   59.88928858
_cell_angle_gamma   60.05067492
_symmetry_Int_Tables_number   1
_chemical_formula_structural   Li2Tb16CdInRh4
_chemical_formula_sum   'Li2 Tb16 Cd1 In1 Rh4'
_cell_volume   641.79647348
_cell_formula_units_Z   1
loop_
 _symmetry_equiv_pos_site_id
 _symmetry_equiv_pos_as_xyz
  1  'x, y, z'
loop_
 _atom_site_type_symbol
 _atom_site_label
 _atom_site_symmetry_multiplicity
 _atom_site_fract_x
 _atom_site_fract_y
 _atom_site_fract_z
 _atom_site_occupancy
  Li  Li0  1  0.973904  0.673710  0.676608  1
  Li  Li1  1  0.673710  0.973904  0.676608  1
  Tb  Tb2  1  0.298142  0.898814  0.901414  1
  Tb  Tb3  1  0.686371  0.313515  0.686496  1
  Tb  Tb4  1  0.313644  0.686277  0.313991  1
  Tb  Tb5  1  0.064329  0.438027  0.435809  1
  Tb  Tb6  1  0.686277  0.313644  0.313991  1
  Tb  Tb7  1  0.438027  0.064329  0.435809  1
  Tb  Tb8  1  0.440164  0.060288  0.062084  1
  Tb  Tb9  1  0.901885  0.901885  0.904551  1
  Tb  Tb10  1  0.060288  0.440164  0.062084  1
  Tb  Tb11  1  0.898814  0.298142  0.901414  1
  Tb  Tb12  1  0.313515  0.686371  0.686496  1
  Tb  Tb13  1  0.901461  0.901461  0.291369  1
  Tb  Tb14  1  0.441068  0.441068  0.058307  1
  Tb  Tb15  1  0.312219  0.312219  0.687408  1
  Tb  Tb16  1  0.684877  0.684877  0.316911  1
  Tb  Tb17  1  0.066633  0.066633  0.434215  1
  Cd  Cd18  1  0.671238  0.671238  0.665715  1
  In  In19  1  0.670947  0.670947  0.993497  1
  Rh  Rh20  1  0.107804  0.107804  0.677563  1
  Rh  Rh21  1  0.108533  0.677219  0.105819  1
  Rh  Rh22  1  0.108932  0.108932  0.106021  1
  Rh  Rh23  1  0.677219  0.108533  0.105819  1
