# generated using pymatgen
data_LaAl2GaAg
_symmetry_space_group_name_H-M   'P 1'
_cell_length_a   6.40458573
_cell_length_b   6.40458593
_cell_length_c   6.40458528
_cell_angle_alpha   140.52015025
_cell_angle_beta   140.52014705
_cell_angle_gamma   57.06436984
_symmetry_Int_Tables_number   1
_chemical_formula_structural   LaAl2GaAg
_chemical_formula_sum   'La1 Al2 Ga1 Ag1'
_cell_volume   105.31565428
_cell_formula_units_Z   1
loop_
 _symmetry_equiv_pos_site_id
 _symmetry_equiv_pos_as_xyz
  1  'x, y, z'
loop_
 _atom_site_type_symbol
 _atom_site_label
 _atom_site_symmetry_multiplicity
 _atom_site_fract_x
 _atom_site_fract_y
 _atom_site_fract_z
 _atom_site_occupancy
  La  La0  1  0.989040  0.989040  0.000000  1
  Al  Al1  1  0.749460  0.249460  0.500000  1
  Al  Al2  1  0.249460  0.749460  0.500000  1
  Ga  Ga3  1  0.391159  0.391159  0.000000  1
  Ag  Ag4  1  0.620882  0.620882  0.000000  1
