# generated using pymatgen
data_La13Y7Si15Os
_symmetry_space_group_name_H-M   'P 1'
_cell_length_a   7.96663959
_cell_length_b   7.96195231
_cell_length_c   14.74793251
_cell_angle_alpha   89.85833611
_cell_angle_beta   89.42946176
_cell_angle_gamma   90.21922102
_symmetry_Int_Tables_number   1
_chemical_formula_structural   La13Y7Si15Os
_chemical_formula_sum   'La13 Y7 Si15 Os1'
_cell_volume   935.40525133
_cell_formula_units_Z   1
loop_
 _symmetry_equiv_pos_site_id
 _symmetry_equiv_pos_as_xyz
  1  'x, y, z'
loop_
 _atom_site_type_symbol
 _atom_site_label
 _atom_site_symmetry_multiplicity
 _atom_site_fract_x
 _atom_site_fract_y
 _atom_site_fract_z
 _atom_site_occupancy
  La  La0  1  0.131718  0.990641  0.875945  1
  La  La1  1  0.991539  0.628647  0.049538  1
  La  La2  1  0.014548  0.377630  0.539151  1
  La  La3  1  0.634466  0.985233  0.959267  1
  La  La4  1  0.134329  0.511085  0.795294  1
  La  La5  1  0.865391  0.489448  0.296403  1
  La  La6  1  0.507002  0.130473  0.204893  1
  La  La7  1  0.495052  0.872198  0.698962  1
  La  La8  1  0.366489  0.013686  0.457226  1
  La  La9  1  0.705665  0.690378  0.497634  1
  La  La10  1  0.818935  0.180241  0.749826  1
  La  La11  1  0.178402  0.805992  0.265786  1
  La  La12  1  0.305187  0.301282  0.996587  1
  Y  Y13  1  0.364655  0.489140  0.378473  1
  Y  Y14  1  0.861411  0.011577  0.372308  1
  Y  Y15  1  0.987512  0.134887  0.128363  1
  Y  Y16  1  0.020365  0.863977  0.620498  1
  Y  Y17  1  0.634123  0.512091  0.876883  1
  Y  Y18  1  0.495790  0.370484  0.621084  1
  Y  Y19  1  0.506194  0.630216  0.126878  1
  Si  Si20  1  0.917275  0.293070  0.944272  1
  Si  Si21  1  0.708628  0.080707  0.557074  1
  Si  Si22  1  0.215960  0.421653  0.193000  1
  Si  Si23  1  0.790934  0.572928  0.692586  1
  Si  Si24  1  0.431683  0.219632  0.802206  1
  Si  Si25  1  0.571802  0.788019  0.307083  1
  Si  Si26  1  0.288163  0.919301  0.065079  1
  Si  Si27  1  0.839609  0.792163  0.806251  1
  Si  Si28  1  0.156503  0.207565  0.309681  1
  Si  Si29  1  0.787497  0.844081  0.188808  1
  Si  Si30  1  0.299335  0.660315  0.554321  1
  Si  Si31  1  0.700085  0.343145  0.059642  1
  Si  Si32  1  0.654765  0.294278  0.439893  1
  Si  Si33  1  0.343582  0.696150  0.948378  1
  Si  Si34  1  0.211178  0.163725  0.684884  1
  Os  Os35  1  0.064229  0.713966  0.435841  1
