# generated using pymatgen
data_LaTb2Yb5(Cu2Sn5)2
_symmetry_space_group_name_H-M   'P 1'
_cell_length_a   4.46636200
_cell_length_b   8.84967800
_cell_length_c   14.11525900
_cell_angle_alpha   90.00000000
_cell_angle_beta   90.00000000
_cell_angle_gamma   90.00000000
_symmetry_Int_Tables_number   1
_chemical_formula_structural   LaTb2Yb5(Cu2Sn5)2
_chemical_formula_sum   'La1 Tb2 Yb5 Cu4 Sn10'
_cell_volume   557.91782918
_cell_formula_units_Z   1
loop_
 _symmetry_equiv_pos_site_id
 _symmetry_equiv_pos_as_xyz
  1  'x, y, z'
loop_
 _atom_site_type_symbol
 _atom_site_label
 _atom_site_symmetry_multiplicity
 _atom_site_fract_x
 _atom_site_fract_y
 _atom_site_fract_z
 _atom_site_occupancy
  La  La0  1  0.500000  0.140920  0.000000  1
  Tb  Tb1  1  0.500000  0.694501  0.000000  1
  Tb  Tb2  1  0.000000  0.297721  0.500000  1
  Yb  Yb3  1  0.500000  0.791539  0.741265  1
  Yb  Yb4  1  0.000000  0.205463  0.753832  1
  Yb  Yb5  1  0.000000  0.205463  0.246168  1
  Yb  Yb6  1  0.000000  0.866090  0.500000  1
  Yb  Yb7  1  0.500000  0.791539  0.258735  1
  Cu  Cu8  1  0.500000  0.377976  0.643667  1
  Cu  Cu9  1  0.000000  0.623343  0.852765  1
  Cu  Cu10  1  0.000000  0.623343  0.147235  1
  Cu  Cu11  1  0.500000  0.377976  0.356333  1
  Sn  Sn12  1  0.500000  0.084648  0.395804  1
  Sn  Sn13  1  0.000000  0.552615  0.662563  1
  Sn  Sn14  1  0.000000  0.417288  0.000000  1
  Sn  Sn15  1  0.500000  0.445963  0.165486  1
  Sn  Sn16  1  0.500000  0.593736  0.500000  1
  Sn  Sn17  1  0.500000  0.445963  0.834514  1
  Sn  Sn18  1  0.000000  0.913325  0.895886  1
  Sn  Sn19  1  0.000000  0.552615  0.337437  1
  Sn  Sn20  1  0.500000  0.084648  0.604196  1
  Sn  Sn21  1  0.000000  0.913325  0.104114  1
