# generated using pymatgen
data_Ca2Ga2Ni5B2Ru
_symmetry_space_group_name_H-M   'P 1'
_cell_length_a   5.38539085
_cell_length_b   5.19048177
_cell_length_c   6.70794300
_cell_angle_alpha   90.00000000
_cell_angle_beta   90.00000000
_cell_angle_gamma   118.80982477
_symmetry_Int_Tables_number   1
_chemical_formula_structural   Ca2Ga2Ni5B2Ru
_chemical_formula_sum   'Ca2 Ga2 Ni5 B2 Ru1'
_cell_volume   164.29692485
_cell_formula_units_Z   1
loop_
 _symmetry_equiv_pos_site_id
 _symmetry_equiv_pos_as_xyz
  1  'x, y, z'
loop_
 _atom_site_type_symbol
 _atom_site_label
 _atom_site_symmetry_multiplicity
 _atom_site_fract_x
 _atom_site_fract_y
 _atom_site_fract_z
 _atom_site_occupancy
  Ca  Ca0  1  0.000000  0.000000  0.509123  1
  Ca  Ca1  1  0.000000  0.000000  0.002339  1
  Ga  Ga2  1  0.344575  0.672288  0.494745  1
  Ga  Ga3  1  0.655425  0.327712  0.494745  1
  Ni  Ni4  1  0.500000  0.500000  0.801667  1
  Ni  Ni5  1  0.500000  0.000000  0.801667  1
  Ni  Ni6  1  0.000000  0.500000  0.204293  1
  Ni  Ni7  1  0.500000  0.500000  0.197953  1
  Ni  Ni8  1  0.500000  0.000000  0.197953  1
  B  B9  1  0.672688  0.336344  0.001565  1
  B  B10  1  0.327312  0.663656  0.001565  1
  Ru  Ru11  1  0.000000  0.500000  0.792387  1
