# generated using pymatgen
data_Zr12Ta5Nb3Si16
_symmetry_space_group_name_H-M   'P 1'
_cell_length_a   6.97199562
_cell_length_b   6.97358748
_cell_length_c   12.86788615
_cell_angle_alpha   90.37785526
_cell_angle_beta   89.98240497
_cell_angle_gamma   89.98192495
_symmetry_Int_Tables_number   1
_chemical_formula_structural   Zr12Ta5Nb3Si16
_chemical_formula_sum   'Zr12 Ta5 Nb3 Si16'
_cell_volume   625.62065978
_cell_formula_units_Z   1
loop_
 _symmetry_equiv_pos_site_id
 _symmetry_equiv_pos_as_xyz
  1  'x, y, z'
loop_
 _atom_site_type_symbol
 _atom_site_label
 _atom_site_symmetry_multiplicity
 _atom_site_fract_x
 _atom_site_fract_y
 _atom_site_fract_z
 _atom_site_occupancy
  Zr  Zr0  1  0.650202  0.497126  0.876309  1
  Zr  Zr1  1  0.502525  0.351528  0.622615  1
  Zr  Zr2  1  0.499453  0.647601  0.125385  1
  Zr  Zr3  1  0.147305  0.999286  0.873638  1
  Zr  Zr4  1  0.001432  0.652736  0.036544  1
  Zr  Zr5  1  0.000957  0.345997  0.529746  1
  Zr  Zr6  1  0.653773  0.999203  0.967564  1
  Zr  Zr7  1  0.151465  0.498794  0.781798  1
  Zr  Zr8  1  0.847002  0.501074  0.282844  1
  Zr  Zr9  1  0.500799  0.153500  0.220399  1
  Zr  Zr10  1  0.501199  0.846678  0.714234  1
  Zr  Zr11  1  0.343332  0.001060  0.467079  1
  Ta  Ta12  1  0.995070  0.851558  0.624520  1
  Ta  Ta13  1  0.673634  0.674118  0.498569  1
  Ta  Ta14  1  0.828582  0.171084  0.748158  1
  Ta  Ta15  1  0.171546  0.830348  0.251832  1
  Ta  Ta16  1  0.326989  0.324748  0.001613  1
  Nb  Nb17  1  0.349946  0.507737  0.375604  1
  Nb  Nb18  1  0.853816  0.996538  0.374435  1
  Nb  Nb19  1  0.006874  0.148135  0.127179  1
  Si  Si20  1  0.046643  0.703505  0.436383  1
  Si  Si21  1  0.954911  0.298799  0.937983  1
  Si  Si22  1  0.704550  0.045860  0.561581  1
  Si  Si23  1  0.201185  0.450169  0.187876  1
  Si  Si24  1  0.801557  0.549743  0.683664  1
  Si  Si25  1  0.452515  0.198335  0.813973  1
  Si  Si26  1  0.549145  0.799575  0.315587  1
  Si  Si27  1  0.299366  0.954813  0.065808  1
  Si  Si28  1  0.854462  0.797177  0.817560  1
  Si  Si29  1  0.138879  0.208113  0.323143  1
  Si  Si30  1  0.798226  0.864169  0.180166  1
  Si  Si31  1  0.290656  0.643519  0.570811  1
  Si  Si32  1  0.708679  0.352128  0.074103  1
  Si  Si33  1  0.638612  0.294207  0.424887  1
  Si  Si34  1  0.354003  0.701056  0.930061  1
  Si  Si35  1  0.200709  0.139981  0.676345  1
