# generated using pymatgen
data_Ca2TbThPd4
_symmetry_space_group_name_H-M   'P 1'
_cell_length_a   4.53825800
_cell_length_b   5.72746562
_cell_length_c   7.35501360
_cell_angle_alpha   90.52517536
_cell_angle_beta   90.00000000
_cell_angle_gamma   90.00000000
_symmetry_Int_Tables_number   1
_chemical_formula_structural   Ca2TbThPd4
_chemical_formula_sum   'Ca2 Tb1 Th1 Pd4'
_cell_volume   191.16875350
_cell_formula_units_Z   1
loop_
 _symmetry_equiv_pos_site_id
 _symmetry_equiv_pos_as_xyz
  1  'x, y, z'
loop_
 _atom_site_type_symbol
 _atom_site_label
 _atom_site_symmetry_multiplicity
 _atom_site_fract_x
 _atom_site_fract_y
 _atom_site_fract_z
 _atom_site_occupancy
  Ca  Ca0  1  0.250000  0.139026  0.182516  1
  Ca  Ca1  1  0.750000  0.641676  0.314606  1
  Tb  Tb2  1  0.750000  0.861885  0.819211  1
  Th  Th3  1  0.250000  0.358986  0.684752  1
  Pd  Pd4  1  0.250000  0.847235  0.561022  1
  Pd  Pd5  1  0.250000  0.647774  0.019749  1
  Pd  Pd6  1  0.750000  0.150721  0.474388  1
  Pd  Pd7  1  0.750000  0.352696  0.943756  1
