# generated using pymatgen
data_CrGa9(BO9)2
_symmetry_space_group_name_H-M   'P 1'
_cell_length_a   5.96341211
_cell_length_b   8.12304335
_cell_length_c   8.43895506
_cell_angle_alpha   89.95403419
_cell_angle_beta   110.56980020
_cell_angle_gamma   90.01944651
_symmetry_Int_Tables_number   1
_chemical_formula_structural   CrGa9(BO9)2
_chemical_formula_sum   'Cr1 Ga9 B2 O18'
_cell_volume   382.72917763
_cell_formula_units_Z   1
loop_
 _symmetry_equiv_pos_site_id
 _symmetry_equiv_pos_as_xyz
  1  'x, y, z'
loop_
 _atom_site_type_symbol
 _atom_site_label
 _atom_site_symmetry_multiplicity
 _atom_site_fract_x
 _atom_site_fract_y
 _atom_site_fract_z
 _atom_site_occupancy
  Cr  Cr0  1  0.866191  0.502204  0.226064  1
  Ga  Ga1  1  0.553762  0.816915  0.112886  1
  Ga  Ga2  1  0.442694  0.315918  0.886895  1
  Ga  Ga3  1  0.745049  0.806095  0.489820  1
  Ga  Ga4  1  0.255002  0.306535  0.510323  1
  Ga  Ga5  1  0.297389  0.664397  0.592463  1
  Ga  Ga6  1  0.705150  0.164411  0.408799  1
  Ga  Ga7  1  0.637289  0.999180  0.773066  1
  Ga  Ga8  1  0.135569  0.998607  0.772267  1
  Ga  Ga9  1  0.363645  0.497471  0.227370  1
  B  B10  1  0.015484  0.780567  0.032691  1
  B  B11  1  0.983826  0.279068  0.967243  1
  O  O12  1  0.956481  0.904814  0.914603  1
  O  O13  1  0.044570  0.402358  0.086297  1
  O  O14  1  0.651228  0.957430  0.302076  1
  O  O15  1  0.348607  0.457119  0.697963  1
  O  O16  1  0.664586  0.630912  0.330466  1
  O  O17  1  0.335236  0.130715  0.669720  1
  O  O18  1  0.454650  0.930180  0.910740  1
  O  O19  1  0.540232  0.431650  0.086705  1
  O  O20  1  0.248027  0.718009  0.094745  1
  O  O21  1  0.842364  0.717205  0.093190  1
  O  O22  1  0.750229  0.217199  0.906060  1
  O  O23  1  0.154727  0.216269  0.905131  1
  O  O24  1  0.194728  0.561998  0.379876  1
  O  O25  1  0.811489  0.060880  0.621675  1
  O  O26  1  0.557831  0.796801  0.625313  1
  O  O27  1  0.067897  0.796546  0.623674  1
  O  O28  1  0.443909  0.295777  0.376154  1
  O  O29  1  0.932157  0.297568  0.375723  1
