# generated using pymatgen
data_Dy6Tm4Si16Sn
_symmetry_space_group_name_H-M   'P 1'
_cell_length_a   11.07231917
_cell_length_b   11.01430094
_cell_length_c   11.08028959
_cell_angle_alpha   144.71890313
_cell_angle_beta   136.04279453
_cell_angle_gamma   57.68368489
_symmetry_Int_Tables_number   1
_chemical_formula_structural   Dy6Tm4Si16Sn
_chemical_formula_sum   'Dy6 Tm4 Si16 Sn1'
_cell_volume   536.98824344
_cell_formula_units_Z   1
loop_
 _symmetry_equiv_pos_site_id
 _symmetry_equiv_pos_as_xyz
  1  'x, y, z'
loop_
 _atom_site_type_symbol
 _atom_site_label
 _atom_site_symmetry_multiplicity
 _atom_site_fract_x
 _atom_site_fract_y
 _atom_site_fract_z
 _atom_site_occupancy
  Dy  Dy0  1  0.150368  0.163714  0.515043  1
  Dy  Dy1  1  0.350102  0.369385  0.521088  1
  Dy  Dy2  1  0.242366  0.759942  0.002470  1
  Dy  Dy3  1  0.544680  0.556048  0.496279  1
  Dy  Dy4  1  0.060290  0.556714  0.010701  1
  Dy  Dy5  1  0.648119  0.162834  0.013374  1
  Tm  Tm6  1  0.757145  0.759251  0.517568  1
  Tm  Tm7  1  0.439636  0.971685  0.015686  1
  Tm  Tm8  1  0.848715  0.369220  0.019338  1
  Tm  Tm9  1  0.956262  0.972241  0.531501  1
  Si  Si10  1  0.196632  0.578021  0.377098  1
  Si  Si11  1  0.998267  0.083389  0.079518  1
  Si  Si12  1  0.697770  0.279384  0.584121  1
  Si  Si13  1  0.798590  0.176356  0.377741  1
  Si  Si14  1  0.894002  0.500128  0.602961  1
  Si  Si15  1  0.420533  0.872099  0.454630  1
  Si  Si16  1  0.102134  0.715034  0.608488  1
  Si  Si17  1  0.300989  0.893223  0.591819  1
  Si  Si18  1  0.579539  0.039825  0.467092  1
  Si  Si19  1  0.997790  0.431148  0.429168  1
  Si  Si20  1  0.882668  0.837980  0.954348  1
  Si  Si21  1  0.402607  0.499269  0.099107  1
  Si  Si22  1  0.118279  0.088665  0.966673  1
  Si  Si23  1  0.287194  0.235977  0.949103  1
  Si  Si24  1  0.502347  0.384750  0.887363  1
  Si  Si25  1  0.599147  0.707488  0.114817  1
  Sn  Sn26  1  0.723829  0.697727  0.974402  1
