# generated using pymatgen
data_Y6Ho4Hg3Ru
_symmetry_space_group_name_H-M   'P 1'
_cell_length_a   9.65271348
_cell_length_b   9.65718661
_cell_length_c   9.66414654
_cell_angle_alpha   90.00231442
_cell_angle_beta   90.05476723
_cell_angle_gamma   120.01643648
_symmetry_Int_Tables_number   1
_chemical_formula_structural   Y6Ho4Hg3Ru
_chemical_formula_sum   'Y12 Ho8 Hg6 Ru2'
_cell_volume   780.04911209
_cell_formula_units_Z   2
loop_
 _symmetry_equiv_pos_site_id
 _symmetry_equiv_pos_as_xyz
  1  'x, y, z'
loop_
 _atom_site_type_symbol
 _atom_site_label
 _atom_site_symmetry_multiplicity
 _atom_site_fract_x
 _atom_site_fract_y
 _atom_site_fract_z
 _atom_site_occupancy
  Y  Y0  1  0.999967  0.999981  0.500008  1
  Y  Y1  1  0.999533  0.999762  0.999711  1
  Y  Y2  1  0.419728  0.209873  0.939690  1
  Y  Y3  1  0.209189  0.790223  0.060326  1
  Y  Y4  1  0.209223  0.419002  0.060292  1
  Y  Y5  1  0.580999  0.790488  0.060215  1
  Y  Y6  1  0.541343  0.459011  0.250708  1
  Y  Y7  1  0.541317  0.082336  0.250724  1
  Y  Y8  1  0.917553  0.458803  0.250465  1
  Y  Y9  1  0.459185  0.541085  0.749196  1
  Y  Y10  1  0.459220  0.918107  0.749179  1
  Y  Y11  1  0.081454  0.540695  0.749362  1
  Ho  Ho12  1  0.210102  0.789787  0.439675  1
  Ho  Ho13  1  0.210113  0.420325  0.439673  1
  Ho  Ho14  1  0.579633  0.789816  0.439666  1
  Ho  Ho15  1  0.789821  0.210214  0.560579  1
  Ho  Ho16  1  0.789810  0.579596  0.560583  1
  Ho  Ho17  1  0.420522  0.210259  0.560260  1
  Ho  Ho18  1  0.790007  0.210391  0.939087  1
  Ho  Ho19  1  0.789994  0.579595  0.939103  1
  Hg  Hg20  1  0.881431  0.118754  0.250014  1
  Hg  Hg21  1  0.881457  0.762682  0.250004  1
  Hg  Hg22  1  0.237254  0.118600  0.250115  1
  Hg  Hg23  1  0.118453  0.881230  0.749906  1
  Hg  Hg24  1  0.118434  0.237225  0.749917  1
  Hg  Hg25  1  0.762847  0.881444  0.749889  1
  Ru  Ru26  1  0.333360  0.666699  0.252733  1
  Ru  Ru27  1  0.668053  0.334017  0.748921  1
