# generated using pymatgen
data_LiDy3As6Ir7
_symmetry_space_group_name_H-M   'P 1'
_cell_length_a   7.27979975
_cell_length_b   7.21798642
_cell_length_c   7.21798612
_cell_angle_alpha   109.29708764
_cell_angle_beta   109.64479209
_cell_angle_gamma   109.64479715
_symmetry_Int_Tables_number   1
_chemical_formula_structural   LiDy3As6Ir7
_chemical_formula_sum   'Li1 Dy3 As6 Ir7'
_cell_volume   291.33647079
_cell_formula_units_Z   1
loop_
 _symmetry_equiv_pos_site_id
 _symmetry_equiv_pos_as_xyz
  1  'x, y, z'
loop_
 _atom_site_type_symbol
 _atom_site_label
 _atom_site_symmetry_multiplicity
 _atom_site_fract_x
 _atom_site_fract_y
 _atom_site_fract_z
 _atom_site_occupancy
  Li  Li0  1  0.500000  0.000000  0.000000  1
  Dy  Dy1  1  0.000000  0.000000  0.500000  1
  Dy  Dy2  1  0.000000  0.500000  0.000000  1
  Dy  Dy3  1  0.500000  0.500000  0.500000  1
  As  As4  1  0.677479  0.687827  0.000000  1
  As  As5  1  0.322521  0.312173  0.000000  1
  As  As6  1  0.010349  0.687827  0.687827  1
  As  As7  1  0.989651  0.312173  0.312173  1
  As  As8  1  0.677479  0.000000  0.687827  1
  As  As9  1  0.322521  0.000000  0.312173  1
  Ir  Ir10  1  0.000000  0.000000  0.000000  1
  Ir  Ir11  1  0.250303  0.500607  0.750303  1
  Ir  Ir12  1  0.749697  0.249697  0.499393  1
  Ir  Ir13  1  0.500000  0.249697  0.750303  1
  Ir  Ir14  1  0.500000  0.750303  0.249697  1
  Ir  Ir15  1  0.749697  0.499393  0.249697  1
  Ir  Ir16  1  0.250303  0.750303  0.500607  1
