# generated using pymatgen
data_Tb2Ga9NiIr2
_symmetry_space_group_name_H-M   'P 1'
_cell_length_a   7.55472521
_cell_length_b   7.55472551
_cell_length_c   9.43728500
_cell_angle_alpha   90.00000000
_cell_angle_beta   90.00000000
_cell_angle_gamma   119.90312176
_symmetry_Int_Tables_number   1
_chemical_formula_structural   Tb2Ga9NiIr2
_chemical_formula_sum   'Tb4 Ga18 Ni2 Ir4'
_cell_volume   466.91540092
_cell_formula_units_Z   2
loop_
 _symmetry_equiv_pos_site_id
 _symmetry_equiv_pos_as_xyz
  1  'x, y, z'
loop_
 _atom_site_type_symbol
 _atom_site_label
 _atom_site_symmetry_multiplicity
 _atom_site_fract_x
 _atom_site_fract_y
 _atom_site_fract_z
 _atom_site_occupancy
  Tb  Tb0  1  0.996314  0.662948  0.250000  1
  Tb  Tb1  1  0.003686  0.337052  0.750000  1
  Tb  Tb2  1  0.662948  0.996314  0.250000  1
  Tb  Tb3  1  0.337052  0.003686  0.750000  1
  Ga  Ga4  1  0.113930  0.113930  0.250000  1
  Ga  Ga5  1  0.886070  0.886070  0.750000  1
  Ga  Ga6  1  0.999605  0.328377  0.078163  1
  Ga  Ga7  1  0.000395  0.671623  0.921837  1
  Ga  Ga8  1  0.000395  0.671623  0.578163  1
  Ga  Ga9  1  0.328377  0.999605  0.421837  1
  Ga  Ga10  1  0.999605  0.328377  0.421837  1
  Ga  Ga11  1  0.671623  0.000395  0.578163  1
  Ga  Ga12  1  0.671623  0.000395  0.921837  1
  Ga  Ga13  1  0.328377  0.999605  0.078163  1
  Ga  Ga14  1  0.327550  0.327550  0.564449  1
  Ga  Ga15  1  0.672450  0.672450  0.435551  1
  Ga  Ga16  1  0.672450  0.672450  0.064449  1
  Ga  Ga17  1  0.327550  0.327550  0.935551  1
  Ga  Ga18  1  0.337605  0.541501  0.250000  1
  Ga  Ga19  1  0.662395  0.458499  0.750000  1
  Ga  Ga20  1  0.541501  0.337605  0.250000  1
  Ga  Ga21  1  0.458499  0.662395  0.750000  1
  Ni  Ni22  1  0.000000  0.000000  0.000000  1
  Ni  Ni23  1  0.000000  0.000000  0.500000  1
  Ir  Ir24  1  0.671552  0.328448  0.000000  1
  Ir  Ir25  1  0.328448  0.671552  0.000000  1
  Ir  Ir26  1  0.328448  0.671552  0.500000  1
  Ir  Ir27  1  0.671552  0.328448  0.500000  1
