# generated using pymatgen
data_U8Ta4Nb7Si16Mo
_symmetry_space_group_name_H-M   'P 1'
_cell_length_a   7.01998753
_cell_length_b   7.01969153
_cell_length_c   12.96661426
_cell_angle_alpha   90.01263626
_cell_angle_beta   89.97668932
_cell_angle_gamma   90.03535865
_symmetry_Int_Tables_number   1
_chemical_formula_structural   U8Ta4Nb7Si16Mo
_chemical_formula_sum   'U8 Ta4 Nb7 Si16 Mo1'
_cell_volume   638.97053342
_cell_formula_units_Z   1
loop_
 _symmetry_equiv_pos_site_id
 _symmetry_equiv_pos_as_xyz
  1  'x, y, z'
loop_
 _atom_site_type_symbol
 _atom_site_label
 _atom_site_symmetry_multiplicity
 _atom_site_fract_x
 _atom_site_fract_y
 _atom_site_fract_z
 _atom_site_occupancy
  U  U0  1  0.995367  0.330861  0.221053  1
  U  U1  1  0.008169  0.671183  0.717953  1
  U  U2  1  0.167297  0.495769  0.468868  1
  U  U3  1  0.505176  0.831262  0.032211  1
  U  U4  1  0.830349  0.506043  0.969071  1
  U  U5  1  0.494831  0.167070  0.529463  1
  U  U6  1  0.329805  0.992374  0.780615  1
  U  U7  1  0.668682  0.005382  0.280806  1
  Ta  Ta8  1  0.168383  0.168014  0.000362  1
  Ta  Ta9  1  0.832024  0.832643  0.499287  1
  Ta  Ta10  1  0.330388  0.668563  0.250490  1
  Ta  Ta11  1  0.668614  0.331333  0.749718  1
  Nb  Nb12  1  0.843962  0.001158  0.873915  1
  Nb  Nb13  1  0.498596  0.657063  0.623649  1
  Nb  Nb14  1  0.344413  0.498892  0.876018  1
  Nb  Nb15  1  0.497565  0.342123  0.124726  1
  Nb  Nb16  1  0.657532  0.500321  0.376016  1
  Nb  Nb17  1  0.999447  0.156189  0.625972  1
  Nb  Nb18  1  0.000231  0.844788  0.126036  1
  Si  Si19  1  0.296004  0.038325  0.186519  1
  Si  Si20  1  0.702112  0.960724  0.684021  1
  Si  Si21  1  0.459028  0.797767  0.433484  1
  Si  Si22  1  0.201750  0.538974  0.066009  1
  Si  Si23  1  0.538875  0.201281  0.934500  1
  Si  Si24  1  0.796458  0.461036  0.565582  1
  Si  Si25  1  0.039768  0.298427  0.815390  1
  Si  Si26  1  0.962821  0.707580  0.315775  1
  Si  Si27  1  0.370075  0.291392  0.317014  1
  Si  Si28  1  0.629449  0.706584  0.815345  1
  Si  Si29  1  0.204813  0.871803  0.562974  1
  Si  Si30  1  0.129347  0.793404  0.934695  1
  Si  Si31  1  0.793758  0.130292  0.065846  1
  Si  Si32  1  0.875017  0.203401  0.433937  1
  Si  Si33  1  0.294206  0.369643  0.683976  1
  Si  Si34  1  0.706365  0.628071  0.184626  1
  Mo  Mo35  1  0.159325  0.000264  0.374078  1
