# generated using pymatgen
data_Pr8Dy12Si15Tc
_symmetry_space_group_name_H-M   'P 1'
_cell_length_a   7.54303691
_cell_length_b   7.82429878
_cell_length_c   14.89504400
_cell_angle_alpha   90.00000000
_cell_angle_beta   90.00000000
_cell_angle_gamma   89.71154604
_symmetry_Int_Tables_number   1
_chemical_formula_structural   Pr8Dy12Si15Tc
_chemical_formula_sum   'Pr8 Dy12 Si15 Tc1'
_cell_volume   879.07908091
_cell_formula_units_Z   1
loop_
 _symmetry_equiv_pos_site_id
 _symmetry_equiv_pos_as_xyz
  1  'x, y, z'
loop_
 _atom_site_type_symbol
 _atom_site_label
 _atom_site_symmetry_multiplicity
 _atom_site_fract_x
 _atom_site_fract_y
 _atom_site_fract_z
 _atom_site_occupancy
  Pr  Pr0  1  0.970297  0.817587  0.098046  1
  Pr  Pr1  1  0.478540  0.678197  0.400712  1
  Pr  Pr2  1  0.526192  0.321021  0.901041  1
  Pr  Pr3  1  0.025285  0.177649  0.597470  1
  Pr  Pr4  1  0.025285  0.177649  0.902530  1
  Pr  Pr5  1  0.526192  0.321021  0.598959  1
  Pr  Pr6  1  0.478540  0.678197  0.099288  1
  Pr  Pr7  1  0.970297  0.817587  0.401954  1
  Dy  Dy8  1  0.654203  0.981052  0.250000  1
  Dy  Dy9  1  0.137825  0.514732  0.250000  1
  Dy  Dy10  1  0.852625  0.486809  0.750000  1
  Dy  Dy11  1  0.351127  0.009736  0.750000  1
  Dy  Dy12  1  0.681424  0.821097  0.876885  1
  Dy  Dy13  1  0.181562  0.680878  0.621895  1
  Dy  Dy14  1  0.814841  0.328621  0.125213  1
  Dy  Dy15  1  0.318922  0.176667  0.376727  1
  Dy  Dy16  1  0.318922  0.176667  0.123273  1
  Dy  Dy17  1  0.814841  0.328621  0.374787  1
  Dy  Dy18  1  0.181562  0.680878  0.878105  1
  Dy  Dy19  1  0.681424  0.821097  0.623115  1
  Si  Si20  1  0.263498  0.884933  0.250000  1
  Si  Si21  1  0.734169  0.119386  0.750000  1
  Si  Si22  1  0.233273  0.381694  0.750000  1
  Si  Si23  1  0.027322  0.112611  0.250000  1
  Si  Si24  1  0.519824  0.389554  0.250000  1
  Si  Si25  1  0.474607  0.612913  0.750000  1
  Si  Si26  1  0.974877  0.885224  0.750000  1
  Si  Si27  1  0.858417  0.528792  0.958972  1
  Si  Si28  1  0.359306  0.972585  0.541252  1
  Si  Si29  1  0.643450  0.032836  0.038891  1
  Si  Si30  1  0.146629  0.464807  0.461716  1
  Si  Si31  1  0.146629  0.464807  0.038284  1
  Si  Si32  1  0.643450  0.032836  0.461109  1
  Si  Si33  1  0.359306  0.972585  0.958748  1
  Si  Si34  1  0.858417  0.528792  0.541028  1
  Tc  Tc35  1  0.766919  0.619882  0.250000  1
