# generated using pymatgen
data_K9(VAs3)2
_symmetry_space_group_name_H-M   'P 1'
_cell_length_a   9.13527100
_cell_length_b   9.32479984
_cell_length_c   12.85394605
_cell_angle_alpha   83.18811113
_cell_angle_beta   90.00000000
_cell_angle_gamma   90.00000000
_symmetry_Int_Tables_number   1
_chemical_formula_structural   K9(VAs3)2
_chemical_formula_sum   'K18 V4 As12'
_cell_volume   1087.22851422
_cell_formula_units_Z   2
loop_
 _symmetry_equiv_pos_site_id
 _symmetry_equiv_pos_as_xyz
  1  'x, y, z'
loop_
 _atom_site_type_symbol
 _atom_site_label
 _atom_site_symmetry_multiplicity
 _atom_site_fract_x
 _atom_site_fract_y
 _atom_site_fract_z
 _atom_site_occupancy
  K  K0  1  0.347916  0.582499  0.171275  1
  K  K1  1  0.408609  0.935307  0.568880  1
  K  K2  1  0.439218  0.626086  0.900345  1
  K  K3  1  0.482612  0.178406  0.296566  1
  K  K4  1  0.517388  0.178406  0.796566  1
  K  K5  1  0.560782  0.626086  0.400345  1
  K  K6  1  0.591391  0.935307  0.068880  1
  K  K7  1  0.652084  0.582499  0.671275  1
  K  K8  1  0.802817  0.013808  0.598860  1
  K  K9  1  0.832734  0.400808  0.337903  1
  K  K10  1  0.926539  0.074004  0.902617  1
  K  K11  1  0.941334  0.403049  0.611326  1
  K  K12  1  0.929603  0.797919  0.222446  1
  K  K13  1  0.070397  0.797919  0.722446  1
  K  K14  1  0.058666  0.403049  0.111326  1
  K  K15  1  0.073461  0.074004  0.402617  1
  K  K16  1  0.167266  0.400808  0.837903  1
  K  K17  1  0.197183  0.013808  0.098860  1
  V  V18  1  0.319032  0.346261  0.550781  1
  V  V19  1  0.680968  0.346261  0.050781  1
  V  V20  1  0.830416  0.654643  0.947806  1
  V  V21  1  0.169584  0.654643  0.447806  1
  As  As22  1  0.301216  0.583433  0.614435  1
  As  As23  1  0.291025  0.835914  0.330019  1
  As  As24  1  0.427250  0.284841  0.032754  1
  As  As25  1  0.572750  0.284841  0.532754  1
  As  As26  1  0.708975  0.835914  0.830019  1
  As  As27  1  0.698784  0.583433  0.114435  1
  As  As28  1  0.807295  0.416965  0.883959  1
  As  As29  1  0.815814  0.160928  0.156548  1
  As  As30  1  0.923410  0.723327  0.480581  1
  As  As31  1  0.076590  0.723327  0.980581  1
  As  As32  1  0.184186  0.160928  0.656548  1
  As  As33  1  0.192705  0.416965  0.383959  1
