# generated using pymatgen
data_Th3Cd13Hg2
_symmetry_space_group_name_H-M   'P 1'
_cell_length_a   17.02752140
_cell_length_b   17.02752154
_cell_length_c   7.24010738
_cell_angle_alpha   94.31357681
_cell_angle_beta   94.31357926
_cell_angle_gamma   12.22099770
_symmetry_Int_Tables_number   1
_chemical_formula_structural   Th3Cd13Hg2
_chemical_formula_sum   'Th3 Cd13 Hg2'
_cell_volume   443.08568125
_cell_formula_units_Z   1
loop_
 _symmetry_equiv_pos_site_id
 _symmetry_equiv_pos_as_xyz
  1  'x, y, z'
loop_
 _atom_site_type_symbol
 _atom_site_label
 _atom_site_symmetry_multiplicity
 _atom_site_fract_x
 _atom_site_fract_y
 _atom_site_fract_z
 _atom_site_occupancy
  Th  Th0  1  0.003035  0.003035  0.995961  1
  Th  Th1  1  0.667391  0.667391  0.332603  1
  Th  Th2  1  0.881991  0.881991  0.446209  1
  Cd  Cd3  1  0.104645  0.104645  0.024055  1
  Cd  Cd4  1  0.229408  0.229408  0.098622  1
  Cd  Cd5  1  0.325413  0.325413  0.141099  1
  Cd  Cd6  1  0.443721  0.443721  0.228394  1
  Cd  Cd7  1  0.563074  0.563074  0.302677  1
  Cd  Cd8  1  0.776249  0.776249  0.393241  1
  Cd  Cd9  1  0.997470  0.997470  0.479951  1
  Cd  Cd10  1  0.224029  0.224029  0.628604  1
  Cd  Cd11  1  0.444787  0.444787  0.711472  1
  Cd  Cd12  1  0.555150  0.555150  0.721401  1
  Cd  Cd13  1  0.668989  0.668989  0.863964  1
  Cd  Cd14  1  0.774927  0.774927  0.871802  1
  Cd  Cd15  1  0.893165  0.893165  0.959132  1
  Hg  Hg16  1  0.115800  0.115800  0.591763  1
  Hg  Hg17  1  0.330757  0.330757  0.709049  1
