# generated using pymatgen
data_Pr4Np(BN3)2
_symmetry_space_group_name_H-M   'P 1'
_cell_length_a   6.44663888
_cell_length_b   6.44663932
_cell_length_c   8.78764634
_cell_angle_alpha   74.58947737
_cell_angle_beta   74.58947725
_cell_angle_gamma   32.44844553
_symmetry_Int_Tables_number   1
_chemical_formula_structural   Pr4Np(BN3)2
_chemical_formula_sum   'Pr4 Np1 B2 N6'
_cell_volume   188.29480635
_cell_formula_units_Z   1
loop_
 _symmetry_equiv_pos_site_id
 _symmetry_equiv_pos_as_xyz
  1  'x, y, z'
loop_
 _atom_site_type_symbol
 _atom_site_label
 _atom_site_symmetry_multiplicity
 _atom_site_fract_x
 _atom_site_fract_y
 _atom_site_fract_z
 _atom_site_occupancy
  Pr  Pr0  1  0.622501  0.622501  0.625606  1
  Pr  Pr1  1  0.310024  0.310024  0.815732  1
  Pr  Pr2  1  0.689976  0.689976  0.184268  1
  Pr  Pr3  1  0.377499  0.377499  0.374394  1
  Np  Np4  1  0.000000  0.000000  0.000000  1
  B  B5  1  0.054474  0.054474  0.408481  1
  B  B6  1  0.945526  0.945526  0.591519  1
  N  N7  1  0.026808  0.026808  0.251691  1
  N  N8  1  0.366042  0.366042  0.073323  1
  N  N9  1  0.825696  0.825696  0.593150  1
  N  N10  1  0.973192  0.973192  0.748309  1
  N  N11  1  0.633958  0.633958  0.926677  1
  N  N12  1  0.174304  0.174304  0.406850  1
