# generated using pymatgen
data_Y2TmCu4(SiSn)2
_symmetry_space_group_name_H-M   'P 1'
_cell_length_a   8.17452259
_cell_length_b   8.17452386
_cell_length_c   8.17452248
_cell_angle_alpha   149.35994807
_cell_angle_beta   132.03410941
_cell_angle_gamma   57.99731997
_symmetry_Int_Tables_number   1
_chemical_formula_structural   Y2TmCu4(SiSn)2
_chemical_formula_sum   'Y2 Tm1 Cu4 Si2 Sn2'
_cell_volume   205.23172330
_cell_formula_units_Z   1
loop_
 _symmetry_equiv_pos_site_id
 _symmetry_equiv_pos_as_xyz
  1  'x, y, z'
loop_
 _atom_site_type_symbol
 _atom_site_label
 _atom_site_symmetry_multiplicity
 _atom_site_fract_x
 _atom_site_fract_y
 _atom_site_fract_z
 _atom_site_occupancy
  Y  Y0  1  0.500203  0.000203  0.500000  1
  Y  Y1  1  0.876277  0.876277  0.000000  1
  Tm  Tm2  1  0.123695  0.123695  0.000000  1
  Cu  Cu3  1  0.463363  0.653293  0.810070  1
  Cu  Cu4  1  0.843222  0.653293  0.189930  1
  Cu  Cu5  1  0.157857  0.346612  0.811243  1
  Cu  Cu6  1  0.535369  0.346612  0.188757  1
  Si  Si7  1  0.181086  0.500361  0.680726  1
  Si  Si8  1  0.819635  0.500361  0.319274  1
  Sn  Sn9  1  0.718321  0.218321  0.500000  1
  Sn  Sn10  1  0.280973  0.780973  0.500000  1
