# generated using pymatgen
data_Pr2Y9In9Ir4
_symmetry_space_group_name_H-M   'P 1'
_cell_length_a   13.19597143
_cell_length_b   13.19597248
_cell_length_c   3.75373200
_cell_angle_alpha   90.00000000
_cell_angle_beta   90.00000000
_cell_angle_gamma   111.75131363
_symmetry_Int_Tables_number   1
_chemical_formula_structural   Pr2Y9In9Ir4
_chemical_formula_sum   'Pr2 Y9 In9 Ir4'
_cell_volume   607.11187990
_cell_formula_units_Z   1
loop_
 _symmetry_equiv_pos_site_id
 _symmetry_equiv_pos_as_xyz
  1  'x, y, z'
loop_
 _atom_site_type_symbol
 _atom_site_label
 _atom_site_symmetry_multiplicity
 _atom_site_fract_x
 _atom_site_fract_y
 _atom_site_fract_z
 _atom_site_occupancy
  Pr  Pr0  1  0.339660  0.660340  0.500000  1
  Pr  Pr1  1  0.660340  0.339660  0.500000  1
  Y  Y2  1  0.500000  0.500000  0.500000  1
  Y  Y3  1  0.816400  0.816400  0.500000  1
  Y  Y4  1  0.183600  0.183600  0.500000  1
  Y  Y5  1  0.580528  0.917259  0.500000  1
  Y  Y6  1  0.419472  0.082741  0.500000  1
  Y  Y7  1  0.917259  0.580528  0.500000  1
  Y  Y8  1  0.082741  0.419472  0.500000  1
  Y  Y9  1  0.124719  0.875281  0.500000  1
  Y  Y10  1  0.875281  0.124719  0.500000  1
  In  In11  1  0.338217  0.870476  0.000000  1
  In  In12  1  0.661783  0.129524  0.000000  1
  In  In13  1  0.870476  0.338217  0.000000  1
  In  In14  1  0.129524  0.661783  0.000000  1
  In  In15  1  0.581453  0.720433  0.000000  1
  In  In16  1  0.418547  0.279567  0.000000  1
  In  In17  1  0.720433  0.581453  0.000000  1
  In  In18  1  0.279567  0.418547  0.000000  1
  In  In19  1  0.000000  0.000000  0.000000  1
  Ir  Ir20  1  0.746067  0.951406  0.000000  1
  Ir  Ir21  1  0.253933  0.048594  0.000000  1
  Ir  Ir22  1  0.951406  0.746067  0.000000  1
  Ir  Ir23  1  0.048594  0.253933  0.000000  1
