# generated using pymatgen
data_Nd5ZnSe4
_symmetry_space_group_name_H-M   'P 1'
_cell_length_a   7.35478912
_cell_length_b   7.35478410
_cell_length_c   7.35479003
_cell_angle_alpha   99.61474455
_cell_angle_beta   99.61471850
_cell_angle_gamma   131.75572838
_symmetry_Int_Tables_number   1
_chemical_formula_structural   Nd5ZnSe4
_chemical_formula_sum   'Nd5 Zn1 Se4'
_cell_volume   270.86974694
_cell_formula_units_Z   1
loop_
 _symmetry_equiv_pos_site_id
 _symmetry_equiv_pos_as_xyz
  1  'x, y, z'
loop_
 _atom_site_type_symbol
 _atom_site_label
 _atom_site_symmetry_multiplicity
 _atom_site_fract_x
 _atom_site_fract_y
 _atom_site_fract_z
 _atom_site_occupancy
  Nd  Nd0  1  0.400150  0.800331  0.200480  1
  Nd  Nd1  1  0.000000  0.000000  0.000000  1
  Nd  Nd2  1  0.599850  0.199669  0.799520  1
  Nd  Nd3  1  0.199669  0.400150  0.599819  1
  Nd  Nd4  1  0.800331  0.599850  0.400181  1
  Zn  Zn5  1  0.500000  0.500000  0.000000  1
  Se  Se6  1  0.099410  0.698367  0.797777  1
  Se  Se7  1  0.698367  0.900590  0.598957  1
  Se  Se8  1  0.301633  0.099410  0.401043  1
  Se  Se9  1  0.900590  0.301633  0.202223  1
