# generated using pymatgen
data_Li4Nd3Sm(SiO4)4
_symmetry_space_group_name_H-M   'P 1'
_cell_length_a   6.37538855
_cell_length_b   5.56003686
_cell_length_c   11.19025175
_cell_angle_alpha   66.81242353
_cell_angle_beta   89.90523872
_cell_angle_gamma   89.89342404
_symmetry_Int_Tables_number   1
_chemical_formula_structural   Li4Nd3Sm(SiO4)4
_chemical_formula_sum   'Li4 Nd3 Sm1 Si4 O16'
_cell_volume   364.62213471
_cell_formula_units_Z   1
loop_
 _symmetry_equiv_pos_site_id
 _symmetry_equiv_pos_as_xyz
  1  'x, y, z'
loop_
 _atom_site_type_symbol
 _atom_site_label
 _atom_site_symmetry_multiplicity
 _atom_site_fract_x
 _atom_site_fract_y
 _atom_site_fract_z
 _atom_site_occupancy
  Li  Li0  1  0.632345  0.926214  0.927314  1
  Li  Li1  1  0.133177  0.074524  0.572835  1
  Li  Li2  1  0.867782  0.923988  0.428439  1
  Li  Li3  1  0.367477  0.075071  0.072522  1
  Nd  Nd4  1  0.617483  0.441567  0.350065  1
  Nd  Nd5  1  0.118239  0.558297  0.150016  1
  Nd  Nd6  1  0.882613  0.442902  0.848259  1
  Sm  Sm7  1  0.382964  0.557145  0.650170  1
  Si  Si8  1  0.649428  0.090605  0.642528  1
  Si  Si9  1  0.154218  0.910439  0.856003  1
  Si  Si10  1  0.847933  0.090568  0.142432  1
  Si  Si11  1  0.347874  0.907953  0.359007  1
  O  O12  1  0.659053  0.234198  0.747145  1
  O  O13  1  0.144950  0.229469  0.775005  1
  O  O14  1  0.431391  0.219732  0.558719  1
  O  O15  1  0.835836  0.172237  0.531483  1
  O  O16  1  0.337374  0.826812  0.968718  1
  O  O17  1  0.933807  0.787841  0.938980  1
  O  O18  1  0.838337  0.232553  0.247579  1
  O  O19  1  0.357329  0.226658  0.277803  1
  O  O20  1  0.637504  0.771456  0.722121  1
  O  O21  1  0.165212  0.765673  0.751950  1
  O  O22  1  0.067057  0.215144  0.058351  1
  O  O23  1  0.663153  0.173868  0.030713  1
  O  O24  1  0.164135  0.822854  0.471862  1
  O  O25  1  0.566707  0.783692  0.443125  1
  O  O26  1  0.858400  0.771895  0.223399  1
  O  O27  1  0.338220  0.766644  0.253458  1
