# generated using pymatgen
data_Dy13Tm2Th(CdCo)4
_symmetry_space_group_name_H-M   'P 1'
_cell_length_a   9.49856522
_cell_length_b   9.52607827
_cell_length_c   9.48035800
_cell_angle_alpha   60.15863909
_cell_angle_beta   60.06338828
_cell_angle_gamma   60.14620236
_symmetry_Int_Tables_number   1
_chemical_formula_structural   Dy13Tm2Th(CdCo)4
_chemical_formula_sum   'Dy13 Tm2 Th1 Cd4 Co4'
_cell_volume   608.25707575
_cell_formula_units_Z   1
loop_
 _symmetry_equiv_pos_site_id
 _symmetry_equiv_pos_as_xyz
  1  'x, y, z'
loop_
 _atom_site_type_symbol
 _atom_site_label
 _atom_site_symmetry_multiplicity
 _atom_site_fract_x
 _atom_site_fract_y
 _atom_site_fract_z
 _atom_site_occupancy
  Dy  Dy0  1  0.937449  0.562115  0.562750  1
  Dy  Dy1  1  0.544220  0.150958  0.152411  1
  Dy  Dy2  1  0.151729  0.151234  0.542347  1
  Dy  Dy3  1  0.936828  0.940001  0.561586  1
  Dy  Dy4  1  0.314044  0.689160  0.310297  1
  Dy  Dy5  1  0.560535  0.940349  0.937673  1
  Dy  Dy6  1  0.560535  0.940349  0.561444  1
  Dy  Dy7  1  0.686951  0.687398  0.312826  1
  Dy  Dy8  1  0.562601  0.561972  0.937713  1
  Dy  Dy9  1  0.937449  0.562115  0.937685  1
  Dy  Dy10  1  0.314044  0.689160  0.686500  1
  Dy  Dy11  1  0.151729  0.151234  0.154690  1
  Dy  Dy12  1  0.313410  0.311714  0.687439  1
  Tm  Tm13  1  0.688980  0.312726  0.687264  1
  Tm  Tm14  1  0.688980  0.312726  0.311031  1
  Th  Th15  1  0.156150  0.529781  0.157034  1
  Cd  Cd16  1  0.919079  0.241829  0.919547  1
  Cd  Cd17  1  0.918655  0.920478  0.918239  1
  Cd  Cd18  1  0.918655  0.920478  0.242630  1
  Cd  Cd19  1  0.243663  0.919562  0.918388  1
  Co  Co20  1  0.355570  0.360361  0.927343  1
  Co  Co21  1  0.357318  0.923453  0.359616  1
  Co  Co22  1  0.925863  0.360489  0.356825  1
  Co  Co23  1  0.355570  0.360361  0.356727  1
