# generated using pymatgen
data_Dy5Ti3P12(IrRh7)2
_symmetry_space_group_name_H-M   'P 1'
_cell_length_a   12.77087400
_cell_length_b   12.77566885
_cell_length_c   3.90714700
_cell_angle_alpha   90.00000000
_cell_angle_beta   90.00000000
_cell_angle_gamma   119.98759078
_symmetry_Int_Tables_number   1
_chemical_formula_structural   Dy5Ti3P12(IrRh7)2
_chemical_formula_sum   'Dy5 Ti3 P12 Ir2 Rh14'
_cell_volume   552.13965702
_cell_formula_units_Z   1
loop_
 _symmetry_equiv_pos_site_id
 _symmetry_equiv_pos_as_xyz
  1  'x, y, z'
loop_
 _atom_site_type_symbol
 _atom_site_label
 _atom_site_symmetry_multiplicity
 _atom_site_fract_x
 _atom_site_fract_y
 _atom_site_fract_z
 _atom_site_occupancy
  Dy  Dy0  1  0.333364  0.666634  0.500000  1
  Dy  Dy1  1  0.666731  0.333366  0.500000  1
  Dy  Dy2  1  0.999930  0.811650  0.000000  1
  Dy  Dy3  1  0.188280  0.188350  0.000000  1
  Dy  Dy4  1  0.811770  0.000000  0.000000  1
  Ti  Ti5  1  0.999964  0.445358  0.500000  1
  Ti  Ti6  1  0.554606  0.554642  0.500000  1
  Ti  Ti7  1  0.445650  0.000000  0.500000  1
  P  P8  1  0.999779  0.639602  0.500000  1
  P  P9  1  0.360178  0.360398  0.500000  1
  P  P10  1  0.640073  0.000000  0.500000  1
  P  P11  1  0.516858  0.683258  0.000000  1
  P  P12  1  0.316535  0.833197  0.000000  1
  P  P13  1  0.166509  0.483032  0.000000  1
  P  P14  1  0.483339  0.166803  0.000000  1
  P  P15  1  0.683479  0.516968  0.000000  1
  P  P16  1  0.833601  0.316742  0.000000  1
  P  P17  1  0.999897  0.177008  0.500000  1
  P  P18  1  0.822889  0.822992  0.500000  1
  P  P19  1  0.176620  0.000000  0.500000  1
  Ir  Ir20  1  0.282175  0.000000  0.000000  1
  Ir  Ir21  1  0.999837  0.000000  0.500000  1
  Rh  Rh22  1  0.512873  0.869440  0.000000  1
  Rh  Rh23  1  0.130409  0.643092  0.000000  1
  Rh  Rh24  1  0.356584  0.486808  0.000000  1
  Rh  Rh25  1  0.487318  0.356908  0.000000  1
  Rh  Rh26  1  0.869777  0.513192  0.000000  1
  Rh  Rh27  1  0.643434  0.130560  0.000000  1
  Rh  Rh28  1  0.000038  0.281991  0.000000  1
  Rh  Rh29  1  0.718046  0.718009  0.000000  1
  Rh  Rh30  1  0.624543  0.802198  0.500000  1
  Rh  Rh31  1  0.197093  0.821428  0.500000  1
  Rh  Rh32  1  0.177636  0.375461  0.500000  1
  Rh  Rh33  1  0.375665  0.178572  0.500000  1
  Rh  Rh34  1  0.802176  0.624539  0.500000  1
  Rh  Rh35  1  0.822345  0.197802  0.500000  1
