# generated using pymatgen
data_Dy3Y4Co2Sn23Os4
_symmetry_space_group_name_H-M   'P 1'
_cell_length_a   9.80684443
_cell_length_b   9.83827200
_cell_length_c   10.08357839
_cell_angle_alpha   89.99733439
_cell_angle_beta   89.77939418
_cell_angle_gamma   120.10592596
_symmetry_Int_Tables_number   1
_chemical_formula_structural   Dy3Y4Co2Sn23Os4
_chemical_formula_sum   'Dy3 Y4 Co2 Sn23 Os4'
_cell_volume   841.63641974
_cell_formula_units_Z   1
loop_
 _symmetry_equiv_pos_site_id
 _symmetry_equiv_pos_as_xyz
  1  'x, y, z'
loop_
 _atom_site_type_symbol
 _atom_site_label
 _atom_site_symmetry_multiplicity
 _atom_site_fract_x
 _atom_site_fract_y
 _atom_site_fract_z
 _atom_site_occupancy
  Dy  Dy0  1  0.516258  0.035400  0.694139  1
  Dy  Dy1  1  0.035358  0.517684  0.304155  1
  Dy  Dy2  1  0.964640  0.482322  0.695847  1
  Y  Y3  1  0.999994  0.999990  0.000002  1
  Y  Y4  1  0.483573  0.519196  0.305960  1
  Y  Y5  1  0.516445  0.480820  0.694043  1
  Y  Y6  1  0.483568  0.964376  0.305985  1
  Co  Co7  1  0.338674  0.169336  0.199076  1
  Co  Co8  1  0.661272  0.830742  0.800898  1
  Sn  Sn9  1  0.349289  0.002606  0.004622  1
  Sn  Sn10  1  0.650734  0.997412  0.995294  1
  Sn  Sn11  1  0.000003  0.349806  0.000001  1
  Sn  Sn12  1  0.999983  0.650183  0.999994  1
  Sn  Sn13  1  0.650763  0.653357  0.995337  1
  Sn  Sn14  1  0.349241  0.346663  0.004641  1
  Sn  Sn15  1  0.336068  0.668063  0.820770  1
  Sn  Sn16  1  0.664016  0.332010  0.179223  1
  Sn  Sn17  1  0.999985  0.999989  0.499997  1
  Sn  Sn18  1  0.780881  0.219892  0.460784  1
  Sn  Sn19  1  0.219131  0.780102  0.539278  1
  Sn  Sn20  1  0.780952  0.561003  0.460730  1
  Sn  Sn21  1  0.219047  0.439005  0.539274  1
  Sn  Sn22  1  0.436849  0.218364  0.453808  1
  Sn  Sn23  1  0.563171  0.781665  0.546302  1
  Sn  Sn24  1  0.334834  0.667406  0.123235  1
  Sn  Sn25  1  0.665114  0.332483  0.876699  1
  Sn  Sn26  1  0.120955  0.889031  0.274752  1
  Sn  Sn27  1  0.878950  0.110938  0.725233  1
  Sn  Sn28  1  0.120958  0.231922  0.274752  1
  Sn  Sn29  1  0.879002  0.768075  0.725253  1
  Sn  Sn30  1  0.763661  0.881824  0.276055  1
  Sn  Sn31  1  0.236404  0.118201  0.723917  1
  Os  Os32  1  0.829852  0.168268  0.200657  1
  Os  Os33  1  0.170381  0.831868  0.799282  1
  Os  Os34  1  0.829847  0.661583  0.200665  1
  Os  Os35  1  0.170148  0.338415  0.799341  1
