# generated using pymatgen
data_LaYHo(ZnPt)4
_symmetry_space_group_name_H-M   'P 1'
_cell_length_a   8.28027506
_cell_length_b   8.28027514
_cell_length_c   8.28027455
_cell_angle_alpha   151.70911584
_cell_angle_beta   125.63611772
_cell_angle_gamma   62.40696778
_symmetry_Int_Tables_number   1
_chemical_formula_structural   LaYHo(ZnPt)4
_chemical_formula_sum   'La1 Y1 Ho1 Zn4 Pt4'
_cell_volume   216.84290179
_cell_formula_units_Z   1
loop_
 _symmetry_equiv_pos_site_id
 _symmetry_equiv_pos_as_xyz
  1  'x, y, z'
loop_
 _atom_site_type_symbol
 _atom_site_label
 _atom_site_symmetry_multiplicity
 _atom_site_fract_x
 _atom_site_fract_y
 _atom_site_fract_z
 _atom_site_occupancy
  La  La0  1  0.500004  0.000004  0.500000  1
  Y  Y1  1  0.874444  0.874444  0.000000  1
  Ho  Ho2  1  0.125583  0.125583  0.000000  1
  Zn  Zn3  1  0.477183  0.674589  0.802594  1
  Zn  Zn4  1  0.871996  0.674589  0.197406  1
  Zn  Zn5  1  0.128271  0.325322  0.802951  1
  Zn  Zn6  1  0.522371  0.325322  0.197049  1
  Pt  Pt7  1  0.275322  0.775322  0.500000  1
  Pt  Pt8  1  0.724017  0.224017  0.500000  1
  Pt  Pt9  1  0.810906  0.500404  0.310502  1
  Pt  Pt10  1  0.189902  0.500404  0.689498  1
