# generated using pymatgen
data_Tb7Ho13Ru12
_symmetry_space_group_name_H-M   'P 1'
_cell_length_a   10.79655229
_cell_length_b   10.79836169
_cell_length_c   6.36708408
_cell_angle_alpha   90.02471508
_cell_angle_beta   90.02013677
_cell_angle_gamma   90.00478771
_symmetry_Int_Tables_number   1
_chemical_formula_structural   Tb7Ho13Ru12
_chemical_formula_sum   'Tb7 Ho13 Ru12'
_cell_volume   742.30686712
_cell_formula_units_Z   1
loop_
 _symmetry_equiv_pos_site_id
 _symmetry_equiv_pos_as_xyz
  1  'x, y, z'
loop_
 _atom_site_type_symbol
 _atom_site_label
 _atom_site_symmetry_multiplicity
 _atom_site_fract_x
 _atom_site_fract_y
 _atom_site_fract_z
 _atom_site_occupancy
  Tb  Tb0  1  0.290725  0.088604  0.376310  1
  Tb  Tb1  1  0.290677  0.912458  0.876337  1
  Tb  Tb2  1  0.708916  0.088384  0.876255  1
  Tb  Tb3  1  0.709227  0.912186  0.376317  1
  Tb  Tb4  1  0.587869  0.790736  0.876374  1
  Tb  Tb5  1  0.587597  0.209567  0.376212  1
  Tb  Tb6  1  0.411922  0.790923  0.376251  1
  Ho  Ho7  1  0.412327  0.208380  0.877145  1
  Ho  Ho8  1  0.207914  0.413588  0.622414  1
  Ho  Ho9  1  0.207189  0.585733  0.122191  1
  Ho  Ho10  1  0.792884  0.414246  0.121822  1
  Ho  Ho11  1  0.792762  0.585687  0.621891  1
  Ho  Ho12  1  0.914384  0.707206  0.122036  1
  Ho  Ho13  1  0.914398  0.292796  0.621983  1
  Ho  Ho14  1  0.085787  0.707081  0.621875  1
  Ho  Ho15  1  0.085823  0.292786  0.121807  1
  Ho  Ho16  1  0.000222  0.000035  0.502316  1
  Ho  Ho17  1  0.999946  0.000104  0.002492  1
  Ho  Ho18  1  0.499584  0.499370  0.001846  1
  Ho  Ho19  1  0.499915  0.500015  0.502223  1
  Ru  Ru20  1  0.849164  0.154627  0.250965  1
  Ru  Ru21  1  0.849102  0.845443  0.750898  1
  Ru  Ru22  1  0.152011  0.154696  0.751744  1
  Ru  Ru23  1  0.150948  0.845448  0.250765  1
  Ru  Ru24  1  0.653726  0.348444  0.751587  1
  Ru  Ru25  1  0.654570  0.650766  0.250739  1
  Ru  Ru26  1  0.345483  0.348593  0.248625  1
  Ru  Ru27  1  0.345367  0.650890  0.750857  1
  Ru  Ru28  1  0.499686  0.000744  0.123314  1
  Ru  Ru29  1  0.499700  0.000778  0.624484  1
  Ru  Ru30  1  0.000126  0.499885  0.874879  1
  Ru  Ru31  1  0.000050  0.499797  0.375043  1
