# generated using pymatgen
data_DyHoFe12P7
_symmetry_space_group_name_H-M   'P 1'
_cell_length_a   8.91990600
_cell_length_b   8.91990670
_cell_length_c   3.63794600
_cell_angle_alpha   90.00000000
_cell_angle_beta   90.00000000
_cell_angle_gamma   119.99999742
_symmetry_Int_Tables_number   1
_chemical_formula_structural   DyHoFe12P7
_chemical_formula_sum   'Dy1 Ho1 Fe12 P7'
_cell_volume   250.67295501
_cell_formula_units_Z   1
loop_
 _symmetry_equiv_pos_site_id
 _symmetry_equiv_pos_as_xyz
  1  'x, y, z'
loop_
 _atom_site_type_symbol
 _atom_site_label
 _atom_site_symmetry_multiplicity
 _atom_site_fract_x
 _atom_site_fract_y
 _atom_site_fract_z
 _atom_site_occupancy
  Dy  Dy0  1  0.333333  0.666667  0.000000  1
  Ho  Ho1  1  0.000000  0.000000  0.500000  1
  Fe  Fe2  1  0.723481  0.758172  0.000000  1
  Fe  Fe3  1  0.241828  0.965309  0.000000  1
  Fe  Fe4  1  0.034691  0.276519  0.000000  1
  Fe  Fe5  1  0.939865  0.487366  0.000000  1
  Fe  Fe6  1  0.512634  0.452498  0.000000  1
  Fe  Fe7  1  0.547502  0.060135  0.000000  1
  Fe  Fe8  1  0.099137  0.717621  0.500000  1
  Fe  Fe9  1  0.282379  0.381516  0.500000  1
  Fe  Fe10  1  0.618484  0.900863  0.500000  1
  Fe  Fe11  1  0.761357  0.543902  0.500000  1
  Fe  Fe12  1  0.456098  0.217457  0.500000  1
  Fe  Fe13  1  0.782543  0.238643  0.500000  1
  P  P14  1  0.965937  0.744556  0.000000  1
  P  P15  1  0.255444  0.221380  0.000000  1
  P  P16  1  0.778620  0.034063  0.000000  1
  P  P17  1  0.066232  0.443885  0.500000  1
  P  P18  1  0.556115  0.622346  0.500000  1
  P  P19  1  0.377654  0.933768  0.500000  1
  P  P20  1  0.666667  0.333333  0.000000  1
