# generated using pymatgen
data_Th8GaSe17
_symmetry_space_group_name_H-M   'P 1'
_cell_length_a   8.49716441
_cell_length_b   8.49716449
_cell_length_c   11.33127571
_cell_angle_alpha   79.63769308
_cell_angle_beta   79.63769330
_cell_angle_gamma   64.60302466
_symmetry_Int_Tables_number   1
_chemical_formula_structural   Th8GaSe17
_chemical_formula_sum   'Th8 Ga1 Se17'
_cell_volume   722.14344426
_cell_formula_units_Z   1
loop_
 _symmetry_equiv_pos_site_id
 _symmetry_equiv_pos_as_xyz
  1  'x, y, z'
loop_
 _atom_site_type_symbol
 _atom_site_label
 _atom_site_symmetry_multiplicity
 _atom_site_fract_x
 _atom_site_fract_y
 _atom_site_fract_z
 _atom_site_occupancy
  Th  Th0  1  0.816963  0.306501  0.297472  1
  Th  Th1  1  0.306501  0.816963  0.297472  1
  Th  Th2  1  0.183037  0.693499  0.702528  1
  Th  Th3  1  0.693499  0.183037  0.702528  1
  Th  Th4  1  0.796479  0.796479  0.455392  1
  Th  Th5  1  0.203521  0.203521  0.544608  1
  Th  Th6  1  0.318936  0.318936  0.020504  1
  Th  Th7  1  0.681064  0.681064  0.979496  1
  Ga  Ga8  1  0.000000  0.000000  0.000000  1
  Se  Se9  1  0.177892  0.568400  0.466864  1
  Se  Se10  1  0.568400  0.177892  0.466864  1
  Se  Se11  1  0.822108  0.431600  0.533136  1
  Se  Se12  1  0.431600  0.822108  0.533136  1
  Se  Se13  1  0.946294  0.327312  0.035900  1
  Se  Se14  1  0.327312  0.946294  0.035900  1
  Se  Se15  1  0.053706  0.672688  0.964100  1
  Se  Se16  1  0.672688  0.053706  0.964100  1
  Se  Se17  1  0.946671  0.946671  0.231468  1
  Se  Se18  1  0.053329  0.053329  0.768532  1
  Se  Se19  1  0.787444  0.787444  0.719678  1
  Se  Se20  1  0.212556  0.212556  0.280322  1
  Se  Se21  1  0.699899  0.699899  0.245478  1
  Se  Se22  1  0.300101  0.300101  0.754522  1
  Se  Se23  1  0.481896  0.481896  0.169705  1
  Se  Se24  1  0.518104  0.518104  0.830295  1
  Se  Se25  1  0.000000  0.000000  0.500000  1
