# generated using pymatgen
data_Ce2AlGaRh2
_symmetry_space_group_name_H-M   'P 1'
_cell_length_a   4.15655400
_cell_length_b   7.18463400
_cell_length_c   15.94206800
_cell_angle_alpha   90.00000000
_cell_angle_beta   90.00000000
_cell_angle_gamma   90.00000000
_symmetry_Int_Tables_number   1
_chemical_formula_structural   Ce2AlGaRh2
_chemical_formula_sum   'Ce8 Al4 Ga4 Rh8'
_cell_volume   476.08306525
_cell_formula_units_Z   4
loop_
 _symmetry_equiv_pos_site_id
 _symmetry_equiv_pos_as_xyz
  1  'x, y, z'
loop_
 _atom_site_type_symbol
 _atom_site_label
 _atom_site_symmetry_multiplicity
 _atom_site_fract_x
 _atom_site_fract_y
 _atom_site_fract_z
 _atom_site_occupancy
  Ce  Ce0  1  0.250000  0.153860  0.558521  1
  Ce  Ce1  1  0.750000  0.846140  0.441479  1
  Ce  Ce2  1  0.250000  0.653860  0.941479  1
  Ce  Ce3  1  0.750000  0.346140  0.058521  1
  Ce  Ce4  1  0.250000  0.027853  0.779701  1
  Ce  Ce5  1  0.750000  0.972147  0.220299  1
  Ce  Ce6  1  0.250000  0.527853  0.720299  1
  Ce  Ce7  1  0.750000  0.472147  0.279701  1
  Al  Al8  1  0.250000  0.004686  0.061749  1
  Al  Al9  1  0.750000  0.995314  0.938251  1
  Al  Al10  1  0.250000  0.504686  0.438251  1
  Al  Al11  1  0.750000  0.495314  0.561749  1
  Ga  Ga12  1  0.250000  0.140691  0.348820  1
  Ga  Ga13  1  0.750000  0.859309  0.651180  1
  Ga  Ga14  1  0.250000  0.640691  0.151180  1
  Ga  Ga15  1  0.750000  0.359309  0.848820  1
  Rh  Rh16  1  0.750000  0.281327  0.428405  1
  Rh  Rh17  1  0.250000  0.718673  0.571595  1
  Rh  Rh18  1  0.750000  0.781327  0.071595  1
  Rh  Rh19  1  0.250000  0.218673  0.928405  1
  Rh  Rh20  1  0.750000  0.740706  0.819558  1
  Rh  Rh21  1  0.250000  0.259294  0.180442  1
  Rh  Rh22  1  0.750000  0.240706  0.680442  1
  Rh  Rh23  1  0.250000  0.759294  0.319558  1
