# generated using pymatgen
data_Ho2ErIn4CoAg
_symmetry_space_group_name_H-M   'P 1'
_cell_length_a   8.01145739
_cell_length_b   8.01106292
_cell_length_c   3.68788000
_cell_angle_alpha   90.00000000
_cell_angle_beta   90.00000000
_cell_angle_gamma   119.96578127
_symmetry_Int_Tables_number   1
_chemical_formula_structural   Ho2ErIn4CoAg
_chemical_formula_sum   'Ho2 Er1 In4 Co1 Ag1'
_cell_volume   205.04950668
_cell_formula_units_Z   1
loop_
 _symmetry_equiv_pos_site_id
 _symmetry_equiv_pos_as_xyz
  1  'x, y, z'
loop_
 _atom_site_type_symbol
 _atom_site_label
 _atom_site_symmetry_multiplicity
 _atom_site_fract_x
 _atom_site_fract_y
 _atom_site_fract_z
 _atom_site_occupancy
  Ho  Ho0  1  0.713203  0.954284  0.500000  1
  Ho  Ho1  1  0.241297  0.286630  0.500000  1
  Er  Er2  1  0.045337  0.759400  0.500000  1
  In  In3  1  0.938503  0.332969  0.000000  1
  In  In4  1  0.393908  0.061136  0.000000  1
  In  In5  1  0.667768  0.605782  0.000000  1
  In  In6  1  0.332990  0.666792  0.000000  1
  Co  Co7  1  0.000096  0.999453  0.000000  1
  Ag  Ag8  1  0.666900  0.333553  0.500000  1
