# generated using pymatgen
data_Rb2YbCdSb2
_symmetry_space_group_name_H-M   'P 1'
_cell_length_a   11.45714600
_cell_length_b   11.45714609
_cell_length_c   7.46244100
_cell_angle_alpha   90.00000000
_cell_angle_beta   90.00000000
_cell_angle_gamma   99.13103693
_symmetry_Int_Tables_number   1
_chemical_formula_structural   Rb2YbCdSb2
_chemical_formula_sum   'Rb8 Yb4 Cd4 Sb8'
_cell_volume   967.15316428
_cell_formula_units_Z   4
loop_
 _symmetry_equiv_pos_site_id
 _symmetry_equiv_pos_as_xyz
  1  'x, y, z'
loop_
 _atom_site_type_symbol
 _atom_site_label
 _atom_site_symmetry_multiplicity
 _atom_site_fract_x
 _atom_site_fract_y
 _atom_site_fract_z
 _atom_site_occupancy
  Rb  Rb0  1  0.074417  0.425583  0.250000  1
  Rb  Rb1  1  0.425583  0.074417  0.750000  1
  Rb  Rb2  1  0.925583  0.574417  0.750000  1
  Rb  Rb3  1  0.574417  0.925583  0.250000  1
  Rb  Rb4  1  0.674276  0.325724  0.236329  1
  Rb  Rb5  1  0.825724  0.174276  0.736329  1
  Rb  Rb6  1  0.325724  0.674276  0.763671  1
  Rb  Rb7  1  0.174276  0.825724  0.263671  1
  Yb  Yb8  1  0.126995  0.126995  0.000000  1
  Yb  Yb9  1  0.373005  0.373005  0.500000  1
  Yb  Yb10  1  0.873005  0.873005  0.000000  1
  Yb  Yb11  1  0.626995  0.626995  0.500000  1
  Cd  Cd12  1  0.370749  0.370749  0.000000  1
  Cd  Cd13  1  0.129251  0.129251  0.500000  1
  Cd  Cd14  1  0.629251  0.629251  0.000000  1
  Cd  Cd15  1  0.870749  0.870749  0.500000  1
  Sb  Sb16  1  0.849439  0.650560  0.250000  1
  Sb  Sb17  1  0.650560  0.849439  0.750000  1
  Sb  Sb18  1  0.150560  0.349439  0.750000  1
  Sb  Sb19  1  0.349439  0.150560  0.250000  1
  Sb  Sb20  1  0.907216  0.092784  0.267986  1
  Sb  Sb21  1  0.592784  0.407216  0.767986  1
  Sb  Sb22  1  0.092784  0.907216  0.732014  1
  Sb  Sb23  1  0.407216  0.592784  0.232014  1
