# generated using pymatgen
data_CeDy5(Al3Ru)8
_symmetry_space_group_name_H-M   'P 1'
_cell_length_a   8.82569300
_cell_length_b   8.81749852
_cell_length_c   9.56985100
_cell_angle_alpha   90.00000000
_cell_angle_beta   90.00000000
_cell_angle_gamma   120.03074342
_symmetry_Int_Tables_number   1
_chemical_formula_structural   CeDy5(Al3Ru)8
_chemical_formula_sum   'Ce1 Dy5 Al24 Ru8'
_cell_volume   644.75600529
_cell_formula_units_Z   1
loop_
 _symmetry_equiv_pos_site_id
 _symmetry_equiv_pos_as_xyz
  1  'x, y, z'
loop_
 _atom_site_type_symbol
 _atom_site_label
 _atom_site_symmetry_multiplicity
 _atom_site_fract_x
 _atom_site_fract_y
 _atom_site_fract_z
 _atom_site_occupancy
  Ce  Ce0  1  0.194031  0.388063  0.250000  1
  Dy  Dy1  1  0.807709  0.615417  0.750000  1
  Dy  Dy2  1  0.192247  0.805159  0.250000  1
  Dy  Dy3  1  0.612912  0.805159  0.250000  1
  Dy  Dy4  1  0.386455  0.192911  0.750000  1
  Dy  Dy5  1  0.806456  0.192911  0.750000  1
  Al  Al6  1  0.334494  0.668987  0.486683  1
  Al  Al7  1  0.666813  0.333625  0.985310  1
  Al  Al8  1  0.666813  0.333625  0.514690  1
  Al  Al9  1  0.334494  0.668987  0.013317  1
  Al  Al10  1  0.161992  0.323984  0.578940  1
  Al  Al11  1  0.676004  0.837910  0.578138  1
  Al  Al12  1  0.161906  0.837910  0.578138  1
  Al  Al13  1  0.836567  0.161095  0.077727  1
  Al  Al14  1  0.836567  0.161095  0.422273  1
  Al  Al15  1  0.837707  0.675415  0.076907  1
  Al  Al16  1  0.324528  0.161095  0.077727  1
  Al  Al17  1  0.676004  0.837910  0.921862  1
  Al  Al18  1  0.161992  0.323984  0.921060  1
  Al  Al19  1  0.837707  0.675415  0.423093  1
  Al  Al20  1  0.999579  0.999158  0.250000  1
  Al  Al21  1  0.000618  0.001237  0.750000  1
  Al  Al22  1  0.560568  0.121136  0.250000  1
  Al  Al23  1  0.439613  0.560775  0.750000  1
  Al  Al24  1  0.121162  0.560775  0.750000  1
  Al  Al25  1  0.875141  0.438279  0.250000  1
  Al  Al26  1  0.563139  0.438279  0.250000  1
  Al  Al27  1  0.439151  0.878303  0.750000  1
  Al  Al28  1  0.161906  0.837910  0.921862  1
  Al  Al29  1  0.324528  0.161095  0.422273  1
  Ru  Ru30  1  0.999701  0.999403  0.500268  1
  Ru  Ru31  1  0.999701  0.999403  0.999732  1
  Ru  Ru32  1  0.500631  0.001263  0.501118  1
  Ru  Ru33  1  0.499778  0.500266  0.001026  1
  Ru  Ru34  1  0.000488  0.500266  0.001026  1
  Ru  Ru35  1  0.000488  0.500266  0.498974  1
  Ru  Ru36  1  0.499778  0.500266  0.498974  1
  Ru  Ru37  1  0.500631  0.001263  0.998882  1
