# generated using pymatgen
data_Nd3Er5Cd2OsPd
_symmetry_space_group_name_H-M   'P 1'
_cell_length_a   9.73622613
_cell_length_b   9.73622634
_cell_length_c   9.80140900
_cell_angle_alpha   59.77829106
_cell_angle_beta   59.77829032
_cell_angle_gamma   59.74434238
_symmetry_Int_Tables_number   1
_chemical_formula_structural   Nd3Er5Cd2OsPd
_chemical_formula_sum   'Nd6 Er10 Cd4 Os2 Pd2'
_cell_volume   653.50782307
_cell_formula_units_Z   2
loop_
 _symmetry_equiv_pos_site_id
 _symmetry_equiv_pos_as_xyz
  1  'x, y, z'
loop_
 _atom_site_type_symbol
 _atom_site_label
 _atom_site_symmetry_multiplicity
 _atom_site_fract_x
 _atom_site_fract_y
 _atom_site_fract_z
 _atom_site_occupancy
  Nd  Nd0  1  0.939895  0.553021  0.564358  1
  Nd  Nd1  1  0.553021  0.939895  0.942725  1
  Nd  Nd2  1  0.553021  0.939895  0.564358  1
  Nd  Nd3  1  0.939895  0.553021  0.942725  1
  Nd  Nd4  1  0.561803  0.561803  0.938197  1
  Nd  Nd5  1  0.942668  0.942668  0.557332  1
  Er  Er6  1  0.348855  0.348855  0.352623  1
  Er  Er7  1  0.348855  0.348855  0.949667  1
  Er  Er8  1  0.343807  0.959624  0.348284  1
  Er  Er9  1  0.959624  0.343807  0.348284  1
  Er  Er10  1  0.819967  0.183401  0.188398  1
  Er  Er11  1  0.183401  0.819967  0.808235  1
  Er  Er12  1  0.183401  0.819967  0.188398  1
  Er  Er13  1  0.819967  0.183401  0.808235  1
  Er  Er14  1  0.185260  0.185260  0.814740  1
  Er  Er15  1  0.811535  0.811535  0.188465  1
  Cd  Cd16  1  0.578558  0.578558  0.579567  1
  Cd  Cd17  1  0.578558  0.578558  0.263318  1
  Cd  Cd18  1  0.579932  0.259265  0.580402  1
  Cd  Cd19  1  0.259265  0.579932  0.580402  1
  Os  Os20  1  0.144689  0.144689  0.137585  1
  Os  Os21  1  0.144689  0.144689  0.573037  1
  Pd  Pd22  1  0.145622  0.573712  0.140332  1
  Pd  Pd23  1  0.573712  0.145622  0.140332  1
