# generated using pymatgen
data_HfZr3ZnIr3
_symmetry_space_group_name_H-M   'P 1'
_cell_length_a   7.94868600
_cell_length_b   7.94868550
_cell_length_c   5.44091200
_cell_angle_alpha   90.00000000
_cell_angle_beta   90.00000000
_cell_angle_gamma   119.99999377
_symmetry_Int_Tables_number   1
_chemical_formula_structural   HfZr3ZnIr3
_chemical_formula_sum   'Hf2 Zr6 Zn2 Ir6'
_cell_volume   297.70972102
_cell_formula_units_Z   2
loop_
 _symmetry_equiv_pos_site_id
 _symmetry_equiv_pos_as_xyz
  1  'x, y, z'
loop_
 _atom_site_type_symbol
 _atom_site_label
 _atom_site_symmetry_multiplicity
 _atom_site_fract_x
 _atom_site_fract_y
 _atom_site_fract_z
 _atom_site_occupancy
  Hf  Hf0  1  0.333333  0.666667  0.500000  1
  Hf  Hf1  1  0.666667  0.333333  0.500000  1
  Zr  Zr2  1  0.750635  0.750635  0.750814  1
  Zr  Zr3  1  0.249365  0.000000  0.750814  1
  Zr  Zr4  1  0.000000  0.249365  0.750814  1
  Zr  Zr5  1  0.249365  0.249365  0.249186  1
  Zr  Zr6  1  0.750635  0.000000  0.249186  1
  Zr  Zr7  1  0.000000  0.750635  0.249186  1
  Zn  Zn8  1  0.666667  0.333333  0.000000  1
  Zn  Zn9  1  0.333333  0.666667  0.000000  1
  Ir  Ir10  1  0.396928  0.396928  0.758565  1
  Ir  Ir11  1  0.603072  0.000000  0.758565  1
  Ir  Ir12  1  0.000000  0.603072  0.758565  1
  Ir  Ir13  1  0.603072  0.603072  0.241435  1
  Ir  Ir14  1  0.396928  0.000000  0.241435  1
  Ir  Ir15  1  0.000000  0.396928  0.241435  1
