# generated using pymatgen
data_Rb3SiTe3
_symmetry_space_group_name_H-M   'P 1'
_cell_length_a   8.79092360
_cell_length_b   8.79092320
_cell_length_c   9.24764619
_cell_angle_alpha   74.95923390
_cell_angle_beta   74.95923844
_cell_angle_gamma   109.90479452
_symmetry_Int_Tables_number   1
_chemical_formula_structural   Rb3SiTe3
_chemical_formula_sum   'Rb6 Si2 Te6'
_cell_volume   599.44099481
_cell_formula_units_Z   2
loop_
 _symmetry_equiv_pos_site_id
 _symmetry_equiv_pos_as_xyz
  1  'x, y, z'
loop_
 _atom_site_type_symbol
 _atom_site_label
 _atom_site_symmetry_multiplicity
 _atom_site_fract_x
 _atom_site_fract_y
 _atom_site_fract_z
 _atom_site_occupancy
  Rb  Rb0  1  0.208025  0.208025  0.323439  1
  Rb  Rb1  1  0.000000  0.500000  0.000000  1
  Rb  Rb2  1  0.659314  0.340686  0.500000  1
  Rb  Rb3  1  0.340686  0.659314  0.500000  1
  Rb  Rb4  1  0.500000  0.000000  0.000000  1
  Rb  Rb5  1  0.791975  0.791975  0.676561  1
  Si  Si6  1  0.104469  0.104469  0.864932  1
  Si  Si7  1  0.895531  0.895531  0.135068  1
  Te  Te8  1  0.648586  0.648586  0.120864  1
  Te  Te9  1  0.351414  0.351414  0.879136  1
  Te  Te10  1  0.760069  0.048296  0.290142  1
  Te  Te11  1  0.951704  0.239931  0.709858  1
  Te  Te12  1  0.239931  0.951704  0.709858  1
  Te  Te13  1  0.048296  0.760069  0.290142  1
