# generated using pymatgen
data_Nd5YRuBr10
_symmetry_space_group_name_H-M   'P 1'
_cell_length_a   7.59836614
_cell_length_b   9.48024564
_cell_length_c   9.53011045
_cell_angle_alpha   108.30485707
_cell_angle_beta   96.24550986
_cell_angle_gamma   105.56241241
_symmetry_Int_Tables_number   1
_chemical_formula_structural   Nd5YRuBr10
_chemical_formula_sum   'Nd5 Y1 Ru1 Br10'
_cell_volume   613.71752231
_cell_formula_units_Z   1
loop_
 _symmetry_equiv_pos_site_id
 _symmetry_equiv_pos_as_xyz
  1  'x, y, z'
loop_
 _atom_site_type_symbol
 _atom_site_label
 _atom_site_symmetry_multiplicity
 _atom_site_fract_x
 _atom_site_fract_y
 _atom_site_fract_z
 _atom_site_occupancy
  Nd  Nd0  1  0.467690  0.794435  0.590872  1
  Nd  Nd1  1  0.528259  0.203868  0.406178  1
  Nd  Nd2  1  0.370930  0.451398  0.744627  1
  Nd  Nd3  1  0.623544  0.545468  0.253277  1
  Nd  Nd4  1  0.868862  0.640857  0.684590  1
  Y  Y5  1  0.138006  0.363904  0.320860  1
  Ru  Ru6  1  0.499465  0.499550  0.500265  1
  Br  Br7  1  0.412821  0.131758  0.672406  1
  Br  Br8  1  0.586513  0.867068  0.325818  1
  Br  Br9  1  0.047842  0.670335  0.413113  1
  Br  Br10  1  0.953819  0.321577  0.576716  1
  Br  Br11  1  0.292059  0.757772  0.849800  1
  Br  Br12  1  0.726178  0.247036  0.158164  1
  Br  Br13  1  0.242037  0.412368  0.050632  1
  Br  Br14  1  0.748772  0.582955  0.953950  1
  Br  Br15  1  0.849986  0.954969  0.770232  1
  Br  Br16  1  0.143217  0.054679  0.228497  1
