# generated using pymatgen
data_Tb6Y6Co5Hg
_symmetry_space_group_name_H-M   'P 1'
_cell_length_a   8.31926132
_cell_length_b   8.31638158
_cell_length_c   8.31926153
_cell_angle_alpha   110.52557343
_cell_angle_beta   110.03273306
_cell_angle_gamma   107.88125499
_symmetry_Int_Tables_number   1
_chemical_formula_structural   Tb6Y6Co5Hg
_chemical_formula_sum   'Tb6 Y6 Co5 Hg1'
_cell_volume   442.73930261
_cell_formula_units_Z   1
loop_
 _symmetry_equiv_pos_site_id
 _symmetry_equiv_pos_as_xyz
  1  'x, y, z'
loop_
 _atom_site_type_symbol
 _atom_site_label
 _atom_site_symmetry_multiplicity
 _atom_site_fract_x
 _atom_site_fract_y
 _atom_site_fract_z
 _atom_site_occupancy
  Tb  Tb0  1  0.684323  0.988970  0.304648  1
  Tb  Tb1  1  0.315677  0.011030  0.695352  1
  Tb  Tb2  1  0.600475  0.793081  0.807912  1
  Tb  Tb3  1  0.399525  0.206919  0.192088  1
  Tb  Tb4  1  0.985168  0.793081  0.192604  1
  Tb  Tb5  1  0.014832  0.206919  0.807396  1
  Y  Y6  1  0.813979  0.706504  0.520935  1
  Y  Y7  1  0.186021  0.293496  0.479065  1
  Y  Y8  1  0.185568  0.706504  0.892525  1
  Y  Y9  1  0.814432  0.293496  0.107475  1
  Y  Y10  1  0.684223  0.381425  0.697202  1
  Y  Y11  1  0.315777  0.618575  0.302798  1
  Co  Co12  1  0.620816  0.000000  0.620816  1
  Co  Co13  1  0.379184  0.000000  0.379184  1
  Co  Co14  1  0.112682  0.613551  0.500868  1
  Co  Co15  1  0.887318  0.386449  0.499132  1
  Co  Co16  1  0.000000  0.000000  0.000000  1
  Hg  Hg17  1  0.500000  0.500000  0.000000  1
