# generated using pymatgen
data_Cs4NdNbBr12
_symmetry_space_group_name_H-M   'P 1'
_cell_length_a   13.95843799
_cell_length_b   13.95843693
_cell_length_c   13.95843755
_cell_angle_alpha   132.10562183
_cell_angle_beta   132.10562266
_cell_angle_gamma   70.06226127
_symmetry_Int_Tables_number   1
_chemical_formula_structural   Cs4NdNbBr12
_chemical_formula_sum   'Cs8 Nd2 Nb2 Br24'
_cell_volume   1467.55974681
_cell_formula_units_Z   2
loop_
 _symmetry_equiv_pos_site_id
 _symmetry_equiv_pos_as_xyz
  1  'x, y, z'
loop_
 _atom_site_type_symbol
 _atom_site_label
 _atom_site_symmetry_multiplicity
 _atom_site_fract_x
 _atom_site_fract_y
 _atom_site_fract_z
 _atom_site_occupancy
  Cs  Cs0  1  0.375056  0.348357  0.470949  1
  Cs  Cs1  1  0.095893  0.624944  0.973300  1
  Cs  Cs2  1  0.877408  0.904107  0.529051  1
  Cs  Cs3  1  0.098357  0.127408  0.473300  1
  Cs  Cs4  1  0.374944  0.901643  0.029051  1
  Cs  Cs5  1  0.654107  0.625056  0.526700  1
  Cs  Cs6  1  0.651643  0.122592  0.026700  1
  Cs  Cs7  1  0.872592  0.345893  0.970949  1
  Nd  Nd8  1  0.750000  0.250000  0.500000  1
  Nd  Nd9  1  0.000000  0.000000  0.000000  1
  Nb  Nb10  1  0.250000  0.750000  0.500000  1
  Nb  Nb11  1  0.500000  0.500000  0.000000  1
  Br  Br12  1  0.023580  0.769678  0.296801  1
  Br  Br13  1  0.019851  0.260511  0.269990  1
  Br  Br14  1  0.273220  0.976420  0.746098  1
  Br  Br15  1  0.010511  0.240521  0.740660  1
  Br  Br16  1  0.138244  0.638244  0.500000  1
  Br  Br17  1  0.277123  0.523220  0.796801  1
  Br  Br18  1  0.472877  0.726780  0.703199  1
  Br  Br19  1  0.499861  0.269851  0.259340  1
  Br  Br20  1  0.476780  0.273580  0.753902  1
  Br  Br21  1  0.611756  0.611756  0.000000  1
  Br  Br22  1  0.519678  0.722877  0.246098  1
  Br  Br23  1  0.126917  0.126917  0.000000  1
  Br  Br24  1  0.873083  0.873083  0.000000  1
  Br  Br25  1  0.990521  0.749861  0.730010  1
  Br  Br26  1  0.739489  0.009479  0.759340  1
  Br  Br27  1  0.250139  0.980149  0.240660  1
  Br  Br28  1  0.726420  0.480322  0.203199  1
  Br  Br29  1  0.230322  0.527123  0.253902  1
  Br  Br30  1  0.361756  0.861756  0.500000  1
  Br  Br31  1  0.876917  0.376917  0.500000  1
  Br  Br32  1  0.388244  0.388244  0.000000  1
  Br  Br33  1  0.623083  0.123083  0.500000  1
  Br  Br34  1  0.759479  0.500139  0.769990  1
  Br  Br35  1  0.730149  0.989489  0.230010  1
