# generated using pymatgen
data_Zr2NpF11
_symmetry_space_group_name_H-M   'P 1'
_cell_length_a   8.53757696
_cell_length_b   8.53757699
_cell_length_c   8.53757771
_cell_angle_alpha   124.88395549
_cell_angle_beta   106.29862960
_cell_angle_gamma   98.47860423
_symmetry_Int_Tables_number   1
_chemical_formula_structural   Zr2NpF11
_chemical_formula_sum   'Zr4 Np2 F22'
_cell_volume   450.93900642
_cell_formula_units_Z   2
loop_
 _symmetry_equiv_pos_site_id
 _symmetry_equiv_pos_as_xyz
  1  'x, y, z'
loop_
 _atom_site_type_symbol
 _atom_site_label
 _atom_site_symmetry_multiplicity
 _atom_site_fract_x
 _atom_site_fract_y
 _atom_site_fract_z
 _atom_site_occupancy
  Zr  Zr0  1  0.181144  0.132932  0.314075  1
  Zr  Zr1  1  0.818856  0.867068  0.685925  1
  Zr  Zr2  1  0.681144  0.367068  0.048212  1
  Zr  Zr3  1  0.318856  0.632932  0.951788  1
  Np  Np4  1  0.250000  0.750000  0.500000  1
  Np  Np5  1  0.750000  0.250000  0.500000  1
  F  F6  1  0.208366  0.394714  0.343365  1
  F  F7  1  0.791634  0.605286  0.656635  1
  F  F8  1  0.051349  0.865000  0.656635  1
  F  F9  1  0.448651  0.105286  0.813651  1
  F  F10  1  0.948651  0.135000  0.343365  1
  F  F11  1  0.551349  0.894714  0.186349  1
  F  F12  1  0.291634  0.635000  0.186349  1
  F  F13  1  0.708366  0.365000  0.813651  1
  F  F14  1  0.000000  0.000000  0.000000  1
  F  F15  1  0.500000  0.500000  0.000000  1
  F  F16  1  0.280860  0.370908  0.651767  1
  F  F17  1  0.719140  0.629092  0.348233  1
  F  F18  1  0.780860  0.129092  0.909953  1
  F  F19  1  0.219140  0.870908  0.090047  1
  F  F20  1  0.452743  0.239918  0.419306  1
  F  F21  1  0.547257  0.760082  0.580694  1
  F  F22  1  0.820613  0.033438  0.580694  1
  F  F23  1  0.679387  0.260082  0.212825  1
  F  F24  1  0.179387  0.966562  0.419306  1
  F  F25  1  0.320613  0.739918  0.787175  1
  F  F26  1  0.047257  0.466562  0.787175  1
  F  F27  1  0.952743  0.533438  0.212825  1
