# generated using pymatgen
data_Pr16Cd4Co2IrRu
_symmetry_space_group_name_H-M   'P 1'
_cell_length_a   9.96593160
_cell_length_b   9.97243858
_cell_length_c   9.93989001
_cell_angle_alpha   60.10867716
_cell_angle_beta   60.08749313
_cell_angle_gamma   60.27867979
_symmetry_Int_Tables_number   1
_chemical_formula_structural   Pr16Cd4Co2IrRu
_chemical_formula_sum   'Pr16 Cd4 Co2 Ir1 Ru1'
_cell_volume   701.03088875
_cell_formula_units_Z   1
loop_
 _symmetry_equiv_pos_site_id
 _symmetry_equiv_pos_as_xyz
  1  'x, y, z'
loop_
 _atom_site_type_symbol
 _atom_site_label
 _atom_site_symmetry_multiplicity
 _atom_site_fract_x
 _atom_site_fract_y
 _atom_site_fract_z
 _atom_site_occupancy
  Pr  Pr0  1  0.343413  0.345891  0.352312  1
  Pr  Pr1  1  0.343403  0.345878  0.958402  1
  Pr  Pr2  1  0.342360  0.958660  0.349476  1
  Pr  Pr3  1  0.959958  0.343186  0.348425  1
  Pr  Pr4  1  0.814236  0.191122  0.190396  1
  Pr  Pr5  1  0.190991  0.812424  0.807138  1
  Pr  Pr6  1  0.190985  0.812429  0.189446  1
  Pr  Pr7  1  0.814222  0.191136  0.804248  1
  Pr  Pr8  1  0.190123  0.189611  0.810148  1
  Pr  Pr9  1  0.811995  0.807045  0.190479  1
  Pr  Pr10  1  0.939949  0.562559  0.558190  1
  Pr  Pr11  1  0.562101  0.940117  0.938698  1
  Pr  Pr12  1  0.562099  0.940112  0.559090  1
  Pr  Pr13  1  0.939958  0.562553  0.939305  1
  Pr  Pr14  1  0.558543  0.559696  0.940881  1
  Pr  Pr15  1  0.937168  0.938004  0.562412  1
  Cd  Cd16  1  0.579372  0.579379  0.578856  1
  Cd  Cd17  1  0.579373  0.579378  0.262394  1
  Cd  Cd18  1  0.579974  0.260788  0.579622  1
  Cd  Cd19  1  0.260573  0.580103  0.579664  1
  Co  Co20  1  0.140756  0.139518  0.140886  1
  Co  Co21  1  0.140764  0.139521  0.578837  1
  Ir  Ir22  1  0.577502  0.140723  0.140880  1
  Ru  Ru23  1  0.140180  0.580166  0.139813  1
