# generated using pymatgen
data_Dy16MgAg3(IrRh)2
_symmetry_space_group_name_H-M   'P 1'
_cell_length_a   9.57572737
_cell_length_b   9.60074992
_cell_length_c   9.55046800
_cell_angle_alpha   60.17309750
_cell_angle_beta   60.08722120
_cell_angle_gamma   60.30656405
_symmetry_Int_Tables_number   1
_chemical_formula_structural   Dy16MgAg3(IrRh)2
_chemical_formula_sum   'Dy16 Mg1 Ag3 Ir2 Rh2'
_cell_volume   623.50191019
_cell_formula_units_Z   1
loop_
 _symmetry_equiv_pos_site_id
 _symmetry_equiv_pos_as_xyz
  1  'x, y, z'
loop_
 _atom_site_type_symbol
 _atom_site_label
 _atom_site_symmetry_multiplicity
 _atom_site_fract_x
 _atom_site_fract_y
 _atom_site_fract_z
 _atom_site_occupancy
  Dy  Dy0  1  0.350308  0.348698  0.347995  1
  Dy  Dy1  1  0.350308  0.348698  0.952997  1
  Dy  Dy2  1  0.350892  0.952116  0.348495  1
  Dy  Dy3  1  0.939356  0.354713  0.352964  1
  Dy  Dy4  1  0.809500  0.188885  0.189447  1
  Dy  Dy5  1  0.185989  0.812511  0.813906  1
  Dy  Dy6  1  0.185989  0.812511  0.187594  1
  Dy  Dy7  1  0.809500  0.188885  0.812169  1
  Dy  Dy8  1  0.185732  0.186798  0.813735  1
  Dy  Dy9  1  0.809381  0.810694  0.189963  1
  Dy  Dy10  1  0.933964  0.564846  0.563137  1
  Dy  Dy11  1  0.564643  0.936202  0.936379  1
  Dy  Dy12  1  0.564643  0.936202  0.562776  1
  Dy  Dy13  1  0.933964  0.564846  0.938054  1
  Dy  Dy14  1  0.562241  0.563162  0.937299  1
  Dy  Dy15  1  0.933598  0.936828  0.564787  1
  Mg  Mg16  1  0.286601  0.571699  0.570850  1
  Ag  Ag17  1  0.582616  0.584372  0.583685  1
  Ag  Ag18  1  0.582616  0.584372  0.249328  1
  Ag  Ag19  1  0.582606  0.249509  0.583943  1
  Ir  Ir20  1  0.140872  0.572640  0.143244  1
  Ir  Ir21  1  0.573558  0.142873  0.141785  1
  Rh  Rh22  1  0.140563  0.143970  0.142390  1
  Rh  Rh23  1  0.140563  0.143970  0.573077  1
