# generated using pymatgen
data_LiTa3Pd3(Pt2Rh)3
_symmetry_space_group_name_H-M   'P 1'
_cell_length_a   5.59283900
_cell_length_b   5.59283818
_cell_length_c   9.06293600
_cell_angle_alpha   90.00000000
_cell_angle_beta   90.00000000
_cell_angle_gamma   119.99999891
_symmetry_Int_Tables_number   1
_chemical_formula_structural   LiTa3Pd3(Pt2Rh)3
_chemical_formula_sum   'Li1 Ta3 Pd3 Pt6 Rh3'
_cell_volume   245.50713677
_cell_formula_units_Z   1
loop_
 _symmetry_equiv_pos_site_id
 _symmetry_equiv_pos_as_xyz
  1  'x, y, z'
loop_
 _atom_site_type_symbol
 _atom_site_label
 _atom_site_symmetry_multiplicity
 _atom_site_fract_x
 _atom_site_fract_y
 _atom_site_fract_z
 _atom_site_occupancy
  Li  Li0  1  0.333333  0.666667  0.000000  1
  Ta  Ta1  1  0.666667  0.333333  0.500000  1
  Ta  Ta2  1  0.000000  0.000000  0.743814  1
  Ta  Ta3  1  0.000000  0.000000  0.256186  1
  Pd  Pd4  1  0.832391  0.167609  0.000000  1
  Pd  Pd5  1  0.832391  0.664781  0.000000  1
  Pd  Pd6  1  0.335219  0.167609  0.000000  1
  Pt  Pt7  1  0.998602  0.499301  0.748292  1
  Pt  Pt8  1  0.500699  0.499301  0.748292  1
  Pt  Pt9  1  0.500699  0.001398  0.748292  1
  Pt  Pt10  1  0.998602  0.499301  0.251708  1
  Pt  Pt11  1  0.500699  0.499301  0.251708  1
  Pt  Pt12  1  0.500699  0.001398  0.251708  1
  Rh  Rh13  1  0.168391  0.831609  0.500000  1
  Rh  Rh14  1  0.168391  0.336782  0.500000  1
  Rh  Rh15  1  0.663218  0.831609  0.500000  1
