# generated using pymatgen
data_Ba4GaSbO8
_symmetry_space_group_name_H-M   'P 1'
_cell_length_a   7.26178515
_cell_length_b   7.26178521
_cell_length_c   5.89424600
_cell_angle_alpha   90.00000000
_cell_angle_beta   90.00000000
_cell_angle_gamma   132.09782496
_symmetry_Int_Tables_number   1
_chemical_formula_structural   Ba4GaSbO8
_chemical_formula_sum   'Ba4 Ga1 Sb1 O8'
_cell_volume   230.63207855
_cell_formula_units_Z   1
loop_
 _symmetry_equiv_pos_site_id
 _symmetry_equiv_pos_as_xyz
  1  'x, y, z'
loop_
 _atom_site_type_symbol
 _atom_site_label
 _atom_site_symmetry_multiplicity
 _atom_site_fract_x
 _atom_site_fract_y
 _atom_site_fract_z
 _atom_site_occupancy
  Ba  Ba0  1  0.354395  0.645605  0.000000  1
  Ba  Ba1  1  0.856917  0.143083  0.500000  1
  Ba  Ba2  1  0.143083  0.856917  0.500000  1
  Ba  Ba3  1  0.645605  0.354395  0.000000  1
  Ga  Ga4  1  0.000000  0.000000  0.000000  1
  Sb  Sb5  1  0.500000  0.500000  0.500000  1
  O  O6  1  0.256817  0.256817  0.742697  1
  O  O7  1  0.743183  0.743183  0.257303  1
  O  O8  1  0.743183  0.743183  0.742697  1
  O  O9  1  0.256817  0.256817  0.257303  1
  O  O10  1  0.146966  0.853034  0.000000  1
  O  O11  1  0.653635  0.346365  0.500000  1
  O  O12  1  0.346365  0.653635  0.500000  1
  O  O13  1  0.853034  0.146966  0.000000  1
