# generated using pymatgen
data_Dy3V(Co4P3)2
_symmetry_space_group_name_H-M   'P 1'
_cell_length_a   3.68544900
_cell_length_b   10.55315000
_cell_length_c   12.22408100
_cell_angle_alpha   90.00000000
_cell_angle_beta   90.00000000
_cell_angle_gamma   90.00000000
_symmetry_Int_Tables_number   1
_chemical_formula_structural   Dy3V(Co4P3)2
_chemical_formula_sum   'Dy6 V2 Co16 P12'
_cell_volume   475.43235724
_cell_formula_units_Z   2
loop_
 _symmetry_equiv_pos_site_id
 _symmetry_equiv_pos_as_xyz
  1  'x, y, z'
loop_
 _atom_site_type_symbol
 _atom_site_label
 _atom_site_symmetry_multiplicity
 _atom_site_fract_x
 _atom_site_fract_y
 _atom_site_fract_z
 _atom_site_occupancy
  Dy  Dy0  1  0.000000  0.500000  0.523091  1
  Dy  Dy1  1  0.500000  0.000000  0.476909  1
  Dy  Dy2  1  0.500000  0.819114  0.204251  1
  Dy  Dy3  1  0.500000  0.180886  0.204251  1
  Dy  Dy4  1  0.000000  0.680886  0.795749  1
  Dy  Dy5  1  0.000000  0.319114  0.795749  1
  V  V6  1  0.500000  0.500000  0.153873  1
  V  V7  1  0.000000  0.000000  0.846127  1
  Co  Co8  1  0.500000  0.500000  0.701840  1
  Co  Co9  1  0.000000  0.000000  0.298160  1
  Co  Co10  1  0.000000  0.500000  0.987370  1
  Co  Co11  1  0.500000  0.000000  0.012630  1
  Co  Co12  1  0.500000  0.332471  0.992834  1
  Co  Co13  1  0.500000  0.667529  0.992834  1
  Co  Co14  1  0.000000  0.167529  0.007166  1
  Co  Co15  1  0.000000  0.832471  0.007166  1
  Co  Co16  1  0.500000  0.295790  0.431111  1
  Co  Co17  1  0.500000  0.704210  0.431111  1
  Co  Co18  1  0.000000  0.204210  0.568889  1
  Co  Co19  1  0.000000  0.795790  0.568889  1
  Co  Co20  1  0.500000  0.878747  0.707554  1
  Co  Co21  1  0.500000  0.121253  0.707554  1
  Co  Co22  1  0.000000  0.621253  0.292446  1
  Co  Co23  1  0.000000  0.378747  0.292446  1
  P  P24  1  0.500000  0.500000  0.882362  1
  P  P25  1  0.000000  0.000000  0.117638  1
  P  P26  1  0.500000  0.500000  0.346698  1
  P  P27  1  0.000000  0.000000  0.653302  1
  P  P28  1  0.500000  0.311178  0.615813  1
  P  P29  1  0.500000  0.688822  0.615813  1
  P  P30  1  0.000000  0.188822  0.384187  1
  P  P31  1  0.000000  0.811178  0.384187  1
  P  P32  1  0.500000  0.845869  0.891755  1
  P  P33  1  0.500000  0.154131  0.891755  1
  P  P34  1  0.000000  0.654131  0.108245  1
  P  P35  1  0.000000  0.345869  0.108245  1
