# generated using pymatgen
data_HoInFeCo
_symmetry_space_group_name_H-M   'P 1'
_cell_length_a   3.96299200
_cell_length_b   5.05827500
_cell_length_c   7.24830300
_cell_angle_alpha   90.00000000
_cell_angle_beta   90.00000000
_cell_angle_gamma   90.00000000
_symmetry_Int_Tables_number   1
_chemical_formula_structural   HoInFeCo
_chemical_formula_sum   'Ho2 In2 Fe2 Co2'
_cell_volume   145.29878145
_cell_formula_units_Z   2
loop_
 _symmetry_equiv_pos_site_id
 _symmetry_equiv_pos_as_xyz
  1  'x, y, z'
loop_
 _atom_site_type_symbol
 _atom_site_label
 _atom_site_symmetry_multiplicity
 _atom_site_fract_x
 _atom_site_fract_y
 _atom_site_fract_z
 _atom_site_occupancy
  Ho  Ho0  1  0.500000  0.750000  0.717522  1
  Ho  Ho1  1  0.500000  0.250000  0.282478  1
  In  In2  1  0.000000  0.750000  0.351450  1
  In  In3  1  0.000000  0.250000  0.648550  1
  Fe  Fe4  1  0.000000  0.000000  0.000000  1
  Fe  Fe5  1  0.000000  0.500000  0.000000  1
  Co  Co6  1  0.500000  0.750000  0.088179  1
  Co  Co7  1  0.500000  0.250000  0.911821  1
