# generated using pymatgen
data_Pr17Nd3(Ga2Sn)4
_symmetry_space_group_name_H-M   'P 1'
_cell_length_a   8.09270000
_cell_length_b   8.09270000
_cell_length_c   14.80585700
_cell_angle_alpha   90.00000000
_cell_angle_beta   90.00000000
_cell_angle_gamma   90.00000000
_symmetry_Int_Tables_number   1
_chemical_formula_structural   Pr17Nd3(Ga2Sn)4
_chemical_formula_sum   'Pr17 Nd3 Ga8 Sn4'
_cell_volume   969.66212613
_cell_formula_units_Z   1
loop_
 _symmetry_equiv_pos_site_id
 _symmetry_equiv_pos_as_xyz
  1  'x, y, z'
loop_
 _atom_site_type_symbol
 _atom_site_label
 _atom_site_symmetry_multiplicity
 _atom_site_fract_x
 _atom_site_fract_y
 _atom_site_fract_z
 _atom_site_occupancy
  Pr  Pr0  1  0.821863  0.839799  0.607203  1
  Pr  Pr1  1  0.178195  0.839813  0.107239  1
  Pr  Pr2  1  0.160181  0.821824  0.392750  1
  Pr  Pr3  1  0.839819  0.178176  0.392750  1
  Pr  Pr4  1  0.678176  0.660181  0.392750  1
  Pr  Pr5  1  0.660201  0.321863  0.607203  1
  Pr  Pr6  1  0.339799  0.678137  0.607203  1
  Pr  Pr7  1  0.660187  0.678195  0.107239  1
  Pr  Pr8  1  0.678210  0.339912  0.892789  1
  Pr  Pr9  1  0.839912  0.821790  0.892789  1
  Pr  Pr10  1  0.321824  0.339819  0.392750  1
  Pr  Pr11  1  0.178137  0.160201  0.607203  1
  Pr  Pr12  1  0.821805  0.160187  0.107239  1
  Pr  Pr13  1  0.321790  0.660088  0.892789  1
  Pr  Pr14  1  0.339813  0.321805  0.107239  1
  Pr  Pr15  1  0.160088  0.178210  0.892789  1
  Pr  Pr16  1  0.500000  0.000000  0.774948  1
  Nd  Nd17  1  0.000000  0.500000  0.725135  1
  Nd  Nd18  1  0.000000  0.500000  0.225149  1
  Nd  Nd19  1  0.500000  0.000000  0.274845  1
  Ga  Ga20  1  0.621880  0.378128  0.250009  1
  Ga  Ga21  1  0.121561  0.878038  0.749944  1
  Ga  Ga22  1  0.378038  0.378439  0.749944  1
  Ga  Ga23  1  0.378120  0.621872  0.250009  1
  Ga  Ga24  1  0.878128  0.878120  0.250009  1
  Ga  Ga25  1  0.621962  0.621561  0.749944  1
  Ga  Ga26  1  0.878439  0.121962  0.749944  1
  Ga  Ga27  1  0.121872  0.121880  0.250009  1
  Sn  Sn28  1  0.000000  0.500000  0.504174  1
  Sn  Sn29  1  0.500000  0.000000  0.495764  1
  Sn  Sn30  1  0.500000  0.000000  0.996064  1
  Sn  Sn31  1  0.000000  0.500000  0.004182  1
