# generated using pymatgen
data_Yb7Dy(OsC2)4
_symmetry_space_group_name_H-M   'P 1'
_cell_length_a   5.14070200
_cell_length_b   6.45893967
_cell_length_c   10.15525321
_cell_angle_alpha   90.26468723
_cell_angle_beta   90.00000000
_cell_angle_gamma   90.00000000
_symmetry_Int_Tables_number   1
_chemical_formula_structural   Yb7Dy(OsC2)4
_chemical_formula_sum   'Yb7 Dy1 Os4 C8'
_cell_volume   337.18619001
_cell_formula_units_Z   1
loop_
 _symmetry_equiv_pos_site_id
 _symmetry_equiv_pos_as_xyz
  1  'x, y, z'
loop_
 _atom_site_type_symbol
 _atom_site_label
 _atom_site_symmetry_multiplicity
 _atom_site_fract_x
 _atom_site_fract_y
 _atom_site_fract_z
 _atom_site_occupancy
  Yb  Yb0  1  0.750000  0.304017  0.450440  1
  Yb  Yb1  1  0.750000  0.805331  0.050018  1
  Yb  Yb2  1  0.250000  0.192721  0.949371  1
  Yb  Yb3  1  0.250000  0.533688  0.221419  1
  Yb  Yb4  1  0.750000  0.466384  0.778483  1
  Yb  Yb5  1  0.750000  0.968089  0.728087  1
  Yb  Yb6  1  0.250000  0.033580  0.273931  1
  Dy  Dy7  1  0.250000  0.686525  0.551727  1
  Os  Os8  1  0.250000  0.729962  0.853683  1
  Os  Os9  1  0.750000  0.268250  0.146806  1
  Os  Os10  1  0.750000  0.769383  0.354393  1
  Os  Os11  1  0.250000  0.229136  0.645224  1
  C  C12  1  0.250000  0.467768  0.756200  1
  C  C13  1  0.750000  0.532974  0.240729  1
  C  C14  1  0.750000  0.030828  0.259175  1
  C  C15  1  0.250000  0.962867  0.736381  1
  C  C16  1  0.250000  0.798527  0.030417  1
  C  C17  1  0.750000  0.203073  0.968896  1
  C  C18  1  0.750000  0.703762  0.534803  1
  C  C19  1  0.250000  0.313135  0.469815  1
