# generated using pymatgen
data_CePr2(InIr)3
_symmetry_space_group_name_H-M   'P 1'
_cell_length_a   7.62328605
_cell_length_b   7.79467066
_cell_length_c   4.04568100
_cell_angle_alpha   90.00000000
_cell_angle_beta   90.00000000
_cell_angle_gamma   120.74651153
_symmetry_Int_Tables_number   1
_chemical_formula_structural   CePr2(InIr)3
_chemical_formula_sum   'Ce1 Pr2 In3 Ir3'
_cell_volume   206.60743307
_cell_formula_units_Z   1
loop_
 _symmetry_equiv_pos_site_id
 _symmetry_equiv_pos_as_xyz
  1  'x, y, z'
loop_
 _atom_site_type_symbol
 _atom_site_label
 _atom_site_symmetry_multiplicity
 _atom_site_fract_x
 _atom_site_fract_y
 _atom_site_fract_z
 _atom_site_occupancy
  Ce  Ce0  1  0.000000  0.584436  0.000000  1
  Pr  Pr1  1  0.410353  0.410125  0.000000  1
  Pr  Pr2  1  0.589647  0.999771  0.000000  1
  In  In3  1  0.000000  0.246694  0.500000  1
  In  In4  1  0.746584  0.747926  0.500000  1
  In  In5  1  0.253416  0.001342  0.500000  1
  Ir  Ir6  1  0.000000  0.993322  0.000000  1
  Ir  Ir7  1  0.309358  0.662872  0.500000  1
  Ir  Ir8  1  0.690642  0.353513  0.500000  1
