# generated using pymatgen
data_Na7Cd6
_symmetry_space_group_name_H-M   'P 1'
_cell_length_a   6.15515076
_cell_length_b   6.15515215
_cell_length_c   11.62419093
_cell_angle_alpha   74.64752996
_cell_angle_beta   74.64752728
_cell_angle_gamma   59.99998977
_symmetry_Int_Tables_number   1
_chemical_formula_structural   Na7Cd6
_chemical_formula_sum   'Na7 Cd6'
_cell_volume   363.13157545
_cell_formula_units_Z   1
loop_
 _symmetry_equiv_pos_site_id
 _symmetry_equiv_pos_as_xyz
  1  'x, y, z'
loop_
 _atom_site_type_symbol
 _atom_site_label
 _atom_site_symmetry_multiplicity
 _atom_site_fract_x
 _atom_site_fract_y
 _atom_site_fract_z
 _atom_site_occupancy
  Na  Na0  1  0.000000  0.000000  0.000000  1
  Na  Na1  1  0.833461  0.833461  0.499616  1
  Na  Na2  1  0.166539  0.166539  0.500384  1
  Na  Na3  1  0.651587  0.651587  0.045240  1
  Na  Na4  1  0.348413  0.348413  0.954760  1
  Na  Na5  1  0.550819  0.550819  0.347544  1
  Na  Na6  1  0.449181  0.449181  0.652456  1
  Cd  Cd7  1  0.909752  0.909752  0.764450  1
  Cd  Cd8  1  0.416045  0.909752  0.764450  1
  Cd  Cd9  1  0.909752  0.416045  0.764450  1
  Cd  Cd10  1  0.090248  0.090248  0.235550  1
  Cd  Cd11  1  0.583955  0.090248  0.235550  1
  Cd  Cd12  1  0.090248  0.583955  0.235550  1
