# generated using pymatgen
data_Y5Mn3(Ni4P3)4
_symmetry_space_group_name_H-M   'P 1'
_cell_length_a   12.15556100
_cell_length_b   12.15555984
_cell_length_c   3.73596200
_cell_angle_alpha   90.00000000
_cell_angle_beta   90.00000000
_cell_angle_gamma   120.00000587
_symmetry_Int_Tables_number   1
_chemical_formula_structural   Y5Mn3(Ni4P3)4
_chemical_formula_sum   'Y5 Mn3 Ni16 P12'
_cell_volume   478.06068461
_cell_formula_units_Z   1
loop_
 _symmetry_equiv_pos_site_id
 _symmetry_equiv_pos_as_xyz
  1  'x, y, z'
loop_
 _atom_site_type_symbol
 _atom_site_label
 _atom_site_symmetry_multiplicity
 _atom_site_fract_x
 _atom_site_fract_y
 _atom_site_fract_z
 _atom_site_occupancy
  Y  Y0  1  0.187666  0.187666  0.500000  1
  Y  Y1  1  0.812334  0.000000  0.500000  1
  Y  Y2  1  0.000000  0.812334  0.500000  1
  Y  Y3  1  0.333333  0.666667  0.000000  1
  Y  Y4  1  0.666667  0.333333  0.000000  1
  Mn  Mn5  1  0.555846  0.555846  0.000000  1
  Mn  Mn6  1  0.444154  0.000000  0.000000  1
  Mn  Mn7  1  0.000000  0.444154  0.000000  1
  Ni  Ni8  1  0.717624  0.717624  0.500000  1
  Ni  Ni9  1  0.282376  0.000000  0.500000  1
  Ni  Ni10  1  0.000000  0.282376  0.500000  1
  Ni  Ni11  1  0.183286  0.379436  0.000000  1
  Ni  Ni12  1  0.620564  0.803848  0.000000  1
  Ni  Ni13  1  0.196152  0.816714  0.000000  1
  Ni  Ni14  1  0.803848  0.620564  0.000000  1
  Ni  Ni15  1  0.816714  0.196152  0.000000  1
  Ni  Ni16  1  0.379436  0.183286  0.000000  1
  Ni  Ni17  1  0.360068  0.484546  0.500000  1
  Ni  Ni18  1  0.515454  0.875523  0.500000  1
  Ni  Ni19  1  0.124477  0.639932  0.500000  1
  Ni  Ni20  1  0.875523  0.515454  0.500000  1
  Ni  Ni21  1  0.639932  0.124477  0.500000  1
  Ni  Ni22  1  0.484546  0.360068  0.500000  1
  Ni  Ni23  1  0.000000  0.000000  0.000000  1
  P  P24  1  0.821502  0.821502  0.000000  1
  P  P25  1  0.178498  0.000000  0.000000  1
  P  P26  1  0.000000  0.178498  0.000000  1
  P  P27  1  0.165135  0.478426  0.500000  1
  P  P28  1  0.521574  0.686710  0.500000  1
  P  P29  1  0.313290  0.834865  0.500000  1
  P  P30  1  0.686710  0.521574  0.500000  1
  P  P31  1  0.834865  0.313290  0.500000  1
  P  P32  1  0.478426  0.165135  0.500000  1
  P  P33  1  0.365991  0.365991  0.000000  1
  P  P34  1  0.634009  0.000000  0.000000  1
  P  P35  1  0.000000  0.634009  0.000000  1
