# generated using pymatgen
data_Yb2Zr3Si12Ir19
_symmetry_space_group_name_H-M   'P 1'
_cell_length_a   12.77647727
_cell_length_b   12.77647818
_cell_length_c   3.95167300
_cell_angle_alpha   90.00000000
_cell_angle_beta   90.00000000
_cell_angle_gamma   119.97649186
_symmetry_Int_Tables_number   1
_chemical_formula_structural   Yb2Zr3Si12Ir19
_chemical_formula_sum   'Yb2 Zr3 Si12 Ir19'
_cell_volume   558.77471283
_cell_formula_units_Z   1
loop_
 _symmetry_equiv_pos_site_id
 _symmetry_equiv_pos_as_xyz
  1  'x, y, z'
loop_
 _atom_site_type_symbol
 _atom_site_label
 _atom_site_symmetry_multiplicity
 _atom_site_fract_x
 _atom_site_fract_y
 _atom_site_fract_z
 _atom_site_occupancy
  Yb  Yb0  1  0.814725  0.999545  0.500000  1
  Yb  Yb1  1  0.999545  0.814725  0.500000  1
  Zr  Zr2  1  0.332703  0.666501  0.000000  1
  Zr  Zr3  1  0.666501  0.332703  0.000000  1
  Zr  Zr4  1  0.184174  0.184174  0.500000  1
  Si  Si5  1  0.819911  0.819911  0.000000  1
  Si  Si6  1  0.181313  0.000418  0.000000  1
  Si  Si7  1  0.000418  0.181313  0.000000  1
  Si  Si8  1  0.310078  0.829571  0.500000  1
  Si  Si9  1  0.171107  0.482698  0.500000  1
  Si  Si10  1  0.517845  0.688461  0.500000  1
  Si  Si11  1  0.829571  0.310078  0.500000  1
  Si  Si12  1  0.482698  0.171107  0.500000  1
  Si  Si13  1  0.688461  0.517845  0.500000  1
  Si  Si14  1  0.365165  0.365165  0.000000  1
  Si  Si15  1  0.633795  0.999766  0.000000  1
  Si  Si16  1  0.999766  0.633795  0.000000  1
  Ir  Ir17  1  0.196661  0.817048  0.000000  1
  Ir  Ir18  1  0.183447  0.375664  0.000000  1
  Ir  Ir19  1  0.618616  0.802902  0.000000  1
  Ir  Ir20  1  0.817048  0.196661  0.000000  1
  Ir  Ir21  1  0.375664  0.183447  0.000000  1
  Ir  Ir22  1  0.802902  0.618616  0.000000  1
  Ir  Ir23  1  0.716086  0.716086  0.500000  1
  Ir  Ir24  1  0.284286  0.002770  0.500000  1
  Ir  Ir25  1  0.002770  0.284286  0.500000  1
  Ir  Ir26  1  0.127316  0.637505  0.500000  1
  Ir  Ir27  1  0.361802  0.489785  0.500000  1
  Ir  Ir28  1  0.508042  0.872163  0.500000  1
  Ir  Ir29  1  0.637505  0.127316  0.500000  1
  Ir  Ir30  1  0.489785  0.361802  0.500000  1
  Ir  Ir31  1  0.872163  0.508042  0.500000  1
  Ir  Ir32  1  0.550570  0.550570  0.000000  1
  Ir  Ir33  1  0.449512  0.003519  0.000000  1
  Ir  Ir34  1  0.003519  0.449512  0.000000  1
  Ir  Ir35  1  0.004529  0.004529  0.000000  1
