# generated using pymatgen
data_YbHoTm2(Al8Pt3)3
_symmetry_space_group_name_H-M   'P 1'
_cell_length_a   7.52144966
_cell_length_b   7.53985206
_cell_length_c   13.17399013
_cell_angle_alpha   84.61167025
_cell_angle_beta   79.11686918
_cell_angle_gamma   59.92644985
_symmetry_Int_Tables_number   1
_chemical_formula_structural   YbHoTm2(Al8Pt3)3
_chemical_formula_sum   'Yb1 Ho1 Tm2 Al24 Pt9'
_cell_volume   634.90343004
_cell_formula_units_Z   1
loop_
 _symmetry_equiv_pos_site_id
 _symmetry_equiv_pos_as_xyz
  1  'x, y, z'
loop_
 _atom_site_type_symbol
 _atom_site_label
 _atom_site_symmetry_multiplicity
 _atom_site_fract_x
 _atom_site_fract_y
 _atom_site_fract_z
 _atom_site_occupancy
  Yb  Yb0  1  0.393881  0.168347  0.807582  1
  Ho  Ho1  1  0.605274  0.832349  0.191991  1
  Tm  Tm2  1  0.733876  0.498645  0.807277  1
  Tm  Tm3  1  0.266544  0.500689  0.192685  1
  Al  Al4  1  0.684086  0.833426  0.944329  1
  Al  Al5  1  0.315448  0.166729  0.055560  1
  Al  Al6  1  0.146785  0.832216  0.561011  1
  Al  Al7  1  0.853369  0.167876  0.438054  1
  Al  Al8  1  0.479970  0.166587  0.558845  1
  Al  Al9  1  0.520298  0.833633  0.440787  1
  Al  Al10  1  0.217927  0.165489  0.328398  1
  Al  Al11  1  0.781815  0.835371  0.671042  1
  Al  Al12  1  0.437011  0.505836  0.670662  1
  Al  Al13  1  0.563256  0.493301  0.328524  1
  Al  Al14  1  0.110010  0.160248  0.669341  1
  Al  Al15  1  0.890935  0.839682  0.329934  1
  Al  Al16  1  0.353130  0.499076  0.944860  1
  Al  Al17  1  0.646058  0.501018  0.056371  1
  Al  Al18  1  0.015150  0.168403  0.953739  1
  Al  Al19  1  0.984242  0.831380  0.047794  1
  Al  Al20  1  0.186929  0.499190  0.440803  1
  Al  Al21  1  0.813580  0.500388  0.558478  1
  Al  Al22  1  0.733569  0.165071  0.183489  1
  Al  Al23  1  0.267770  0.832004  0.816924  1
  Al  Al24  1  0.058214  0.632510  0.815988  1
  Al  Al25  1  0.938944  0.369468  0.184571  1
  Al  Al26  1  0.856697  0.043600  0.816562  1
  Al  Al27  1  0.145323  0.957636  0.183926  1
  Pt  Pt28  1  0.119401  0.492515  0.638404  1
  Pt  Pt29  1  0.880471  0.508449  0.360965  1
  Pt  Pt30  1  0.657014  0.171210  0.000596  1
  Pt  Pt31  1  0.342283  0.828390  0.001020  1
  Pt  Pt32  1  0.537719  0.166921  0.361017  1
  Pt  Pt33  1  0.462309  0.832424  0.638331  1
  Pt  Pt34  1  0.779443  0.175025  0.636967  1
  Pt  Pt35  1  0.221753  0.824449  0.362250  1
  Pt  Pt36  1  0.999516  0.500449  0.000925  1
