# generated using pymatgen
data_Li12TbY5In6
_symmetry_space_group_name_H-M   'P 1'
_cell_length_a   4.84657100
_cell_length_b   6.84995200
_cell_length_c   14.52884700
_cell_angle_alpha   90.00000000
_cell_angle_beta   90.00014186
_cell_angle_gamma   90.00000000
_symmetry_Int_Tables_number   1
_chemical_formula_structural   Li12TbY5In6
_chemical_formula_sum   'Li12 Tb1 Y5 In6'
_cell_volume   482.33997653
_cell_formula_units_Z   1
loop_
 _symmetry_equiv_pos_site_id
 _symmetry_equiv_pos_as_xyz
  1  'x, y, z'
loop_
 _atom_site_type_symbol
 _atom_site_label
 _atom_site_symmetry_multiplicity
 _atom_site_fract_x
 _atom_site_fract_y
 _atom_site_fract_z
 _atom_site_occupancy
  Li  Li0  1  0.500000  0.250763  0.000000  1
  Li  Li1  1  0.500000  0.749237  0.000000  1
  Li  Li2  1  0.000225  0.249626  0.166580  1
  Li  Li3  1  0.000225  0.750373  0.166580  1
  Li  Li4  1  0.500901  0.250297  0.333272  1
  Li  Li5  1  0.500901  0.749702  0.333272  1
  Li  Li6  1  0.000000  0.249273  0.500000  1
  Li  Li7  1  0.000000  0.750726  0.500000  1
  Li  Li8  1  0.499096  0.250297  0.666727  1
  Li  Li9  1  0.499096  0.749702  0.666727  1
  Li  Li10  1  0.999778  0.249626  0.833420  1
  Li  Li11  1  0.999778  0.750373  0.833420  1
  Tb  Tb12  1  0.000000  0.000000  0.000000  1
  Y  Y13  1  0.501206  0.500000  0.167143  1
  Y  Y14  1  0.999552  0.000000  0.333631  1
  Y  Y15  1  0.500000  0.500000  0.500000  1
  Y  Y16  1  0.000447  0.000000  0.666369  1
  Y  Y17  1  0.498795  0.500000  0.832858  1
  In  In18  1  0.000000  0.500000  0.000000  1
  In  In19  1  0.501280  0.000000  0.166367  1
  In  In20  1  0.000393  0.500000  0.333416  1
  In  In21  1  0.500000  0.000000  0.500000  1
  In  In22  1  0.999608  0.500000  0.666584  1
  In  In23  1  0.498723  0.000000  0.833632  1
