# generated using pymatgen
data_Tb2Mn16SiC2
_symmetry_space_group_name_H-M   'P 1'
_cell_length_a   6.42216989
_cell_length_b   6.45858340
_cell_length_c   6.42217053
_cell_angle_alpha   83.77031289
_cell_angle_beta   83.66659157
_cell_angle_gamma   83.77030814
_symmetry_Int_Tables_number   1
_chemical_formula_structural   Tb2Mn16SiC2
_chemical_formula_sum   'Tb2 Mn16 Si1 C2'
_cell_volume   261.93090540
_cell_formula_units_Z   1
loop_
 _symmetry_equiv_pos_site_id
 _symmetry_equiv_pos_as_xyz
  1  'x, y, z'
loop_
 _atom_site_type_symbol
 _atom_site_label
 _atom_site_symmetry_multiplicity
 _atom_site_fract_x
 _atom_site_fract_y
 _atom_site_fract_z
 _atom_site_occupancy
  Tb  Tb0  1  0.647763  0.653803  0.647763  1
  Tb  Tb1  1  0.352237  0.346197  0.352237  1
  Mn  Mn2  1  0.904926  0.907475  0.904926  1
  Mn  Mn3  1  0.095074  0.092525  0.095074  1
  Mn  Mn4  1  0.727663  0.000000  0.272337  1
  Mn  Mn5  1  0.991812  0.279285  0.718163  1
  Mn  Mn6  1  0.281837  0.720715  0.008188  1
  Mn  Mn7  1  0.008188  0.720715  0.281837  1
  Mn  Mn8  1  0.718163  0.279285  0.991812  1
  Mn  Mn9  1  0.272337  0.000000  0.727663  1
  Mn  Mn10  1  0.339721  0.338197  0.861446  1
  Mn  Mn11  1  0.351286  0.870424  0.351286  1
  Mn  Mn12  1  0.861446  0.338197  0.339721  1
  Mn  Mn13  1  0.660279  0.661803  0.138554  1
  Mn  Mn14  1  0.648714  0.129576  0.648714  1
  Mn  Mn15  1  0.138554  0.661803  0.660279  1
  Mn  Mn16  1  0.500000  0.000000  0.000000  1
  Mn  Mn17  1  0.000000  0.000000  0.500000  1
  Si  Si18  1  0.000000  0.500000  0.000000  1
  C  C19  1  0.000000  0.500000  0.500000  1
  C  C20  1  0.500000  0.500000  0.000000  1
