# generated using pymatgen
data_Tb3Ho7(In2Co)4
_symmetry_space_group_name_H-M   'P 1'
_cell_length_a   3.59174100
_cell_length_b   8.01112512
_cell_length_c   17.95785500
_cell_angle_alpha   89.96976123
_cell_angle_beta   90.00000000
_cell_angle_gamma   90.00000000
_symmetry_Int_Tables_number   1
_chemical_formula_structural   Tb3Ho7(In2Co)4
_chemical_formula_sum   'Tb3 Ho7 In8 Co4'
_cell_volume   516.71721020
_cell_formula_units_Z   1
loop_
 _symmetry_equiv_pos_site_id
 _symmetry_equiv_pos_as_xyz
  1  'x, y, z'
loop_
 _atom_site_type_symbol
 _atom_site_label
 _atom_site_symmetry_multiplicity
 _atom_site_fract_x
 _atom_site_fract_y
 _atom_site_fract_z
 _atom_site_occupancy
  Tb  Tb0  1  0.000000  0.499216  0.500193  1
  Tb  Tb1  1  0.000000  0.000096  0.999954  1
  Tb  Tb2  1  0.000000  0.116503  0.408626  1
  Ho  Ho3  1  0.000000  0.747950  0.277484  1
  Ho  Ho4  1  0.000000  0.252479  0.722426  1
  Ho  Ho5  1  0.000000  0.752560  0.778222  1
  Ho  Ho6  1  0.000000  0.247939  0.221558  1
  Ho  Ho7  1  0.000000  0.616271  0.091437  1
  Ho  Ho8  1  0.000000  0.384029  0.908333  1
  Ho  Ho9  1  0.000000  0.883528  0.592020  1
  In  In10  1  0.500000  0.703177  0.930070  1
  In  In11  1  0.500000  0.297218  0.069792  1
  In  In12  1  0.500000  0.794748  0.429714  1
  In  In13  1  0.500000  0.203264  0.570823  1
  In  In14  1  0.500000  0.569631  0.653323  1
  In  In15  1  0.500000  0.431741  0.346609  1
  In  In16  1  0.500000  0.930245  0.152689  1
  In  In17  1  0.500000  0.069769  0.847105  1
  Co  Co18  1  0.500000  0.520477  0.194745  1
  Co  Co19  1  0.500000  0.479629  0.805093  1
  Co  Co20  1  0.500000  0.979156  0.695394  1
  Co  Co21  1  0.500000  0.020372  0.304389  1
