# generated using pymatgen
data_Ba2Gd3DyO8
_symmetry_space_group_name_H-M   'P 1'
_cell_length_a   3.52196800
_cell_length_b   10.57705900
_cell_length_c   12.31287900
_cell_angle_alpha   90.00000000
_cell_angle_beta   90.00000000
_cell_angle_gamma   90.00000000
_symmetry_Int_Tables_number   1
_chemical_formula_structural   Ba2Gd3DyO8
_chemical_formula_sum   'Ba4 Gd6 Dy2 O16'
_cell_volume   458.68014831
_cell_formula_units_Z   2
loop_
 _symmetry_equiv_pos_site_id
 _symmetry_equiv_pos_as_xyz
  1  'x, y, z'
loop_
 _atom_site_type_symbol
 _atom_site_label
 _atom_site_symmetry_multiplicity
 _atom_site_fract_x
 _atom_site_fract_y
 _atom_site_fract_z
 _atom_site_occupancy
  Ba  Ba0  1  0.750000  0.252871  0.148109  1
  Ba  Ba1  1  0.750000  0.752871  0.351891  1
  Ba  Ba2  1  0.250000  0.746929  0.851238  1
  Ba  Ba3  1  0.250000  0.246929  0.648762  1
  Gd  Gd4  1  0.750000  0.421914  0.889483  1
  Gd  Gd5  1  0.750000  0.921914  0.610517  1
  Gd  Gd6  1  0.250000  0.577713  0.110096  1
  Gd  Gd7  1  0.250000  0.077713  0.389904  1
  Gd  Gd8  1  0.750000  0.925530  0.110435  1
  Gd  Gd9  1  0.750000  0.425530  0.389565  1
  Dy  Dy10  1  0.250000  0.073833  0.888856  1
  Dy  Dy11  1  0.250000  0.573833  0.611144  1
  O  O12  1  0.750000  0.207151  0.839885  1
  O  O13  1  0.750000  0.707151  0.660115  1
  O  O14  1  0.250000  0.790449  0.161674  1
  O  O15  1  0.250000  0.290449  0.338326  1
  O  O16  1  0.750000  0.117145  0.519170  1
  O  O17  1  0.750000  0.617145  0.980830  1
  O  O18  1  0.250000  0.883167  0.481454  1
  O  O19  1  0.250000  0.383167  0.018546  1
  O  O20  1  0.750000  0.017956  0.282429  1
  O  O21  1  0.750000  0.517956  0.217571  1
  O  O22  1  0.250000  0.982722  0.718560  1
  O  O23  1  0.250000  0.482722  0.781440  1
  O  O24  1  0.750000  0.430564  0.575770  1
  O  O25  1  0.750000  0.930564  0.924230  1
  O  O26  1  0.250000  0.572058  0.427233  1
  O  O27  1  0.250000  0.072058  0.072767  1
