# generated using pymatgen
data_Be3Co4Si
_symmetry_space_group_name_H-M   'P 1'
_cell_length_a   6.46617106
_cell_length_b   6.46617079
_cell_length_c   6.46617112
_cell_angle_alpha   33.59175805
_cell_angle_beta   33.59175682
_cell_angle_gamma   33.59176681
_symmetry_Int_Tables_number   1
_chemical_formula_structural   Be3Co4Si
_chemical_formula_sum   'Be3 Co4 Si1'
_cell_volume   73.72013418
_cell_formula_units_Z   1
loop_
 _symmetry_equiv_pos_site_id
 _symmetry_equiv_pos_as_xyz
  1  'x, y, z'
loop_
 _atom_site_type_symbol
 _atom_site_label
 _atom_site_symmetry_multiplicity
 _atom_site_fract_x
 _atom_site_fract_y
 _atom_site_fract_z
 _atom_site_occupancy
  Be  Be0  1  0.252411  0.252411  0.252411  1
  Be  Be1  1  0.747589  0.747589  0.747589  1
  Be  Be2  1  0.000000  0.000000  0.000000  1
  Co  Co3  1  0.876097  0.876097  0.876097  1
  Co  Co4  1  0.373655  0.373655  0.373655  1
  Co  Co5  1  0.123903  0.123903  0.123903  1
  Co  Co6  1  0.626345  0.626345  0.626345  1
  Si  Si7  1  0.500000  0.500000  0.500000  1
