# generated using pymatgen
data_PrCr2P6IN12
_symmetry_space_group_name_H-M   'P 1'
_cell_length_a   7.41145631
_cell_length_b   7.40621474
_cell_length_c   7.41145700
_cell_angle_alpha   109.66468777
_cell_angle_beta   109.43075683
_cell_angle_gamma   109.66466908
_symmetry_Int_Tables_number   1
_chemical_formula_structural   PrCr2P6IN12
_chemical_formula_sum   'Pr1 Cr2 P6 I1 N12'
_cell_volume   311.82350950
_cell_formula_units_Z   1
loop_
 _symmetry_equiv_pos_site_id
 _symmetry_equiv_pos_as_xyz
  1  'x, y, z'
loop_
 _atom_site_type_symbol
 _atom_site_label
 _atom_site_symmetry_multiplicity
 _atom_site_fract_x
 _atom_site_fract_y
 _atom_site_fract_z
 _atom_site_occupancy
  Pr  Pr0  1  0.009716  0.344241  0.009716  1
  Cr  Cr1  1  0.041851  0.056222  0.449339  1
  Cr  Cr2  1  0.449339  0.056222  0.041851  1
  P  P3  1  0.488942  0.255470  0.730925  1
  P  P4  1  0.258393  0.750343  0.507725  1
  P  P5  1  0.747363  0.513817  0.254270  1
  P  P6  1  0.730925  0.255470  0.488942  1
  P  P7  1  0.507725  0.750343  0.258393  1
  P  P8  1  0.254270  0.513817  0.747363  1
  I  I9  1  0.981754  0.911428  0.981754  1
  N  N10  1  0.382975  0.669969  0.382975  1
  N  N11  1  0.639314  0.362831  0.347980  1
  N  N12  1  0.347980  0.362831  0.639314  1
  N  N13  1  0.707276  0.309995  0.707276  1
  N  N14  1  0.998003  0.569363  0.317102  1
  N  N15  1  0.317102  0.569363  0.998003  1
  N  N16  1  0.292765  0.994906  0.568332  1
  N  N17  1  0.988526  0.314826  0.585428  1
  N  N18  1  0.741258  0.744405  0.320762  1
  N  N19  1  0.568332  0.994906  0.292765  1
  N  N20  1  0.320762  0.744405  0.741258  1
  N  N21  1  0.585428  0.314826  0.988526  1
