# generated using pymatgen
data_Zr10Nb9Si16Tc
_symmetry_space_group_name_H-M   'P 1'
_cell_length_a   6.91729625
_cell_length_b   6.91729628
_cell_length_c   12.80296847
_cell_angle_alpha   89.83177717
_cell_angle_beta   90.16822286
_cell_angle_gamma   89.78508326
_symmetry_Int_Tables_number   1
_chemical_formula_structural   Zr10Nb9Si16Tc
_chemical_formula_sum   'Zr10 Nb9 Si16 Tc1'
_cell_volume   612.59946987
_cell_formula_units_Z   1
loop_
 _symmetry_equiv_pos_site_id
 _symmetry_equiv_pos_as_xyz
  1  'x, y, z'
loop_
 _atom_site_type_symbol
 _atom_site_label
 _atom_site_symmetry_multiplicity
 _atom_site_fract_x
 _atom_site_fract_y
 _atom_site_fract_z
 _atom_site_occupancy
  Zr  Zr0  1  0.997974  0.655363  0.033128  1
  Zr  Zr1  1  0.000254  0.346373  0.534145  1
  Zr  Zr2  1  0.655363  0.997974  0.966872  1
  Zr  Zr3  1  0.156271  0.501962  0.780619  1
  Zr  Zr4  1  0.843193  0.500107  0.281233  1
  Zr  Zr5  1  0.501962  0.156271  0.219381  1
  Zr  Zr6  1  0.500107  0.843193  0.718767  1
  Zr  Zr7  1  0.346373  0.000254  0.465855  1
  Zr  Zr8  1  0.826736  0.172059  0.748071  1
  Zr  Zr9  1  0.172059  0.826736  0.251929  1
  Nb  Nb10  1  0.343460  0.501618  0.378410  1
  Nb  Nb11  1  0.849356  0.999506  0.373153  1
  Nb  Nb12  1  0.003797  0.150605  0.126143  1
  Nb  Nb13  1  0.999506  0.849356  0.626847  1
  Nb  Nb14  1  0.651115  0.499587  0.877424  1
  Nb  Nb15  1  0.501618  0.343460  0.621590  1
  Nb  Nb16  1  0.499587  0.651115  0.122576  1
  Nb  Nb17  1  0.150605  0.003797  0.873857  1
  Nb  Nb18  1  0.331284  0.331284  0.000000  1
  Si  Si19  1  0.036049  0.702037  0.441686  1
  Si  Si20  1  0.956150  0.299339  0.938364  1
  Si  Si21  1  0.702037  0.036049  0.558314  1
  Si  Si22  1  0.205746  0.449147  0.186917  1
  Si  Si23  1  0.789765  0.554598  0.681974  1
  Si  Si24  1  0.449147  0.205746  0.813083  1
  Si  Si25  1  0.554598  0.789765  0.318026  1
  Si  Si26  1  0.299339  0.956150  0.061636  1
  Si  Si27  1  0.863351  0.790706  0.821758  1
  Si  Si28  1  0.136783  0.209177  0.322896  1
  Si  Si29  1  0.790706  0.863351  0.178242  1
  Si  Si30  1  0.298357  0.638554  0.570298  1
  Si  Si31  1  0.707999  0.361503  0.072736  1
  Si  Si32  1  0.638554  0.298357  0.429702  1
  Si  Si33  1  0.361503  0.707999  0.927264  1
  Si  Si34  1  0.209177  0.136783  0.677104  1
  Tc  Tc35  1  0.670118  0.670118  0.500000  1
