# generated using pymatgen
data_Nd2Co10Tc2P7
_symmetry_space_group_name_H-M   'P 1'
_cell_length_a   9.04486999
_cell_length_b   9.12467168
_cell_length_c   3.71367800
_cell_angle_alpha   90.00000000
_cell_angle_beta   90.00000000
_cell_angle_gamma   119.60501535
_symmetry_Int_Tables_number   1
_chemical_formula_structural   Nd2Co10Tc2P7
_chemical_formula_sum   'Nd2 Co10 Tc2 P7'
_cell_volume   266.48285719
_cell_formula_units_Z   1
loop_
 _symmetry_equiv_pos_site_id
 _symmetry_equiv_pos_as_xyz
  1  'x, y, z'
loop_
 _atom_site_type_symbol
 _atom_site_label
 _atom_site_symmetry_multiplicity
 _atom_site_fract_x
 _atom_site_fract_y
 _atom_site_fract_z
 _atom_site_occupancy
  Nd  Nd0  1  0.337025  0.668920  0.000000  1
  Nd  Nd1  1  0.667606  0.333180  0.499999  1
  Co  Co2  1  0.430694  0.059585  0.000000  1
  Co  Co3  1  0.156067  0.279492  0.000000  1
  Co  Co4  1  0.942172  0.372666  0.000000  1
  Co  Co5  1  0.627366  0.567191  0.000000  1
  Co  Co6  1  0.119660  0.843806  0.000000  1
  Co  Co7  1  0.725534  0.877553  0.000000  1
  Co  Co8  1  0.382339  0.434759  0.499999  1
  Co  Co9  1  0.049244  0.617587  0.499999  1
  Co  Co10  1  0.871119  0.768857  0.499999  1
  Co  Co11  1  0.566373  0.947579  0.499999  1
  Tc  Tc12  1  0.213605  0.100089  0.499999  1
  Tc  Tc13  1  0.906267  0.124086  0.499999  1
  P  P14  1  0.000325  0.998567  0.000000  1
  P  P15  1  0.700159  0.104959  0.000000  1
  P  P16  1  0.408042  0.301287  0.000000  1
  P  P17  1  0.891955  0.595185  0.000000  1
  P  P18  1  0.111197  0.406805  0.499999  1
  P  P19  1  0.602289  0.707630  0.499999  1
  P  P20  1  0.290965  0.890202  0.499999  1
