# generated using pymatgen
data_YLu4Bi3C
_symmetry_space_group_name_H-M   'P 1'
_cell_length_a   9.05289300
_cell_length_b   9.05289384
_cell_length_c   6.38610000
_cell_angle_alpha   90.00000000
_cell_angle_beta   90.00000000
_cell_angle_gamma   120.00000058
_symmetry_Int_Tables_number   1
_chemical_formula_structural   YLu4Bi3C
_chemical_formula_sum   'Y2 Lu8 Bi6 C2'
_cell_volume   453.25349236
_cell_formula_units_Z   2
loop_
 _symmetry_equiv_pos_site_id
 _symmetry_equiv_pos_as_xyz
  1  'x, y, z'
loop_
 _atom_site_type_symbol
 _atom_site_label
 _atom_site_symmetry_multiplicity
 _atom_site_fract_x
 _atom_site_fract_y
 _atom_site_fract_z
 _atom_site_occupancy
  Y  Y0  1  0.666667  0.333333  0.500000  1
  Y  Y1  1  0.333333  0.666667  0.500000  1
  Lu  Lu2  1  0.333333  0.666667  0.000000  1
  Lu  Lu3  1  0.666667  0.333333  0.000000  1
  Lu  Lu4  1  0.796875  0.796875  0.249876  1
  Lu  Lu5  1  0.203125  0.000000  0.249876  1
  Lu  Lu6  1  0.000000  0.203125  0.249876  1
  Lu  Lu7  1  0.203125  0.203125  0.750124  1
  Lu  Lu8  1  0.796875  0.000000  0.750124  1
  Lu  Lu9  1  0.000000  0.796875  0.750124  1
  Bi  Bi10  1  0.398989  0.398989  0.246950  1
  Bi  Bi11  1  0.601011  0.000000  0.246950  1
  Bi  Bi12  1  0.000000  0.601011  0.246950  1
  Bi  Bi13  1  0.601011  0.601011  0.753050  1
  Bi  Bi14  1  0.398989  0.000000  0.753050  1
  Bi  Bi15  1  0.000000  0.398989  0.753050  1
  C  C16  1  0.000000  0.000000  0.500000  1
  C  C17  1  0.000000  0.000000  0.000000  1
