# generated using pymatgen
data_Sr2Cu17Si8Pd
_symmetry_space_group_name_H-M   'P 1'
_cell_length_a   8.21958896
_cell_length_b   8.21958972
_cell_length_c   8.21998377
_cell_angle_alpha   120.31569763
_cell_angle_beta   120.22900350
_cell_angle_gamma   89.52616336
_symmetry_Int_Tables_number   1
_chemical_formula_structural   Sr2Cu17Si8Pd
_chemical_formula_sum   'Sr2 Cu17 Si8 Pd1'
_cell_volume   391.07396290
_cell_formula_units_Z   1
loop_
 _symmetry_equiv_pos_site_id
 _symmetry_equiv_pos_as_xyz
  1  'x, y, z'
loop_
 _atom_site_type_symbol
 _atom_site_label
 _atom_site_symmetry_multiplicity
 _atom_site_fract_x
 _atom_site_fract_y
 _atom_site_fract_z
 _atom_site_occupancy
  Sr  Sr0  1  0.247356  0.249211  0.998597  1
  Sr  Sr1  1  0.749386  0.751240  0.998597  1
  Cu  Cu2  1  0.212546  0.058769  0.271315  1
  Cu  Cu3  1  0.791813  0.922655  0.714467  1
  Cu  Cu4  1  0.434804  0.295763  0.730568  1
  Cu  Cu5  1  0.065982  0.796805  0.862785  1
  Cu  Cu6  1  0.807143  0.060229  0.499437  1
  Cu  Cu7  1  0.560441  0.308104  0.503682  1
  Cu  Cu8  1  0.195577  0.943241  0.503682  1
  Cu  Cu9  1  0.439209  0.692295  0.499437  1
  Cu  Cu10  1  0.941550  0.440805  0.749791  1
  Cu  Cu11  1  0.686431  0.195757  0.253845  1
  Cu  Cu12  1  0.058087  0.567413  0.253845  1
  Cu  Cu13  1  0.701845  0.438438  0.140283  1
  Cu  Cu14  1  0.563502  0.703723  0.267225  1
  Cu  Cu15  1  0.502627  0.000401  0.503027  1
  Cu  Cu16  1  0.999752  0.506450  0.506202  1
  Cu  Cu17  1  0.308988  0.808243  0.749791  1
  Cu  Cu18  1  0.296772  0.563998  0.860771  1
  Si  Si19  1  0.791935  0.292044  0.852096  1
  Si  Si20  1  0.560052  0.060160  0.852096  1
  Si  Si21  1  0.060145  0.207806  0.498965  1
  Si  Si22  1  0.291159  0.438821  0.498965  1
  Si  Si23  1  0.941143  0.793344  0.498558  1
  Si  Si24  1  0.440658  0.938306  0.148006  1
  Si  Si25  1  0.209700  0.707347  0.148006  1
  Si  Si26  1  0.705214  0.557416  0.498558  1
  Pd  Pd27  1  0.936185  0.201218  0.137403  1
