# generated using pymatgen
data_Tb2Pr2Zn10SiPb
_symmetry_space_group_name_H-M   'P 1'
_cell_length_a   8.43338080
_cell_length_b   8.43338050
_cell_length_c   8.94473900
_cell_angle_alpha   90.00000000
_cell_angle_beta   90.00000000
_cell_angle_gamma   149.67242390
_symmetry_Int_Tables_number   1
_chemical_formula_structural   Tb2Pr2Zn10SiPb
_chemical_formula_sum   'Tb2 Pr2 Zn10 Si1 Pb1'
_cell_volume   321.22810187
_cell_formula_units_Z   1
loop_
 _symmetry_equiv_pos_site_id
 _symmetry_equiv_pos_as_xyz
  1  'x, y, z'
loop_
 _atom_site_type_symbol
 _atom_site_label
 _atom_site_symmetry_multiplicity
 _atom_site_fract_x
 _atom_site_fract_y
 _atom_site_fract_z
 _atom_site_occupancy
  Tb  Tb0  1  0.201793  0.798207  0.250000  1
  Tb  Tb1  1  0.794214  0.205786  0.750000  1
  Pr  Pr2  1  0.001004  0.998996  0.483076  1
  Pr  Pr3  1  0.001004  0.998996  0.016924  1
  Zn  Zn4  1  0.811684  0.188316  0.390176  1
  Zn  Zn5  1  0.186987  0.813013  0.606712  1
  Zn  Zn6  1  0.811684  0.188316  0.109824  1
  Zn  Zn7  1  0.186987  0.813013  0.893288  1
  Zn  Zn8  1  0.651580  0.348420  0.472571  1
  Zn  Zn9  1  0.341077  0.658923  0.512870  1
  Zn  Zn10  1  0.651580  0.348420  0.027429  1
  Zn  Zn11  1  0.341077  0.658923  0.987130  1
  Zn  Zn12  1  0.404645  0.595355  0.250000  1
  Zn  Zn13  1  0.609761  0.390239  0.750000  1
  Si  Si14  1  0.559437  0.440563  0.250000  1
  Pb  Pb15  1  0.445485  0.554515  0.750000  1
