# generated using pymatgen
data_Lu12Mn2CdIn2
_symmetry_space_group_name_H-M   'P 1'
_cell_length_a   8.27517849
_cell_length_b   8.27977081
_cell_length_c   8.27517957
_cell_angle_alpha   109.59566818
_cell_angle_beta   109.59116795
_cell_angle_gamma   109.20472517
_symmetry_Int_Tables_number   1
_chemical_formula_structural   Lu12Mn2CdIn2
_chemical_formula_sum   'Lu12 Mn2 Cd1 In2'
_cell_volume   436.58079399
_cell_formula_units_Z   1
loop_
 _symmetry_equiv_pos_site_id
 _symmetry_equiv_pos_as_xyz
  1  'x, y, z'
loop_
 _atom_site_type_symbol
 _atom_site_label
 _atom_site_symmetry_multiplicity
 _atom_site_fract_x
 _atom_site_fract_y
 _atom_site_fract_z
 _atom_site_occupancy
  Lu  Lu0  1  0.304601  0.304563  0.609141  1
  Lu  Lu1  1  0.695399  0.695437  0.390859  1
  Lu  Lu2  1  0.695423  0.304563  0.999962  1
  Lu  Lu3  1  0.304577  0.695437  0.000038  1
  Lu  Lu4  1  0.208916  0.454778  0.245862  1
  Lu  Lu5  1  0.791084  0.545222  0.754138  1
  Lu  Lu6  1  0.208915  0.963034  0.754121  1
  Lu  Lu7  1  0.963036  0.208985  0.754227  1
  Lu  Lu8  1  0.791085  0.036966  0.245879  1
  Lu  Lu9  1  0.036964  0.791015  0.245773  1
  Lu  Lu10  1  0.454758  0.208985  0.245948  1
  Lu  Lu11  1  0.545242  0.791015  0.754052  1
  Mn  Mn12  1  0.389847  0.389830  0.999983  1
  Mn  Mn13  1  0.610153  0.610170  0.000017  1
  Cd  Cd14  1  0.000000  0.000000  0.000000  1
  In  In15  1  0.000000  0.500000  0.500000  1
  In  In16  1  0.500000  0.000000  0.500000  1
