# generated using pymatgen
data_La5Si2Rh
_symmetry_space_group_name_H-M   'P 1'
_cell_length_a   8.09751800
_cell_length_b   8.98772300
_cell_length_c   12.54575900
_cell_angle_alpha   90.00000000
_cell_angle_beta   90.00000000
_cell_angle_gamma   90.00000000
_symmetry_Int_Tables_number   1
_chemical_formula_structural   La5Si2Rh
_chemical_formula_sum   'La20 Si8 Rh4'
_cell_volume   913.05836953
_cell_formula_units_Z   4
loop_
 _symmetry_equiv_pos_site_id
 _symmetry_equiv_pos_as_xyz
  1  'x, y, z'
loop_
 _atom_site_type_symbol
 _atom_site_label
 _atom_site_symmetry_multiplicity
 _atom_site_fract_x
 _atom_site_fract_y
 _atom_site_fract_z
 _atom_site_occupancy
  La  La0  1  0.685704  0.467146  0.073861  1
  La  La1  1  0.185704  0.532854  0.426139  1
  La  La2  1  0.314296  0.967146  0.926139  1
  La  La3  1  0.814296  0.032854  0.573861  1
  La  La4  1  0.314296  0.532854  0.926139  1
  La  La5  1  0.814296  0.467146  0.573861  1
  La  La6  1  0.685704  0.032854  0.073861  1
  La  La7  1  0.185704  0.967146  0.426139  1
  La  La8  1  0.961035  0.750000  0.000916  1
  La  La9  1  0.461035  0.250000  0.499084  1
  La  La10  1  0.038965  0.250000  0.999084  1
  La  La11  1  0.538965  0.750000  0.500916  1
  La  La12  1  0.353217  0.750000  0.207517  1
  La  La13  1  0.853217  0.250000  0.292483  1
  La  La14  1  0.646783  0.250000  0.792483  1
  La  La15  1  0.146783  0.750000  0.707517  1
  La  La16  1  0.834651  0.750000  0.284232  1
  La  La17  1  0.334651  0.250000  0.215768  1
  La  La18  1  0.165349  0.250000  0.715768  1
  La  La19  1  0.665349  0.750000  0.784232  1
  Si  Si20  1  0.563575  0.495747  0.329817  1
  Si  Si21  1  0.063575  0.504253  0.170183  1
  Si  Si22  1  0.436425  0.995747  0.670183  1
  Si  Si23  1  0.936425  0.004253  0.829817  1
  Si  Si24  1  0.436425  0.504253  0.670183  1
  Si  Si25  1  0.936425  0.495747  0.829817  1
  Si  Si26  1  0.563575  0.004253  0.329817  1
  Si  Si27  1  0.063575  0.995747  0.170183  1
  Rh  Rh28  1  0.570791  0.750000  0.017797  1
  Rh  Rh29  1  0.070791  0.250000  0.482203  1
  Rh  Rh30  1  0.429209  0.250000  0.982203  1
  Rh  Rh31  1  0.929209  0.750000  0.517797  1
