# generated using pymatgen
data_Ba6LaPr(BO3)6
_symmetry_space_group_name_H-M   'P 1'
_cell_length_a   8.34914576
_cell_length_b   8.34914715
_cell_length_c   8.34914505
_cell_angle_alpha   105.42865375
_cell_angle_beta   105.42865744
_cell_angle_gamma   105.42866364
_symmetry_Int_Tables_number   1
_chemical_formula_structural   Ba6LaPr(BO3)6
_chemical_formula_sum   'Ba6 La1 Pr1 B6 O18'
_cell_volume   504.03464203
_cell_formula_units_Z   1
loop_
 _symmetry_equiv_pos_site_id
 _symmetry_equiv_pos_as_xyz
  1  'x, y, z'
loop_
 _atom_site_type_symbol
 _atom_site_label
 _atom_site_symmetry_multiplicity
 _atom_site_fract_x
 _atom_site_fract_y
 _atom_site_fract_z
 _atom_site_occupancy
  Ba  Ba0  1  0.355935  0.732178  0.851110  1
  Ba  Ba1  1  0.851110  0.355935  0.732178  1
  Ba  Ba2  1  0.732178  0.851110  0.355935  1
  Ba  Ba3  1  0.644065  0.267822  0.148890  1
  Ba  Ba4  1  0.148890  0.644065  0.267822  1
  Ba  Ba5  1  0.267822  0.148890  0.644065  1
  La  La6  1  0.000000  0.000000  0.000000  1
  Pr  Pr7  1  0.500000  0.500000  0.500000  1
  B  B8  1  0.708858  0.613907  0.959620  1
  B  B9  1  0.959620  0.708858  0.613907  1
  B  B10  1  0.613907  0.959620  0.708858  1
  B  B11  1  0.040380  0.291142  0.386093  1
  B  B12  1  0.386093  0.040380  0.291142  1
  B  B13  1  0.291142  0.386093  0.040380  1
  O  O14  1  0.054227  0.811174  0.540583  1
  O  O15  1  0.540583  0.054227  0.811174  1
  O  O16  1  0.430342  0.495427  0.203767  1
  O  O17  1  0.495427  0.203767  0.430342  1
  O  O18  1  0.203767  0.430342  0.495427  1
  O  O19  1  0.796233  0.569658  0.504573  1
  O  O20  1  0.569658  0.504573  0.796233  1
  O  O21  1  0.504573  0.796233  0.569658  1
  O  O22  1  0.260046  0.203314  0.977872  1
  O  O23  1  0.203314  0.977872  0.260046  1
  O  O24  1  0.977872  0.260046  0.203314  1
  O  O25  1  0.739954  0.796686  0.022128  1
  O  O26  1  0.796686  0.022128  0.739954  1
  O  O27  1  0.022128  0.739954  0.796686  1
  O  O28  1  0.188826  0.459417  0.945773  1
  O  O29  1  0.459417  0.945773  0.188826  1
  O  O30  1  0.945773  0.188826  0.459417  1
  O  O31  1  0.811174  0.540583  0.054227  1
