# generated using pymatgen
data_LaPrNd8(Al2Ru3)2
_symmetry_space_group_name_H-M   'P 1'
_cell_length_a   8.59412840
_cell_length_b   8.53731695
_cell_length_c   8.53234452
_cell_angle_alpha   109.10495982
_cell_angle_beta   109.63234411
_cell_angle_gamma   109.39076682
_symmetry_Int_Tables_number   1
_chemical_formula_structural   LaPrNd8(Al2Ru3)2
_chemical_formula_sum   'La1 Pr1 Nd8 Al4 Ru6'
_cell_volume   483.59759122
_cell_formula_units_Z   1
loop_
 _symmetry_equiv_pos_site_id
 _symmetry_equiv_pos_as_xyz
  1  'x, y, z'
loop_
 _atom_site_type_symbol
 _atom_site_label
 _atom_site_symmetry_multiplicity
 _atom_site_fract_x
 _atom_site_fract_y
 _atom_site_fract_z
 _atom_site_occupancy
  La  La0  1  0.250236  0.690058  0.439858  1
  Pr  Pr1  1  0.997276  0.283344  0.498108  1
  Nd  Nd2  1  0.749869  0.815070  0.065212  1
  Nd  Nd3  1  0.435287  0.252185  0.685592  1
  Nd  Nd4  1  0.682429  0.434010  0.249147  1
  Nd  Nd5  1  0.065047  0.750648  0.817620  1
  Nd  Nd6  1  0.817145  0.066341  0.751503  1
  Nd  Nd7  1  0.214664  0.213762  0.214967  1
  Nd  Nd8  1  0.502314  0.000582  0.286657  1
  Nd  Nd9  1  0.285740  0.500918  0.999673  1
  Al  Al10  1  0.591621  0.590149  0.589700  1
  Al  Al11  1  0.500823  0.002338  0.913321  1
  Al  Al12  1  0.908303  0.498141  0.998215  1
  Al  Al13  1  0.999216  0.911473  0.501424  1
  Ru  Ru14  1  0.249949  0.118512  0.868588  1
  Ru  Ru15  1  0.749281  0.380817  0.630426  1
  Ru  Ru16  1  0.865503  0.246227  0.115602  1
  Ru  Ru17  1  0.122774  0.862585  0.253696  1
  Ru  Ru18  1  0.634375  0.750667  0.380063  1
  Ru  Ru19  1  0.378148  0.632173  0.740626  1
