# generated using pymatgen
data_Li2Ce5PaSb10
_symmetry_space_group_name_H-M   'P 1'
_cell_length_a   9.37005000
_cell_length_b   9.33138157
_cell_length_c   6.19509300
_cell_angle_alpha   90.00000000
_cell_angle_beta   90.00000000
_cell_angle_gamma   120.13717445
_symmetry_Int_Tables_number   1
_chemical_formula_structural   Li2Ce5PaSb10
_chemical_formula_sum   'Li2 Ce5 Pa1 Sb10'
_cell_volume   468.45119347
_cell_formula_units_Z   1
loop_
 _symmetry_equiv_pos_site_id
 _symmetry_equiv_pos_as_xyz
  1  'x, y, z'
loop_
 _atom_site_type_symbol
 _atom_site_label
 _atom_site_symmetry_multiplicity
 _atom_site_fract_x
 _atom_site_fract_y
 _atom_site_fract_z
 _atom_site_occupancy
  Li  Li0  1  0.000762  0.000000  0.999348  1
  Li  Li1  1  0.000762  0.000000  0.500652  1
  Ce  Ce2  1  0.376756  0.000000  0.750000  1
  Ce  Ce3  1  0.999004  0.621339  0.250000  1
  Ce  Ce4  1  0.002497  0.381792  0.750000  1
  Ce  Ce5  1  0.377665  0.378661  0.250000  1
  Ce  Ce6  1  0.620705  0.618208  0.750000  1
  Pa  Pa7  1  0.621127  0.000000  0.250000  1
  Sb  Sb8  1  0.270215  0.000000  0.250000  1
  Sb  Sb9  1  0.728962  0.000000  0.750000  1
  Sb  Sb10  1  0.995876  0.261820  0.250000  1
  Sb  Sb11  1  0.999290  0.733238  0.750000  1
  Sb  Sb12  1  0.734056  0.738180  0.250000  1
  Sb  Sb13  1  0.266052  0.266762  0.750000  1
  Sb  Sb14  1  0.336624  0.670114  0.002021  1
  Sb  Sb15  1  0.666512  0.329886  0.002021  1
  Sb  Sb16  1  0.666512  0.329886  0.497979  1
  Sb  Sb17  1  0.336624  0.670114  0.497979  1
