# generated using pymatgen
data_Er4AlRe4Os3
_symmetry_space_group_name_H-M   'P 1'
_cell_length_a   5.35991500
_cell_length_b   5.34169155
_cell_length_c   8.92845100
_cell_angle_alpha   90.00000000
_cell_angle_beta   90.00000000
_cell_angle_gamma   120.78017569
_symmetry_Int_Tables_number   1
_chemical_formula_structural   Er4AlRe4Os3
_chemical_formula_sum   'Er4 Al1 Re4 Os3'
_cell_volume   219.62170428
_cell_formula_units_Z   1
loop_
 _symmetry_equiv_pos_site_id
 _symmetry_equiv_pos_as_xyz
  1  'x, y, z'
loop_
 _atom_site_type_symbol
 _atom_site_label
 _atom_site_symmetry_multiplicity
 _atom_site_fract_x
 _atom_site_fract_y
 _atom_site_fract_z
 _atom_site_occupancy
  Er  Er0  1  0.336242  0.668439  0.437625  1
  Er  Er1  1  0.667143  0.336559  0.559697  1
  Er  Er2  1  0.667143  0.336559  0.940303  1
  Er  Er3  1  0.336242  0.668439  0.062375  1
  Al  Al4  1  0.166857  0.826115  0.750000  1
  Re  Re5  1  0.834209  0.169832  0.250000  1
  Re  Re6  1  0.831510  0.657965  0.250000  1
  Re  Re7  1  0.341077  0.167763  0.250000  1
  Re  Re8  1  0.167571  0.330245  0.750000  1
  Os  Os9  1  0.003414  0.014083  0.504581  1
  Os  Os10  1  0.003414  0.014083  0.995419  1
  Os  Os11  1  0.645176  0.809917  0.750000  1
