# generated using pymatgen
data_Pr2Pa(AlPt)3
_symmetry_space_group_name_H-M   'P 1'
_cell_length_a   7.32530527
_cell_length_b   7.32530447
_cell_length_c   4.11484300
_cell_angle_alpha   90.00000000
_cell_angle_beta   90.00000000
_cell_angle_gamma   120.16327997
_symmetry_Int_Tables_number   1
_chemical_formula_structural   Pr2Pa(AlPt)3
_chemical_formula_sum   'Pr2 Pa1 Al3 Pt3'
_cell_volume   190.90548362
_cell_formula_units_Z   1
loop_
 _symmetry_equiv_pos_site_id
 _symmetry_equiv_pos_as_xyz
  1  'x, y, z'
loop_
 _atom_site_type_symbol
 _atom_site_label
 _atom_site_symmetry_multiplicity
 _atom_site_fract_x
 _atom_site_fract_y
 _atom_site_fract_z
 _atom_site_occupancy
  Pr  Pr0  1  0.996678  0.580541  0.500000  1
  Pr  Pr1  1  0.580541  0.996678  0.500000  1
  Pa  Pa2  1  0.421010  0.421010  0.500000  1
  Al  Al3  1  0.771312  0.771312  0.000000  1
  Al  Al4  1  0.235553  0.002688  0.000000  1
  Al  Al5  1  0.002688  0.235553  0.000000  1
  Pt  Pt6  1  0.638063  0.336376  0.000000  1
  Pt  Pt7  1  0.336376  0.638063  0.000000  1
  Pt  Pt8  1  0.017781  0.017781  0.500000  1
