# generated using pymatgen
data_Y10AlSn2Bi3
_symmetry_space_group_name_H-M   'P 1'
_cell_length_a   9.02578315
_cell_length_b   9.03612828
_cell_length_c   6.55102500
_cell_angle_alpha   90.00000000
_cell_angle_beta   90.00000000
_cell_angle_gamma   119.76742896
_symmetry_Int_Tables_number   1
_chemical_formula_structural   Y10AlSn2Bi3
_chemical_formula_sum   'Y10 Al1 Sn2 Bi3'
_cell_volume   463.78873391
_cell_formula_units_Z   1
loop_
 _symmetry_equiv_pos_site_id
 _symmetry_equiv_pos_as_xyz
  1  'x, y, z'
loop_
 _atom_site_type_symbol
 _atom_site_label
 _atom_site_symmetry_multiplicity
 _atom_site_fract_x
 _atom_site_fract_y
 _atom_site_fract_z
 _atom_site_occupancy
  Y  Y0  1  0.760412  0.754518  0.250000  1
  Y  Y1  1  0.005239  0.243915  0.250000  1
  Y  Y2  1  0.771388  0.013800  0.750000  1
  Y  Y3  1  0.320284  0.654602  0.500198  1
  Y  Y4  1  0.235552  0.999973  0.250000  1
  Y  Y5  1  0.677407  0.338371  0.499841  1
  Y  Y6  1  0.999445  0.754243  0.750000  1
  Y  Y7  1  0.320284  0.654602  0.999802  1
  Y  Y8  1  0.231403  0.244761  0.750000  1
  Y  Y9  1  0.677407  0.338371  0.000159  1
  Al  Al10  1  0.997937  0.397699  0.750000  1
  Sn  Sn11  1  0.395140  0.390264  0.250000  1
  Sn  Sn12  1  0.000989  0.605426  0.250000  1
  Bi  Bi13  1  0.608608  0.612290  0.750000  1
  Bi  Bi14  1  0.391872  0.001285  0.750000  1
  Bi  Bi15  1  0.606635  0.995884  0.250000  1
