# generated using pymatgen
data_Ho4Er2Tm6Co5Hg
_symmetry_space_group_name_H-M   'P 1'
_cell_length_a   8.14939156
_cell_length_b   8.14654474
_cell_length_c   8.14939052
_cell_angle_alpha   110.71699961
_cell_angle_beta   110.53383488
_cell_angle_gamma   107.20035368
_symmetry_Int_Tables_number   1
_chemical_formula_structural   Ho4Er2Tm6Co5Hg
_chemical_formula_sum   'Ho4 Er2 Tm6 Co5 Hg1'
_cell_volume   415.92521382
_cell_formula_units_Z   1
loop_
 _symmetry_equiv_pos_site_id
 _symmetry_equiv_pos_as_xyz
  1  'x, y, z'
loop_
 _atom_site_type_symbol
 _atom_site_label
 _atom_site_symmetry_multiplicity
 _atom_site_fract_x
 _atom_site_fract_y
 _atom_site_fract_z
 _atom_site_occupancy
  Ho  Ho0  1  0.288675  0.185599  0.473853  1
  Ho  Ho1  1  0.711325  0.814401  0.526147  1
  Ho  Ho2  1  0.288256  0.814401  0.103078  1
  Ho  Ho3  1  0.711744  0.185599  0.896922  1
  Er  Er4  1  0.213569  0.021435  0.807866  1
  Er  Er5  1  0.786431  0.978565  0.192134  1
  Tm  Tm6  1  0.620025  0.316228  0.304712  1
  Tm  Tm7  1  0.379975  0.683772  0.695288  1
  Tm  Tm8  1  0.011518  0.316228  0.696203  1
  Tm  Tm9  1  0.988482  0.683772  0.303797  1
  Tm  Tm10  1  0.213650  0.406106  0.192455  1
  Tm  Tm11  1  0.786350  0.593894  0.807545  1
  Co  Co12  1  0.000154  0.376235  0.376081  1
  Co  Co13  1  0.999846  0.623765  0.623919  1
  Co  Co14  1  0.385478  0.885514  0.500035  1
  Co  Co15  1  0.614522  0.114486  0.499965  1
  Co  Co16  1  0.000000  0.000000  0.000000  1
  Hg  Hg17  1  0.500000  0.500000  0.000000  1
