# generated using pymatgen
data_Tb5Zn2P10Ir19
_symmetry_space_group_name_H-M   'P 1'
_cell_length_a   12.82408162
_cell_length_b   12.79460428
_cell_length_c   3.98173600
_cell_angle_alpha   90.00000000
_cell_angle_beta   90.00000000
_cell_angle_gamma   119.92398671
_symmetry_Int_Tables_number   1
_chemical_formula_structural   Tb5Zn2P10Ir19
_chemical_formula_sum   'Tb5 Zn2 P10 Ir19'
_cell_volume   566.22412371
_cell_formula_units_Z   1
loop_
 _symmetry_equiv_pos_site_id
 _symmetry_equiv_pos_as_xyz
  1  'x, y, z'
loop_
 _atom_site_type_symbol
 _atom_site_label
 _atom_site_symmetry_multiplicity
 _atom_site_fract_x
 _atom_site_fract_y
 _atom_site_fract_z
 _atom_site_occupancy
  Tb  Tb0  1  0.340130  0.672399  0.500000  1
  Tb  Tb1  1  0.659870  0.332268  0.500000  1
  Tb  Tb2  1  0.180379  0.184538  0.000000  1
  Tb  Tb3  1  0.819621  0.004159  0.000000  1
  Tb  Tb4  1  0.000000  0.814698  0.000000  1
  Zn  Zn5  1  0.354864  0.354447  0.500000  1
  Zn  Zn6  1  0.645136  0.999584  0.500000  1
  P  P7  1  0.318377  0.834191  0.000000  1
  P  P8  1  0.185361  0.490219  0.000000  1
  P  P9  1  0.521488  0.690333  0.000000  1
  P  P10  1  0.814639  0.304858  0.000000  1
  P  P11  1  0.478512  0.168845  0.000000  1
  P  P12  1  0.681623  0.515813  0.000000  1
  P  P13  1  0.000000  0.640502  0.500000  1
  P  P14  1  0.824429  0.823955  0.500000  1
  P  P15  1  0.175571  0.999526  0.500000  1
  P  P16  1  0.000000  0.188036  0.500000  1
  Ir  Ir17  1  0.184915  0.815929  0.500000  1
  Ir  Ir18  1  0.173638  0.388732  0.500000  1
  Ir  Ir19  1  0.621597  0.787230  0.500000  1
  Ir  Ir20  1  0.826362  0.215094  0.500000  1
  Ir  Ir21  1  0.378403  0.165633  0.500000  1
  Ir  Ir22  1  0.815085  0.631014  0.500000  1
  Ir  Ir23  1  0.139428  0.642882  0.000000  1
  Ir  Ir24  1  0.371405  0.496363  0.000000  1
  Ir  Ir25  1  0.510555  0.865649  0.000000  1
  Ir  Ir26  1  0.628595  0.124959  0.000000  1
  Ir  Ir27  1  0.489445  0.355096  0.000000  1
  Ir  Ir28  1  0.860572  0.503454  0.000000  1
  Ir  Ir29  1  0.565016  0.541141  0.500000  1
  Ir  Ir30  1  0.434984  0.976125  0.500000  1
  Ir  Ir31  1  0.000000  0.463349  0.500000  1
  Ir  Ir32  1  0.723945  0.716432  0.000000  1
  Ir  Ir33  1  0.276055  0.992487  0.000000  1
  Ir  Ir34  1  0.000000  0.293026  0.000000  1
  Ir  Ir35  1  0.000000  0.007039  0.500000  1
