# generated using pymatgen
data_TbY2TlF10
_symmetry_space_group_name_H-M   'P 1'
_cell_length_a   8.31062702
_cell_length_b   8.31062402
_cell_length_c   8.30177500
_cell_angle_alpha   60.03506136
_cell_angle_beta   60.03508123
_cell_angle_gamma   59.92942561
_symmetry_Int_Tables_number   1
_chemical_formula_structural   TbY2TlF10
_chemical_formula_sum   'Tb2 Y4 Tl2 F20'
_cell_volume   405.43476605
_cell_formula_units_Z   2
loop_
 _symmetry_equiv_pos_site_id
 _symmetry_equiv_pos_as_xyz
  1  'x, y, z'
loop_
 _atom_site_type_symbol
 _atom_site_label
 _atom_site_symmetry_multiplicity
 _atom_site_fract_x
 _atom_site_fract_y
 _atom_site_fract_z
 _atom_site_occupancy
  Tb  Tb0  1  0.240580  0.240580  0.759421  1
  Tb  Tb1  1  0.759420  0.759420  0.240579  1
  Y  Y2  1  0.759384  0.240617  0.240617  1
  Y  Y3  1  0.240616  0.759383  0.759383  1
  Y  Y4  1  0.240617  0.759384  0.240617  1
  Y  Y5  1  0.759383  0.240616  0.759383  1
  Tl  Tl6  1  0.250002  0.250000  0.250000  1
  Tl  Tl7  1  0.749998  0.750000  0.750000  1
  F  F8  1  0.829601  0.499573  0.500428  1
  F  F9  1  0.170399  0.500427  0.499572  1
  F  F10  1  0.499573  0.829602  0.170399  1
  F  F11  1  0.500427  0.170398  0.829601  1
  F  F12  1  0.499573  0.829601  0.500428  1
  F  F13  1  0.170398  0.500427  0.829601  1
  F  F14  1  0.500427  0.170399  0.499572  1
  F  F15  1  0.829602  0.499573  0.170399  1
  F  F16  1  0.499999  0.499999  0.829115  1
  F  F17  1  0.500001  0.500001  0.170885  1
  F  F18  1  0.170885  0.829115  0.500000  1
  F  F19  1  0.829115  0.170885  0.500000  1
  F  F20  1  0.110200  0.110200  0.110840  1
  F  F21  1  0.889800  0.889800  0.889160  1
  F  F22  1  0.110198  0.110199  0.668762  1
  F  F23  1  0.110838  0.668761  0.110200  1
  F  F24  1  0.889802  0.889801  0.331238  1
  F  F25  1  0.889162  0.331239  0.889800  1
  F  F26  1  0.668762  0.110838  0.110200  1
  F  F27  1  0.331238  0.889162  0.889800  1
