# generated using pymatgen
data_Ce7PrZn3Si12Pd
_symmetry_space_group_name_H-M   'P 1'
_cell_length_a   8.20567800
_cell_length_b   8.20567784
_cell_length_c   8.48108700
_cell_angle_alpha   90.00000000
_cell_angle_beta   90.00000000
_cell_angle_gamma   119.99999257
_symmetry_Int_Tables_number   1
_chemical_formula_structural   Ce7PrZn3Si12Pd
_chemical_formula_sum   'Ce7 Pr1 Zn3 Si12 Pd1'
_cell_volume   494.55103574
_cell_formula_units_Z   1
loop_
 _symmetry_equiv_pos_site_id
 _symmetry_equiv_pos_as_xyz
  1  'x, y, z'
loop_
 _atom_site_type_symbol
 _atom_site_label
 _atom_site_symmetry_multiplicity
 _atom_site_fract_x
 _atom_site_fract_y
 _atom_site_fract_z
 _atom_site_occupancy
  Ce  Ce0  1  0.499694  0.500306  0.749738  1
  Ce  Ce1  1  0.500677  0.499323  0.250044  1
  Ce  Ce2  1  0.000611  0.500306  0.749738  1
  Ce  Ce3  1  0.998647  0.499323  0.250044  1
  Ce  Ce4  1  0.499694  0.999389  0.749738  1
  Ce  Ce5  1  0.500677  0.001353  0.250044  1
  Ce  Ce6  1  0.000000  0.000000  0.750156  1
  Pr  Pr7  1  0.000000  0.000000  0.250174  1
  Zn  Zn8  1  0.666667  0.333333  0.995335  1
  Zn  Zn9  1  0.333333  0.666667  0.002829  1
  Zn  Zn10  1  0.333333  0.666667  0.497984  1
  Si  Si11  1  0.833760  0.166240  0.999360  1
  Si  Si12  1  0.166328  0.833672  0.997908  1
  Si  Si13  1  0.332480  0.166240  0.999360  1
  Si  Si14  1  0.165296  0.834704  0.501439  1
  Si  Si15  1  0.667345  0.833672  0.997908  1
  Si  Si16  1  0.833889  0.166111  0.502159  1
  Si  Si17  1  0.833760  0.667520  0.999360  1
  Si  Si18  1  0.669407  0.834704  0.501439  1
  Si  Si19  1  0.166328  0.332655  0.997908  1
  Si  Si20  1  0.332221  0.166111  0.502159  1
  Si  Si21  1  0.165296  0.330593  0.501439  1
  Si  Si22  1  0.833889  0.667779  0.502159  1
  Pd  Pd23  1  0.666667  0.333333  0.501576  1
