# generated using pymatgen
data_Pr5Nd3Ga(Si4Rh)3
_symmetry_space_group_name_H-M   'P 1'
_cell_length_a   8.26808100
_cell_length_b   8.26808095
_cell_length_c   8.54940700
_cell_angle_alpha   90.00005429
_cell_angle_beta   89.99998637
_cell_angle_gamma   119.99996739
_symmetry_Int_Tables_number   1
_chemical_formula_structural   Pr5Nd3Ga(Si4Rh)3
_chemical_formula_sum   'Pr5 Nd3 Ga1 Si12 Rh3'
_cell_volume   506.14646698
_cell_formula_units_Z   1
loop_
 _symmetry_equiv_pos_site_id
 _symmetry_equiv_pos_as_xyz
  1  'x, y, z'
loop_
 _atom_site_type_symbol
 _atom_site_label
 _atom_site_symmetry_multiplicity
 _atom_site_fract_x
 _atom_site_fract_y
 _atom_site_fract_z
 _atom_site_occupancy
  Pr  Pr0  1  0.000000  0.000000  0.747830  1
  Pr  Pr1  1  0.999999  0.000000  0.252714  1
  Pr  Pr2  1  0.498680  0.501321  0.746387  1
  Pr  Pr3  1  0.498680  0.997359  0.746387  1
  Pr  Pr4  1  0.002641  0.501321  0.746386  1
  Nd  Nd5  1  0.499106  0.500894  0.253877  1
  Nd  Nd6  1  0.001790  0.500894  0.253877  1
  Nd  Nd7  1  0.499106  0.998209  0.253877  1
  Ga  Ga8  1  0.666667  0.333333  0.999533  1
  Si  Si9  1  0.838514  0.161486  0.001890  1
  Si  Si10  1  0.838514  0.677028  0.001890  1
  Si  Si11  1  0.322972  0.161486  0.001890  1
  Si  Si12  1  0.832396  0.167604  0.499088  1
  Si  Si13  1  0.832396  0.664792  0.499088  1
  Si  Si14  1  0.335208  0.167604  0.499088  1
  Si  Si15  1  0.167174  0.832826  0.498177  1
  Si  Si16  1  0.665652  0.832826  0.498176  1
  Si  Si17  1  0.167174  0.334349  0.498177  1
  Si  Si18  1  0.169583  0.830417  0.001266  1
  Si  Si19  1  0.660834  0.830417  0.001266  1
  Si  Si20  1  0.169583  0.339166  0.001266  1
  Rh  Rh21  1  0.666668  0.333334  0.497155  1
  Rh  Rh22  1  0.333333  0.666666  0.495949  1
  Rh  Rh23  1  0.333333  0.666667  0.004768  1
