# generated using pymatgen
data_Ba8Fe3SeO16
_symmetry_space_group_name_H-M   'P 1'
_cell_length_a   6.25219823
_cell_length_b   7.75361223
_cell_length_c   10.62092782
_cell_angle_alpha   91.18670852
_cell_angle_beta   93.90743604
_cell_angle_gamma   89.30422837
_symmetry_Int_Tables_number   1
_chemical_formula_structural   Ba8Fe3SeO16
_chemical_formula_sum   'Ba8 Fe3 Se1 O16'
_cell_volume   513.53524796
_cell_formula_units_Z   1
loop_
 _symmetry_equiv_pos_site_id
 _symmetry_equiv_pos_as_xyz
  1  'x, y, z'
loop_
 _atom_site_type_symbol
 _atom_site_label
 _atom_site_symmetry_multiplicity
 _atom_site_fract_x
 _atom_site_fract_y
 _atom_site_fract_z
 _atom_site_occupancy
  Ba  Ba0  1  0.770544  0.849990  0.112424  1
  Ba  Ba1  1  0.725578  0.342763  0.416601  1
  Ba  Ba2  1  0.238777  0.163321  0.929295  1
  Ba  Ba3  1  0.255608  0.652325  0.556863  1
  Ba  Ba4  1  0.203719  0.480215  0.208995  1
  Ba  Ba5  1  0.273121  0.014277  0.315547  1
  Ba  Ba6  1  0.766472  0.482705  0.796411  1
  Ba  Ba7  1  0.710481  0.018376  0.690885  1
  Fe  Fe8  1  0.237574  0.221121  0.589000  1
  Fe  Fe9  1  0.740410  0.283338  0.075531  1
  Fe  Fe10  1  0.757147  0.777443  0.420894  1
  Se  Se11  1  0.263049  0.722158  0.920421  1
  O  O12  1  0.709628  0.003133  0.400252  1
  O  O13  1  0.820244  0.519063  0.060279  1
  O  O14  1  0.309071  0.985436  0.570796  1
  O  O15  1  0.245073  0.509091  0.918338  1
  O  O16  1  0.508804  0.244060  0.178581  1
  O  O17  1  0.997613  0.737802  0.331752  1
  O  O18  1  0.463704  0.778210  0.833046  1
  O  O19  1  0.025631  0.251387  0.707764  1
  O  O20  1  0.995779  0.156806  0.130145  1
  O  O21  1  0.506872  0.675611  0.357484  1
  O  O22  1  0.032089  0.814973  0.865074  1
  O  O23  1  0.503659  0.335708  0.629007  1
  O  O24  1  0.656662  0.180151  0.914116  1
  O  O25  1  0.816724  0.675620  0.573908  1
  O  O26  1  0.314090  0.801655  0.068453  1
  O  O27  1  0.151879  0.323262  0.428137  1
