# generated using pymatgen
data_Pr4B3(PdRh)6
_symmetry_space_group_name_H-M   'P 1'
_cell_length_a   4.27362400
_cell_length_b   4.27362400
_cell_length_c   17.02460100
_cell_angle_alpha   90.00000000
_cell_angle_beta   90.00000000
_cell_angle_gamma   90.00000000
_symmetry_Int_Tables_number   1
_chemical_formula_structural   Pr4B3(PdRh)6
_chemical_formula_sum   'Pr4 B3 Pd6 Rh6'
_cell_volume   310.93496486
_cell_formula_units_Z   1
loop_
 _symmetry_equiv_pos_site_id
 _symmetry_equiv_pos_as_xyz
  1  'x, y, z'
loop_
 _atom_site_type_symbol
 _atom_site_label
 _atom_site_symmetry_multiplicity
 _atom_site_fract_x
 _atom_site_fract_y
 _atom_site_fract_z
 _atom_site_occupancy
  Pr  Pr0  1  0.000000  0.000000  0.875041  1
  Pr  Pr1  1  0.000000  0.000000  0.124959  1
  Pr  Pr2  1  0.000000  0.000000  0.374411  1
  Pr  Pr3  1  0.000000  0.000000  0.625589  1
  B  B4  1  0.500000  0.500000  0.237552  1
  B  B5  1  0.500000  0.500000  0.500000  1
  B  B6  1  0.500000  0.500000  0.762448  1
  Pd  Pd7  1  0.500000  0.500000  0.886178  1
  Pd  Pd8  1  0.500000  0.500000  0.113822  1
  Pd  Pd9  1  0.500000  0.500000  0.371595  1
  Pd  Pd10  1  0.500000  0.500000  0.628405  1
  Pd  Pd11  1  0.500000  0.000000  0.000000  1
  Pd  Pd12  1  0.000000  0.500000  0.000000  1
  Rh  Rh13  1  0.500000  0.000000  0.249948  1
  Rh  Rh14  1  0.500000  0.000000  0.500000  1
  Rh  Rh15  1  0.500000  0.000000  0.750052  1
  Rh  Rh16  1  0.000000  0.500000  0.249948  1
  Rh  Rh17  1  0.000000  0.500000  0.500000  1
  Rh  Rh18  1  0.000000  0.500000  0.750052  1
