# generated using pymatgen
data_Hf3Th5(Ni4P3)4
_symmetry_space_group_name_H-M   'P 1'
_cell_length_a   12.47300400
_cell_length_b   12.47300285
_cell_length_c   3.88734500
_cell_angle_alpha   90.00000000
_cell_angle_beta   90.00000000
_cell_angle_gamma   120.00000304
_symmetry_Int_Tables_number   1
_chemical_formula_structural   Hf3Th5(Ni4P3)4
_chemical_formula_sum   'Hf3 Th5 Ni16 P12'
_cell_volume   523.75211220
_cell_formula_units_Z   1
loop_
 _symmetry_equiv_pos_site_id
 _symmetry_equiv_pos_as_xyz
  1  'x, y, z'
loop_
 _atom_site_type_symbol
 _atom_site_label
 _atom_site_symmetry_multiplicity
 _atom_site_fract_x
 _atom_site_fract_y
 _atom_site_fract_z
 _atom_site_occupancy
  Hf  Hf0  1  0.569722  0.569722  0.000000  1
  Hf  Hf1  1  0.430278  0.000000  0.000000  1
  Hf  Hf2  1  0.000000  0.430278  0.000000  1
  Th  Th3  1  0.188618  0.188618  0.500000  1
  Th  Th4  1  0.811382  0.000000  0.500000  1
  Th  Th5  1  0.000000  0.811382  0.500000  1
  Th  Th6  1  0.333333  0.666667  0.000000  1
  Th  Th7  1  0.666667  0.333333  0.000000  1
  Ni  Ni8  1  0.725979  0.725979  0.500000  1
  Ni  Ni9  1  0.274021  0.000000  0.500000  1
  Ni  Ni10  1  0.000000  0.274021  0.500000  1
  Ni  Ni11  1  0.187212  0.376934  0.000000  1
  Ni  Ni12  1  0.623066  0.810277  0.000000  1
  Ni  Ni13  1  0.189723  0.812788  0.000000  1
  Ni  Ni14  1  0.810277  0.623066  0.000000  1
  Ni  Ni15  1  0.812788  0.189723  0.000000  1
  Ni  Ni16  1  0.376934  0.187212  0.000000  1
  Ni  Ni17  1  0.366805  0.487833  0.500000  1
  Ni  Ni18  1  0.512167  0.878973  0.500000  1
  Ni  Ni19  1  0.121027  0.633195  0.500000  1
  Ni  Ni20  1  0.878973  0.512167  0.500000  1
  Ni  Ni21  1  0.633195  0.121027  0.500000  1
  Ni  Ni22  1  0.487833  0.366805  0.500000  1
  Ni  Ni23  1  0.000000  0.000000  0.000000  1
  P  P24  1  0.818559  0.818559  0.000000  1
  P  P25  1  0.181441  0.000000  0.000000  1
  P  P26  1  0.000000  0.181441  0.000000  1
  P  P27  1  0.169395  0.472216  0.500000  1
  P  P28  1  0.527784  0.697180  0.500000  1
  P  P29  1  0.302820  0.830605  0.500000  1
  P  P30  1  0.697180  0.527784  0.500000  1
  P  P31  1  0.830605  0.302820  0.500000  1
  P  P32  1  0.472216  0.169395  0.500000  1
  P  P33  1  0.367803  0.367803  0.000000  1
  P  P34  1  0.632197  0.000000  0.000000  1
  P  P35  1  0.000000  0.632197  0.000000  1
