# generated using pymatgen
data_YbSmCo3B8Os5
_symmetry_space_group_name_H-M   'P 1'
_cell_length_a   7.35085063
_cell_length_b   7.28534604
_cell_length_c   3.97972609
_cell_angle_alpha   89.98760563
_cell_angle_beta   90.36223792
_cell_angle_gamma   91.03245640
_symmetry_Int_Tables_number   1
_chemical_formula_structural   YbSmCo3B8Os5
_chemical_formula_sum   'Yb1 Sm1 Co3 B8 Os5'
_cell_volume   213.08936168
_cell_formula_units_Z   1
loop_
 _symmetry_equiv_pos_site_id
 _symmetry_equiv_pos_as_xyz
  1  'x, y, z'
loop_
 _atom_site_type_symbol
 _atom_site_label
 _atom_site_symmetry_multiplicity
 _atom_site_fract_x
 _atom_site_fract_y
 _atom_site_fract_z
 _atom_site_occupancy
  Yb  Yb0  1  0.998541  0.998429  0.924343  1
  Sm  Sm1  1  0.507396  0.500268  0.394941  1
  Co  Co2  1  0.876556  0.626370  0.625676  1
  Co  Co3  1  0.112513  0.627071  0.122684  1
  Co  Co4  1  0.870324  0.387702  0.124655  1
  B  B5  1  0.817489  0.663847  0.120181  1
  B  B6  1  0.193675  0.332808  0.123807  1
  B  B7  1  0.839959  0.312180  0.622240  1
  B  B8  1  0.155534  0.685603  0.621054  1
  B  B9  1  0.730067  0.828875  0.401778  1
  B  B10  1  0.277655  0.166353  0.399305  1
  B  B11  1  0.674082  0.225953  0.901590  1
  B  B12  1  0.322038  0.777245  0.901157  1
  Os  Os13  1  0.392989  0.150707  0.897581  1
  Os  Os14  1  0.610565  0.842360  0.897210  1
  Os  Os15  1  0.344471  0.884022  0.397313  1
  Os  Os16  1  0.657219  0.108783  0.398080  1
  Os  Os17  1  0.118927  0.381421  0.626403  1
