# generated using pymatgen
data_Zr12Zn9Pt3N4
_symmetry_space_group_name_H-M   'P 1'
_cell_length_a   8.59225699
_cell_length_b   8.59225793
_cell_length_c   8.59225830
_cell_angle_alpha   60.17066120
_cell_angle_beta   60.17065924
_cell_angle_gamma   60.17065653
_symmetry_Int_Tables_number   1
_chemical_formula_structural   Zr12Zn9Pt3N4
_chemical_formula_sum   'Zr12 Zn9 Pt3 N4'
_cell_volume   450.27956553
_cell_formula_units_Z   1
loop_
 _symmetry_equiv_pos_site_id
 _symmetry_equiv_pos_as_xyz
  1  'x, y, z'
loop_
 _atom_site_type_symbol
 _atom_site_label
 _atom_site_symmetry_multiplicity
 _atom_site_fract_x
 _atom_site_fract_y
 _atom_site_fract_z
 _atom_site_occupancy
  Zr  Zr0  1  0.809696  0.190438  0.190438  1
  Zr  Zr1  1  0.190438  0.809696  0.190438  1
  Zr  Zr2  1  0.811135  0.811135  0.185849  1
  Zr  Zr3  1  0.185849  0.811135  0.811135  1
  Zr  Zr4  1  0.811135  0.185849  0.811135  1
  Zr  Zr5  1  0.190438  0.190438  0.809696  1
  Zr  Zr6  1  0.440304  0.059562  0.059562  1
  Zr  Zr7  1  0.059562  0.440304  0.059562  1
  Zr  Zr8  1  0.438865  0.438865  0.064151  1
  Zr  Zr9  1  0.064151  0.438865  0.438865  1
  Zr  Zr10  1  0.438865  0.064151  0.438865  1
  Zr  Zr11  1  0.059562  0.059562  0.440304  1
  Zn  Zn12  1  0.418889  0.418889  0.746376  1
  Zn  Zn13  1  0.418672  0.418672  0.418672  1
  Zn  Zn14  1  0.746376  0.418889  0.418889  1
  Zn  Zn15  1  0.418889  0.746376  0.418889  1
  Zn  Zn16  1  0.831111  0.831111  0.503624  1
  Zn  Zn17  1  0.831328  0.831328  0.831328  1
  Zn  Zn18  1  0.503624  0.831111  0.831111  1
  Zn  Zn19  1  0.831111  0.503624  0.831111  1
  Zn  Zn20  1  0.625000  0.625000  0.625000  1
  Pt  Pt21  1  0.625000  0.625000  0.125000  1
  Pt  Pt22  1  0.125000  0.625000  0.625000  1
  Pt  Pt23  1  0.625000  0.125000  0.625000  1
  N  N24  1  0.125000  0.125000  0.625000  1
  N  N25  1  0.125000  0.125000  0.125000  1
  N  N26  1  0.625000  0.125000  0.125000  1
  N  N27  1  0.125000  0.625000  0.125000  1
