# generated using pymatgen
data_Dy4Tm4Os3WC8
_symmetry_space_group_name_H-M   'P 1'
_cell_length_a   5.07710200
_cell_length_b   6.53640046
_cell_length_c   9.74585729
_cell_angle_alpha   89.69937559
_cell_angle_beta   90.00000000
_cell_angle_gamma   90.00000000
_symmetry_Int_Tables_number   1
_chemical_formula_structural   Dy4Tm4Os3WC8
_chemical_formula_sum   'Dy4 Tm4 Os3 W1 C8'
_cell_volume   323.42129379
_cell_formula_units_Z   1
loop_
 _symmetry_equiv_pos_site_id
 _symmetry_equiv_pos_as_xyz
  1  'x, y, z'
loop_
 _atom_site_type_symbol
 _atom_site_label
 _atom_site_symmetry_multiplicity
 _atom_site_fract_x
 _atom_site_fract_y
 _atom_site_fract_z
 _atom_site_occupancy
  Dy  Dy0  1  0.250000  0.531973  0.212405  1
  Dy  Dy1  1  0.750000  0.466109  0.781945  1
  Dy  Dy2  1  0.750000  0.970124  0.715031  1
  Dy  Dy3  1  0.250000  0.030360  0.286660  1
  Tm  Tm4  1  0.250000  0.676294  0.555375  1
  Tm  Tm5  1  0.750000  0.325156  0.443516  1
  Tm  Tm6  1  0.750000  0.826869  0.056492  1
  Tm  Tm7  1  0.250000  0.177955  0.943148  1
  Os  Os8  1  0.750000  0.278440  0.134596  1
  Os  Os9  1  0.750000  0.777029  0.364824  1
  Os  Os10  1  0.250000  0.223994  0.631731  1
  W  W11  1  0.250000  0.721460  0.868257  1
  C  C12  1  0.250000  0.452496  0.760188  1
  C  C13  1  0.750000  0.543415  0.241463  1
  C  C14  1  0.750000  0.044427  0.259863  1
  C  C15  1  0.250000  0.957200  0.739170  1
  C  C16  1  0.250000  0.828857  0.057929  1
  C  C17  1  0.750000  0.170417  0.949447  1
  C  C18  1  0.750000  0.669322  0.551347  1
  C  C19  1  0.250000  0.328102  0.446610  1
