# generated using pymatgen
data_LuNb6PbS12
_symmetry_space_group_name_H-M   'P 1'
_cell_length_a   5.83867700
_cell_length_b   5.83867759
_cell_length_c   14.27764000
_cell_angle_alpha   90.00000000
_cell_angle_beta   90.00000000
_cell_angle_gamma   120.00000232
_symmetry_Int_Tables_number   1
_chemical_formula_structural   LuNb6PbS12
_chemical_formula_sum   'Lu1 Nb6 Pb1 S12'
_cell_volume   421.51787260
_cell_formula_units_Z   1
loop_
 _symmetry_equiv_pos_site_id
 _symmetry_equiv_pos_as_xyz
  1  'x, y, z'
loop_
 _atom_site_type_symbol
 _atom_site_label
 _atom_site_symmetry_multiplicity
 _atom_site_fract_x
 _atom_site_fract_y
 _atom_site_fract_z
 _atom_site_occupancy
  Lu  Lu0  1  0.000000  0.000000  0.000000  1
  Nb  Nb1  1  0.000000  0.000000  0.765683  1
  Nb  Nb2  1  0.000000  0.000000  0.234317  1
  Nb  Nb3  1  0.333333  0.666667  0.234203  1
  Nb  Nb4  1  0.666667  0.333333  0.765797  1
  Nb  Nb5  1  0.666667  0.333333  0.234203  1
  Nb  Nb6  1  0.333333  0.666667  0.765797  1
  Pb  Pb7  1  0.000000  0.000000  0.500000  1
  S  S8  1  0.337519  0.000000  0.123670  1
  S  S9  1  0.000000  0.337519  0.123670  1
  S  S10  1  0.662481  0.662481  0.123670  1
  S  S11  1  0.336119  0.336119  0.656114  1
  S  S12  1  0.663881  0.663881  0.343886  1
  S  S13  1  0.663881  0.000000  0.656114  1
  S  S14  1  0.000000  0.663881  0.656114  1
  S  S15  1  0.000000  0.662481  0.876330  1
  S  S16  1  0.337519  0.337519  0.876330  1
  S  S17  1  0.000000  0.336119  0.343886  1
  S  S18  1  0.336119  0.000000  0.343886  1
  S  S19  1  0.662481  0.000000  0.876330  1
