# generated using pymatgen
data_Dy6Lu9Th(CdPt)4
_symmetry_space_group_name_H-M   'P 1'
_cell_length_a   9.55258427
_cell_length_b   9.55258198
_cell_length_c   9.55258302
_cell_angle_alpha   60.49069029
_cell_angle_beta   60.49068275
_cell_angle_gamma   60.49068216
_symmetry_Int_Tables_number   1
_chemical_formula_structural   Dy6Lu9Th(CdPt)4
_chemical_formula_sum   'Dy6 Lu9 Th1 Cd4 Pt4'
_cell_volume   623.21419129
_cell_formula_units_Z   1
loop_
 _symmetry_equiv_pos_site_id
 _symmetry_equiv_pos_as_xyz
  1  'x, y, z'
loop_
 _atom_site_type_symbol
 _atom_site_label
 _atom_site_symmetry_multiplicity
 _atom_site_fract_x
 _atom_site_fract_y
 _atom_site_fract_z
 _atom_site_occupancy
  Dy  Dy0  1  0.936516  0.566296  0.566296  1
  Dy  Dy1  1  0.561906  0.939697  0.939697  1
  Dy  Dy2  1  0.566296  0.936516  0.566296  1
  Dy  Dy3  1  0.939697  0.561905  0.939697  1
  Dy  Dy4  1  0.566296  0.566296  0.936516  1
  Dy  Dy5  1  0.939697  0.939697  0.561905  1
  Lu  Lu6  1  0.354629  0.354629  0.937033  1
  Lu  Lu7  1  0.354629  0.937033  0.354629  1
  Lu  Lu8  1  0.937033  0.354629  0.354629  1
  Lu  Lu9  1  0.814802  0.186917  0.186917  1
  Lu  Lu10  1  0.190481  0.812387  0.812387  1
  Lu  Lu11  1  0.186917  0.814802  0.186917  1
  Lu  Lu12  1  0.812387  0.190481  0.812387  1
  Lu  Lu13  1  0.186917  0.186917  0.814802  1
  Lu  Lu14  1  0.812387  0.812387  0.190481  1
  Th  Th15  1  0.348515  0.348515  0.348515  1
  Cd  Cd16  1  0.581089  0.581089  0.581089  1
  Cd  Cd17  1  0.581945  0.581945  0.254593  1
  Cd  Cd18  1  0.581945  0.254593  0.581945  1
  Cd  Cd19  1  0.254593  0.581945  0.581945  1
  Pt  Pt20  1  0.144420  0.144420  0.144420  1
  Pt  Pt21  1  0.137414  0.137414  0.572077  1
  Pt  Pt22  1  0.137414  0.572077  0.137414  1
  Pt  Pt23  1  0.572077  0.137414  0.137414  1
