# generated using pymatgen
data_Yb3Zr(B4Ru5)2
_symmetry_space_group_name_H-M   'P 1'
_cell_length_a   3.01434300
_cell_length_b   8.66348776
_cell_length_c   10.17140587
_cell_angle_alpha   89.86866284
_cell_angle_beta   90.00000000
_cell_angle_gamma   90.00000000
_symmetry_Int_Tables_number   1
_chemical_formula_structural   Yb3Zr(B4Ru5)2
_chemical_formula_sum   'Yb3 Zr1 B8 Ru10'
_cell_volume   265.62275610
_cell_formula_units_Z   1
loop_
 _symmetry_equiv_pos_site_id
 _symmetry_equiv_pos_as_xyz
  1  'x, y, z'
loop_
 _atom_site_type_symbol
 _atom_site_label
 _atom_site_symmetry_multiplicity
 _atom_site_fract_x
 _atom_site_fract_y
 _atom_site_fract_z
 _atom_site_occupancy
  Yb  Yb0  1  0.500000  0.841802  0.180772  1
  Yb  Yb1  1  0.500000  0.157215  0.818490  1
  Yb  Yb2  1  0.500000  0.658252  0.682797  1
  Zr  Zr3  1  0.500000  0.343259  0.317831  1
  B  B4  1  0.500000  0.964798  0.590442  1
  B  B5  1  0.500000  0.034313  0.411627  1
  B  B6  1  0.500000  0.854186  0.899216  1
  B  B7  1  0.500000  0.147083  0.097775  1
  B  B8  1  0.500000  0.648748  0.400268  1
  B  B9  1  0.500000  0.351714  0.603192  1
  B  B10  1  0.500000  0.466528  0.909947  1
  B  B11  1  0.500000  0.536252  0.087214  1
  Ru  Ru12  1  0.000000  0.656528  0.955131  1
  Ru  Ru13  1  0.000000  0.342628  0.049337  1
  Ru  Ru14  1  0.000000  0.842197  0.452809  1
  Ru  Ru15  1  0.000000  0.158190  0.543098  1
  Ru  Ru16  1  0.000000  0.000006  0.001677  1
  Ru  Ru17  1  0.000000  0.404779  0.760366  1
  Ru  Ru18  1  0.000000  0.591524  0.240035  1
  Ru  Ru19  1  0.000000  0.494597  0.497224  1
  Ru  Ru20  1  0.000000  0.905142  0.739471  1
  Ru  Ru21  1  0.000000  0.100261  0.261282  1
