# generated using pymatgen
data_Er5Co2Os
_symmetry_space_group_name_H-M   'P 1'
_cell_length_a   8.58546771
_cell_length_b   8.58546742
_cell_length_c   8.58546613
_cell_angle_alpha   131.43904214
_cell_angle_beta   131.43904290
_cell_angle_gamma   71.11645765
_symmetry_Int_Tables_number   1
_chemical_formula_structural   Er5Co2Os
_chemical_formula_sum   'Er10 Co4 Os2'
_cell_volume   348.20652509
_cell_formula_units_Z   2
loop_
 _symmetry_equiv_pos_site_id
 _symmetry_equiv_pos_as_xyz
  1  'x, y, z'
loop_
 _atom_site_type_symbol
 _atom_site_label
 _atom_site_symmetry_multiplicity
 _atom_site_fract_x
 _atom_site_fract_y
 _atom_site_fract_z
 _atom_site_occupancy
  Er  Er0  1  0.678781  0.535549  0.500000  1
  Er  Er1  1  0.464451  0.964451  0.143231  1
  Er  Er2  1  0.821219  0.321219  0.856769  1
  Er  Er3  1  0.535549  0.035549  0.856769  1
  Er  Er4  1  0.000000  0.000000  0.000000  1
  Er  Er5  1  0.035549  0.178781  0.500000  1
  Er  Er6  1  0.321219  0.464451  0.500000  1
  Er  Er7  1  0.178781  0.678781  0.143231  1
  Er  Er8  1  0.964451  0.821219  0.500000  1
  Er  Er9  1  0.500000  0.500000  0.000000  1
  Co  Co10  1  0.112064  0.612064  0.724126  1
  Co  Co11  1  0.887936  0.387936  0.275874  1
  Co  Co12  1  0.612064  0.887936  0.500000  1
  Co  Co13  1  0.387936  0.112064  0.500000  1
  Os  Os14  1  0.250000  0.250000  0.000000  1
  Os  Os15  1  0.750000  0.750000  0.000000  1
