# generated using pymatgen
data_Sc12Tc2IrBr16
_symmetry_space_group_name_H-M   'P 1'
_cell_length_a   9.11586070
_cell_length_b   11.10698807
_cell_length_c   11.84938917
_cell_angle_alpha   116.70783611
_cell_angle_beta   101.83128497
_cell_angle_gamma   101.51974660
_symmetry_Int_Tables_number   1
_chemical_formula_structural   Sc12Tc2IrBr16
_chemical_formula_sum   'Sc12 Tc2 Ir1 Br16'
_cell_volume   988.81152268
_cell_formula_units_Z   1
loop_
 _symmetry_equiv_pos_site_id
 _symmetry_equiv_pos_as_xyz
  1  'x, y, z'
loop_
 _atom_site_type_symbol
 _atom_site_label
 _atom_site_symmetry_multiplicity
 _atom_site_fract_x
 _atom_site_fract_y
 _atom_site_fract_z
 _atom_site_occupancy
  Sc  Sc0  1  0.080780  0.259115  0.351311  1
  Sc  Sc1  1  0.919220  0.740885  0.648689  1
  Sc  Sc2  1  0.779546  0.536321  0.320821  1
  Sc  Sc3  1  0.220454  0.463679  0.679179  1
  Sc  Sc4  1  0.278589  0.741323  0.648922  1
  Sc  Sc5  1  0.721411  0.258677  0.351078  1
  Sc  Sc6  1  0.139046  0.535983  0.321247  1
  Sc  Sc7  1  0.860954  0.464017  0.678753  1
  Sc  Sc8  1  0.402444  0.353453  0.266306  1
  Sc  Sc9  1  0.597556  0.646547  0.733694  1
  Sc  Sc10  1  0.457474  0.303610  0.520883  1
  Sc  Sc11  1  0.542526  0.696390  0.479117  1
  Tc  Tc12  1  0.333428  0.500041  0.499455  1
  Tc  Tc13  1  0.666573  0.499959  0.500545  1
  Ir  Ir14  1  0.000000  0.500000  0.500000  1
  Br  Br15  1  0.398276  0.741702  0.884216  1
  Br  Br16  1  0.601724  0.258298  0.115784  1
  Br  Br17  1  0.189725  0.967513  0.784138  1
  Br  Br18  1  0.810275  0.032487  0.215862  1
  Br  Br19  1  0.337769  0.092551  0.250343  1
  Br  Br20  1  0.662231  0.907449  0.749657  1
  Br  Br21  1  0.554889  0.436984  0.799394  1
  Br  Br22  1  0.445111  0.563016  0.200606  1
  Br  Br23  1  0.310795  0.826377  0.462943  1
  Br  Br24  1  0.689205  0.173623  0.537057  1
  Br  Br25  1  0.168881  0.171566  0.532609  1
  Br  Br26  1  0.831119  0.828434  0.467391  1
  Br  Br27  1  0.926437  0.576794  0.160208  1
  Br  Br28  1  0.073563  0.423206  0.839792  1
  Br  Br29  1  0.922040  0.740049  0.884180  1
  Br  Br30  1  0.077960  0.259951  0.115820  1
