# generated using pymatgen
data_Hf4Al2(CrRe)3
_symmetry_space_group_name_H-M   'P 1'
_cell_length_a   5.14133400
_cell_length_b   5.10807631
_cell_length_c   8.58219500
_cell_angle_alpha   90.00000000
_cell_angle_beta   90.00000000
_cell_angle_gamma   120.21559745
_symmetry_Int_Tables_number   1
_chemical_formula_structural   Hf4Al2(CrRe)3
_chemical_formula_sum   'Hf4 Al2 Cr3 Re3'
_cell_volume   194.76664937
_cell_formula_units_Z   1
loop_
 _symmetry_equiv_pos_site_id
 _symmetry_equiv_pos_as_xyz
  1  'x, y, z'
loop_
 _atom_site_type_symbol
 _atom_site_label
 _atom_site_symmetry_multiplicity
 _atom_site_fract_x
 _atom_site_fract_y
 _atom_site_fract_z
 _atom_site_occupancy
  Hf  Hf0  1  0.333191  0.666383  0.065335  1
  Hf  Hf1  1  0.666194  0.332387  0.567342  1
  Hf  Hf2  1  0.666194  0.332387  0.932658  1
  Hf  Hf3  1  0.333191  0.666383  0.434665  1
  Al  Al4  1  0.994466  0.988933  0.995755  1
  Al  Al5  1  0.994466  0.988933  0.504245  1
  Cr  Cr6  1  0.830866  0.661732  0.250000  1
  Cr  Cr7  1  0.177675  0.832973  0.750000  1
  Cr  Cr8  1  0.655299  0.832973  0.750000  1
  Re  Re9  1  0.342012  0.174507  0.250000  1
  Re  Re10  1  0.832494  0.174507  0.250000  1
  Re  Re11  1  0.173953  0.347904  0.750000  1
