# generated using pymatgen
data_Eu20(InAg3)3
_symmetry_space_group_name_H-M   'P 1'
_cell_length_a   8.37058100
_cell_length_b   8.37058100
_cell_length_c   15.04027000
_cell_angle_alpha   90.00000000
_cell_angle_beta   90.00000000
_cell_angle_gamma   90.00000000
_symmetry_Int_Tables_number   1
_chemical_formula_structural   Eu20(InAg3)3
_chemical_formula_sum   'Eu20 In3 Ag9'
_cell_volume   1053.82097720
_cell_formula_units_Z   1
loop_
 _symmetry_equiv_pos_site_id
 _symmetry_equiv_pos_as_xyz
  1  'x, y, z'
loop_
 _atom_site_type_symbol
 _atom_site_label
 _atom_site_symmetry_multiplicity
 _atom_site_fract_x
 _atom_site_fract_y
 _atom_site_fract_z
 _atom_site_occupancy
  Eu  Eu0  1  0.670392  0.163778  0.104152  1
  Eu  Eu1  1  0.168864  0.667655  0.606526  1
  Eu  Eu2  1  0.329608  0.836222  0.104152  1
  Eu  Eu3  1  0.831136  0.332345  0.606526  1
  Eu  Eu4  1  0.836222  0.670392  0.104152  1
  Eu  Eu5  1  0.332345  0.168864  0.606526  1
  Eu  Eu6  1  0.163778  0.329608  0.104152  1
  Eu  Eu7  1  0.667655  0.831136  0.606526  1
  Eu  Eu8  1  0.836222  0.329608  0.895848  1
  Eu  Eu9  1  0.332345  0.831136  0.393474  1
  Eu  Eu10  1  0.163778  0.670392  0.895848  1
  Eu  Eu11  1  0.667655  0.168864  0.393474  1
  Eu  Eu12  1  0.670392  0.836222  0.895848  1
  Eu  Eu13  1  0.168864  0.332345  0.393474  1
  Eu  Eu14  1  0.329608  0.163778  0.895848  1
  Eu  Eu15  1  0.831136  0.667655  0.393474  1
  Eu  Eu16  1  0.500000  0.500000  0.754273  1
  Eu  Eu17  1  0.000000  0.000000  0.252316  1
  Eu  Eu18  1  0.000000  0.000000  0.747684  1
  Eu  Eu19  1  0.500000  0.500000  0.245727  1
  In  In20  1  0.500000  0.500000  0.500000  1
  In  In21  1  0.500000  0.500000  0.000000  1
  In  In22  1  0.000000  0.000000  0.500000  1
  Ag  Ag23  1  0.624547  0.124569  0.751757  1
  Ag  Ag24  1  0.124569  0.624547  0.248243  1
  Ag  Ag25  1  0.875431  0.375453  0.248243  1
  Ag  Ag26  1  0.375453  0.875431  0.751757  1
  Ag  Ag27  1  0.875431  0.624547  0.751757  1
  Ag  Ag28  1  0.375453  0.124569  0.248243  1
  Ag  Ag29  1  0.124569  0.375453  0.751757  1
  Ag  Ag30  1  0.624547  0.875431  0.248243  1
  Ag  Ag31  1  0.000000  0.000000  0.000000  1
