# generated using pymatgen
data_La2DyEr(Ge2Pt)4
_symmetry_space_group_name_H-M   'P 1'
_cell_length_a   9.65896850
_cell_length_b   9.65896861
_cell_length_c   9.65896812
_cell_angle_alpha   153.44316213
_cell_angle_beta   125.73746649
_cell_angle_gamma   61.40837966
_symmetry_Int_Tables_number   1
_chemical_formula_structural   La2DyEr(Ge2Pt)4
_chemical_formula_sum   'La2 Dy1 Er1 Ge8 Pt4'
_cell_volume   324.62382583
_cell_formula_units_Z   1
loop_
 _symmetry_equiv_pos_site_id
 _symmetry_equiv_pos_as_xyz
  1  'x, y, z'
loop_
 _atom_site_type_symbol
 _atom_site_label
 _atom_site_symmetry_multiplicity
 _atom_site_fract_x
 _atom_site_fract_y
 _atom_site_fract_z
 _atom_site_occupancy
  La  La0  1  0.740477  0.999932  0.740545  1
  La  La1  1  0.259386  0.999932  0.259455  1
  Dy  Dy2  1  0.702164  0.202164  0.500000  1
  Er  Er3  1  0.297146  0.797146  0.500000  1
  Ge  Ge4  1  0.926980  0.426980  0.500000  1
  Ge  Ge5  1  0.074869  0.574869  0.500000  1
  Ge  Ge6  1  0.575792  0.575792  0.000000  1
  Ge  Ge7  1  0.650016  0.799074  0.850942  1
  Ge  Ge8  1  0.423463  0.423463  0.000000  1
  Ge  Ge9  1  0.948132  0.799074  0.149058  1
  Ge  Ge10  1  0.350699  0.200923  0.149776  1
  Ge  Ge11  1  0.051148  0.200923  0.850224  1
  Pt  Pt12  1  0.601500  0.348672  0.252828  1
  Pt  Pt13  1  0.398973  0.651192  0.747781  1
  Pt  Pt14  1  0.095844  0.348672  0.747172  1
  Pt  Pt15  1  0.903411  0.651192  0.252219  1
