# generated using pymatgen
data_Tb5Dy7Si2(BBr6)2
_symmetry_space_group_name_H-M   'P 1'
_cell_length_a   10.01712517
_cell_length_b   10.01745219
_cell_length_c   9.88006694
_cell_angle_alpha   109.47670186
_cell_angle_beta   109.47536006
_cell_angle_gamma   110.01764078
_symmetry_Int_Tables_number   1
_chemical_formula_structural   Tb5Dy7Si2(BBr6)2
_chemical_formula_sum   'Tb5 Dy7 Si2 B2 Br12'
_cell_volume   757.90057694
_cell_formula_units_Z   1
loop_
 _symmetry_equiv_pos_site_id
 _symmetry_equiv_pos_as_xyz
  1  'x, y, z'
loop_
 _atom_site_type_symbol
 _atom_site_label
 _atom_site_symmetry_multiplicity
 _atom_site_fract_x
 _atom_site_fract_y
 _atom_site_fract_z
 _atom_site_occupancy
  Tb  Tb0  1  0.257940  0.729787  0.221538  1
  Tb  Tb1  1  0.226505  0.467614  0.495200  1
  Tb  Tb2  1  0.463597  0.491750  0.221538  1
  Tb  Tb3  1  0.768697  0.027586  0.495200  1
  Tb  Tb4  1  0.489706  0.239706  0.479411  1
  Dy  Dy5  1  0.260463  0.010463  0.020927  1
  Dy  Dy6  1  0.033129  0.274022  0.004788  1
  Dy  Dy7  1  0.471660  0.730764  0.004788  1
  Dy  Dy8  1  0.770591  0.241822  0.278916  1
  Dy  Dy9  1  0.008325  0.037094  0.278916  1
  Dy  Dy10  1  0.022554  0.477319  0.749883  1
  Dy  Dy11  1  0.227329  0.272565  0.749883  1
  Si  Si12  1  0.500746  0.999223  0.249230  1
  Si  Si13  1  0.248484  0.250007  0.249230  1
  B  B14  1  0.000366  0.250366  0.500731  1
  B  B15  1  0.249236  0.499236  0.998472  1
  Br  Br16  1  0.756255  0.744122  0.249601  1
  Br  Br17  1  0.504171  0.250588  0.993916  1
  Br  Br18  1  0.248595  0.995598  0.505837  1
  Br  Br19  1  0.513286  0.507192  0.758812  1
  Br  Br20  1  0.993522  0.987017  0.742210  1
  Br  Br21  1  0.745615  0.995615  0.991230  1
  Br  Br22  1  0.504682  0.754682  0.509364  1
  Br  Br23  1  0.757243  0.510239  0.505837  1
  Br  Br24  1  0.993346  0.505479  0.249601  1
  Br  Br25  1  0.989746  0.743328  0.993916  1
  Br  Br26  1  0.248687  0.755194  0.742210  1
  Br  Br27  1  0.745525  0.251621  0.758812  1
