# generated using pymatgen
data_YZrCrB6
_symmetry_space_group_name_H-M   'P 1'
_cell_length_a   3.48163900
_cell_length_b   9.03781900
_cell_length_c   11.42094000
_cell_angle_alpha   90.00000000
_cell_angle_beta   90.00000000
_cell_angle_gamma   90.00000000
_symmetry_Int_Tables_number   1
_chemical_formula_structural   YZrCrB6
_chemical_formula_sum   'Y4 Zr4 Cr4 B24'
_cell_volume   359.37613030
_cell_formula_units_Z   4
loop_
 _symmetry_equiv_pos_site_id
 _symmetry_equiv_pos_as_xyz
  1  'x, y, z'
loop_
 _atom_site_type_symbol
 _atom_site_label
 _atom_site_symmetry_multiplicity
 _atom_site_fract_x
 _atom_site_fract_y
 _atom_site_fract_z
 _atom_site_occupancy
  Y  Y0  1  0.000000  0.822318  0.085339  1
  Y  Y1  1  0.000000  0.177682  0.914661  1
  Y  Y2  1  0.000000  0.322318  0.414661  1
  Y  Y3  1  0.000000  0.677682  0.585339  1
  Zr  Zr4  1  0.000000  0.443940  0.129582  1
  Zr  Zr5  1  0.000000  0.556060  0.870418  1
  Zr  Zr6  1  0.000000  0.943940  0.370418  1
  Zr  Zr7  1  0.000000  0.056060  0.629582  1
  Cr  Cr8  1  0.000000  0.142020  0.182515  1
  Cr  Cr9  1  0.000000  0.857980  0.817485  1
  Cr  Cr10  1  0.000000  0.642020  0.317485  1
  Cr  Cr11  1  0.000000  0.357980  0.682515  1
  B  B12  1  0.500000  0.054419  0.067562  1
  B  B13  1  0.500000  0.945581  0.932438  1
  B  B14  1  0.500000  0.554419  0.432438  1
  B  B15  1  0.500000  0.445581  0.567562  1
  B  B16  1  0.500000  0.251152  0.082704  1
  B  B17  1  0.500000  0.748848  0.917296  1
  B  B18  1  0.500000  0.751152  0.417296  1
  B  B19  1  0.500000  0.248848  0.582704  1
  B  B20  1  0.500000  0.294347  0.235949  1
  B  B21  1  0.500000  0.705653  0.764051  1
  B  B22  1  0.500000  0.794347  0.264051  1
  B  B23  1  0.500000  0.205653  0.735949  1
  B  B24  1  0.500000  0.130486  0.315961  1
  B  B25  1  0.500000  0.869514  0.684039  1
  B  B26  1  0.500000  0.630486  0.184039  1
  B  B27  1  0.500000  0.369514  0.815961  1
  B  B28  1  0.500000  0.482852  0.287723  1
  B  B29  1  0.500000  0.517148  0.712277  1
  B  B30  1  0.500000  0.982852  0.212277  1
  B  B31  1  0.500000  0.017148  0.787723  1
  B  B32  1  0.500000  0.099706  0.473236  1
  B  B33  1  0.500000  0.900294  0.526764  1
  B  B34  1  0.500000  0.599706  0.026764  1
  B  B35  1  0.500000  0.400294  0.973236  1
