# generated using pymatgen
data_K2PaI6
_symmetry_space_group_name_H-M   'P 1'
_cell_length_a   8.78256200
_cell_length_b   8.26473154
_cell_length_c   14.42417142
_cell_angle_alpha   54.77131455
_cell_angle_beta   90.00000000
_cell_angle_gamma   90.00000000
_symmetry_Int_Tables_number   1
_chemical_formula_structural   K2PaI6
_chemical_formula_sum   'K4 Pa2 I12'
_cell_volume   855.23696047
_cell_formula_units_Z   2
loop_
 _symmetry_equiv_pos_site_id
 _symmetry_equiv_pos_as_xyz
  1  'x, y, z'
loop_
 _atom_site_type_symbol
 _atom_site_label
 _atom_site_symmetry_multiplicity
 _atom_site_fract_x
 _atom_site_fract_y
 _atom_site_fract_z
 _atom_site_occupancy
  K  K0  1  0.584646  0.725175  0.252292  1
  K  K1  1  0.084646  0.274825  0.247708  1
  K  K2  1  0.415354  0.274825  0.747708  1
  K  K3  1  0.915354  0.725175  0.752292  1
  Pa  Pa4  1  0.000000  0.000000  0.000000  1
  Pa  Pa5  1  0.500000  0.000000  0.500000  1
  I  I6  1  0.978397  0.849696  0.248634  1
  I  I7  1  0.478397  0.150304  0.251366  1
  I  I8  1  0.021603  0.150304  0.751366  1
  I  I9  1  0.521603  0.849696  0.748634  1
  I  I10  1  0.685206  0.642213  0.555778  1
  I  I11  1  0.185206  0.357787  0.944222  1
  I  I12  1  0.314794  0.357787  0.444222  1
  I  I13  1  0.814794  0.642213  0.055778  1
  I  I14  1  0.704288  0.229491  0.950606  1
  I  I15  1  0.204288  0.770509  0.549394  1
  I  I16  1  0.295712  0.770509  0.049394  1
  I  I17  1  0.795712  0.229491  0.450606  1
