# generated using pymatgen
data_Y2Er2Al4RuPt3
_symmetry_space_group_name_H-M   'P 1'
_cell_length_a   4.34369500
_cell_length_b   6.84251201
_cell_length_c   7.86403668
_cell_angle_alpha   90.54719318
_cell_angle_beta   90.00000000
_cell_angle_gamma   90.00000000
_symmetry_Int_Tables_number   1
_chemical_formula_structural   Y2Er2Al4RuPt3
_chemical_formula_sum   'Y2 Er2 Al4 Ru1 Pt3'
_cell_volume   233.72254993
_cell_formula_units_Z   1
loop_
 _symmetry_equiv_pos_site_id
 _symmetry_equiv_pos_as_xyz
  1  'x, y, z'
loop_
 _atom_site_type_symbol
 _atom_site_label
 _atom_site_symmetry_multiplicity
 _atom_site_fract_x
 _atom_site_fract_y
 _atom_site_fract_z
 _atom_site_occupancy
  Y  Y0  1  0.250000  0.468835  0.180876  1
  Y  Y1  1  0.750000  0.533511  0.815672  1
  Er  Er2  1  0.750000  0.024775  0.677512  1
  Er  Er3  1  0.250000  0.965920  0.323538  1
  Al  Al4  1  0.250000  0.857672  0.938873  1
  Al  Al5  1  0.750000  0.139870  0.060941  1
  Al  Al6  1  0.750000  0.643860  0.440597  1
  Al  Al7  1  0.250000  0.362891  0.562612  1
  Ru  Ru8  1  0.250000  0.739268  0.617773  1
  Pt  Pt9  1  0.750000  0.266288  0.380278  1
  Pt  Pt10  1  0.750000  0.772137  0.123838  1
  Pt  Pt11  1  0.250000  0.224973  0.877490  1
