# generated using pymatgen
data_DyEr(TmSb5)2
_symmetry_space_group_name_H-M   'P 1'
_cell_length_a   4.20315200
_cell_length_b   13.17007879
_cell_length_c   14.60014514
_cell_angle_alpha   78.38582269
_cell_angle_beta   90.00000000
_cell_angle_gamma   90.00000000
_symmetry_Int_Tables_number   1
_chemical_formula_structural   DyEr(TmSb5)2
_chemical_formula_sum   'Dy2 Er2 Tm4 Sb20'
_cell_volume   791.65575446
_cell_formula_units_Z   2
loop_
 _symmetry_equiv_pos_site_id
 _symmetry_equiv_pos_as_xyz
  1  'x, y, z'
loop_
 _atom_site_type_symbol
 _atom_site_label
 _atom_site_symmetry_multiplicity
 _atom_site_fract_x
 _atom_site_fract_y
 _atom_site_fract_z
 _atom_site_occupancy
  Dy  Dy0  1  0.250000  0.953209  0.359369  1
  Dy  Dy1  1  0.750000  0.046791  0.640631  1
  Er  Er2  1  0.250000  0.668691  0.576483  1
  Er  Er3  1  0.750000  0.331309  0.423517  1
  Tm  Tm4  1  0.250000  0.395001  0.770530  1
  Tm  Tm5  1  0.750000  0.604999  0.229470  1
  Tm  Tm6  1  0.250000  0.661863  0.855909  1
  Tm  Tm7  1  0.750000  0.338137  0.144091  1
  Sb  Sb8  1  0.250000  0.144146  0.778578  1
  Sb  Sb9  1  0.750000  0.855854  0.221422  1
  Sb  Sb10  1  0.250000  0.144433  0.482286  1
  Sb  Sb11  1  0.750000  0.855567  0.517714  1
  Sb  Sb12  1  0.250000  0.153212  0.171394  1
  Sb  Sb13  1  0.750000  0.846788  0.828606  1
  Sb  Sb14  1  0.250000  0.420658  0.975268  1
  Sb  Sb15  1  0.750000  0.579342  0.024732  1
  Sb  Sb16  1  0.750000  0.029014  0.908791  1
  Sb  Sb17  1  0.250000  0.970986  0.091209  1
  Sb  Sb18  1  0.750000  0.140132  0.322187  1
  Sb  Sb19  1  0.250000  0.859868  0.677813  1
  Sb  Sb20  1  0.750000  0.279249  0.937280  1
  Sb  Sb21  1  0.250000  0.720751  0.062720  1
  Sb  Sb22  1  0.750000  0.285615  0.652811  1
  Sb  Sb23  1  0.250000  0.714385  0.347189  1
  Sb  Sb24  1  0.750000  0.575998  0.734617  1
  Sb  Sb25  1  0.250000  0.424002  0.265383  1
  Sb  Sb26  1  0.750000  0.572594  0.447382  1
  Sb  Sb27  1  0.250000  0.427406  0.552618  1
