# generated using pymatgen
data_Ho2Lu8SiBi5
_symmetry_space_group_name_H-M   'P 1'
_cell_length_a   8.00716200
_cell_length_b   9.27512700
_cell_length_c   11.77869900
_cell_angle_alpha   90.00000000
_cell_angle_beta   90.00000000
_cell_angle_gamma   90.00000000
_symmetry_Int_Tables_number   1
_chemical_formula_structural   Ho2Lu8SiBi5
_chemical_formula_sum   'Ho4 Lu16 Si2 Bi10'
_cell_volume   874.77387379
_cell_formula_units_Z   2
loop_
 _symmetry_equiv_pos_site_id
 _symmetry_equiv_pos_as_xyz
  1  'x, y, z'
loop_
 _atom_site_type_symbol
 _atom_site_label
 _atom_site_symmetry_multiplicity
 _atom_site_fract_x
 _atom_site_fract_y
 _atom_site_fract_z
 _atom_site_occupancy
  Ho  Ho0  1  0.313782  0.250000  0.218872  1
  Ho  Ho1  1  0.813782  0.250000  0.281128  1
  Ho  Ho2  1  0.672876  0.750000  0.788020  1
  Ho  Ho3  1  0.172876  0.750000  0.711980  1
  Lu  Lu4  1  0.353052  0.750000  0.205250  1
  Lu  Lu5  1  0.853052  0.750000  0.294750  1
  Lu  Lu6  1  0.650750  0.250000  0.780780  1
  Lu  Lu7  1  0.150750  0.250000  0.719220  1
  Lu  Lu8  1  0.682223  0.574714  0.055894  1
  Lu  Lu9  1  0.182223  0.925286  0.444106  1
  Lu  Lu10  1  0.311364  0.048353  0.940170  1
  Lu  Lu11  1  0.811364  0.451647  0.559830  1
  Lu  Lu12  1  0.311364  0.451647  0.940170  1
  Lu  Lu13  1  0.811364  0.048353  0.559830  1
  Lu  Lu14  1  0.682223  0.925286  0.055894  1
  Lu  Lu15  1  0.182223  0.574714  0.444106  1
  Lu  Lu16  1  0.482497  0.250000  0.490919  1
  Lu  Lu17  1  0.982497  0.250000  0.009081  1
  Lu  Lu18  1  0.539008  0.750000  0.511698  1
  Lu  Lu19  1  0.039008  0.750000  0.988302  1
  Si  Si20  1  0.409753  0.750000  0.964593  1
  Si  Si21  1  0.909753  0.750000  0.535407  1
  Bi  Bi22  1  0.596961  0.250000  0.039649  1
  Bi  Bi23  1  0.096961  0.250000  0.460351  1
  Bi  Bi24  1  0.562026  0.994640  0.325042  1
  Bi  Bi25  1  0.062026  0.505360  0.174958  1
  Bi  Bi26  1  0.435047  0.497062  0.674407  1
  Bi  Bi27  1  0.935047  0.002938  0.825593  1
  Bi  Bi28  1  0.435047  0.002938  0.674407  1
  Bi  Bi29  1  0.935047  0.497062  0.825593  1
  Bi  Bi30  1  0.562026  0.505360  0.325042  1
  Bi  Bi31  1  0.062026  0.994640  0.174958  1
