# generated using pymatgen
data_Lu3Sc3Sn5
_symmetry_space_group_name_H-M   'P 1'
_cell_length_a   6.19921652
_cell_length_b   9.07506244
_cell_length_c   11.14566743
_cell_angle_alpha   114.06711670
_cell_angle_beta   106.14683004
_cell_angle_gamma   90.00000272
_symmetry_Int_Tables_number   1
_chemical_formula_structural   Lu3Sc3Sn5
_chemical_formula_sum   'Lu6 Sc6 Sn10'
_cell_volume   545.32468277
_cell_formula_units_Z   2
loop_
 _symmetry_equiv_pos_site_id
 _symmetry_equiv_pos_as_xyz
  1  'x, y, z'
loop_
 _atom_site_type_symbol
 _atom_site_label
 _atom_site_symmetry_multiplicity
 _atom_site_fract_x
 _atom_site_fract_y
 _atom_site_fract_z
 _atom_site_occupancy
  Lu  Lu0  1  0.938482  0.198445  0.876963  1
  Lu  Lu1  1  0.061518  0.801555  0.123037  1
  Lu  Lu2  1  0.141201  0.256300  0.282402  1
  Lu  Lu3  1  0.858799  0.743700  0.717598  1
  Lu  Lu4  1  0.640938  0.025486  0.281877  1
  Lu  Lu5  1  0.359062  0.974514  0.718123  1
  Sc  Sc6  1  0.556743  0.306887  0.613271  1
  Sc  Sc7  1  0.443257  0.693113  0.386729  1
  Sc  Sc8  1  0.943470  0.693113  0.386729  1
  Sc  Sc9  1  0.056530  0.306887  0.613271  1
  Sc  Sc10  1  0.438684  0.678897  0.877367  1
  Sc  Sc11  1  0.561316  0.321103  0.122633  1
  Sn  Sn12  1  0.291956  0.593743  0.583912  1
  Sn  Sn13  1  0.708044  0.406257  0.416088  1
  Sn  Sn14  1  0.789525  0.987152  0.579049  1
  Sn  Sn15  1  0.210475  0.012848  0.420951  1
  Sn  Sn16  1  0.255162  0.000000  0.000000  1
  Sn  Sn17  1  0.744838  0.000000  0.000000  1
  Sn  Sn18  1  0.073480  0.480130  0.146959  1
  Sn  Sn19  1  0.926520  0.519870  0.853041  1
  Sn  Sn20  1  0.571072  0.661872  0.142144  1
  Sn  Sn21  1  0.428928  0.338128  0.857856  1
