# generated using pymatgen
data_La9(BiO)5
_symmetry_space_group_name_H-M   'P 1'
_cell_length_a   10.58740400
_cell_length_b   10.58740400
_cell_length_c   9.47190400
_cell_angle_alpha   90.00000000
_cell_angle_beta   90.00000000
_cell_angle_gamma   90.00000000
_symmetry_Int_Tables_number   1
_chemical_formula_structural   La9(BiO)5
_chemical_formula_sum   'La18 Bi10 O10'
_cell_volume   1061.73530447
_cell_formula_units_Z   2
loop_
 _symmetry_equiv_pos_site_id
 _symmetry_equiv_pos_as_xyz
  1  'x, y, z'
loop_
 _atom_site_type_symbol
 _atom_site_label
 _atom_site_symmetry_multiplicity
 _atom_site_fract_x
 _atom_site_fract_y
 _atom_site_fract_z
 _atom_site_occupancy
  La  La0  1  0.000000  0.500000  0.325864  1
  La  La1  1  0.500000  0.000000  0.674136  1
  La  La2  1  0.795785  0.103928  0.340776  1
  La  La3  1  0.603928  0.704215  0.340776  1
  La  La4  1  0.396072  0.295785  0.340776  1
  La  La5  1  0.204215  0.896072  0.340776  1
  La  La6  1  0.704215  0.396072  0.659224  1
  La  La7  1  0.896072  0.795785  0.659224  1
  La  La8  1  0.103928  0.204215  0.659224  1
  La  La9  1  0.295785  0.603928  0.659224  1
  La  La10  1  0.081186  0.727730  0.997596  1
  La  La11  1  0.227730  0.418814  0.997596  1
  La  La12  1  0.772270  0.581186  0.997596  1
  La  La13  1  0.918814  0.272270  0.997596  1
  La  La14  1  0.418814  0.772270  0.002404  1
  La  La15  1  0.272270  0.081186  0.002404  1
  La  La16  1  0.727730  0.918814  0.002404  1
  La  La17  1  0.581186  0.227730  0.002404  1
  Bi  Bi18  1  0.000000  0.500000  0.690341  1
  Bi  Bi19  1  0.500000  0.000000  0.309659  1
  Bi  Bi20  1  0.696650  0.402773  0.298280  1
  Bi  Bi21  1  0.902773  0.803350  0.298280  1
  Bi  Bi22  1  0.097227  0.196650  0.298280  1
  Bi  Bi23  1  0.303350  0.597227  0.298280  1
  Bi  Bi24  1  0.803350  0.097227  0.701720  1
  Bi  Bi25  1  0.597227  0.696650  0.701720  1
  Bi  Bi26  1  0.402773  0.303350  0.701720  1
  Bi  Bi27  1  0.196650  0.902773  0.701720  1
  O  O28  1  0.000000  0.500000  0.072821  1
  O  O29  1  0.500000  0.000000  0.927179  1
  O  O30  1  0.879178  0.775680  0.910185  1
  O  O31  1  0.275680  0.620822  0.910185  1
  O  O32  1  0.724320  0.379178  0.910185  1
  O  O33  1  0.120822  0.224320  0.910185  1
  O  O34  1  0.620822  0.724320  0.089815  1
  O  O35  1  0.224320  0.879178  0.089815  1
  O  O36  1  0.775680  0.120822  0.089815  1
  O  O37  1  0.379178  0.275680  0.089815  1
