# generated using pymatgen
data_Hf6Al16Co(NiPt2)2
_symmetry_space_group_name_H-M   'P 1'
_cell_length_a   8.63960841
_cell_length_b   8.62490306
_cell_length_c   8.63960794
_cell_angle_alpha   60.17551476
_cell_angle_beta   59.93708312
_cell_angle_gamma   60.17551619
_symmetry_Int_Tables_number   1
_chemical_formula_structural   Hf6Al16Co(NiPt2)2
_chemical_formula_sum   'Hf6 Al16 Co1 Ni2 Pt4'
_cell_volume   456.21164620
_cell_formula_units_Z   1
loop_
 _symmetry_equiv_pos_site_id
 _symmetry_equiv_pos_as_xyz
  1  'x, y, z'
loop_
 _atom_site_type_symbol
 _atom_site_label
 _atom_site_symmetry_multiplicity
 _atom_site_fract_x
 _atom_site_fract_y
 _atom_site_fract_z
 _atom_site_occupancy
  Hf  Hf0  1  0.684878  0.684173  0.315367  1
  Hf  Hf1  1  0.316117  0.683457  0.316117  1
  Hf  Hf2  1  0.684633  0.315827  0.315122  1
  Hf  Hf3  1  0.315122  0.315827  0.684633  1
  Hf  Hf4  1  0.683883  0.316543  0.683883  1
  Hf  Hf5  1  0.315367  0.684173  0.684878  1
  Al  Al6  1  0.885020  0.876943  0.350022  1
  Al  Al7  1  0.880964  0.349981  0.880964  1
  Al  Al8  1  0.350022  0.876943  0.885020  1
  Al  Al9  1  0.884104  0.882008  0.884104  1
  Al  Al10  1  0.114980  0.123057  0.649978  1
  Al  Al11  1  0.119036  0.650019  0.119036  1
  Al  Al12  1  0.649978  0.123057  0.114980  1
  Al  Al13  1  0.115896  0.117992  0.115896  1
  Al  Al14  1  0.661246  0.660612  0.003115  1
  Al  Al15  1  0.665312  0.003469  0.665312  1
  Al  Al16  1  0.003115  0.660612  0.661246  1
  Al  Al17  1  0.669609  0.657690  0.669609  1
  Al  Al18  1  0.338754  0.339388  0.996885  1
  Al  Al19  1  0.334688  0.996531  0.334688  1
  Al  Al20  1  0.996885  0.339388  0.338754  1
  Al  Al21  1  0.330391  0.342310  0.330391  1
  Co  Co22  1  0.000000  0.000000  0.000000  1
  Ni  Ni23  1  0.000000  0.500000  0.500000  1
  Ni  Ni24  1  0.500000  0.500000  0.000000  1
  Pt  Pt25  1  0.000000  0.000000  0.500000  1
  Pt  Pt26  1  0.500000  0.000000  0.500000  1
  Pt  Pt27  1  0.000000  0.500000  0.000000  1
  Pt  Pt28  1  0.500000  0.000000  0.000000  1
