# generated using pymatgen
data_DyLu2Fe9
_symmetry_space_group_name_H-M   'P 1'
_cell_length_a   5.05968295
_cell_length_b   5.05968280
_cell_length_c   8.51263541
_cell_angle_alpha   72.71130031
_cell_angle_beta   72.71129958
_cell_angle_gamma   59.99999443
_symmetry_Int_Tables_number   1
_chemical_formula_structural   DyLu2Fe9
_chemical_formula_sum   'Dy1 Lu2 Fe9'
_cell_volume   177.26975997
_cell_formula_units_Z   1
loop_
 _symmetry_equiv_pos_site_id
 _symmetry_equiv_pos_as_xyz
  1  'x, y, z'
loop_
 _atom_site_type_symbol
 _atom_site_label
 _atom_site_symmetry_multiplicity
 _atom_site_fract_x
 _atom_site_fract_y
 _atom_site_fract_z
 _atom_site_occupancy
  Dy  Dy0  1  0.000000  0.000000  0.000000  1
  Lu  Lu1  1  0.142075  0.142075  0.573776  1
  Lu  Lu2  1  0.857925  0.857925  0.426224  1
  Fe  Fe3  1  0.081544  0.582603  0.753251  1
  Fe  Fe4  1  0.582603  0.582603  0.753251  1
  Fe  Fe5  1  0.582603  0.081544  0.753251  1
  Fe  Fe6  1  0.918456  0.417397  0.246749  1
  Fe  Fe7  1  0.417397  0.417397  0.246749  1
  Fe  Fe8  1  0.417397  0.918456  0.246749  1
  Fe  Fe9  1  0.332896  0.332896  0.001312  1
  Fe  Fe10  1  0.667103  0.667103  0.998688  1
  Fe  Fe11  1  0.500000  0.500000  0.500000  1
