# generated using pymatgen
data_Ta2TiCr6Si2W
_symmetry_space_group_name_H-M   'P 1'
_cell_length_a   4.83495000
_cell_length_b   4.83495091
_cell_length_c   8.03089400
_cell_angle_alpha   90.00000000
_cell_angle_beta   90.00000000
_cell_angle_gamma   120.00000745
_symmetry_Int_Tables_number   1
_chemical_formula_structural   Ta2TiCr6Si2W
_chemical_formula_sum   'Ta2 Ti1 Cr6 Si2 W1'
_cell_volume   162.58427885
_cell_formula_units_Z   1
loop_
 _symmetry_equiv_pos_site_id
 _symmetry_equiv_pos_as_xyz
  1  'x, y, z'
loop_
 _atom_site_type_symbol
 _atom_site_label
 _atom_site_symmetry_multiplicity
 _atom_site_fract_x
 _atom_site_fract_y
 _atom_site_fract_z
 _atom_site_occupancy
  Ta  Ta0  1  0.666667  0.333333  0.563433  1
  Ta  Ta1  1  0.666667  0.333333  0.936683  1
  Ti  Ti2  1  0.333333  0.666667  0.064723  1
  Cr  Cr3  1  0.827634  0.172366  0.250609  1
  Cr  Cr4  1  0.827634  0.655268  0.250609  1
  Cr  Cr5  1  0.344732  0.172366  0.250609  1
  Cr  Cr6  1  0.172804  0.827196  0.749532  1
  Cr  Cr7  1  0.172804  0.345607  0.749532  1
  Cr  Cr8  1  0.654393  0.827196  0.749532  1
  Si  Si9  1  0.000000  0.000000  0.500788  1
  Si  Si10  1  0.000000  0.000000  0.001525  1
  W  W11  1  0.333333  0.666667  0.432425  1
