# generated using pymatgen
data_Tb3Nd16MgIr12
_symmetry_space_group_name_H-M   'P 1'
_cell_length_a   11.21288900
_cell_length_b   11.21288900
_cell_length_c   6.43594200
_cell_angle_alpha   90.00000000
_cell_angle_beta   90.00000000
_cell_angle_gamma   90.00000000
_symmetry_Int_Tables_number   1
_chemical_formula_structural   Tb3Nd16MgIr12
_chemical_formula_sum   'Tb3 Nd16 Mg1 Ir12'
_cell_volume   809.18377764
_cell_formula_units_Z   1
loop_
 _symmetry_equiv_pos_site_id
 _symmetry_equiv_pos_as_xyz
  1  'x, y, z'
loop_
 _atom_site_type_symbol
 _atom_site_label
 _atom_site_symmetry_multiplicity
 _atom_site_fract_x
 _atom_site_fract_y
 _atom_site_fract_z
 _atom_site_occupancy
  Tb  Tb0  1  0.000000  0.000000  0.000000  1
  Tb  Tb1  1  0.500000  0.500000  0.000000  1
  Tb  Tb2  1  0.500000  0.500000  0.500000  1
  Nd  Nd3  1  0.281895  0.085737  0.382900  1
  Nd  Nd4  1  0.288169  0.912490  0.883090  1
  Nd  Nd5  1  0.711831  0.087510  0.883090  1
  Nd  Nd6  1  0.718105  0.914263  0.382900  1
  Nd  Nd7  1  0.588596  0.790022  0.883178  1
  Nd  Nd8  1  0.588075  0.209480  0.381127  1
  Nd  Nd9  1  0.411925  0.790520  0.381127  1
  Nd  Nd10  1  0.411404  0.209978  0.883178  1
  Nd  Nd11  1  0.209480  0.411925  0.618873  1
  Nd  Nd12  1  0.209978  0.588596  0.116822  1
  Nd  Nd13  1  0.790022  0.411404  0.116822  1
  Nd  Nd14  1  0.790520  0.588075  0.618873  1
  Nd  Nd15  1  0.912490  0.711831  0.116910  1
  Nd  Nd16  1  0.914263  0.281895  0.617100  1
  Nd  Nd17  1  0.085737  0.718105  0.617100  1
  Nd  Nd18  1  0.087510  0.288169  0.116910  1
  Mg  Mg19  1  0.000000  0.000000  0.500000  1
  Ir  Ir20  1  0.849620  0.151140  0.247631  1
  Ir  Ir21  1  0.848860  0.849620  0.752369  1
  Ir  Ir22  1  0.151140  0.150380  0.752369  1
  Ir  Ir23  1  0.150380  0.848860  0.247631  1
  Ir  Ir24  1  0.650724  0.349685  0.748505  1
  Ir  Ir25  1  0.650315  0.650724  0.251495  1
  Ir  Ir26  1  0.349685  0.349276  0.251495  1
  Ir  Ir27  1  0.349276  0.650315  0.748505  1
  Ir  Ir28  1  0.500000  0.000000  0.119820  1
  Ir  Ir29  1  0.500000  0.000000  0.617303  1
  Ir  Ir30  1  0.000000  0.500000  0.880180  1
  Ir  Ir31  1  0.000000  0.500000  0.382697  1
