# generated using pymatgen
data_Tb4V3RhF28
_symmetry_space_group_name_H-M   'P 1'
_cell_length_a   5.55771084
_cell_length_b   8.87205457
_cell_length_c   11.83588734
_cell_angle_alpha   63.32070488
_cell_angle_beta   90.33341487
_cell_angle_gamma   90.23914134
_symmetry_Int_Tables_number   1
_chemical_formula_structural   Tb4V3RhF28
_chemical_formula_sum   'Tb4 V3 Rh1 F28'
_cell_volume   521.46347631
_cell_formula_units_Z   1
loop_
 _symmetry_equiv_pos_site_id
 _symmetry_equiv_pos_as_xyz
  1  'x, y, z'
loop_
 _atom_site_type_symbol
 _atom_site_label
 _atom_site_symmetry_multiplicity
 _atom_site_fract_x
 _atom_site_fract_y
 _atom_site_fract_z
 _atom_site_occupancy
  Tb  Tb0  1  0.260902  0.809199  0.267488  1
  Tb  Tb1  1  0.741442  0.192531  0.729533  1
  Tb  Tb2  1  0.758515  0.191385  0.230931  1
  Tb  Tb3  1  0.237502  0.808816  0.769985  1
  V  V4  1  0.752916  0.725138  0.044654  1
  V  V5  1  0.246919  0.273045  0.955435  1
  V  V6  1  0.254887  0.275498  0.453684  1
  Rh  Rh7  1  0.743329  0.728484  0.544654  1
  F  F8  1  0.931866  0.702551  0.418419  1
  F  F9  1  0.048263  0.293503  0.573913  1
  F  F10  1  0.455393  0.291865  0.075686  1
  F  F11  1  0.541518  0.706047  0.925843  1
  F  F12  1  0.485223  0.732659  0.140843  1
  F  F13  1  0.516156  0.263290  0.861120  1
  F  F14  1  0.985264  0.272289  0.355762  1
  F  F15  1  0.039599  0.730785  0.637154  1
  F  F16  1  0.961867  0.745786  0.166075  1
  F  F17  1  0.041256  0.249363  0.834413  1
  F  F18  1  0.459170  0.256400  0.330812  1
  F  F19  1  0.556002  0.749870  0.674862  1
  F  F20  1  0.763309  0.493944  0.137167  1
  F  F21  1  0.237574  0.504222  0.862291  1
  F  F22  1  0.265558  0.508190  0.361973  1
  F  F23  1  0.733979  0.486429  0.644714  1
  F  F24  1  0.970754  0.285124  0.047219  1
  F  F25  1  0.028585  0.712145  0.952671  1
  F  F26  1  0.442041  0.716869  0.458300  1
  F  F27  1  0.533917  0.286803  0.544805  1
  F  F28  1  0.746200  0.970212  0.452145  1
  F  F29  1  0.258844  0.046252  0.544457  1
  F  F30  1  0.242916  0.042771  0.047894  1
  F  F31  1  0.758125  0.954368  0.953518  1
  F  F32  1  0.580422  0.970688  0.232859  1
  F  F33  1  0.422059  0.026710  0.767763  1
  F  F34  1  0.076036  0.022935  0.270648  1
  F  F35  1  0.921693  0.973836  0.730309  1
