# generated using pymatgen
data_Mg3SbP6N13
_symmetry_space_group_name_H-M   'P 1'
_cell_length_a   7.14816204
_cell_length_b   7.14816342
_cell_length_c   7.14816233
_cell_angle_alpha   109.25535880
_cell_angle_beta   109.25536086
_cell_angle_gamma   109.25536192
_symmetry_Int_Tables_number   1
_chemical_formula_structural   Mg3SbP6N13
_chemical_formula_sum   'Mg3 Sb1 P6 N13'
_cell_volume   283.38987636
_cell_formula_units_Z   1
loop_
 _symmetry_equiv_pos_site_id
 _symmetry_equiv_pos_as_xyz
  1  'x, y, z'
loop_
 _atom_site_type_symbol
 _atom_site_label
 _atom_site_symmetry_multiplicity
 _atom_site_fract_x
 _atom_site_fract_y
 _atom_site_fract_z
 _atom_site_occupancy
  Mg  Mg0  1  0.993657  0.686069  0.993657  1
  Mg  Mg1  1  0.686069  0.993657  0.993657  1
  Mg  Mg2  1  0.993657  0.993657  0.686069  1
  Sb  Sb3  1  0.259765  0.259765  0.259765  1
  P  P4  1  0.505293  0.254158  0.757613  1
  P  P5  1  0.505293  0.757613  0.254158  1
  P  P6  1  0.757613  0.254158  0.505293  1
  P  P7  1  0.254158  0.505293  0.757613  1
  P  P8  1  0.757613  0.505293  0.254158  1
  P  P9  1  0.254158  0.757613  0.505293  1
  N  N10  1  0.974042  0.974042  0.974042  1
  N  N11  1  0.003384  0.733835  0.448619  1
  N  N12  1  0.274134  0.722175  0.274134  1
  N  N13  1  0.287591  0.564486  0.564486  1
  N  N14  1  0.564486  0.564486  0.287591  1
  N  N15  1  0.564486  0.287591  0.564486  1
  N  N16  1  0.733835  0.003384  0.448619  1
  N  N17  1  0.448619  0.003384  0.733835  1
  N  N18  1  0.733835  0.448619  0.003384  1
  N  N19  1  0.274134  0.274134  0.722175  1
  N  N20  1  0.722175  0.274134  0.274134  1
  N  N21  1  0.003384  0.448619  0.733835  1
  N  N22  1  0.448619  0.733835  0.003384  1
