# generated using pymatgen
data_Tm2Mg2Co5(P2Rh)3
_symmetry_space_group_name_H-M   'P 1'
_cell_length_a   3.73124300
_cell_length_b   10.57358200
_cell_length_c   12.48845900
_cell_angle_alpha   90.00000000
_cell_angle_beta   90.00000000
_cell_angle_gamma   90.00000000
_symmetry_Int_Tables_number   1
_chemical_formula_structural   Tm2Mg2Co5(P2Rh)3
_chemical_formula_sum   'Tm4 Mg4 Co10 P12 Rh6'
_cell_volume   492.70222528
_cell_formula_units_Z   2
loop_
 _symmetry_equiv_pos_site_id
 _symmetry_equiv_pos_as_xyz
  1  'x, y, z'
loop_
 _atom_site_type_symbol
 _atom_site_label
 _atom_site_symmetry_multiplicity
 _atom_site_fract_x
 _atom_site_fract_y
 _atom_site_fract_z
 _atom_site_occupancy
  Tm  Tm0  1  0.250000  0.585035  0.713698  1
  Tm  Tm1  1  0.250000  0.914965  0.213698  1
  Tm  Tm2  1  0.750000  0.420031  0.287325  1
  Tm  Tm3  1  0.750000  0.079969  0.787325  1
  Mg  Mg4  1  0.250000  0.708981  0.992363  1
  Mg  Mg5  1  0.250000  0.791019  0.492363  1
  Mg  Mg6  1  0.750000  0.292701  0.010093  1
  Mg  Mg7  1  0.750000  0.207299  0.510093  1
  Co  Co8  1  0.750000  0.783230  0.824076  1
  Co  Co9  1  0.750000  0.716770  0.324076  1
  Co  Co10  1  0.250000  0.880932  0.696896  1
  Co  Co11  1  0.250000  0.619068  0.196896  1
  Co  Co12  1  0.750000  0.111888  0.305654  1
  Co  Co13  1  0.750000  0.388112  0.805654  1
  Co  Co14  1  0.250000  0.470462  0.933931  1
  Co  Co15  1  0.250000  0.029538  0.433931  1
  Co  Co16  1  0.750000  0.536843  0.065554  1
  Co  Co17  1  0.750000  0.963157  0.565554  1
  P  P18  1  0.250000  0.431756  0.114129  1
  P  P19  1  0.250000  0.068244  0.614129  1
  P  P20  1  0.750000  0.579215  0.883740  1
  P  P21  1  0.750000  0.920785  0.383740  1
  P  P22  1  0.250000  0.276996  0.859236  1
  P  P23  1  0.250000  0.223004  0.359236  1
  P  P24  1  0.750000  0.725191  0.147007  1
  P  P25  1  0.750000  0.774809  0.647007  1
  P  P26  1  0.250000  0.597745  0.375137  1
  P  P27  1  0.250000  0.902255  0.875137  1
  P  P28  1  0.750000  0.411575  0.621345  1
  P  P29  1  0.750000  0.088425  0.121345  1
  Rh  Rh30  1  0.250000  0.403325  0.471888  1
  Rh  Rh31  1  0.250000  0.096675  0.971888  1
  Rh  Rh32  1  0.750000  0.601787  0.523793  1
  Rh  Rh33  1  0.750000  0.898213  0.023793  1
  Rh  Rh34  1  0.250000  0.218188  0.174137  1
  Rh  Rh35  1  0.250000  0.281812  0.674137  1
