# generated using pymatgen
data_Al11ZnRe3
_symmetry_space_group_name_H-M   'P 1'
_cell_length_a   5.17861541
_cell_length_b   5.19435114
_cell_length_c   9.13411971
_cell_angle_alpha   105.51161372
_cell_angle_beta   86.82687969
_cell_angle_gamma   100.80179556
_symmetry_Int_Tables_number   1
_chemical_formula_structural   Al11ZnRe3
_chemical_formula_sum   'Al11 Zn1 Re3'
_cell_volume   232.55572231
_cell_formula_units_Z   1
loop_
 _symmetry_equiv_pos_site_id
 _symmetry_equiv_pos_as_xyz
  1  'x, y, z'
loop_
 _atom_site_type_symbol
 _atom_site_label
 _atom_site_symmetry_multiplicity
 _atom_site_fract_x
 _atom_site_fract_y
 _atom_site_fract_z
 _atom_site_occupancy
  Al  Al0  1  0.896245  0.307789  0.607130  1
  Al  Al1  1  0.142892  0.703631  0.381513  1
  Al  Al2  1  0.146452  0.468000  0.883865  1
  Al  Al3  1  0.840687  0.543832  0.134072  1
  Al  Al4  1  0.018716  0.987913  0.978327  1
  Al  Al5  1  0.551048  0.103055  0.890075  1
  Al  Al6  1  0.485422  0.900259  0.132820  1
  Al  Al7  1  0.542352  0.325954  0.375060  1
  Al  Al8  1  0.402886  0.669406  0.633838  1
  Al  Al9  1  0.921205  0.837478  0.659938  1
  Al  Al10  1  0.017267  0.137250  0.290663  1
  Zn  Zn11  1  0.375935  0.167619  0.632778  1
  Re  Re12  1  0.666397  0.855929  0.402553  1
  Re  Re13  1  0.667672  0.605271  0.864191  1
  Re  Re14  1  0.324825  0.386613  0.133176  1
