# generated using pymatgen
data_Pr17Nd(BiO)10
_symmetry_space_group_name_H-M   'P 1'
_cell_length_a   10.45002217
_cell_length_b   10.45933008
_cell_length_c   9.40746320
_cell_angle_alpha   90.01277573
_cell_angle_beta   90.01968906
_cell_angle_gamma   90.00536969
_symmetry_Int_Tables_number   1
_chemical_formula_structural   Pr17Nd(BiO)10
_chemical_formula_sum   'Pr17 Nd1 Bi10 O10'
_cell_volume   1028.23781110
_cell_formula_units_Z   1
loop_
 _symmetry_equiv_pos_site_id
 _symmetry_equiv_pos_as_xyz
  1  'x, y, z'
loop_
 _atom_site_type_symbol
 _atom_site_label
 _atom_site_symmetry_multiplicity
 _atom_site_fract_x
 _atom_site_fract_y
 _atom_site_fract_z
 _atom_site_occupancy
  Pr  Pr0  1  0.499999  0.999993  0.671655  1
  Pr  Pr1  1  0.000055  0.500144  0.328227  1
  Pr  Pr2  1  0.104242  0.205132  0.659474  1
  Pr  Pr3  1  0.895937  0.794823  0.659727  1
  Pr  Pr4  1  0.294759  0.604299  0.659555  1
  Pr  Pr5  1  0.705129  0.395745  0.659494  1
  Pr  Pr6  1  0.395746  0.294882  0.340508  1
  Pr  Pr7  1  0.604251  0.705123  0.340490  1
  Pr  Pr8  1  0.205009  0.895614  0.340309  1
  Pr  Pr9  1  0.794880  0.104247  0.340516  1
  Pr  Pr10  1  0.726162  0.917677  0.001301  1
  Pr  Pr11  1  0.273903  0.082057  0.001347  1
  Pr  Pr12  1  0.582232  0.225963  0.001289  1
  Pr  Pr13  1  0.417468  0.774003  0.001306  1
  Pr  Pr14  1  0.774388  0.582349  0.998701  1
  Pr  Pr15  1  0.225781  0.418060  0.998716  1
  Pr  Pr16  1  0.917748  0.274063  0.998688  1
  Nd  Nd17  1  0.082572  0.726047  0.998441  1
  Bi  Bi18  1  0.499973  0.999985  0.312425  1
  Bi  Bi19  1  0.000006  0.500019  0.687620  1
  Bi  Bi20  1  0.403619  0.304148  0.699340  1
  Bi  Bi21  1  0.596390  0.695872  0.699347  1
  Bi  Bi22  1  0.195759  0.903498  0.699549  1
  Bi  Bi23  1  0.804151  0.096364  0.699331  1
  Bi  Bi24  1  0.096368  0.195867  0.300675  1
  Bi  Bi25  1  0.903822  0.804052  0.300344  1
  Bi  Bi26  1  0.304122  0.596391  0.300651  1
  Bi  Bi27  1  0.695863  0.403624  0.300673  1
  O  O28  1  0.500016  0.000000  0.933128  1
  O  O29  1  0.000302  0.500845  0.066545  1
  O  O30  1  0.774874  0.120888  0.087323  1
  O  O31  1  0.223965  0.878025  0.086578  1
  O  O32  1  0.379070  0.274840  0.087356  1
  O  O33  1  0.620917  0.725154  0.087342  1
  O  O34  1  0.725140  0.379090  0.912657  1
  O  O35  1  0.273628  0.621525  0.913221  1
  O  O36  1  0.120934  0.225114  0.912664  1
  O  O37  1  0.880819  0.774478  0.913488  1
