# generated using pymatgen
data_SrHgS2
_symmetry_space_group_name_H-M   'P 1'
_cell_length_a   6.80439700
_cell_length_b   7.59287500
_cell_length_c   4.45651800
_cell_angle_alpha   90.00000000
_cell_angle_beta   90.00000000
_cell_angle_gamma   90.00000000
_symmetry_Int_Tables_number   1
_chemical_formula_structural   SrHgS2
_chemical_formula_sum   'Sr2 Hg2 S4'
_cell_volume   230.24571668
_cell_formula_units_Z   2
loop_
 _symmetry_equiv_pos_site_id
 _symmetry_equiv_pos_as_xyz
  1  'x, y, z'
loop_
 _atom_site_type_symbol
 _atom_site_label
 _atom_site_symmetry_multiplicity
 _atom_site_fract_x
 _atom_site_fract_y
 _atom_site_fract_z
 _atom_site_occupancy
  Sr  Sr0  1  0.000000  0.000000  0.000000  1
  Sr  Sr1  1  0.500000  0.500000  0.500000  1
  Hg  Hg2  1  0.000000  0.500000  0.000000  1
  Hg  Hg3  1  0.500000  0.000000  0.500000  1
  S  S4  1  0.722027  0.313370  0.000000  1
  S  S5  1  0.277973  0.686631  0.000000  1
  S  S6  1  0.222027  0.186630  0.500000  1
  S  S7  1  0.777973  0.813370  0.500000  1
