# generated using pymatgen
data_LiPr6Nd10Cd3Ir3Pt
_symmetry_space_group_name_H-M   'P 1'
_cell_length_a   9.99633345
_cell_length_b   9.99633352
_cell_length_c   9.99633400
_cell_angle_alpha   60.16537975
_cell_angle_beta   60.16538613
_cell_angle_gamma   60.16538100
_symmetry_Int_Tables_number   1
_chemical_formula_structural   LiPr6Nd10Cd3Ir3Pt
_chemical_formula_sum   'Li1 Pr6 Nd10 Cd3 Ir3 Pt1'
_cell_volume   708.97501658
_cell_formula_units_Z   1
loop_
 _symmetry_equiv_pos_site_id
 _symmetry_equiv_pos_as_xyz
  1  'x, y, z'
loop_
 _atom_site_type_symbol
 _atom_site_label
 _atom_site_symmetry_multiplicity
 _atom_site_fract_x
 _atom_site_fract_y
 _atom_site_fract_z
 _atom_site_occupancy
  Li  Li0  1  0.572788  0.572788  0.572788  1
  Pr  Pr1  1  0.939397  0.562012  0.562012  1
  Pr  Pr2  1  0.561708  0.939352  0.939352  1
  Pr  Pr3  1  0.562012  0.939397  0.562012  1
  Pr  Pr4  1  0.939352  0.561708  0.939352  1
  Pr  Pr5  1  0.562012  0.562012  0.939397  1
  Pr  Pr6  1  0.939352  0.939352  0.561708  1
  Nd  Nd7  1  0.347122  0.347122  0.347122  1
  Nd  Nd8  1  0.350590  0.350590  0.953111  1
  Nd  Nd9  1  0.350590  0.953111  0.350590  1
  Nd  Nd10  1  0.953111  0.350590  0.350590  1
  Nd  Nd11  1  0.805775  0.191152  0.191152  1
  Nd  Nd12  1  0.186710  0.812059  0.812059  1
  Nd  Nd13  1  0.191152  0.805775  0.191152  1
  Nd  Nd14  1  0.812059  0.186710  0.812059  1
  Nd  Nd15  1  0.191152  0.191152  0.805775  1
  Nd  Nd16  1  0.812059  0.812059  0.186710  1
  Cd  Cd17  1  0.580751  0.580751  0.260225  1
  Cd  Cd18  1  0.580751  0.260225  0.580751  1
  Cd  Cd19  1  0.260225  0.580751  0.580751  1
  Ir  Ir20  1  0.142057  0.142057  0.574688  1
  Ir  Ir21  1  0.142057  0.574688  0.142057  1
  Ir  Ir22  1  0.574688  0.142057  0.142057  1
  Pt  Pt23  1  0.142530  0.142530  0.142530  1
