# generated using pymatgen
data_MgBr28
_symmetry_space_group_name_H-M   'P 1'
_cell_length_a   11.08100058
_cell_length_b   14.26806845
_cell_length_c   12.72108000
_cell_angle_alpha   123.45192622
_cell_angle_beta   99.87943871
_cell_angle_gamma   107.91255287
_symmetry_Int_Tables_number   1
_chemical_formula_structural   MgBr28
_chemical_formula_sum   'Mg1 Br28'
_cell_volume   1441.84298122
_cell_formula_units_Z   1
loop_
 _symmetry_equiv_pos_site_id
 _symmetry_equiv_pos_as_xyz
  1  'x, y, z'
loop_
 _atom_site_type_symbol
 _atom_site_label
 _atom_site_symmetry_multiplicity
 _atom_site_fract_x
 _atom_site_fract_y
 _atom_site_fract_z
 _atom_site_occupancy
  Mg  Mg0  1  0.500000  0.000000  0.000000  1
  Br  Br1  1  0.082279  0.116922  0.381517  1
  Br  Br2  1  0.557693  0.105024  0.399301  1
  Br  Br3  1  0.284544  0.370421  0.889785  1
  Br  Br4  1  0.782626  0.299653  0.822804  1
  Br  Br5  1  0.244411  0.564628  0.750017  1
  Br  Br6  1  0.746810  0.542809  0.681233  1
  Br  Br7  1  0.442307  0.894976  0.600699  1
  Br  Br8  1  0.917721  0.883078  0.618483  1
  Br  Br9  1  0.217374  0.700347  0.177196  1
  Br  Br10  1  0.715456  0.629579  0.110215  1
  Br  Br11  1  0.253190  0.457191  0.318767  1
  Br  Br12  1  0.755589  0.435372  0.249983  1
  Br  Br13  1  0.930959  0.084612  0.805122  1
  Br  Br14  1  0.491142  0.072711  0.854377  1
  Br  Br15  1  0.055440  0.689771  0.002918  1
  Br  Br16  1  0.553943  0.616347  0.944814  1
  Br  Br17  1  0.612724  0.235538  0.226028  1
  Br  Br18  1  0.182547  0.297446  0.345223  1
  Br  Br19  1  0.508858  0.927289  0.145623  1
  Br  Br20  1  0.069041  0.915388  0.194878  1
  Br  Br21  1  0.446057  0.383653  0.055186  1
  Br  Br22  1  0.944560  0.310229  0.997082  1
  Br  Br23  1  0.817453  0.702554  0.654777  1
  Br  Br24  1  0.387276  0.764462  0.773972  1
  Br  Br25  1  0.102230  0.357897  0.700226  1
  Br  Br26  1  0.596240  0.281467  0.645295  1
  Br  Br27  1  0.403760  0.718533  0.354705  1
  Br  Br28  1  0.897770  0.642103  0.299774  1
