# generated using pymatgen
data_Rb2Ba2RhO6
_symmetry_space_group_name_H-M   'P 1'
_cell_length_a   7.40687917
_cell_length_b   7.40688113
_cell_length_c   7.49588300
_cell_angle_alpha   92.94270977
_cell_angle_beta   92.94274153
_cell_angle_gamma   88.22024181
_symmetry_Int_Tables_number   1
_chemical_formula_structural   Rb2Ba2RhO6
_chemical_formula_sum   'Rb4 Ba4 Rh2 O12'
_cell_volume   409.98776902
_cell_formula_units_Z   2
loop_
 _symmetry_equiv_pos_site_id
 _symmetry_equiv_pos_as_xyz
  1  'x, y, z'
loop_
 _atom_site_type_symbol
 _atom_site_label
 _atom_site_symmetry_multiplicity
 _atom_site_fract_x
 _atom_site_fract_y
 _atom_site_fract_z
 _atom_site_occupancy
  Rb  Rb0  1  0.742665  0.257333  0.000000  1
  Rb  Rb1  1  0.251837  0.748163  0.500001  1
  Rb  Rb2  1  0.748543  0.609203  0.361392  1
  Rb  Rb3  1  0.390799  0.251459  0.638606  1
  Ba  Ba4  1  0.116306  0.883696  0.999998  1
  Ba  Ba5  1  0.619478  0.746035  0.870547  1
  Ba  Ba6  1  0.879915  0.120087  0.499999  1
  Ba  Ba7  1  0.253965  0.380521  0.129451  1
  Rh  Rh8  1  0.498227  0.996457  0.248201  1
  Rh  Rh9  1  0.003546  0.501775  0.751801  1
  O  O10  1  0.565495  0.248789  0.307260  1
  O  O11  1  0.431241  0.059220  0.994211  1
  O  O12  1  0.752953  0.939224  0.175587  1
  O  O13  1  0.258263  0.575495  0.822787  1
  O  O14  1  0.939007  0.762113  0.695072  1
  O  O15  1  0.065737  0.433129  0.503784  1
  O  O16  1  0.424503  0.741725  0.177209  1
  O  O17  1  0.566872  0.934261  0.496227  1
  O  O18  1  0.237880  0.060993  0.304931  1
  O  O19  1  0.751218  0.434509  0.692742  1
  O  O20  1  0.060774  0.247058  0.824412  1
  O  O21  1  0.940778  0.568757  0.005779  1
