# generated using pymatgen
data_Dy4ZnCo2Au
_symmetry_space_group_name_H-M   'P 1'
_cell_length_a   8.62836106
_cell_length_b   8.62836243
_cell_length_c   8.62836267
_cell_angle_alpha   131.54995853
_cell_angle_beta   131.54996001
_cell_angle_gamma   70.94075067
_symmetry_Int_Tables_number   1
_chemical_formula_structural   Dy4ZnCo2Au
_chemical_formula_sum   'Dy8 Zn2 Co4 Au2'
_cell_volume   352.32164579
_cell_formula_units_Z   2
loop_
 _symmetry_equiv_pos_site_id
 _symmetry_equiv_pos_as_xyz
  1  'x, y, z'
loop_
 _atom_site_type_symbol
 _atom_site_label
 _atom_site_symmetry_multiplicity
 _atom_site_fract_x
 _atom_site_fract_y
 _atom_site_fract_z
 _atom_site_occupancy
  Dy  Dy0  1  0.807716  0.307716  0.861001  1
  Dy  Dy1  1  0.192284  0.692284  0.139000  1
  Dy  Dy2  1  0.446716  0.946716  0.139000  1
  Dy  Dy3  1  0.307716  0.446716  0.500000  1
  Dy  Dy4  1  0.053284  0.192284  0.500000  1
  Dy  Dy5  1  0.553284  0.053284  0.861000  1
  Dy  Dy6  1  0.692284  0.553284  0.500000  1
  Dy  Dy7  1  0.946716  0.807716  0.500000  1
  Zn  Zn8  1  0.000000  0.000000  0.000000  1
  Zn  Zn9  1  0.500000  0.500000  0.000000  1
  Co  Co10  1  0.116298  0.616298  0.732597  1
  Co  Co11  1  0.883702  0.383702  0.267403  1
  Co  Co12  1  0.616298  0.883702  0.500000  1
  Co  Co13  1  0.383702  0.116298  0.500000  1
  Au  Au14  1  0.250000  0.250000  0.000000  1
  Au  Au15  1  0.750000  0.750000  0.000000  1
