# generated using pymatgen
data_SrCr2P2O9
_symmetry_space_group_name_H-M   'P 1'
_cell_length_a   14.28450100
_cell_length_b   6.56603800
_cell_length_c   7.44781500
_cell_angle_alpha   90.00000000
_cell_angle_beta   90.00000000
_cell_angle_gamma   90.00000000
_symmetry_Int_Tables_number   1
_chemical_formula_structural   SrCr2P2O9
_chemical_formula_sum   'Sr4 Cr8 P8 O36'
_cell_volume   698.54975723
_cell_formula_units_Z   4
loop_
 _symmetry_equiv_pos_site_id
 _symmetry_equiv_pos_as_xyz
  1  'x, y, z'
loop_
 _atom_site_type_symbol
 _atom_site_label
 _atom_site_symmetry_multiplicity
 _atom_site_fract_x
 _atom_site_fract_y
 _atom_site_fract_z
 _atom_site_occupancy
  Sr  Sr0  1  0.215516  0.250000  0.123215  1
  Sr  Sr1  1  0.715516  0.250000  0.376785  1
  Sr  Sr2  1  0.284484  0.750000  0.623216  1
  Sr  Sr3  1  0.784484  0.750000  0.876784  1
  Cr  Cr4  1  0.000000  0.000000  0.000000  1
  Cr  Cr5  1  0.000000  0.500000  0.000000  1
  Cr  Cr6  1  0.377837  0.750000  0.152897  1
  Cr  Cr7  1  0.877837  0.750000  0.347104  1
  Cr  Cr8  1  0.500000  0.000000  0.500000  1
  Cr  Cr9  1  0.500000  0.500000  0.500000  1
  Cr  Cr10  1  0.122163  0.250000  0.652897  1
  Cr  Cr11  1  0.622163  0.250000  0.847104  1
  P  P12  1  0.187883  0.750000  0.115534  1
  P  P13  1  0.436580  0.250000  0.139540  1
  P  P14  1  0.936580  0.250000  0.360461  1
  P  P15  1  0.687883  0.750000  0.384466  1
  P  P16  1  0.312118  0.250000  0.615534  1
  P  P17  1  0.063420  0.750000  0.639540  1
  P  P18  1  0.563420  0.750000  0.860461  1
  P  P19  1  0.812118  0.250000  0.884467  1
  O  O20  1  0.491874  0.750000  0.008481  1
  O  O21  1  0.736532  0.250000  0.035583  1
  O  O22  1  0.124935  0.559661  0.110411  1
  O  O23  1  0.124935  0.940339  0.110411  1
  O  O24  1  0.941869  0.750000  0.120151  1
  O  O25  1  0.371128  0.061554  0.136430  1
  O  O26  1  0.371128  0.438446  0.136430  1
  O  O27  1  0.987333  0.250000  0.171340  1
  O  O28  1  0.750375  0.750000  0.213258  1
  O  O29  1  0.250375  0.750000  0.286742  1
  O  O30  1  0.487333  0.250000  0.328659  1
  O  O31  1  0.871127  0.061554  0.363570  1
  O  O32  1  0.871127  0.438446  0.363570  1
  O  O33  1  0.441869  0.750000  0.379848  1
  O  O34  1  0.624934  0.559661  0.389588  1
  O  O35  1  0.624934  0.940339  0.389588  1
  O  O36  1  0.236532  0.250000  0.464417  1
  O  O37  1  0.991874  0.750000  0.491519  1
  O  O38  1  0.008126  0.250000  0.508481  1
  O  O39  1  0.763468  0.750000  0.535584  1
  O  O40  1  0.375065  0.059661  0.610412  1
  O  O41  1  0.375065  0.440339  0.610412  1
  O  O42  1  0.558131  0.250000  0.620151  1
  O  O43  1  0.128872  0.561554  0.636431  1
  O  O44  1  0.128872  0.938446  0.636431  1
  O  O45  1  0.512667  0.750000  0.671340  1
  O  O46  1  0.749625  0.250000  0.713257  1
  O  O47  1  0.249625  0.250000  0.786742  1
  O  O48  1  0.012667  0.750000  0.828659  1
  O  O49  1  0.628872  0.561554  0.863569  1
  O  O50  1  0.628872  0.938446  0.863569  1
  O  O51  1  0.058131  0.250000  0.879849  1
  O  O52  1  0.875065  0.059661  0.889588  1
  O  O53  1  0.875065  0.440339  0.889588  1
  O  O54  1  0.263468  0.750000  0.964417  1
  O  O55  1  0.508126  0.250000  0.991518  1
