# generated using pymatgen
data_Pr16Cd3Hg(IrOs)2
_symmetry_space_group_name_H-M   'P 1'
_cell_length_a   10.04043983
_cell_length_b   10.04043992
_cell_length_c   10.07623296
_cell_angle_alpha   59.75020137
_cell_angle_beta   59.75019844
_cell_angle_gamma   59.64919654
_symmetry_Int_Tables_number   1
_chemical_formula_structural   Pr16Cd3Hg(IrOs)2
_chemical_formula_sum   'Pr16 Cd3 Hg1 Ir2 Os2'
_cell_volume   713.64564860
_cell_formula_units_Z   1
loop_
 _symmetry_equiv_pos_site_id
 _symmetry_equiv_pos_as_xyz
  1  'x, y, z'
loop_
 _atom_site_type_symbol
 _atom_site_label
 _atom_site_symmetry_multiplicity
 _atom_site_fract_x
 _atom_site_fract_y
 _atom_site_fract_z
 _atom_site_occupancy
  Pr  Pr0  1  0.346343  0.346343  0.347623  1
  Pr  Pr1  1  0.347143  0.347143  0.956645  1
  Pr  Pr2  1  0.345952  0.959131  0.346852  1
  Pr  Pr3  1  0.959131  0.345952  0.346852  1
  Pr  Pr4  1  0.809754  0.190983  0.191243  1
  Pr  Pr5  1  0.190619  0.810132  0.806908  1
  Pr  Pr6  1  0.190983  0.809754  0.191243  1
  Pr  Pr7  1  0.810132  0.190619  0.806908  1
  Pr  Pr8  1  0.190981  0.190981  0.808488  1
  Pr  Pr9  1  0.808053  0.808053  0.191758  1
  Pr  Pr10  1  0.939046  0.558220  0.562461  1
  Pr  Pr11  1  0.558126  0.939692  0.941202  1
  Pr  Pr12  1  0.558220  0.939046  0.562461  1
  Pr  Pr13  1  0.939692  0.558126  0.941202  1
  Pr  Pr14  1  0.560847  0.560847  0.939096  1
  Pr  Pr15  1  0.940947  0.940947  0.559562  1
  Cd  Cd16  1  0.578912  0.578912  0.261319  1
  Cd  Cd17  1  0.578755  0.261095  0.579089  1
  Cd  Cd18  1  0.261095  0.578755  0.579089  1
  Hg  Hg19  1  0.582519  0.582519  0.582394  1
  Ir  Ir20  1  0.142383  0.579208  0.139725  1
  Ir  Ir21  1  0.579208  0.142383  0.139725  1
  Os  Os22  1  0.140033  0.140033  0.137108  1
  Os  Os23  1  0.141125  0.141125  0.581044  1
