# generated using pymatgen
data_CsSmEr4Sc5(C2I9)2
_symmetry_space_group_name_H-M   'P 1'
_cell_length_a   11.45035120
_cell_length_b   11.46362951
_cell_length_c   11.33154551
_cell_angle_alpha   112.16453821
_cell_angle_beta   86.52279017
_cell_angle_gamma   121.01915097
_symmetry_Int_Tables_number   1
_chemical_formula_structural   CsSmEr4Sc5(C2I9)2
_chemical_formula_sum   'Cs1 Sm1 Er4 Sc5 C4 I18'
_cell_volume   1163.61917712
_cell_formula_units_Z   1
loop_
 _symmetry_equiv_pos_site_id
 _symmetry_equiv_pos_as_xyz
  1  'x, y, z'
loop_
 _atom_site_type_symbol
 _atom_site_label
 _atom_site_symmetry_multiplicity
 _atom_site_fract_x
 _atom_site_fract_y
 _atom_site_fract_z
 _atom_site_occupancy
  Cs  Cs0  1  0.501420  0.995326  0.500269  1
  Sm  Sm1  1  0.890148  0.054426  0.997631  1
  Er  Er2  1  0.101086  0.944345  0.999164  1
  Er  Er3  1  0.037908  0.967314  0.675270  1
  Er  Er4  1  0.319390  0.273518  0.286971  1
  Er  Er5  1  0.721124  0.644035  0.985611  1
  Sc  Sc6  1  0.695507  0.734455  0.724289  1
  Sc  Sc7  1  0.269954  0.345117  0.019876  1
  Sc  Sc8  1  0.092203  0.367156  0.277571  1
  Sc  Sc9  1  0.968193  0.039320  0.315681  1
  Sc  Sc10  1  0.905756  0.631711  0.720561  1
  C  C11  1  0.153087  0.216797  0.118204  1
  C  C12  1  0.849377  0.781478  0.881852  1
  C  C13  1  0.926855  0.860522  0.805042  1
  C  C14  1  0.075660  0.138359  0.194861  1
  I  I15  1  0.455285  0.534004  0.831961  1
  I  I16  1  0.380793  0.042431  0.157215  1
  I  I17  1  0.779543  0.858028  0.506437  1
  I  I18  1  0.848213  0.315640  0.162153  1
  I  I19  1  0.541112  0.468363  0.164241  1
  I  I20  1  0.213698  0.141152  0.492697  1
  I  I21  1  0.317745  0.110780  0.835316  1
  I  I22  1  0.686826  0.896377  0.176950  1
  I  I23  1  0.970365  0.762861  0.177025  1
  I  I24  1  0.938071  0.280577  0.483700  1
  I  I25  1  0.041267  0.252718  0.830682  1
  I  I26  1  0.063478  0.709183  0.511102  1
  I  I27  1  0.254305  0.599817  0.174773  1
  I  I28  1  0.747874  0.389390  0.815299  1
  I  I29  1  0.652996  0.459783  0.519478  1
  I  I30  1  0.149719  0.693438  0.843699  1
  I  I31  1  0.612061  0.942256  0.830593  1
  I  I32  1  0.338981  0.549326  0.483825  1
