# generated using pymatgen
data_Ca4La16Ir7Ru5
_symmetry_space_group_name_H-M   'P 1'
_cell_length_a   11.33047096
_cell_length_b   11.33047096
_cell_length_c   6.62861539
_cell_angle_alpha   90.05289665
_cell_angle_beta   90.05289665
_cell_angle_gamma   90.10471359
_symmetry_Int_Tables_number   1
_chemical_formula_structural   Ca4La16Ir7Ru5
_chemical_formula_sum   'Ca4 La16 Ir7 Ru5'
_cell_volume   850.97666014
_cell_formula_units_Z   1
loop_
 _symmetry_equiv_pos_site_id
 _symmetry_equiv_pos_as_xyz
  1  'x, y, z'
loop_
 _atom_site_type_symbol
 _atom_site_label
 _atom_site_symmetry_multiplicity
 _atom_site_fract_x
 _atom_site_fract_y
 _atom_site_fract_z
 _atom_site_occupancy
  Ca  Ca0  1  0.000294  0.999806  0.499493  1
  Ca  Ca1  1  0.000194  0.999706  0.000507  1
  Ca  Ca2  1  0.500250  0.500387  0.000418  1
  Ca  Ca3  1  0.499613  0.499750  0.499582  1
  La  La4  1  0.292802  0.089877  0.389618  1
  La  La5  1  0.292025  0.910635  0.890288  1
  La  La6  1  0.709593  0.090767  0.893976  1
  La  La7  1  0.708299  0.910732  0.392123  1
  La  La8  1  0.589345  0.792729  0.890451  1
  La  La9  1  0.592024  0.208333  0.389256  1
  La  La10  1  0.410781  0.792085  0.390887  1
  La  La11  1  0.411387  0.208260  0.889023  1
  La  La12  1  0.207271  0.410655  0.609549  1
  La  La13  1  0.207915  0.589219  0.109113  1
  La  La14  1  0.791667  0.407976  0.110744  1
  La  La15  1  0.791740  0.588613  0.610977  1
  La  La16  1  0.910123  0.707198  0.110382  1
  La  La17  1  0.909233  0.290407  0.606024  1
  La  La18  1  0.089365  0.707975  0.609712  1
  La  La19  1  0.089268  0.291701  0.107877  1
  Ir  Ir20  1  0.842689  0.841149  0.750485  1
  Ir  Ir21  1  0.158851  0.157311  0.749515  1
  Ir  Ir22  1  0.157915  0.842085  0.250000  1
  Ir  Ir23  1  0.656410  0.343590  0.750000  1
  Ir  Ir24  1  0.657694  0.658202  0.250809  1
  Ir  Ir25  1  0.341798  0.342306  0.249191  1
  Ir  Ir26  1  0.342667  0.657333  0.750000  1
  Ru  Ru27  1  0.838745  0.161255  0.250000  1
  Ru  Ru28  1  0.499672  0.999883  0.118692  1
  Ru  Ru29  1  0.499664  0.999413  0.619791  1
  Ru  Ru30  1  0.000587  0.500336  0.880209  1
  Ru  Ru31  1  0.000117  0.500328  0.381308  1
