# generated using pymatgen
data_Tb2TmHfAl15(GaRh2)3
_symmetry_space_group_name_H-M   'P 1'
_cell_length_a   7.53285200
_cell_length_b   7.51968685
_cell_length_c   9.39680900
_cell_angle_alpha   90.00000000
_cell_angle_beta   90.00000000
_cell_angle_gamma   119.48943428
_symmetry_Int_Tables_number   1
_chemical_formula_structural   Tb2TmHfAl15(GaRh2)3
_chemical_formula_sum   'Tb2 Tm1 Hf1 Al15 Ga3 Rh6'
_cell_volume   463.32065988
_cell_formula_units_Z   1
loop_
 _symmetry_equiv_pos_site_id
 _symmetry_equiv_pos_as_xyz
  1  'x, y, z'
loop_
 _atom_site_type_symbol
 _atom_site_label
 _atom_site_symmetry_multiplicity
 _atom_site_fract_x
 _atom_site_fract_y
 _atom_site_fract_z
 _atom_site_occupancy
  Tb  Tb0  1  0.006133  0.327406  0.750000  1
  Tb  Tb1  1  0.329602  0.007775  0.750000  1
  Tm  Tm2  1  0.672175  0.998200  0.250000  1
  Hf  Hf3  1  0.998755  0.672588  0.250000  1
  Al  Al4  1  0.123830  0.121875  0.250000  1
  Al  Al5  1  0.998805  0.338764  0.081434  1
  Al  Al6  1  0.997780  0.665276  0.930794  1
  Al  Al7  1  0.997780  0.665276  0.569206  1
  Al  Al8  1  0.332910  0.996794  0.418423  1
  Al  Al9  1  0.998805  0.338764  0.418566  1
  Al  Al10  1  0.664421  0.995897  0.573116  1
  Al  Al11  1  0.664421  0.995897  0.926884  1
  Al  Al12  1  0.332910  0.996794  0.081577  1
  Al  Al13  1  0.334773  0.335132  0.539716  1
  Al  Al14  1  0.671246  0.668857  0.433797  1
  Al  Al15  1  0.671246  0.668857  0.066203  1
  Al  Al16  1  0.334773  0.335132  0.960284  1
  Al  Al17  1  0.335542  0.552432  0.250000  1
  Al  Al18  1  0.557430  0.341971  0.250000  1
  Ga  Ga19  1  0.870911  0.868956  0.750000  1
  Ga  Ga20  1  0.658196  0.451602  0.750000  1
  Ga  Ga21  1  0.448562  0.655724  0.750000  1
  Rh  Rh22  1  0.673127  0.328345  0.003699  1
  Rh  Rh23  1  0.327675  0.673188  0.004223  1
  Rh  Rh24  1  0.327675  0.673188  0.495777  1
  Rh  Rh25  1  0.673127  0.328345  0.496301  1
  Rh  Rh26  1  0.998693  0.998479  0.004691  1
  Rh  Rh27  1  0.998693  0.998479  0.495309  1
