# generated using pymatgen
data_Hf4Al6TcAu
_symmetry_space_group_name_H-M   'P 1'
_cell_length_a   5.30982100
_cell_length_b   5.30982136
_cell_length_c   8.53342100
_cell_angle_alpha   90.00000000
_cell_angle_beta   90.00000000
_cell_angle_gamma   120.00000400
_symmetry_Int_Tables_number   1
_chemical_formula_structural   Hf4Al6TcAu
_chemical_formula_sum   'Hf4 Al6 Tc1 Au1'
_cell_volume   208.35962986
_cell_formula_units_Z   1
loop_
 _symmetry_equiv_pos_site_id
 _symmetry_equiv_pos_as_xyz
  1  'x, y, z'
loop_
 _atom_site_type_symbol
 _atom_site_label
 _atom_site_symmetry_multiplicity
 _atom_site_fract_x
 _atom_site_fract_y
 _atom_site_fract_z
 _atom_site_occupancy
  Hf  Hf0  1  0.333333  0.666667  0.944404  1
  Hf  Hf1  1  0.666667  0.333333  0.055596  1
  Hf  Hf2  1  0.666667  0.333333  0.434812  1
  Hf  Hf3  1  0.333333  0.666667  0.565188  1
  Al  Al4  1  0.829978  0.170022  0.745683  1
  Al  Al5  1  0.829978  0.659958  0.745683  1
  Al  Al6  1  0.340042  0.170022  0.745683  1
  Al  Al7  1  0.170022  0.829978  0.254317  1
  Al  Al8  1  0.170022  0.340042  0.254317  1
  Al  Al9  1  0.659958  0.829978  0.254317  1
  Tc  Tc10  1  0.000000  0.000000  0.500000  1
  Au  Au11  1  0.000000  0.000000  0.000000  1
