# generated using pymatgen
data_Tb17(LuRh4)3
_symmetry_space_group_name_H-M   'P 1'
_cell_length_a   10.88224800
_cell_length_b   10.88224800
_cell_length_c   6.33989400
_cell_angle_alpha   90.00000000
_cell_angle_beta   90.00000000
_cell_angle_gamma   90.00000000
_symmetry_Int_Tables_number   1
_chemical_formula_structural   Tb17(LuRh4)3
_chemical_formula_sum   'Tb17 Lu3 Rh12'
_cell_volume   750.79130565
_cell_formula_units_Z   1
loop_
 _symmetry_equiv_pos_site_id
 _symmetry_equiv_pos_as_xyz
  1  'x, y, z'
loop_
 _atom_site_type_symbol
 _atom_site_label
 _atom_site_symmetry_multiplicity
 _atom_site_fract_x
 _atom_site_fract_y
 _atom_site_fract_z
 _atom_site_occupancy
  Tb  Tb0  1  0.289260  0.088128  0.379052  1
  Tb  Tb1  1  0.289293  0.911750  0.878916  1
  Tb  Tb2  1  0.710707  0.088250  0.878916  1
  Tb  Tb3  1  0.710740  0.911872  0.379052  1
  Tb  Tb4  1  0.588318  0.789927  0.879108  1
  Tb  Tb5  1  0.588616  0.209478  0.378935  1
  Tb  Tb6  1  0.411384  0.790522  0.378935  1
  Tb  Tb7  1  0.411682  0.210073  0.879108  1
  Tb  Tb8  1  0.209478  0.411384  0.621065  1
  Tb  Tb9  1  0.210073  0.588318  0.120892  1
  Tb  Tb10  1  0.789927  0.411682  0.120892  1
  Tb  Tb11  1  0.790522  0.588616  0.621065  1
  Tb  Tb12  1  0.911750  0.710707  0.121084  1
  Tb  Tb13  1  0.911872  0.289260  0.620948  1
  Tb  Tb14  1  0.088128  0.710740  0.620948  1
  Tb  Tb15  1  0.088250  0.289293  0.121084  1
  Tb  Tb16  1  0.500000  0.500000  0.500000  1
  Lu  Lu17  1  0.000000  0.000000  0.500000  1
  Lu  Lu18  1  0.000000  0.000000  0.000000  1
  Lu  Lu19  1  0.500000  0.500000  0.000000  1
  Rh  Rh20  1  0.848610  0.151043  0.250292  1
  Rh  Rh21  1  0.848957  0.848610  0.749708  1
  Rh  Rh22  1  0.151043  0.151390  0.749708  1
  Rh  Rh23  1  0.151390  0.848957  0.250292  1
  Rh  Rh24  1  0.652927  0.346905  0.752524  1
  Rh  Rh25  1  0.653095  0.652927  0.247476  1
  Rh  Rh26  1  0.346905  0.347073  0.247476  1
  Rh  Rh27  1  0.347073  0.653095  0.752524  1
  Rh  Rh28  1  0.500000  0.000000  0.124339  1
  Rh  Rh29  1  0.500000  0.000000  0.624047  1
  Rh  Rh30  1  0.000000  0.500000  0.875661  1
  Rh  Rh31  1  0.000000  0.500000  0.375953  1
