# generated using pymatgen
data_Hf2Zr4Al8Si8Os7
_symmetry_space_group_name_H-M   'P 1'
_cell_length_a   8.61754308
_cell_length_b   8.61003465
_cell_length_c   8.61003405
_cell_angle_alpha   60.05371899
_cell_angle_beta   59.97124358
_cell_angle_gamma   59.97124083
_symmetry_Int_Tables_number   1
_chemical_formula_structural   Hf2Zr4Al8Si8Os7
_chemical_formula_sum   'Hf2 Zr4 Al8 Si8 Os7'
_cell_volume   451.71568570
_cell_formula_units_Z   1
loop_
 _symmetry_equiv_pos_site_id
 _symmetry_equiv_pos_as_xyz
  1  'x, y, z'
loop_
 _atom_site_type_symbol
 _atom_site_label
 _atom_site_symmetry_multiplicity
 _atom_site_fract_x
 _atom_site_fract_y
 _atom_site_fract_z
 _atom_site_occupancy
  Hf  Hf0  1  0.192731  0.807954  0.192046  1
  Hf  Hf1  1  0.192731  0.192046  0.807954  1
  Zr  Zr2  1  0.194044  0.806588  0.806588  1
  Zr  Zr3  1  0.807220  0.193412  0.193412  1
  Zr  Zr4  1  0.806341  0.194306  0.805694  1
  Zr  Zr5  1  0.806341  0.805694  0.194306  1
  Al  Al6  1  0.622448  0.622648  0.622648  1
  Al  Al7  1  0.622247  0.622547  0.132482  1
  Al  Al8  1  0.132710  0.622332  0.622332  1
  Al  Al9  1  0.622247  0.132482  0.622547  1
  Al  Al10  1  0.377374  0.377668  0.377668  1
  Al  Al11  1  0.377276  0.377452  0.867518  1
  Al  Al12  1  0.377276  0.867518  0.377452  1
  Al  Al13  1  0.867743  0.377351  0.377351  1
  Si  Si14  1  0.844873  0.844556  0.844556  1
  Si  Si15  1  0.845216  0.844889  0.465303  1
  Si  Si16  1  0.464621  0.845227  0.845227  1
  Si  Si17  1  0.845216  0.465303  0.844889  1
  Si  Si18  1  0.155075  0.154773  0.154773  1
  Si  Si19  1  0.155408  0.155112  0.534697  1
  Si  Si20  1  0.155408  0.534697  0.155112  1
  Si  Si21  1  0.533986  0.155444  0.155444  1
  Os  Os22  1  0.500413  0.500000  0.500000  1
  Os  Os23  1  0.001253  0.500000  0.500000  1
  Os  Os24  1  0.499047  0.000000  0.000000  1
  Os  Os25  1  0.499616  0.000546  0.500601  1
  Os  Os26  1  0.499616  0.500601  0.000546  1
  Os  Os27  1  0.000762  0.499399  0.999455  1
  Os  Os28  1  0.000762  0.999455  0.499399  1
