# generated using pymatgen
data_TbHoLu(Ga2Co3)3
_symmetry_space_group_name_H-M   'P 1'
_cell_length_a   4.04894300
_cell_length_b   8.72042031
_cell_length_c   8.70365573
_cell_angle_alpha   59.98233519
_cell_angle_beta   90.00000000
_cell_angle_gamma   90.00000000
_symmetry_Int_Tables_number   1
_chemical_formula_structural   TbHoLu(Ga2Co3)3
_chemical_formula_sum   'Tb1 Ho1 Lu1 Ga6 Co9'
_cell_volume   266.09338825
_cell_formula_units_Z   1
loop_
 _symmetry_equiv_pos_site_id
 _symmetry_equiv_pos_as_xyz
  1  'x, y, z'
loop_
 _atom_site_type_symbol
 _atom_site_label
 _atom_site_symmetry_multiplicity
 _atom_site_fract_x
 _atom_site_fract_y
 _atom_site_fract_z
 _atom_site_occupancy
  Tb  Tb0  1  0.500000  0.666613  0.666963  1
  Ho  Ho1  1  0.500000  0.333254  0.333300  1
  Lu  Lu2  1  0.000000  0.000230  0.999657  1
  Ga  Ga3  1  0.000000  0.496258  0.503333  1
  Ga  Ga4  1  0.000000  0.503133  0.000362  1
  Ga  Ga5  1  0.000000  0.000555  0.496255  1
  Ga  Ga6  1  0.500000  0.729836  0.269880  1
  Ga  Ga7  1  0.500000  0.269688  0.000068  1
  Ga  Ga8  1  0.500000  0.000328  0.729948  1
  Co  Co9  1  0.000000  0.179159  0.180144  1
  Co  Co10  1  0.000000  0.180256  0.640554  1
  Co  Co11  1  0.000000  0.640827  0.179062  1
  Co  Co12  1  0.000000  0.820159  0.821810  1
  Co  Co13  1  0.000000  0.358112  0.820267  1
  Co  Co14  1  0.000000  0.821951  0.358068  1
  Co  Co15  1  0.500000  0.296819  0.702731  1
  Co  Co16  1  0.500000  0.702573  0.000587  1
  Co  Co17  1  0.500000  0.000150  0.297111  1
