# generated using pymatgen
data_Lu4GaSb5Rh7
_symmetry_space_group_name_H-M   'P 1'
_cell_length_a   7.50024656
_cell_length_b   7.50015317
_cell_length_c   7.50024658
_cell_angle_alpha   109.64409589
_cell_angle_beta   109.12708680
_cell_angle_gamma   109.64410479
_symmetry_Int_Tables_number   1
_chemical_formula_structural   Lu4GaSb5Rh7
_chemical_formula_sum   'Lu4 Ga1 Sb5 Rh7'
_cell_volume   324.77439526
_cell_formula_units_Z   1
loop_
 _symmetry_equiv_pos_site_id
 _symmetry_equiv_pos_as_xyz
  1  'x, y, z'
loop_
 _atom_site_type_symbol
 _atom_site_label
 _atom_site_symmetry_multiplicity
 _atom_site_fract_x
 _atom_site_fract_y
 _atom_site_fract_z
 _atom_site_occupancy
  Lu  Lu0  1  0.486169  0.475413  0.486169  1
  Lu  Lu1  1  0.010508  0.523267  0.010508  1
  Lu  Lu2  1  0.486657  0.999922  0.010574  1
  Lu  Lu3  1  0.010574  0.999922  0.486657  1
  Ga  Ga4  1  0.327276  0.999528  0.327276  1
  Sb  Sb5  1  0.685590  0.999851  0.685590  1
  Sb  Sb6  1  0.682137  0.685876  0.995808  1
  Sb  Sb7  1  0.310695  0.314618  0.996110  1
  Sb  Sb8  1  0.995808  0.685876  0.682137  1
  Sb  Sb9  1  0.996110  0.314618  0.310695  1
  Rh  Rh10  1  0.748398  0.500487  0.248169  1
  Rh  Rh11  1  0.497915  0.248295  0.746165  1
  Rh  Rh12  1  0.746165  0.248295  0.497915  1
  Rh  Rh13  1  0.250059  0.751756  0.498475  1
  Rh  Rh14  1  0.248169  0.500487  0.748398  1
  Rh  Rh15  1  0.498475  0.751756  0.250059  1
  Rh  Rh16  1  0.019296  0.000037  0.019296  1
