# generated using pymatgen
data_La5U5O19
_symmetry_space_group_name_H-M   'P 1'
_cell_length_a   6.88134824
_cell_length_b   7.78594369
_cell_length_c   8.73787754
_cell_angle_alpha   101.32835184
_cell_angle_beta   97.63026484
_cell_angle_gamma   107.12389422
_symmetry_Int_Tables_number   1
_chemical_formula_structural   La5U5O19
_chemical_formula_sum   'La5 U5 O19'
_cell_volume   429.51401922
_cell_formula_units_Z   1
loop_
 _symmetry_equiv_pos_site_id
 _symmetry_equiv_pos_as_xyz
  1  'x, y, z'
loop_
 _atom_site_type_symbol
 _atom_site_label
 _atom_site_symmetry_multiplicity
 _atom_site_fract_x
 _atom_site_fract_y
 _atom_site_fract_z
 _atom_site_occupancy
  La  La0  1  0.800728  0.100208  0.603008  1
  La  La1  1  0.388268  0.296551  0.799688  1
  La  La2  1  0.605789  0.701739  0.202592  1
  La  La3  1  0.999097  0.499776  0.997978  1
  La  La4  1  0.207809  0.911344  0.388953  1
  U  U5  1  0.778394  0.597524  0.600556  1
  U  U6  1  0.605183  0.203878  0.196497  1
  U  U7  1  0.998846  0.003706  0.998285  1
  U  U8  1  0.409934  0.809711  0.815702  1
  U  U9  1  0.199199  0.387508  0.389540  1
  O  O10  1  0.342844  0.056764  0.954578  1
  O  O11  1  0.429681  0.987438  0.653858  1
  O  O12  1  0.040740  0.213094  0.859234  1
  O  O13  1  0.726559  0.388070  0.733427  1
  O  O14  1  0.148628  0.183996  0.531952  1
  O  O15  1  0.358932  0.597368  0.951312  1
  O  O16  1  0.952538  0.266676  0.162019  1
  O  O17  1  0.904500  0.397128  0.464034  1
  O  O18  1  0.747727  0.859656  0.763256  1
  O  O19  1  0.546770  0.454953  0.363384  1
  O  O20  1  0.406127  0.555360  0.631561  1
  O  O21  1  0.255605  0.134690  0.234934  1
  O  O22  1  0.063245  0.716488  0.792574  1
  O  O23  1  0.645187  0.407912  0.059944  1
  O  O24  1  0.864134  0.799377  0.466251  1
  O  O25  1  0.247521  0.614858  0.275854  1
  O  O26  1  0.956341  0.788590  0.126119  1
  O  O27  1  0.573466  0.007348  0.344952  1
  O  O28  1  0.660125  0.945930  0.046195  1
