# generated using pymatgen
data_Mn2Sb12OsRu
_symmetry_space_group_name_H-M   'P 1'
_cell_length_a   8.20637797
_cell_length_b   8.20490601
_cell_length_c   9.47346113
_cell_angle_alpha   54.59204258
_cell_angle_beta   54.57596147
_cell_angle_gamma   70.17641849
_symmetry_Int_Tables_number   1
_chemical_formula_structural   Mn2Sb12OsRu
_chemical_formula_sum   'Mn2 Sb12 Os1 Ru1'
_cell_volume   423.65023193
_cell_formula_units_Z   1
loop_
 _symmetry_equiv_pos_site_id
 _symmetry_equiv_pos_as_xyz
  1  'x, y, z'
loop_
 _atom_site_type_symbol
 _atom_site_label
 _atom_site_symmetry_multiplicity
 _atom_site_fract_x
 _atom_site_fract_y
 _atom_site_fract_z
 _atom_site_occupancy
  Mn  Mn0  1  0.000000  0.500000  0.500000  1
  Mn  Mn1  1  0.500000  0.000000  0.500000  1
  Sb  Sb2  1  0.156135  0.155033  0.176381  1
  Sb  Sb3  1  0.843865  0.844967  0.823619  1
  Sb  Sb4  1  0.846806  0.846809  0.499875  1
  Sb  Sb5  1  0.153194  0.153191  0.500125  1
  Sb  Sb6  1  0.814801  0.505049  0.336757  1
  Sb  Sb7  1  0.185199  0.494951  0.663243  1
  Sb  Sb8  1  0.504945  0.815211  0.336070  1
  Sb  Sb9  1  0.495055  0.184789  0.663930  1
  Sb  Sb10  1  0.655859  0.335474  0.849665  1
  Sb  Sb11  1  0.344141  0.664526  0.150335  1
  Sb  Sb12  1  0.663945  0.343753  0.150521  1
  Sb  Sb13  1  0.336055  0.656247  0.849479  1
  Os  Os14  1  0.000000  0.500000  0.000000  1
  Ru  Ru15  1  0.500000  0.000000  0.000000  1
