# generated using pymatgen
data_HoCoP3Ir4
_symmetry_space_group_name_H-M   'P 1'
_cell_length_a   3.92538300
_cell_length_b   10.72480700
_cell_length_c   12.38619700
_cell_angle_alpha   90.00000000
_cell_angle_beta   90.00000000
_cell_angle_gamma   90.00000000
_symmetry_Int_Tables_number   1
_chemical_formula_structural   HoCoP3Ir4
_chemical_formula_sum   'Ho4 Co4 P12 Ir16'
_cell_volume   521.44619879
_cell_formula_units_Z   4
loop_
 _symmetry_equiv_pos_site_id
 _symmetry_equiv_pos_as_xyz
  1  'x, y, z'
loop_
 _atom_site_type_symbol
 _atom_site_label
 _atom_site_symmetry_multiplicity
 _atom_site_fract_x
 _atom_site_fract_y
 _atom_site_fract_z
 _atom_site_occupancy
  Ho  Ho0  1  0.250000  0.586043  0.709241  1
  Ho  Ho1  1  0.250000  0.913957  0.209241  1
  Ho  Ho2  1  0.750000  0.413957  0.290759  1
  Ho  Ho3  1  0.750000  0.086043  0.790759  1
  Co  Co4  1  0.250000  0.462684  0.933681  1
  Co  Co5  1  0.250000  0.037316  0.433681  1
  Co  Co6  1  0.750000  0.537316  0.066319  1
  Co  Co7  1  0.750000  0.962684  0.566319  1
  P  P8  1  0.250000  0.425940  0.105645  1
  P  P9  1  0.250000  0.074060  0.605645  1
  P  P10  1  0.750000  0.574060  0.894355  1
  P  P11  1  0.750000  0.925940  0.394355  1
  P  P12  1  0.250000  0.271648  0.871366  1
  P  P13  1  0.250000  0.228352  0.371366  1
  P  P14  1  0.750000  0.728352  0.128634  1
  P  P15  1  0.750000  0.771648  0.628634  1
  P  P16  1  0.250000  0.594627  0.385339  1
  P  P17  1  0.250000  0.905373  0.885339  1
  P  P18  1  0.750000  0.405373  0.614661  1
  P  P19  1  0.750000  0.094627  0.114661  1
  Ir  Ir20  1  0.250000  0.722077  0.982938  1
  Ir  Ir21  1  0.250000  0.777923  0.482938  1
  Ir  Ir22  1  0.750000  0.277923  0.017062  1
  Ir  Ir23  1  0.750000  0.222077  0.517062  1
  Ir  Ir24  1  0.250000  0.407920  0.478008  1
  Ir  Ir25  1  0.250000  0.092080  0.978008  1
  Ir  Ir26  1  0.750000  0.592080  0.521992  1
  Ir  Ir27  1  0.750000  0.907920  0.021992  1
  Ir  Ir28  1  0.250000  0.231980  0.179139  1
  Ir  Ir29  1  0.250000  0.268020  0.679139  1
  Ir  Ir30  1  0.750000  0.768020  0.820861  1
  Ir  Ir31  1  0.750000  0.731980  0.320861  1
  Ir  Ir32  1  0.250000  0.887154  0.699648  1
  Ir  Ir33  1  0.250000  0.612846  0.199648  1
  Ir  Ir34  1  0.750000  0.112846  0.300352  1
  Ir  Ir35  1  0.750000  0.387154  0.800352  1
