# generated using pymatgen
data_TbY3Co18(P6Os)2
_symmetry_space_group_name_H-M   'P 1'
_cell_length_a   3.68727800
_cell_length_b   10.35059302
_cell_length_c   11.75239602
_cell_angle_alpha   89.99355514
_cell_angle_beta   90.00000000
_cell_angle_gamma   90.00000000
_symmetry_Int_Tables_number   1
_chemical_formula_structural   TbY3Co18(P6Os)2
_chemical_formula_sum   'Tb1 Y3 Co18 P12 Os2'
_cell_volume   448.53623096
_cell_formula_units_Z   1
loop_
 _symmetry_equiv_pos_site_id
 _symmetry_equiv_pos_as_xyz
  1  'x, y, z'
loop_
 _atom_site_type_symbol
 _atom_site_label
 _atom_site_symmetry_multiplicity
 _atom_site_fract_x
 _atom_site_fract_y
 _atom_site_fract_z
 _atom_site_occupancy
  Tb  Tb0  1  0.250000  0.917378  0.201857  1
  Y  Y1  1  0.250000  0.582633  0.701797  1
  Y  Y2  1  0.750000  0.413060  0.295458  1
  Y  Y3  1  0.750000  0.086992  0.795489  1
  Co  Co4  1  0.750000  0.284027  0.008992  1
  Co  Co5  1  0.750000  0.216024  0.509056  1
  Co  Co6  1  0.250000  0.405939  0.488266  1
  Co  Co7  1  0.250000  0.094116  0.988260  1
  Co  Co8  1  0.750000  0.591872  0.509582  1
  Co  Co9  1  0.750000  0.908170  0.009438  1
  Co  Co10  1  0.250000  0.220230  0.176934  1
  Co  Co11  1  0.250000  0.279824  0.676937  1
  Co  Co12  1  0.750000  0.777403  0.822804  1
  Co  Co13  1  0.750000  0.722364  0.322872  1
  Co  Co14  1  0.250000  0.887437  0.701791  1
  Co  Co15  1  0.250000  0.612490  0.201730  1
  Co  Co16  1  0.750000  0.115741  0.301336  1
  Co  Co17  1  0.750000  0.384384  0.801198  1
  Co  Co18  1  0.250000  0.465550  0.932791  1
  Co  Co19  1  0.250000  0.034519  0.432961  1
  Co  Co20  1  0.750000  0.533212  0.068667  1
  Co  Co21  1  0.750000  0.966681  0.568783  1
  P  P22  1  0.250000  0.416089  0.112022  1
  P  P23  1  0.250000  0.083922  0.612109  1
  P  P24  1  0.750000  0.578653  0.886846  1
  P  P25  1  0.750000  0.921312  0.387032  1
  P  P26  1  0.250000  0.271316  0.869612  1
  P  P27  1  0.250000  0.228696  0.369614  1
  P  P28  1  0.750000  0.728389  0.132294  1
  P  P29  1  0.750000  0.771338  0.632347  1
  P  P30  1  0.250000  0.593915  0.390333  1
  P  P31  1  0.250000  0.906144  0.890407  1
  P  P32  1  0.750000  0.396844  0.608412  1
  P  P33  1  0.750000  0.103327  0.108389  1
  Os  Os34  1  0.250000  0.715166  0.991803  1
  Os  Os35  1  0.250000  0.784842  0.491779  1
