# generated using pymatgen
data_Tb3MgCd2AgPb2
_symmetry_space_group_name_H-M   'P 1'
_cell_length_a   7.57769381
_cell_length_b   7.57769345
_cell_length_c   4.60032500
_cell_angle_alpha   90.00000000
_cell_angle_beta   90.00000000
_cell_angle_gamma   120.32677422
_symmetry_Int_Tables_number   1
_chemical_formula_structural   Tb3MgCd2AgPb2
_chemical_formula_sum   'Tb3 Mg1 Cd2 Ag1 Pb2'
_cell_volume   228.00992446
_cell_formula_units_Z   1
loop_
 _symmetry_equiv_pos_site_id
 _symmetry_equiv_pos_as_xyz
  1  'x, y, z'
loop_
 _atom_site_type_symbol
 _atom_site_label
 _atom_site_symmetry_multiplicity
 _atom_site_fract_x
 _atom_site_fract_y
 _atom_site_fract_z
 _atom_site_occupancy
  Tb  Tb0  1  0.586262  0.002003  0.000000  1
  Tb  Tb1  1  0.002003  0.586262  0.000000  1
  Tb  Tb2  1  0.410902  0.410902  0.000000  1
  Mg  Mg3  1  0.772307  0.772307  0.500000  1
  Cd  Cd4  1  0.232261  0.998587  0.500000  1
  Cd  Cd5  1  0.998587  0.232261  0.500000  1
  Ag  Ag6  1  0.992506  0.992506  0.000000  1
  Pb  Pb7  1  0.338108  0.667063  0.500000  1
  Pb  Pb8  1  0.667063  0.338108  0.500000  1
