# generated using pymatgen
data_Ce8NbSi16Mo11
_symmetry_space_group_name_H-M   'P 1'
_cell_length_a   6.92971964
_cell_length_b   7.01616034
_cell_length_c   13.07933600
_cell_angle_alpha   90.00000000
_cell_angle_beta   90.00000000
_cell_angle_gamma   90.05233576
_symmetry_Int_Tables_number   1
_chemical_formula_structural   Ce8NbSi16Mo11
_chemical_formula_sum   'Ce8 Nb1 Si16 Mo11'
_cell_volume   635.91736628
_cell_formula_units_Z   1
loop_
 _symmetry_equiv_pos_site_id
 _symmetry_equiv_pos_as_xyz
  1  'x, y, z'
loop_
 _atom_site_type_symbol
 _atom_site_label
 _atom_site_symmetry_multiplicity
 _atom_site_fract_x
 _atom_site_fract_y
 _atom_site_fract_z
 _atom_site_occupancy
  Ce  Ce0  1  0.004508  0.161823  0.093753  1
  Ce  Ce1  1  0.505379  0.339333  0.406733  1
  Ce  Ce2  1  0.495404  0.662587  0.907548  1
  Ce  Ce3  1  0.996309  0.836961  0.592508  1
  Ce  Ce4  1  0.996309  0.836961  0.907492  1
  Ce  Ce5  1  0.495404  0.662587  0.592452  1
  Ce  Ce6  1  0.505379  0.339333  0.093267  1
  Ce  Ce7  1  0.004508  0.161823  0.406247  1
  Nb  Nb8  1  0.332441  0.001062  0.750000  1
  Si  Si9  1  0.808870  0.375976  0.250000  1
  Si  Si10  1  0.309424  0.125170  0.250000  1
  Si  Si11  1  0.697031  0.873386  0.750000  1
  Si  Si12  1  0.191693  0.620851  0.750000  1
  Si  Si13  1  0.038153  0.859914  0.250000  1
  Si  Si14  1  0.539789  0.641410  0.250000  1
  Si  Si15  1  0.462739  0.366532  0.750000  1
  Si  Si16  1  0.956645  0.139735  0.750000  1
  Si  Si17  1  0.843873  0.454100  0.953230  1
  Si  Si18  1  0.344143  0.044907  0.544011  1
  Si  Si19  1  0.655053  0.954671  0.048004  1
  Si  Si20  1  0.155258  0.544979  0.452405  1
  Si  Si21  1  0.155258  0.544979  0.047595  1
  Si  Si22  1  0.655053  0.954671  0.451996  1
  Si  Si23  1  0.344143  0.044907  0.955989  1
  Si  Si24  1  0.843873  0.454100  0.546770  1
  Mo  Mo25  1  0.669174  0.002791  0.250000  1
  Mo  Mo26  1  0.168962  0.497804  0.250000  1
  Mo  Mo27  1  0.831668  0.500316  0.750000  1
  Mo  Mo28  1  0.832745  0.664019  0.125727  1
  Mo  Mo29  1  0.330978  0.835527  0.373113  1
  Mo  Mo30  1  0.665963  0.165528  0.874950  1
  Mo  Mo31  1  0.167091  0.333093  0.625197  1
  Mo  Mo32  1  0.167091  0.333093  0.874803  1
  Mo  Mo33  1  0.665963  0.165528  0.625050  1
  Mo  Mo34  1  0.330978  0.835527  0.126887  1
  Mo  Mo35  1  0.832745  0.664019  0.374273  1
