# generated using pymatgen
data_PaTcB4
_symmetry_space_group_name_H-M   'P 1'
_cell_length_a   5.96588100
_cell_length_b   11.57869200
_cell_length_c   3.66372700
_cell_angle_alpha   90.00000000
_cell_angle_beta   90.00000000
_cell_angle_gamma   90.00000000
_symmetry_Int_Tables_number   1
_chemical_formula_structural   PaTcB4
_chemical_formula_sum   'Pa4 Tc4 B16'
_cell_volume   253.07963125
_cell_formula_units_Z   4
loop_
 _symmetry_equiv_pos_site_id
 _symmetry_equiv_pos_as_xyz
  1  'x, y, z'
loop_
 _atom_site_type_symbol
 _atom_site_label
 _atom_site_symmetry_multiplicity
 _atom_site_fract_x
 _atom_site_fract_y
 _atom_site_fract_z
 _atom_site_occupancy
  Pa  Pa0  1  0.628601  0.149921  0.000000  1
  Pa  Pa1  1  0.128601  0.350079  0.000000  1
  Pa  Pa2  1  0.871399  0.649922  0.000000  1
  Pa  Pa3  1  0.371399  0.850078  0.000000  1
  Tc  Tc4  1  0.139526  0.093753  0.000000  1
  Tc  Tc5  1  0.639527  0.406247  0.000000  1
  Tc  Tc6  1  0.360474  0.593753  0.000000  1
  Tc  Tc7  1  0.860474  0.906247  0.000000  1
  B  B8  1  0.365112  0.031981  0.500001  1
  B  B9  1  0.887452  0.045928  0.500001  1
  B  B10  1  0.289478  0.187376  0.500001  1
  B  B11  1  0.973748  0.191578  0.500001  1
  B  B12  1  0.473747  0.308423  0.500001  1
  B  B13  1  0.789478  0.312623  0.500001  1
  B  B14  1  0.387452  0.454072  0.500001  1
  B  B15  1  0.865112  0.468019  0.500001  1
  B  B16  1  0.134889  0.531981  0.500001  1
  B  B17  1  0.612549  0.545929  0.500001  1
  B  B18  1  0.210523  0.687376  0.500001  1
  B  B19  1  0.526253  0.691578  0.500001  1
  B  B20  1  0.026253  0.808422  0.500001  1
  B  B21  1  0.710523  0.812623  0.500001  1
  B  B22  1  0.112549  0.954071  0.500001  1
  B  B23  1  0.634889  0.968018  0.500001  1
