# generated using pymatgen
data_NdThCdPd2
_symmetry_space_group_name_H-M   'P 1'
_cell_length_a   7.92532120
_cell_length_b   7.92532120
_cell_length_c   3.86397700
_cell_angle_alpha   90.00000000
_cell_angle_beta   90.00000000
_cell_angle_gamma   92.27090705
_symmetry_Int_Tables_number   1
_chemical_formula_structural   NdThCdPd2
_chemical_formula_sum   'Nd2 Th2 Cd2 Pd4'
_cell_volume   242.50855735
_cell_formula_units_Z   2
loop_
 _symmetry_equiv_pos_site_id
 _symmetry_equiv_pos_as_xyz
  1  'x, y, z'
loop_
 _atom_site_type_symbol
 _atom_site_label
 _atom_site_symmetry_multiplicity
 _atom_site_fract_x
 _atom_site_fract_y
 _atom_site_fract_z
 _atom_site_occupancy
  Nd  Nd0  1  0.173129  0.326871  0.500000  1
  Nd  Nd1  1  0.826871  0.673129  0.500000  1
  Th  Th2  1  0.673052  0.173052  0.500000  1
  Th  Th3  1  0.326948  0.826948  0.500000  1
  Cd  Cd4  1  0.000000  0.000000  0.000000  1
  Cd  Cd5  1  0.500000  0.500000  0.000000  1
  Pd  Pd6  1  0.132167  0.632167  0.000000  1
  Pd  Pd7  1  0.867833  0.367833  0.000000  1
  Pd  Pd8  1  0.623366  0.876634  0.000000  1
  Pd  Pd9  1  0.376634  0.123366  0.000000  1
