# generated using pymatgen
data_Ho4Tm2Al24Os7Au
_symmetry_space_group_name_H-M   'P 1'
_cell_length_a   8.84078023
_cell_length_b   8.84078050
_cell_length_c   9.54154149
_cell_angle_alpha   89.79020785
_cell_angle_beta   90.20979175
_cell_angle_gamma   119.98172699
_symmetry_Int_Tables_number   1
_chemical_formula_structural   Ho4Tm2Al24Os7Au
_chemical_formula_sum   'Ho4 Tm2 Al24 Os7 Au1'
_cell_volume   645.96120020
_cell_formula_units_Z   1
loop_
 _symmetry_equiv_pos_site_id
 _symmetry_equiv_pos_as_xyz
  1  'x, y, z'
loop_
 _atom_site_type_symbol
 _atom_site_label
 _atom_site_symmetry_multiplicity
 _atom_site_fract_x
 _atom_site_fract_y
 _atom_site_fract_z
 _atom_site_occupancy
  Ho  Ho0  1  0.191055  0.387869  0.251604  1
  Ho  Ho1  1  0.808945  0.612131  0.748396  1
  Ho  Ho2  1  0.612131  0.808945  0.251604  1
  Ho  Ho3  1  0.387869  0.191055  0.748396  1
  Tm  Tm4  1  0.196025  0.803975  0.254236  1
  Tm  Tm5  1  0.803975  0.196025  0.745764  1
  Al  Al6  1  0.328674  0.671326  0.023938  1
  Al  Al7  1  0.671326  0.328674  0.976062  1
  Al  Al8  1  0.666205  0.333795  0.519219  1
  Al  Al9  1  0.333795  0.666205  0.480781  1
  Al  Al10  1  0.162843  0.325725  0.576019  1
  Al  Al11  1  0.837157  0.674275  0.423981  1
  Al  Al12  1  0.674275  0.837157  0.576019  1
  Al  Al13  1  0.848586  0.677701  0.080126  1
  Al  Al14  1  0.325725  0.162843  0.423981  1
  Al  Al15  1  0.151414  0.322299  0.919874  1
  Al  Al16  1  0.163280  0.836720  0.575603  1
  Al  Al17  1  0.322299  0.151414  0.080126  1
  Al  Al18  1  0.836720  0.163280  0.424397  1
  Al  Al19  1  0.677701  0.848586  0.919874  1
  Al  Al20  1  0.836746  0.163254  0.076263  1
  Al  Al21  1  0.163254  0.836746  0.923737  1
  Al  Al22  1  0.560747  0.121591  0.249296  1
  Al  Al23  1  0.439253  0.878409  0.750704  1
  Al  Al24  1  0.878409  0.439253  0.249296  1
  Al  Al25  1  0.121591  0.560747  0.750704  1
  Al  Al26  1  0.563658  0.436342  0.255569  1
  Al  Al27  1  0.436342  0.563658  0.744431  1
  Al  Al28  1  0.999806  0.000194  0.250358  1
  Al  Al29  1  0.000194  0.999806  0.749642  1
  Os  Os30  1  0.500000  0.000000  0.000000  1
  Os  Os31  1  0.000000  0.500000  0.000000  1
  Os  Os32  1  0.500000  0.000000  0.500000  1
  Os  Os33  1  0.000000  0.500000  0.500000  1
  Os  Os34  1  0.500000  0.500000  0.500000  1
  Os  Os35  1  0.000000  0.000000  0.000000  1
  Os  Os36  1  0.000000  0.000000  0.500000  1
  Au  Au37  1  0.500000  0.500000  0.000000  1
