# generated using pymatgen
data_KScSn3O8
_symmetry_space_group_name_H-M   'P 1'
_cell_length_a   3.23400016
_cell_length_b   7.65990969
_cell_length_c   7.81245493
_cell_angle_alpha   92.19955230
_cell_angle_beta   101.94528223
_cell_angle_gamma   77.81322575
_symmetry_Int_Tables_number   1
_chemical_formula_structural   KScSn3O8
_chemical_formula_sum   'K1 Sc1 Sn3 O8'
_cell_volume   185.07080531
_cell_formula_units_Z   1
loop_
 _symmetry_equiv_pos_site_id
 _symmetry_equiv_pos_as_xyz
  1  'x, y, z'
loop_
 _atom_site_type_symbol
 _atom_site_label
 _atom_site_symmetry_multiplicity
 _atom_site_fract_x
 _atom_site_fract_y
 _atom_site_fract_z
 _atom_site_occupancy
  K  K0  1  0.997568  0.005785  0.000921  1
  Sc  Sc1  1  0.665282  0.484373  0.814938  1
  Sn  Sn2  1  0.329549  0.516216  0.175313  1
  Sn  Sn3  1  0.853994  0.808624  0.516611  1
  Sn  Sn4  1  0.150509  0.185613  0.486632  1
  O  O5  1  0.958040  0.378104  0.294184  1
  O  O6  1  0.041640  0.623586  0.706867  1
  O  O7  1  0.665879  0.289385  0.621142  1
  O  O8  1  0.334453  0.706024  0.374931  1
  O  O9  1  0.702690  0.650111  0.055490  1
  O  O10  1  0.299256  0.356301  0.954812  1
  O  O11  1  0.655324  0.046258  0.356906  1
  O  O12  1  0.345817  0.949621  0.641255  1
