# generated using pymatgen
data_Nd19SmSi15Ag
_symmetry_space_group_name_H-M   'P 1'
_cell_length_a   7.80067733
_cell_length_b   7.95978784
_cell_length_c   15.21324361
_cell_angle_alpha   89.82549119
_cell_angle_beta   89.49485957
_cell_angle_gamma   90.08972790
_symmetry_Int_Tables_number   1
_chemical_formula_structural   Nd19SmSi15Ag
_chemical_formula_sum   'Nd19 Sm1 Si15 Ag1'
_cell_volume   944.57442380
_cell_formula_units_Z   1
loop_
 _symmetry_equiv_pos_site_id
 _symmetry_equiv_pos_as_xyz
  1  'x, y, z'
loop_
 _atom_site_type_symbol
 _atom_site_label
 _atom_site_symmetry_multiplicity
 _atom_site_fract_x
 _atom_site_fract_y
 _atom_site_fract_z
 _atom_site_occupancy
  Nd  Nd0  1  0.815094  0.320833  0.622905  1
  Nd  Nd1  1  0.458200  0.686848  0.899008  1
  Nd  Nd2  1  0.958054  0.813048  0.898054  1
  Nd  Nd3  1  0.188063  0.682392  0.120645  1
  Nd  Nd4  1  0.690904  0.819636  0.120894  1
  Nd  Nd5  1  0.310192  0.180506  0.878680  1
  Nd  Nd6  1  0.191298  0.678273  0.379407  1
  Nd  Nd7  1  0.041895  0.185469  0.101261  1
  Nd  Nd8  1  0.313712  0.179391  0.622258  1
  Nd  Nd9  1  0.858367  0.489795  0.249259  1
  Nd  Nd10  1  0.362051  0.010518  0.250036  1
  Nd  Nd11  1  0.530096  0.310998  0.396145  1
  Nd  Nd12  1  0.811178  0.318341  0.878849  1
  Nd  Nd13  1  0.963899  0.819655  0.603201  1
  Nd  Nd14  1  0.462509  0.686098  0.602931  1
  Nd  Nd15  1  0.043209  0.179114  0.396734  1
  Nd  Nd16  1  0.683242  0.825844  0.377026  1
  Nd  Nd17  1  0.637062  0.990985  0.750047  1
  Nd  Nd18  1  0.540801  0.312782  0.100778  1
  Sm  Sm19  1  0.138253  0.513876  0.748437  1
  Si  Si20  1  0.480560  0.600630  0.247744  1
  Si  Si21  1  0.248066  0.379912  0.248183  1
  Si  Si22  1  0.517098  0.400269  0.751337  1
  Si  Si23  1  0.633628  0.025509  0.958939  1
  Si  Si24  1  0.017495  0.100680  0.751136  1
  Si  Si25  1  0.749769  0.621611  0.750664  1
  Si  Si26  1  0.751994  0.121598  0.248729  1
  Si  Si27  1  0.364225  0.972386  0.460407  1
  Si  Si28  1  0.982176  0.898288  0.249131  1
  Si  Si29  1  0.366132  0.973953  0.040859  1
  Si  Si30  1  0.636947  0.026309  0.541269  1
  Si  Si31  1  0.135272  0.473325  0.958585  1
  Si  Si32  1  0.149759  0.473540  0.544513  1
  Si  Si33  1  0.867044  0.525460  0.039803  1
  Si  Si34  1  0.248122  0.876860  0.751432  1
  Ag  Ag35  1  0.853633  0.525271  0.460709  1
