# generated using pymatgen
data_Tb2Zr2Co19CuP12
_symmetry_space_group_name_H-M   'P 1'
_cell_length_a   3.64066800
_cell_length_b   10.21560416
_cell_length_c   11.72777187
_cell_angle_alpha   89.77838706
_cell_angle_beta   90.00000000
_cell_angle_gamma   90.00000000
_symmetry_Int_Tables_number   1
_chemical_formula_structural   Tb2Zr2Co19CuP12
_chemical_formula_sum   'Tb2 Zr2 Co19 Cu1 P12'
_cell_volume   436.17160917
_cell_formula_units_Z   1
loop_
 _symmetry_equiv_pos_site_id
 _symmetry_equiv_pos_as_xyz
  1  'x, y, z'
loop_
 _atom_site_type_symbol
 _atom_site_label
 _atom_site_symmetry_multiplicity
 _atom_site_fract_x
 _atom_site_fract_y
 _atom_site_fract_z
 _atom_site_occupancy
  Tb  Tb0  1  0.750000  0.418171  0.296718  1
  Tb  Tb1  1  0.750000  0.081264  0.796128  1
  Zr  Zr2  1  0.250000  0.580173  0.699728  1
  Zr  Zr3  1  0.250000  0.919830  0.203960  1
  Co  Co4  1  0.250000  0.780778  0.495103  1
  Co  Co5  1  0.750000  0.286409  0.009658  1
  Co  Co6  1  0.750000  0.217819  0.507539  1
  Co  Co7  1  0.250000  0.409557  0.490467  1
  Co  Co8  1  0.250000  0.091695  0.990431  1
  Co  Co9  1  0.750000  0.592993  0.516740  1
  Co  Co10  1  0.750000  0.906652  0.018664  1
  Co  Co11  1  0.250000  0.222703  0.177240  1
  Co  Co12  1  0.250000  0.277950  0.676771  1
  Co  Co13  1  0.750000  0.774922  0.820686  1
  Co  Co14  1  0.750000  0.722927  0.327114  1
  Co  Co15  1  0.250000  0.880737  0.697636  1
  Co  Co16  1  0.250000  0.622029  0.199151  1
  Co  Co17  1  0.750000  0.114819  0.298901  1
  Co  Co18  1  0.750000  0.382927  0.799168  1
  Co  Co19  1  0.250000  0.467935  0.928985  1
  Co  Co20  1  0.250000  0.029948  0.428320  1
  Co  Co21  1  0.750000  0.538561  0.064825  1
  Co  Co22  1  0.750000  0.965167  0.565799  1
  Cu  Cu23  1  0.250000  0.713092  0.990974  1
  P  P24  1  0.250000  0.421585  0.110853  1
  P  P25  1  0.250000  0.080304  0.609508  1
  P  P26  1  0.750000  0.577378  0.879593  1
  P  P27  1  0.750000  0.919345  0.384840  1
  P  P28  1  0.250000  0.268983  0.870416  1
  P  P29  1  0.250000  0.229797  0.371266  1
  P  P30  1  0.750000  0.734472  0.139219  1
  P  P31  1  0.750000  0.767870  0.631626  1
  P  P32  1  0.250000  0.602153  0.392507  1
  P  P33  1  0.250000  0.899421  0.889973  1
  P  P34  1  0.750000  0.398767  0.609813  1
  P  P35  1  0.750000  0.100866  0.109684  1
