# generated using pymatgen
data_V8Zn9Co3(TeO10)4
_symmetry_space_group_name_H-M   'P 1'
_cell_length_a   30.84344973
_cell_length_b   5.35425034
_cell_length_c   5.60862638
_cell_angle_alpha   81.43303093
_cell_angle_beta   90.09264308
_cell_angle_gamma   90.18621896
_symmetry_Int_Tables_number   1
_chemical_formula_structural   V8Zn9Co3(TeO10)4
_chemical_formula_sum   'V8 Zn9 Co3 Te4 O40'
_cell_volume   915.88857463
_cell_formula_units_Z   1
loop_
 _symmetry_equiv_pos_site_id
 _symmetry_equiv_pos_as_xyz
  1  'x, y, z'
loop_
 _atom_site_type_symbol
 _atom_site_label
 _atom_site_symmetry_multiplicity
 _atom_site_fract_x
 _atom_site_fract_y
 _atom_site_fract_z
 _atom_site_occupancy
  V  V0  1  0.444524  0.752932  0.218685  1
  V  V1  1  0.205011  0.929729  0.727237  1
  V  V2  1  0.055722  0.752694  0.720268  1
  V  V3  1  0.794961  0.070238  0.272438  1
  V  V4  1  0.294626  0.929933  0.226417  1
  V  V5  1  0.705376  0.070049  0.773555  1
  V  V6  1  0.555444  0.247289  0.781278  1
  V  V7  1  0.944376  0.247324  0.279678  1
  Zn  Zn8  1  0.726862  0.577564  0.280259  1
  Zn  Zn9  1  0.629591  0.220567  0.232768  1
  Zn  Zn10  1  0.942051  0.693598  0.643449  1
  Zn  Zn11  1  0.442087  0.305212  0.858240  1
  Zn  Zn12  1  0.557957  0.694798  0.141829  1
  Zn  Zn13  1  0.273186  0.422419  0.719777  1
  Zn  Zn14  1  0.226819  0.421803  0.219431  1
  Zn  Zn15  1  0.773204  0.578324  0.780499  1
  Zn  Zn16  1  0.370446  0.779394  0.767326  1
  Co  Co17  1  0.870635  0.224220  0.734104  1
  Co  Co18  1  0.058076  0.304654  0.358883  1
  Co  Co19  1  0.129225  0.775567  0.266076  1
  Te  Te20  1  0.130940  0.327603  0.931466  1
  Te  Te21  1  0.869121  0.672783  0.068451  1
  Te  Te22  1  0.369071  0.329264  0.430547  1
  Te  Te23  1  0.630963  0.670702  0.569462  1
  O  O24  1  0.901209  0.884350  0.828228  1
  O  O25  1  0.002064  0.681898  0.736994  1
  O  O26  1  0.599502  0.883206  0.326672  1
  O  O27  1  0.565085  0.929300  0.830231  1
  O  O28  1  0.760604  0.311696  0.146009  1
  O  O29  1  0.268936  0.201937  0.067113  1
  O  O30  1  0.498165  0.684000  0.237589  1
  O  O31  1  0.664208  0.513624  0.341401  1
  O  O32  1  0.831696  0.178896  0.456833  1
  O  O33  1  0.825320  0.971495  0.024323  1
  O  O34  1  0.998138  0.317630  0.261982  1
  O  O35  1  0.164396  0.486163  0.158409  1
  O  O36  1  0.920281  0.385828  0.515225  1
  O  O37  1  0.230831  0.201938  0.568288  1
  O  O38  1  0.668281  0.182320  0.952163  1
  O  O39  1  0.085253  0.610448  0.989902  1
  O  O40  1  0.415045  0.607594  0.485746  1
  O  O41  1  0.239378  0.688485  0.853835  1
  O  O42  1  0.331714  0.817700  0.047779  1
  O  O43  1  0.914318  0.388675  0.011316  1
  O  O44  1  0.324719  0.032275  0.472509  1
  O  O45  1  0.420453  0.613212  0.983490  1
  O  O46  1  0.731050  0.798063  0.932841  1
  O  O47  1  0.079809  0.613319  0.485653  1
  O  O48  1  0.174655  0.028971  0.975155  1
  O  O49  1  0.260329  0.688389  0.355125  1
  O  O50  1  0.769161  0.797978  0.431716  1
  O  O51  1  0.064859  0.071973  0.665301  1
  O  O52  1  0.675260  0.967765  0.527396  1
  O  O53  1  0.835604  0.514507  0.841414  1
  O  O54  1  0.584933  0.392388  0.514288  1
  O  O55  1  0.739657  0.311631  0.644982  1
  O  O56  1  0.579531  0.386766  0.016535  1
  O  O57  1  0.168230  0.821072  0.542947  1
  O  O58  1  0.434886  0.070973  0.169817  1
  O  O59  1  0.335818  0.486414  0.658623  1
  O  O60  1  0.935033  0.928780  0.331683  1
  O  O61  1  0.501799  0.316176  0.762277  1
  O  O62  1  0.099011  0.116697  0.172676  1
  O  O63  1  0.400503  0.116807  0.673414  1
