# generated using pymatgen
data_Tb6Al24Fe3Cu3Ru2
_symmetry_space_group_name_H-M   'P 1'
_cell_length_a   8.78960173
_cell_length_b   8.74744265
_cell_length_c   9.38215624
_cell_angle_alpha   90.06603775
_cell_angle_beta   90.02241684
_cell_angle_gamma   119.47110071
_symmetry_Int_Tables_number   1
_chemical_formula_structural   Tb6Al24Fe3Cu3Ru2
_chemical_formula_sum   'Tb6 Al24 Fe3 Cu3 Ru2'
_cell_volume   628.01938213
_cell_formula_units_Z   1
loop_
 _symmetry_equiv_pos_site_id
 _symmetry_equiv_pos_as_xyz
  1  'x, y, z'
loop_
 _atom_site_type_symbol
 _atom_site_label
 _atom_site_symmetry_multiplicity
 _atom_site_fract_x
 _atom_site_fract_y
 _atom_site_fract_z
 _atom_site_occupancy
  Tb  Tb0  1  0.383987  0.191695  0.251823  1
  Tb  Tb1  1  0.808142  0.194626  0.251048  1
  Tb  Tb2  1  0.809292  0.614468  0.247415  1
  Tb  Tb3  1  0.616013  0.808305  0.748177  1
  Tb  Tb4  1  0.191858  0.805374  0.748952  1
  Tb  Tb5  1  0.190708  0.385532  0.752585  1
  Al  Al6  1  0.437644  0.874697  0.248127  1
  Al  Al7  1  0.119821  0.559526  0.245554  1
  Al  Al8  1  0.438096  0.562318  0.249605  1
  Al  Al9  1  0.562356  0.125303  0.751873  1
  Al  Al10  1  0.880179  0.440474  0.754446  1
  Al  Al11  1  0.561904  0.437682  0.750395  1
  Al  Al12  1  0.154029  0.834028  0.420494  1
  Al  Al13  1  0.153968  0.318585  0.422210  1
  Al  Al14  1  0.684758  0.841450  0.421543  1
  Al  Al15  1  0.845971  0.165972  0.579506  1
  Al  Al16  1  0.846032  0.681415  0.577790  1
  Al  Al17  1  0.315242  0.158550  0.578457  1
  Al  Al18  1  0.839937  0.162831  0.925371  1
  Al  Al19  1  0.848020  0.679889  0.924920  1
  Al  Al20  1  0.318567  0.153274  0.926745  1
  Al  Al21  1  0.160063  0.837169  0.074629  1
  Al  Al22  1  0.151980  0.320111  0.075080  1
  Al  Al23  1  0.681433  0.846726  0.073255  1
  Al  Al24  1  0.330237  0.664844  0.519904  1
  Al  Al25  1  0.669763  0.335156  0.480096  1
  Al  Al26  1  0.674158  0.334316  0.020511  1
  Al  Al27  1  0.325842  0.665684  0.979489  1
  Al  Al28  1  0.002981  0.000225  0.249293  1
  Al  Al29  1  0.997019  0.999775  0.750707  1
  Fe  Fe30  1  0.000000  0.000000  0.500000  1
  Fe  Fe31  1  0.000000  0.000000  0.000000  1
  Fe  Fe32  1  0.000000  0.500000  0.000000  1
  Cu  Cu33  1  0.500000  0.000000  0.500000  1
  Cu  Cu34  1  0.500000  0.500000  0.500000  1
  Cu  Cu35  1  0.500000  0.500000  0.000000  1
  Ru  Ru36  1  0.000000  0.500000  0.500000  1
  Ru  Ru37  1  0.500000  0.000000  0.000000  1
