# generated using pymatgen
data_Lu2Mo3P7Rh9
_symmetry_space_group_name_H-M   'P 1'
_cell_length_a   3.91754170
_cell_length_b   9.50668068
_cell_length_c   9.50624748
_cell_angle_alpha   120.00130096
_cell_angle_beta   90.01198028
_cell_angle_gamma   89.98327035
_symmetry_Int_Tables_number   1
_chemical_formula_structural   Lu2Mo3P7Rh9
_chemical_formula_sum   'Lu2 Mo3 P7 Rh9'
_cell_volume   306.60311992
_cell_formula_units_Z   1
loop_
 _symmetry_equiv_pos_site_id
 _symmetry_equiv_pos_as_xyz
  1  'x, y, z'
loop_
 _atom_site_type_symbol
 _atom_site_label
 _atom_site_symmetry_multiplicity
 _atom_site_fract_x
 _atom_site_fract_y
 _atom_site_fract_z
 _atom_site_occupancy
  Lu  Lu0  1  0.261395  0.666645  0.333290  1
  Lu  Lu1  1  0.762102  0.333347  0.666685  1
  Mo  Mo2  1  0.761975  0.091687  0.870167  1
  Mo  Mo3  1  0.761908  0.129891  0.221668  1
  Mo  Mo4  1  0.761937  0.778387  0.908223  1
  P  P5  1  0.262128  0.000010  0.999972  1
  P  P6  1  0.761817  0.880070  0.592436  1
  P  P7  1  0.761811  0.407540  0.287614  1
  P  P8  1  0.761768  0.712363  0.119890  1
  P  P9  1  0.261990  0.119016  0.412803  1
  P  P10  1  0.261978  0.587246  0.706261  1
  P  P11  1  0.261941  0.293800  0.881015  1
  Rh  Rh12  1  0.261903  0.884165  0.160475  1
  Rh  Rh13  1  0.261903  0.839497  0.723590  1
  Rh  Rh14  1  0.261856  0.276369  0.115922  1
  Rh  Rh15  1  0.761969  0.612288  0.556167  1
  Rh  Rh16  1  0.761937  0.443742  0.056010  1
  Rh  Rh17  1  0.761895  0.943868  0.387676  1
  Rh  Rh18  1  0.261905  0.371032  0.441164  1
  Rh  Rh19  1  0.261941  0.558934  0.929963  1
  Rh  Rh20  1  0.261939  0.070100  0.629010  1
