# generated using pymatgen
data_Pt2Br5F7
_symmetry_space_group_name_H-M   'P 1'
_cell_length_a   5.72795600
_cell_length_b   10.52527181
_cell_length_c   9.84580139
_cell_angle_alpha   89.63238636
_cell_angle_beta   90.00000000
_cell_angle_gamma   90.00000000
_symmetry_Int_Tables_number   1
_chemical_formula_structural   Pt2Br5F7
_chemical_formula_sum   'Pt4 Br10 F14'
_cell_volume   593.57434885
_cell_formula_units_Z   2
loop_
 _symmetry_equiv_pos_site_id
 _symmetry_equiv_pos_as_xyz
  1  'x, y, z'
loop_
 _atom_site_type_symbol
 _atom_site_label
 _atom_site_symmetry_multiplicity
 _atom_site_fract_x
 _atom_site_fract_y
 _atom_site_fract_z
 _atom_site_occupancy
  Pt  Pt0  1  0.931219  0.736316  0.858629  1
  Pt  Pt1  1  0.431219  0.263684  0.641371  1
  Pt  Pt2  1  0.068929  0.270699  0.131853  1
  Pt  Pt3  1  0.568929  0.729301  0.368147  1
  Br  Br4  1  0.324238  0.686934  0.950248  1
  Br  Br5  1  0.824238  0.313066  0.549752  1
  Br  Br6  1  0.685194  0.325162  0.037070  1
  Br  Br7  1  0.185194  0.674838  0.462930  1
  Br  Br8  1  0.538101  0.769210  0.748919  1
  Br  Br9  1  0.038101  0.230790  0.751081  1
  Br  Br10  1  0.462833  0.217971  0.236870  1
  Br  Br11  1  0.962833  0.782029  0.263130  1
  Br  Br12  1  0.847020  0.898071  0.031682  1
  Br  Br13  1  0.347020  0.101929  0.468318  1
  F  F14  1  0.210461  0.414683  0.034155  1
  F  F15  1  0.710461  0.585317  0.465845  1
  F  F16  1  0.150911  0.162641  0.970810  1
  F  F17  1  0.650911  0.837359  0.529190  1
  F  F18  1  0.784728  0.605945  0.974831  1
  F  F19  1  0.284728  0.394055  0.525169  1
  F  F20  1  0.076924  0.865488  0.738877  1
  F  F21  1  0.576924  0.134512  0.761123  1
  F  F22  1  0.990168  0.375661  0.287240  1
  F  F23  1  0.490168  0.624339  0.212760  1
  F  F24  1  0.930488  0.123407  0.228505  1
  F  F25  1  0.430488  0.876593  0.271495  1
  F  F26  1  0.998785  0.606626  0.720239  1
  F  F27  1  0.498785  0.393374  0.779761  1
