# generated using pymatgen
data_DyY15(ZnCo)4
_symmetry_space_group_name_H-M   'P 1'
_cell_length_a   9.41149153
_cell_length_b   9.41149153
_cell_length_c   9.41149185
_cell_angle_alpha   60.21827611
_cell_angle_beta   60.21827395
_cell_angle_gamma   60.21827257
_symmetry_Int_Tables_number   1
_chemical_formula_structural   DyY15(ZnCo)4
_chemical_formula_sum   'Dy1 Y15 Zn4 Co4'
_cell_volume   592.38133625
_cell_formula_units_Z   1
loop_
 _symmetry_equiv_pos_site_id
 _symmetry_equiv_pos_as_xyz
  1  'x, y, z'
loop_
 _atom_site_type_symbol
 _atom_site_label
 _atom_site_symmetry_multiplicity
 _atom_site_fract_x
 _atom_site_fract_y
 _atom_site_fract_z
 _atom_site_occupancy
  Dy  Dy0  1  0.599679  0.599679  0.599679  1
  Y  Y1  1  0.600091  0.600091  0.199181  1
  Y  Y2  1  0.600091  0.199181  0.600091  1
  Y  Y3  1  0.199181  0.600091  0.600091  1
  Y  Y4  1  0.059004  0.441033  0.441033  1
  Y  Y5  1  0.440866  0.059235  0.059235  1
  Y  Y6  1  0.441033  0.059004  0.441033  1
  Y  Y7  1  0.059235  0.440866  0.059235  1
  Y  Y8  1  0.441033  0.441033  0.059004  1
  Y  Y9  1  0.059235  0.059235  0.440866  1
  Y  Y10  1  0.188688  0.811662  0.811662  1
  Y  Y11  1  0.812081  0.187852  0.187852  1
  Y  Y12  1  0.811662  0.188688  0.811662  1
  Y  Y13  1  0.187852  0.812081  0.187852  1
  Y  Y14  1  0.811662  0.811662  0.188688  1
  Y  Y15  1  0.187852  0.187852  0.812081  1
  Zn  Zn16  1  0.826935  0.826935  0.826935  1
  Zn  Zn17  1  0.826820  0.826820  0.519334  1
  Zn  Zn18  1  0.826820  0.519334  0.826820  1
  Zn  Zn19  1  0.519334  0.826820  0.826820  1
  Co  Co20  1  0.391689  0.391689  0.391689  1
  Co  Co21  1  0.392597  0.392597  0.823966  1
  Co  Co22  1  0.392597  0.823966  0.392597  1
  Co  Co23  1  0.823966  0.392597  0.392597  1
