# generated using pymatgen
data_Zr(AlB14)2
_symmetry_space_group_name_H-M   'P 1'
_cell_length_a   7.18772566
_cell_length_b   7.18772543
_cell_length_c   5.84094508
_cell_angle_alpha   66.30759003
_cell_angle_beta   66.30758432
_cell_angle_gamma   92.66131368
_symmetry_Int_Tables_number   1
_chemical_formula_structural   Zr(AlB14)2
_chemical_formula_sum   'Zr1 Al2 B28'
_cell_volume   245.13875650
_cell_formula_units_Z   1
loop_
 _symmetry_equiv_pos_site_id
 _symmetry_equiv_pos_as_xyz
  1  'x, y, z'
loop_
 _atom_site_type_symbol
 _atom_site_label
 _atom_site_symmetry_multiplicity
 _atom_site_fract_x
 _atom_site_fract_y
 _atom_site_fract_z
 _atom_site_occupancy
  Zr  Zr0  1  0.897677  0.897677  0.436116  1
  Al  Al1  1  0.500443  0.500443  0.495708  1
  Al  Al2  1  0.147515  0.147515  0.525144  1
  B  B3  1  0.414492  0.735012  0.167023  1
  B  B4  1  0.585595  0.262955  0.832258  1
  B  B5  1  0.262955  0.585595  0.832258  1
  B  B6  1  0.735012  0.414492  0.167023  1
  B  B7  1  0.693834  0.862397  0.962844  1
  B  B8  1  0.302234  0.133175  0.038946  1
  B  B9  1  0.133175  0.302234  0.038946  1
  B  B10  1  0.862397  0.693834  0.962844  1
  B  B11  1  0.538906  0.871349  0.292679  1
  B  B12  1  0.470877  0.122196  0.203938  1
  B  B13  1  0.122196  0.470877  0.203938  1
  B  B14  1  0.871349  0.538906  0.292679  1
  B  B15  1  0.457104  0.123800  0.712918  1
  B  B16  1  0.528875  0.874303  0.796409  1
  B  B17  1  0.874303  0.528875  0.796409  1
  B  B18  1  0.123800  0.457104  0.712918  1
  B  B19  1  0.724791  0.099360  0.996421  1
  B  B20  1  0.281081  0.889856  0.320738  1
  B  B21  1  0.889856  0.281081  0.320738  1
  B  B22  1  0.099360  0.724791  0.996421  1
  B  B23  1  0.269124  0.896239  0.011374  1
  B  B24  1  0.715746  0.106004  0.682276  1
  B  B25  1  0.106004  0.715746  0.682276  1
  B  B26  1  0.896239  0.269124  0.011374  1
  B  B27  1  0.271147  0.468861  0.377303  1
  B  B28  1  0.722307  0.532743  0.626388  1
  B  B29  1  0.532743  0.722307  0.626388  1
  B  B30  1  0.468861  0.271147  0.377303  1
