# generated using pymatgen
data_TbPr(Eu2Ir)4
_symmetry_space_group_name_H-M   'P 1'
_cell_length_a   6.67857265
_cell_length_b   7.55177711
_cell_length_c   8.80790665
_cell_angle_alpha   96.99993156
_cell_angle_beta   112.27941437
_cell_angle_gamma   90.00000182
_symmetry_Int_Tables_number   1
_chemical_formula_structural   TbPr(Eu2Ir)4
_chemical_formula_sum   'Tb1 Pr1 Eu8 Ir4'
_cell_volume   407.48368218
_cell_formula_units_Z   1
loop_
 _symmetry_equiv_pos_site_id
 _symmetry_equiv_pos_as_xyz
  1  'x, y, z'
loop_
 _atom_site_type_symbol
 _atom_site_label
 _atom_site_symmetry_multiplicity
 _atom_site_fract_x
 _atom_site_fract_y
 _atom_site_fract_z
 _atom_site_occupancy
  Tb  Tb0  1  0.565450  0.250000  0.000000  1
  Pr  Pr1  1  0.429917  0.750000  0.000000  1
  Eu  Eu2  1  0.978156  0.921581  0.178513  1
  Eu  Eu3  1  0.799642  0.578419  0.821487  1
  Eu  Eu4  1  0.020636  0.081318  0.821370  1
  Eu  Eu5  1  0.199266  0.418682  0.178630  1
  Eu  Eu6  1  0.640066  0.817074  0.436852  1
  Eu  Eu7  1  0.203214  0.682926  0.563148  1
  Eu  Eu8  1  0.361799  0.183764  0.565549  1
  Eu  Eu9  1  0.796250  0.316236  0.434451  1
  Ir  Ir10  1  0.810430  0.571139  0.209259  1
  Ir  Ir11  1  0.601170  0.928861  0.790741  1
  Ir  Ir12  1  0.191220  0.421168  0.788437  1
  Ir  Ir13  1  0.402783  0.078832  0.211563  1
