# generated using pymatgen
data_TbY3Ga18(RuPt2)2
_symmetry_space_group_name_H-M   'P 1'
_cell_length_a   7.62780278
_cell_length_b   7.63360863
_cell_length_c   9.49969300
_cell_angle_alpha   90.00000000
_cell_angle_beta   90.00000000
_cell_angle_gamma   119.84957123
_symmetry_Int_Tables_number   1
_chemical_formula_structural   TbY3Ga18(RuPt2)2
_chemical_formula_sum   'Tb1 Y3 Ga18 Ru2 Pt4'
_cell_volume   479.76202270
_cell_formula_units_Z   1
loop_
 _symmetry_equiv_pos_site_id
 _symmetry_equiv_pos_as_xyz
  1  'x, y, z'
loop_
 _atom_site_type_symbol
 _atom_site_label
 _atom_site_symmetry_multiplicity
 _atom_site_fract_x
 _atom_site_fract_y
 _atom_site_fract_z
 _atom_site_occupancy
  Tb  Tb0  1  0.997955  0.667552  0.250000  1
  Y  Y1  1  0.002151  0.332636  0.750000  1
  Y  Y2  1  0.667330  0.997759  0.250000  1
  Y  Y3  1  0.332624  0.002178  0.750000  1
  Ga  Ga4  1  0.119594  0.119449  0.250000  1
  Ga  Ga5  1  0.880244  0.880248  0.750000  1
  Ga  Ga6  1  0.999650  0.329096  0.081618  1
  Ga  Ga7  1  0.000207  0.670615  0.918772  1
  Ga  Ga8  1  0.000207  0.670615  0.581228  1
  Ga  Ga9  1  0.329222  0.999719  0.418377  1
  Ga  Ga10  1  0.999650  0.329096  0.418382  1
  Ga  Ga11  1  0.670700  0.000202  0.581257  1
  Ga  Ga12  1  0.670700  0.000202  0.918743  1
  Ga  Ga13  1  0.329222  0.999719  0.081623  1
  Ga  Ga14  1  0.324957  0.324950  0.566340  1
  Ga  Ga15  1  0.675107  0.675128  0.433430  1
  Ga  Ga16  1  0.675107  0.675128  0.066570  1
  Ga  Ga17  1  0.324957  0.324950  0.933660  1
  Ga  Ga18  1  0.342872  0.543605  0.250000  1
  Ga  Ga19  1  0.657286  0.456325  0.750000  1
  Ga  Ga20  1  0.543794  0.343136  0.250000  1
  Ga  Ga21  1  0.456362  0.657275  0.750000  1
  Ru  Ru22  1  0.000101  0.000124  0.000016  1
  Ru  Ru23  1  0.000101  0.000124  0.499984  1
  Pt  Pt24  1  0.671745  0.328573  0.999508  1
  Pt  Pt25  1  0.328205  0.671511  0.999523  1
  Pt  Pt26  1  0.328205  0.671511  0.500477  1
  Pt  Pt27  1  0.671745  0.328573  0.500492  1
