# generated using pymatgen
data_Ta9Nb3Al8Pd3RhC4
_symmetry_space_group_name_H-M   'P 1'
_cell_length_a   8.32666502
_cell_length_b   8.33102089
_cell_length_c   8.32619000
_cell_angle_alpha   59.98458821
_cell_angle_beta   59.96248628
_cell_angle_gamma   59.97892399
_symmetry_Int_Tables_number   1
_chemical_formula_structural   Ta9Nb3Al8Pd3RhC4
_chemical_formula_sum   'Ta9 Nb3 Al8 Pd3 Rh1 C4'
_cell_volume   408.18553416
_cell_formula_units_Z   1
loop_
 _symmetry_equiv_pos_site_id
 _symmetry_equiv_pos_as_xyz
  1  'x, y, z'
loop_
 _atom_site_type_symbol
 _atom_site_label
 _atom_site_symmetry_multiplicity
 _atom_site_fract_x
 _atom_site_fract_y
 _atom_site_fract_z
 _atom_site_occupancy
  Ta  Ta0  1  0.317158  0.682490  0.317876  1
  Ta  Ta1  1  0.682319  0.682031  0.318265  1
  Ta  Ta2  1  0.316513  0.316416  0.682049  1
  Ta  Ta3  1  0.567859  0.568067  0.931845  1
  Ta  Ta4  1  0.934302  0.564271  0.567544  1
  Ta  Ta5  1  0.567173  0.932900  0.932695  1
  Ta  Ta6  1  0.933604  0.933163  0.568271  1
  Ta  Ta7  1  0.685788  0.315992  0.682323  1
  Ta  Ta8  1  0.932136  0.568262  0.931492  1
  Nb  Nb9  1  0.564811  0.933694  0.567687  1
  Nb  Nb10  1  0.316473  0.684809  0.682430  1
  Nb  Nb11  1  0.682800  0.316961  0.317759  1
  Al  Al12  1  0.918588  0.916473  0.913871  1
  Al  Al13  1  0.998755  0.332374  0.334851  1
  Al  Al14  1  0.332329  0.998681  0.337464  1
  Al  Al15  1  0.333394  0.335674  0.996946  1
  Al  Al16  1  0.917057  0.251121  0.915432  1
  Al  Al17  1  0.914502  0.916948  0.253046  1
  Al  Al18  1  0.251272  0.917262  0.912790  1
  Al  Al19  1  0.333990  0.331605  0.335681  1
  Pd  Pd20  1  0.127563  0.123649  0.123954  1
  Pd  Pd21  1  0.625145  0.124791  0.121674  1
  Pd  Pd22  1  0.124001  0.624894  0.127377  1
  Rh  Rh23  1  0.121019  0.128887  0.625254  1
  C  C24  1  0.627122  0.622996  0.625200  1
  C  C25  1  0.124326  0.624544  0.624808  1
  C  C26  1  0.625216  0.124740  0.627054  1
  C  C27  1  0.624787  0.626302  0.124363  1
