# generated using pymatgen
data_Tb2Hf2CN3
_symmetry_space_group_name_H-M   'P 1'
_cell_length_a   11.24292168
_cell_length_b   11.24292171
_cell_length_c   11.24292176
_cell_angle_alpha   17.14503314
_cell_angle_beta   17.14503244
_cell_angle_gamma   17.14502976
_symmetry_Int_Tables_number   1
_chemical_formula_structural   Tb2Hf2CN3
_chemical_formula_sum   'Tb2 Hf2 C1 N3'
_cell_volume   107.75218741
_cell_formula_units_Z   1
loop_
 _symmetry_equiv_pos_site_id
 _symmetry_equiv_pos_as_xyz
  1  'x, y, z'
loop_
 _atom_site_type_symbol
 _atom_site_label
 _atom_site_symmetry_multiplicity
 _atom_site_fract_x
 _atom_site_fract_y
 _atom_site_fract_z
 _atom_site_occupancy
  Tb  Tb0  1  0.876642  0.876642  0.876642  1
  Tb  Tb1  1  0.123358  0.123358  0.123358  1
  Hf  Hf2  1  0.372651  0.372651  0.372651  1
  Hf  Hf3  1  0.627349  0.627349  0.627349  1
  C  C4  1  0.000000  0.000000  0.000000  1
  N  N5  1  0.255712  0.255712  0.255712  1
  N  N6  1  0.500000  0.500000  0.500000  1
  N  N7  1  0.744288  0.744288  0.744288  1
