# generated using pymatgen
data_Lu10HgBiRh4
_symmetry_space_group_name_H-M   'P 1'
_cell_length_a   8.64700263
_cell_length_b   8.64700141
_cell_length_c   8.64700276
_cell_angle_alpha   128.13494410
_cell_angle_beta   128.13495415
_cell_angle_gamma   76.40651804
_symmetry_Int_Tables_number   1
_chemical_formula_structural   Lu10HgBiRh4
_chemical_formula_sum   'Lu10 Hg1 Bi1 Rh4'
_cell_volume   388.65501058
_cell_formula_units_Z   1
loop_
 _symmetry_equiv_pos_site_id
 _symmetry_equiv_pos_as_xyz
  1  'x, y, z'
loop_
 _atom_site_type_symbol
 _atom_site_label
 _atom_site_symmetry_multiplicity
 _atom_site_fract_x
 _atom_site_fract_y
 _atom_site_fract_z
 _atom_site_occupancy
  Lu  Lu0  1  0.997347  0.997347  0.000000  1
  Lu  Lu1  1  0.502653  0.502653  0.000000  1
  Lu  Lu2  1  0.796394  0.286752  0.815696  1
  Lu  Lu3  1  0.213248  0.703606  0.184304  1
  Lu  Lu4  1  0.471057  0.980698  0.184304  1
  Lu  Lu5  1  0.286752  0.471057  0.490359  1
  Lu  Lu6  1  0.028943  0.213248  0.509641  1
  Lu  Lu7  1  0.519302  0.028943  0.815696  1
  Lu  Lu8  1  0.703606  0.519302  0.490359  1
  Lu  Lu9  1  0.980698  0.796394  0.509641  1
  Hg  Hg10  1  0.250000  0.250000  0.000000  1
  Bi  Bi11  1  0.750000  0.750000  0.000000  1
  Rh  Rh12  1  0.141849  0.641849  0.783699  1
  Rh  Rh13  1  0.858151  0.358151  0.216301  1
  Rh  Rh14  1  0.641849  0.858151  0.500000  1
  Rh  Rh15  1  0.358151  0.141849  0.500000  1
