# generated using pymatgen
data_Dy11Th5(HgRu)4
_symmetry_space_group_name_H-M   'P 1'
_cell_length_a   9.64418901
_cell_length_b   9.71799205
_cell_length_c   9.71799094
_cell_angle_alpha   59.87185322
_cell_angle_beta   60.25090044
_cell_angle_gamma   60.25090485
_symmetry_Int_Tables_number   1
_chemical_formula_structural   Dy11Th5(HgRu)4
_chemical_formula_sum   'Dy11 Th5 Hg4 Ru4'
_cell_volume   645.82503330
_cell_formula_units_Z   1
loop_
 _symmetry_equiv_pos_site_id
 _symmetry_equiv_pos_as_xyz
  1  'x, y, z'
loop_
 _atom_site_type_symbol
 _atom_site_label
 _atom_site_symmetry_multiplicity
 _atom_site_fract_x
 _atom_site_fract_y
 _atom_site_fract_z
 _atom_site_occupancy
  Dy  Dy0  1  0.187894  0.812106  0.812106  1
  Dy  Dy1  1  0.193610  0.808070  0.186439  1
  Dy  Dy2  1  0.811883  0.186439  0.808070  1
  Dy  Dy3  1  0.193610  0.186439  0.808070  1
  Dy  Dy4  1  0.811883  0.808070  0.186439  1
  Dy  Dy5  1  0.933640  0.566360  0.566360  1
  Dy  Dy6  1  0.564333  0.935667  0.935667  1
  Dy  Dy7  1  0.562170  0.936818  0.563349  1
  Dy  Dy8  1  0.937663  0.563349  0.936818  1
  Dy  Dy9  1  0.562170  0.563349  0.936818  1
  Dy  Dy10  1  0.937663  0.936818  0.563349  1
  Th  Th11  1  0.343925  0.351093  0.351093  1
  Th  Th12  1  0.348580  0.349335  0.953504  1
  Th  Th13  1  0.348580  0.953504  0.349335  1
  Th  Th14  1  0.953889  0.351093  0.351093  1
  Th  Th15  1  0.815155  0.184845  0.184845  1
  Hg  Hg16  1  0.585992  0.585576  0.585576  1
  Hg  Hg17  1  0.584952  0.588582  0.241511  1
  Hg  Hg18  1  0.584952  0.241511  0.588582  1
  Hg  Hg19  1  0.242855  0.585576  0.585576  1
  Ru  Ru20  1  0.128833  0.147330  0.147330  1
  Ru  Ru21  1  0.144632  0.142431  0.568307  1
  Ru  Ru22  1  0.144632  0.568307  0.142431  1
  Ru  Ru23  1  0.576508  0.147330  0.147330  1
