# generated using pymatgen
data_Tb2Mn3Co9As7
_symmetry_space_group_name_H-M   'P 1'
_cell_length_a   3.73494900
_cell_length_b   9.44940134
_cell_length_c   9.44940100
_cell_angle_alpha   119.99999530
_cell_angle_beta   90.00000000
_cell_angle_gamma   90.00000000
_symmetry_Int_Tables_number   1
_chemical_formula_structural   Tb2Mn3Co9As7
_chemical_formula_sum   'Tb2 Mn3 Co9 As7'
_cell_volume   288.81776482
_cell_formula_units_Z   1
loop_
 _symmetry_equiv_pos_site_id
 _symmetry_equiv_pos_as_xyz
  1  'x, y, z'
loop_
 _atom_site_type_symbol
 _atom_site_label
 _atom_site_symmetry_multiplicity
 _atom_site_fract_x
 _atom_site_fract_y
 _atom_site_fract_z
 _atom_site_occupancy
  Tb  Tb0  1  0.000000  0.666667  0.333333  1
  Tb  Tb1  1  0.500000  0.333333  0.666667  1
  Mn  Mn2  1  0.500000  0.777806  0.895367  1
  Mn  Mn3  1  0.500000  0.117561  0.222194  1
  Mn  Mn4  1  0.500000  0.104633  0.882439  1
  Co  Co5  1  0.000000  0.570891  0.940844  1
  Co  Co6  1  0.000000  0.369953  0.429109  1
  Co  Co7  1  0.000000  0.059156  0.630047  1
  Co  Co8  1  0.000000  0.881482  0.158502  1
  Co  Co9  1  0.000000  0.277020  0.118518  1
  Co  Co10  1  0.000000  0.841498  0.722980  1
  Co  Co11  1  0.500000  0.949463  0.384635  1
  Co  Co12  1  0.500000  0.435171  0.050537  1
  Co  Co13  1  0.500000  0.615365  0.564829  1
  As  As14  1  0.000000  0.000000  0.000000  1
  As  As15  1  0.500000  0.709597  0.118598  1
  As  As16  1  0.500000  0.409002  0.290403  1
  As  As17  1  0.500000  0.881402  0.590998  1
  As  As18  1  0.000000  0.585321  0.699592  1
  As  As19  1  0.000000  0.114272  0.414679  1
  As  As20  1  0.000000  0.300408  0.885728  1
