# generated using pymatgen
data_La9TbGa6
_symmetry_space_group_name_H-M   'P 1'
_cell_length_a   7.94448200
_cell_length_b   7.94448200
_cell_length_c   15.00259300
_cell_angle_alpha   90.00000000
_cell_angle_beta   90.00000000
_cell_angle_gamma   90.00000000
_symmetry_Int_Tables_number   1
_chemical_formula_structural   La9TbGa6
_chemical_formula_sum   'La18 Tb2 Ga12'
_cell_volume   946.88557039
_cell_formula_units_Z   2
loop_
 _symmetry_equiv_pos_site_id
 _symmetry_equiv_pos_as_xyz
  1  'x, y, z'
loop_
 _atom_site_type_symbol
 _atom_site_label
 _atom_site_symmetry_multiplicity
 _atom_site_fract_x
 _atom_site_fract_y
 _atom_site_fract_z
 _atom_site_occupancy
  La  La0  1  0.337881  0.311470  0.103624  1
  La  La1  1  0.837881  0.811470  0.896376  1
  La  La2  1  0.839942  0.182521  0.396223  1
  La  La3  1  0.162119  0.188530  0.896376  1
  La  La4  1  0.662119  0.688530  0.103624  1
  La  La5  1  0.000000  0.500000  0.707388  1
  La  La6  1  0.817479  0.839942  0.603777  1
  La  La7  1  0.317479  0.339942  0.396223  1
  La  La8  1  0.188530  0.837881  0.103624  1
  La  La9  1  0.182521  0.160058  0.603777  1
  La  La10  1  0.811470  0.162119  0.103624  1
  La  La11  1  0.339942  0.682521  0.603777  1
  La  La12  1  0.500000  0.000000  0.292612  1
  La  La13  1  0.688530  0.337881  0.896376  1
  La  La14  1  0.660058  0.317479  0.603777  1
  La  La15  1  0.311470  0.662119  0.896376  1
  La  La16  1  0.160058  0.817479  0.396223  1
  La  La17  1  0.682521  0.660058  0.396223  1
  Tb  Tb18  1  0.500000  0.000000  0.774382  1
  Tb  Tb19  1  0.000000  0.500000  0.225618  1
  Ga  Ga20  1  0.623419  0.383727  0.248229  1
  Ga  Ga21  1  0.876581  0.116273  0.751771  1
  Ga  Ga22  1  0.500000  0.000000  0.499543  1
  Ga  Ga23  1  0.883727  0.876581  0.248229  1
  Ga  Ga24  1  0.000000  0.500000  0.019196  1
  Ga  Ga25  1  0.123419  0.883727  0.751771  1
  Ga  Ga26  1  0.383727  0.376581  0.751771  1
  Ga  Ga27  1  0.116273  0.123419  0.248229  1
  Ga  Ga28  1  0.376581  0.616273  0.248229  1
  Ga  Ga29  1  0.616273  0.623419  0.751771  1
  Ga  Ga30  1  0.500000  0.000000  0.980804  1
  Ga  Ga31  1  0.000000  0.500000  0.500457  1
