# generated using pymatgen
data_Zr6AlIn5OsPt5
_symmetry_space_group_name_H-M   'P 1'
_cell_length_a   7.58851000
_cell_length_b   7.57449883
_cell_length_c   7.08028251
_cell_angle_alpha   89.87216615
_cell_angle_beta   90.08878315
_cell_angle_gamma   120.38074005
_symmetry_Int_Tables_number   1
_chemical_formula_structural   Zr6AlIn5OsPt5
_chemical_formula_sum   'Zr6 Al1 In5 Os1 Pt5'
_cell_volume   351.08435106
_cell_formula_units_Z   1
loop_
 _symmetry_equiv_pos_site_id
 _symmetry_equiv_pos_as_xyz
  1  'x, y, z'
loop_
 _atom_site_type_symbol
 _atom_site_label
 _atom_site_symmetry_multiplicity
 _atom_site_fract_x
 _atom_site_fract_y
 _atom_site_fract_z
 _atom_site_occupancy
  Zr  Zr0  1  0.015308  0.613265  0.745697  1
  Zr  Zr1  1  0.991647  0.600731  0.254757  1
  Zr  Zr2  1  0.603754  0.993713  0.255080  1
  Zr  Zr3  1  0.594546  0.976784  0.743105  1
  Zr  Zr4  1  0.399902  0.402280  0.259725  1
  Zr  Zr5  1  0.389440  0.409660  0.740573  1
  Al  Al6  1  0.729000  0.729021  0.500974  1
  In  In7  1  0.995291  0.274311  0.499274  1
  In  In8  1  0.730610  0.725623  0.998728  1
  In  In9  1  0.997658  0.262682  0.000231  1
  In  In10  1  0.280251  0.004650  0.498937  1
  In  In11  1  0.270467  0.008631  0.000590  1
  Os  Os12  1  0.350392  0.670520  0.489514  1
  Pt  Pt13  1  0.672511  0.352805  0.517997  1
  Pt  Pt14  1  0.671590  0.334707  0.975697  1
  Pt  Pt15  1  0.987026  0.985461  0.264781  1
  Pt  Pt16  1  0.988868  0.987498  0.734837  1
  Pt  Pt17  1  0.331740  0.667658  0.019506  1
