# generated using pymatgen
data_CeTh7(ZnRh)8
_symmetry_space_group_name_H-M   'P 1'
_cell_length_a   3.93909100
_cell_length_b   7.50827662
_cell_length_c   16.55872253
_cell_angle_alpha   89.81325568
_cell_angle_beta   90.00000000
_cell_angle_gamma   90.00000000
_symmetry_Int_Tables_number   1
_chemical_formula_structural   CeTh7(ZnRh)8
_chemical_formula_sum   'Ce1 Th7 Zn8 Rh8'
_cell_volume   489.73461403
_cell_formula_units_Z   1
loop_
 _symmetry_equiv_pos_site_id
 _symmetry_equiv_pos_as_xyz
  1  'x, y, z'
loop_
 _atom_site_type_symbol
 _atom_site_label
 _atom_site_symmetry_multiplicity
 _atom_site_fract_x
 _atom_site_fract_y
 _atom_site_fract_z
 _atom_site_occupancy
  Ce  Ce0  1  0.750000  0.939229  0.285145  1
  Th  Th1  1  0.750000  0.327232  0.439607  1
  Th  Th2  1  0.250000  0.062554  0.715122  1
  Th  Th3  1  0.250000  0.561793  0.784930  1
  Th  Th4  1  0.250000  0.675424  0.559749  1
  Th  Th5  1  0.750000  0.823787  0.060654  1
  Th  Th6  1  0.250000  0.172310  0.940001  1
  Th  Th7  1  0.750000  0.439326  0.215228  1
  Zn  Zn8  1  0.250000  0.109178  0.154987  1
  Zn  Zn9  1  0.250000  0.996665  0.438882  1
  Zn  Zn10  1  0.750000  0.887670  0.846938  1
  Zn  Zn11  1  0.750000  0.005724  0.559315  1
  Zn  Zn12  1  0.250000  0.492370  0.058685  1
  Zn  Zn13  1  0.750000  0.389215  0.653262  1
  Zn  Zn14  1  0.750000  0.502992  0.940691  1
  Zn  Zn15  1  0.250000  0.616770  0.346763  1
  Rh  Rh16  1  0.750000  0.259561  0.815002  1
  Rh  Rh17  1  0.250000  0.245641  0.314965  1
  Rh  Rh18  1  0.250000  0.754670  0.937379  1
  Rh  Rh19  1  0.250000  0.257156  0.562642  1
  Rh  Rh20  1  0.250000  0.735630  0.184003  1
  Rh  Rh21  1  0.750000  0.745191  0.438182  1
  Rh  Rh22  1  0.750000  0.239176  0.062531  1
  Rh  Rh23  1  0.750000  0.760734  0.685336  1
