# generated using pymatgen
data_Cs8Ce3MnBr24
_symmetry_space_group_name_H-M   'P 1'
_cell_length_a   13.96158846
_cell_length_b   13.96158779
_cell_length_c   13.96158877
_cell_angle_alpha   132.11320079
_cell_angle_beta   132.11320888
_cell_angle_gamma   70.05029044
_symmetry_Int_Tables_number   1
_chemical_formula_structural   Cs8Ce3MnBr24
_chemical_formula_sum   'Cs8 Ce3 Mn1 Br24'
_cell_volume   1468.22372062
_cell_formula_units_Z   1
loop_
 _symmetry_equiv_pos_site_id
 _symmetry_equiv_pos_as_xyz
  1  'x, y, z'
loop_
 _atom_site_type_symbol
 _atom_site_label
 _atom_site_symmetry_multiplicity
 _atom_site_fract_x
 _atom_site_fract_y
 _atom_site_fract_z
 _atom_site_occupancy
  Cs  Cs0  1  0.367917  0.369520  0.490752  1
  Cs  Cs1  1  0.122834  0.632083  0.001602  1
  Cs  Cs2  1  0.878769  0.877166  0.509248  1
  Cs  Cs3  1  0.123842  0.124897  0.492605  1
  Cs  Cs4  1  0.368764  0.876158  0.001054  1
  Cs  Cs5  1  0.632291  0.631236  0.507395  1
  Cs  Cs6  1  0.630480  0.121231  0.998398  1
  Cs  Cs7  1  0.875103  0.367709  0.998946  1
  Ce  Ce8  1  0.250000  0.750000  0.500000  1
  Ce  Ce9  1  0.500000  0.500000  0.000000  1
  Ce  Ce10  1  0.750000  0.250000  0.500000  1
  Mn  Mn11  1  0.000000  0.000000  0.000000  1
  Br  Br12  1  0.006435  0.780357  0.284734  1
  Br  Br13  1  0.017091  0.217427  0.234551  1
  Br  Br14  1  0.278299  0.993565  0.773922  1
  Br  Br15  1  0.994549  0.224161  0.719929  1
  Br  Br16  1  0.127289  0.627289  0.500000  1
  Br  Br17  1  0.253509  0.524167  0.778889  1
  Br  Br18  1  0.495623  0.721701  0.715266  1
  Br  Br19  1  0.504232  0.274620  0.280071  1
  Br  Br20  1  0.475833  0.254722  0.729341  1
  Br  Br21  1  0.621863  0.621863  0.000000  1
  Br  Br22  1  0.525381  0.746491  0.270659  1
  Br  Br23  1  0.108237  0.108237  0.000000  1
  Br  Br24  1  0.891763  0.891763  0.000000  1
  Br  Br25  1  0.982876  0.782540  0.765449  1
  Br  Br26  1  0.782573  0.017124  0.799664  1
  Br  Br27  1  0.217460  0.982909  0.200336  1
  Br  Br28  1  0.745278  0.474619  0.221111  1
  Br  Br29  1  0.219643  0.504377  0.226078  1
  Br  Br30  1  0.372711  0.872711  0.500000  1
  Br  Br31  1  0.872655  0.372655  0.500000  1
  Br  Br32  1  0.378137  0.378137  0.000000  1
  Br  Br33  1  0.627345  0.127345  0.500000  1
  Br  Br34  1  0.775839  0.495768  0.770389  1
  Br  Br35  1  0.725380  0.005451  0.229611  1
