# generated using pymatgen
data_Pr17Sm3(Sn5Bi3)2
_symmetry_space_group_name_H-M   'P 1'
_cell_length_a   8.45151584
_cell_length_b   8.50560712
_cell_length_c   16.25339702
_cell_angle_alpha   90.10144648
_cell_angle_beta   90.14659928
_cell_angle_gamma   89.90515140
_symmetry_Int_Tables_number   1
_chemical_formula_structural   Pr17Sm3(Sn5Bi3)2
_chemical_formula_sum   'Pr17 Sm3 Sn10 Bi6'
_cell_volume   1168.37263941
_cell_formula_units_Z   1
loop_
 _symmetry_equiv_pos_site_id
 _symmetry_equiv_pos_as_xyz
  1  'x, y, z'
loop_
 _atom_site_type_symbol
 _atom_site_label
 _atom_site_symmetry_multiplicity
 _atom_site_fract_x
 _atom_site_fract_y
 _atom_site_fract_z
 _atom_site_occupancy
  Pr  Pr0  1  0.387564  0.837261  0.880352  1
  Pr  Pr1  1  0.887114  0.663023  0.620351  1
  Pr  Pr2  1  0.609574  0.162009  0.380277  1
  Pr  Pr3  1  0.108667  0.337538  0.120238  1
  Pr  Pr4  1  0.614051  0.166943  0.119327  1
  Pr  Pr5  1  0.114495  0.332552  0.379608  1
  Pr  Pr6  1  0.384373  0.840058  0.618717  1
  Pr  Pr7  1  0.884987  0.660173  0.881046  1
  Pr  Pr8  1  0.550471  0.328716  0.892525  1
  Pr  Pr9  1  0.049727  0.172237  0.606966  1
  Pr  Pr10  1  0.453515  0.678101  0.391317  1
  Pr  Pr11  1  0.952921  0.821324  0.108138  1
  Pr  Pr12  1  0.457746  0.671457  0.108090  1
  Pr  Pr13  1  0.958528  0.827603  0.392826  1
  Pr  Pr14  1  0.543318  0.322746  0.607406  1
  Pr  Pr15  1  0.044160  0.177562  0.892814  1
  Pr  Pr16  1  0.214819  0.497286  0.749829  1
  Sm  Sm17  1  0.715353  0.002714  0.750136  1
  Sm  Sm18  1  0.784674  0.501569  0.247417  1
  Sm  Sm19  1  0.284626  0.997919  0.252644  1
  Sn  Sn20  1  0.271716  0.021717  0.453414  1
  Sn  Sn21  1  0.771582  0.478374  0.046153  1
  Sn  Sn22  1  0.585086  0.625316  0.749083  1
  Sn  Sn23  1  0.083045  0.877687  0.751129  1
  Sn  Sn24  1  0.415224  0.376530  0.250006  1
  Sn  Sn25  1  0.914426  0.122643  0.249884  1
  Sn  Sn26  1  0.349135  0.138230  0.751023  1
  Sn  Sn27  1  0.845971  0.358633  0.749110  1
  Sn  Sn28  1  0.653891  0.860985  0.249945  1
  Sn  Sn29  1  0.153569  0.639205  0.249903  1
  Bi  Bi30  1  0.270264  0.020266  0.047025  1
  Bi  Bi31  1  0.771100  0.478541  0.453637  1
  Bi  Bi32  1  0.728282  0.978619  0.546633  1
  Bi  Bi33  1  0.229094  0.522219  0.955265  1
  Bi  Bi34  1  0.728699  0.979082  0.953250  1
  Bi  Bi35  1  0.228234  0.523160  0.544517  1
