# generated using pymatgen
data_ErU2Sn3IrRh2
_symmetry_space_group_name_H-M   'P 1'
_cell_length_a   7.48662007
_cell_length_b   7.33546423
_cell_length_c   3.99713700
_cell_angle_alpha   90.00000000
_cell_angle_beta   90.00000000
_cell_angle_gamma   119.69748188
_symmetry_Int_Tables_number   1
_chemical_formula_structural   ErU2Sn3IrRh2
_chemical_formula_sum   'Er1 U2 Sn3 Ir1 Rh2'
_cell_volume   190.68164917
_cell_formula_units_Z   1
loop_
 _symmetry_equiv_pos_site_id
 _symmetry_equiv_pos_as_xyz
  1  'x, y, z'
loop_
 _atom_site_type_symbol
 _atom_site_label
 _atom_site_symmetry_multiplicity
 _atom_site_fract_x
 _atom_site_fract_y
 _atom_site_fract_z
 _atom_site_occupancy
  Er  Er0  1  0.002223  0.590925  0.500000  1
  U  U1  1  0.414721  0.417765  0.500000  1
  U  U2  1  0.579462  0.994169  0.500000  1
  Sn  Sn3  1  0.755516  0.744990  0.000000  1
  Sn  Sn4  1  0.248195  0.995150  0.000000  1
  Sn  Sn5  1  0.996165  0.260817  0.000000  1
  Ir  Ir6  1  0.351337  0.668818  0.000000  1
  Rh  Rh7  1  0.649872  0.318761  0.000000  1
  Rh  Rh8  1  0.002509  0.008603  0.500000  1
