# generated using pymatgen
data_Th2FeSi4Ni
_symmetry_space_group_name_H-M   'P 1'
_cell_length_a   8.49346100
_cell_length_b   8.49346119
_cell_length_c   4.11916700
_cell_angle_alpha   90.00000000
_cell_angle_beta   90.00000000
_cell_angle_gamma   151.67591558
_symmetry_Int_Tables_number   1
_chemical_formula_structural   Th2FeSi4Ni
_chemical_formula_sum   'Th2 Fe1 Si4 Ni1'
_cell_volume   140.98627351
_cell_formula_units_Z   1
loop_
 _symmetry_equiv_pos_site_id
 _symmetry_equiv_pos_as_xyz
  1  'x, y, z'
loop_
 _atom_site_type_symbol
 _atom_site_label
 _atom_site_symmetry_multiplicity
 _atom_site_fract_x
 _atom_site_fract_y
 _atom_site_fract_z
 _atom_site_occupancy
  Th  Th0  1  0.608533  0.391467  0.250000  1
  Th  Th1  1  0.393628  0.606372  0.750000  1
  Fe  Fe2  1  0.818944  0.181056  0.250000  1
  Si  Si3  1  0.957430  0.042570  0.250000  1
  Si  Si4  1  0.038240  0.961760  0.750000  1
  Si  Si5  1  0.252909  0.747091  0.250000  1
  Si  Si6  1  0.751876  0.248124  0.750000  1
  Ni  Ni7  1  0.178439  0.821561  0.750000  1
