# generated using pymatgen
data_YErHfPtF14
_symmetry_space_group_name_H-M   'P 1'
_cell_length_a   5.63134538
_cell_length_b   8.96246850
_cell_length_c   12.01784885
_cell_angle_alpha   62.32928068
_cell_angle_beta   90.17947329
_cell_angle_gamma   90.03841243
_symmetry_Int_Tables_number   1
_chemical_formula_structural   YErHfPtF14
_chemical_formula_sum   'Y2 Er2 Hf2 Pt2 F28'
_cell_volume   537.17659904
_cell_formula_units_Z   2
loop_
 _symmetry_equiv_pos_site_id
 _symmetry_equiv_pos_as_xyz
  1  'x, y, z'
loop_
 _atom_site_type_symbol
 _atom_site_label
 _atom_site_symmetry_multiplicity
 _atom_site_fract_x
 _atom_site_fract_y
 _atom_site_fract_z
 _atom_site_occupancy
  Y  Y0  1  0.759880  0.182669  0.239690  1
  Y  Y1  1  0.240120  0.817331  0.760310  1
  Er  Er2  1  0.257401  0.812769  0.270405  1
  Er  Er3  1  0.742599  0.187231  0.729595  1
  Hf  Hf4  1  0.754931  0.726859  0.045430  1
  Hf  Hf5  1  0.245069  0.273141  0.954570  1
  Pt  Pt6  1  0.259418  0.274288  0.455991  1
  Pt  Pt7  1  0.740582  0.725712  0.544009  1
  F  F8  1  0.933633  0.704298  0.415921  1
  F  F9  1  0.066367  0.295702  0.584079  1
  F  F10  1  0.467408  0.290224  0.078377  1
  F  F11  1  0.532592  0.709776  0.921623  1
  F  F12  1  0.484604  0.732999  0.151224  1
  F  F13  1  0.515396  0.267001  0.848776  1
  F  F14  1  0.967998  0.272487  0.365992  1
  F  F15  1  0.032002  0.727513  0.634008  1
  F  F16  1  0.968177  0.751124  0.171252  1
  F  F17  1  0.031823  0.248876  0.828748  1
  F  F18  1  0.446822  0.260463  0.322361  1
  F  F19  1  0.553178  0.739537  0.677639  1
  F  F20  1  0.776696  0.475697  0.143306  1
  F  F21  1  0.223304  0.524303  0.856694  1
  F  F22  1  0.264783  0.522276  0.359622  1
  F  F23  1  0.735217  0.477724  0.640378  1
  F  F24  1  0.954683  0.276004  0.051653  1
  F  F25  1  0.045317  0.723996  0.948347  1
  F  F26  1  0.441898  0.715575  0.460838  1
  F  F27  1  0.558102  0.284425  0.539162  1
  F  F28  1  0.739381  0.973401  0.453939  1
  F  F29  1  0.260619  0.026599  0.546061  1
  F  F30  1  0.244259  0.022580  0.060945  1
  F  F31  1  0.755741  0.977420  0.939055  1
  F  F32  1  0.574286  0.968314  0.239904  1
  F  F33  1  0.425714  0.031686  0.760096  1
  F  F34  1  0.080308  0.024289  0.273476  1
  F  F35  1  0.919692  0.975711  0.726524  1
