# generated using pymatgen
data_CaCe2(GaNi)3
_symmetry_space_group_name_H-M   'P 1'
_cell_length_a   6.96384587
_cell_length_b   6.83418937
_cell_length_c   3.95929600
_cell_angle_alpha   90.00000000
_cell_angle_beta   90.00000000
_cell_angle_gamma   119.38598831
_symmetry_Int_Tables_number   1
_chemical_formula_structural   CaCe2(GaNi)3
_chemical_formula_sum   'Ca1 Ce2 Ga3 Ni3'
_cell_volume   164.18697765
_cell_formula_units_Z   1
loop_
 _symmetry_equiv_pos_site_id
 _symmetry_equiv_pos_as_xyz
  1  'x, y, z'
loop_
 _atom_site_type_symbol
 _atom_site_label
 _atom_site_symmetry_multiplicity
 _atom_site_fract_x
 _atom_site_fract_y
 _atom_site_fract_z
 _atom_site_occupancy
  Ca  Ca0  1  0.000000  0.585228  0.500000  1
  Ce  Ce1  1  0.420340  0.420421  0.500000  1
  Ce  Ce2  1  0.579660  0.000081  0.500000  1
  Ga  Ga3  1  0.231572  0.995078  0.000000  1
  Ga  Ga4  1  0.768428  0.763506  0.000000  1
  Ga  Ga5  1  0.000000  0.241763  0.000000  1
  Ni  Ni6  1  0.645137  0.314939  0.000000  1
  Ni  Ni7  1  0.354863  0.669803  0.000000  1
  Ni  Ni8  1  0.000000  0.009181  0.500000  1
