# generated using pymatgen
data_Nd3Al12(NiRu)2
_symmetry_space_group_name_H-M   'P 1'
_cell_length_a   8.89517600
_cell_length_b   8.86762898
_cell_length_c   9.55210655
_cell_angle_alpha   89.89880661
_cell_angle_beta   90.00000000
_cell_angle_gamma   120.10282199
_symmetry_Int_Tables_number   1
_chemical_formula_structural   Nd3Al12(NiRu)2
_chemical_formula_sum   'Nd6 Al24 Ni4 Ru4'
_cell_volume   651.83854446
_cell_formula_units_Z   2
loop_
 _symmetry_equiv_pos_site_id
 _symmetry_equiv_pos_as_xyz
  1  'x, y, z'
loop_
 _atom_site_type_symbol
 _atom_site_label
 _atom_site_symmetry_multiplicity
 _atom_site_fract_x
 _atom_site_fract_y
 _atom_site_fract_z
 _atom_site_occupancy
  Nd  Nd0  1  0.191117  0.382234  0.249731  1
  Nd  Nd1  1  0.808883  0.617766  0.750269  1
  Nd  Nd2  1  0.618297  0.808536  0.250030  1
  Nd  Nd3  1  0.381703  0.191464  0.749970  1
  Nd  Nd4  1  0.190240  0.808536  0.250030  1
  Nd  Nd5  1  0.809760  0.191464  0.749970  1
  Al  Al6  1  0.333492  0.666984  0.016683  1
  Al  Al7  1  0.666508  0.333016  0.983317  1
  Al  Al8  1  0.665944  0.331885  0.514993  1
  Al  Al9  1  0.334056  0.668115  0.485007  1
  Al  Al10  1  0.163812  0.327624  0.575270  1
  Al  Al11  1  0.836188  0.672376  0.424730  1
  Al  Al12  1  0.673070  0.835547  0.574310  1
  Al  Al13  1  0.836479  0.672958  0.076419  1
  Al  Al14  1  0.326930  0.164453  0.425690  1
  Al  Al15  1  0.163521  0.327042  0.923581  1
  Al  Al16  1  0.162478  0.835547  0.574310  1
  Al  Al17  1  0.326613  0.162502  0.075702  1
  Al  Al18  1  0.837522  0.164453  0.425690  1
  Al  Al19  1  0.673387  0.837498  0.924298  1
  Al  Al20  1  0.835889  0.162502  0.075702  1
  Al  Al21  1  0.164111  0.837498  0.924298  1
  Al  Al22  1  0.561571  0.123143  0.248520  1
  Al  Al23  1  0.438429  0.876857  0.751480  1
  Al  Al24  1  0.874795  0.437088  0.247924  1
  Al  Al25  1  0.125205  0.562912  0.752076  1
  Al  Al26  1  0.562293  0.437088  0.247924  1
  Al  Al27  1  0.437707  0.562912  0.752076  1
  Al  Al28  1  0.999058  0.998116  0.250551  1
  Al  Al29  1  0.000942  0.001884  0.749449  1
  Ni  Ni30  1  0.500000  0.000000  0.000000  1
  Ni  Ni31  1  0.000000  0.500000  0.000000  1
  Ni  Ni32  1  0.500000  0.000000  0.500000  1
  Ni  Ni33  1  0.500000  0.500000  0.000000  1
  Ru  Ru34  1  0.000000  0.500000  0.500000  1
  Ru  Ru35  1  0.500000  0.500000  0.500000  1
  Ru  Ru36  1  0.000000  0.000000  0.000000  1
  Ru  Ru37  1  0.000000  0.000000  0.500000  1
