# generated using pymatgen
data_Y4ErTm3Au4
_symmetry_space_group_name_H-M   'P 1'
_cell_length_a   4.91371900
_cell_length_b   7.14635618
_cell_length_c   8.91240400
_cell_angle_alpha   90.01283599
_cell_angle_beta   90.00000000
_cell_angle_gamma   90.00000000
_symmetry_Int_Tables_number   1
_chemical_formula_structural   Y4ErTm3Au4
_chemical_formula_sum   'Y4 Er1 Tm3 Au4'
_cell_volume   312.96071755
_cell_formula_units_Z   1
loop_
 _symmetry_equiv_pos_site_id
 _symmetry_equiv_pos_as_xyz
  1  'x, y, z'
loop_
 _atom_site_type_symbol
 _atom_site_label
 _atom_site_symmetry_multiplicity
 _atom_site_fract_x
 _atom_site_fract_y
 _atom_site_fract_z
 _atom_site_occupancy
  Y  Y0  1  0.250000  0.485602  0.176420  1
  Y  Y1  1  0.250000  0.987002  0.323636  1
  Y  Y2  1  0.750000  0.514051  0.823202  1
  Y  Y3  1  0.750000  0.014381  0.677392  1
  Er  Er4  1  0.750000  0.647523  0.419488  1
  Tm  Tm5  1  0.250000  0.852213  0.920998  1
  Tm  Tm6  1  0.250000  0.352618  0.580003  1
  Tm  Tm7  1  0.750000  0.147996  0.079147  1
  Au  Au8  1  0.250000  0.251575  0.899520  1
  Au  Au9  1  0.250000  0.752113  0.601538  1
  Au  Au10  1  0.750000  0.748327  0.098844  1
  Au  Au11  1  0.750000  0.246596  0.399810  1
