# generated using pymatgen
data_Li2(NbSe2)3
_symmetry_space_group_name_H-M   'P 1'
_cell_length_a   6.09966700
_cell_length_b   6.09966725
_cell_length_c   13.63537100
_cell_angle_alpha   90.00000000
_cell_angle_beta   90.00000000
_cell_angle_gamma   120.00001491
_symmetry_Int_Tables_number   1
_chemical_formula_structural   Li2(NbSe2)3
_chemical_formula_sum   'Li4 Nb6 Se12'
_cell_volume   439.34915515
_cell_formula_units_Z   2
loop_
 _symmetry_equiv_pos_site_id
 _symmetry_equiv_pos_as_xyz
  1  'x, y, z'
loop_
 _atom_site_type_symbol
 _atom_site_label
 _atom_site_symmetry_multiplicity
 _atom_site_fract_x
 _atom_site_fract_y
 _atom_site_fract_z
 _atom_site_occupancy
  Li  Li0  1  0.000000  0.000000  0.250000  1
  Li  Li1  1  0.000000  0.000000  0.750000  1
  Li  Li2  1  0.333333  0.666667  0.250000  1
  Li  Li3  1  0.666667  0.333333  0.750000  1
  Nb  Nb4  1  0.000000  0.000000  0.000000  1
  Nb  Nb5  1  0.000000  0.000000  0.500000  1
  Nb  Nb6  1  0.333333  0.666667  0.500237  1
  Nb  Nb7  1  0.333333  0.666667  0.999763  1
  Nb  Nb8  1  0.666667  0.333333  0.000237  1
  Nb  Nb9  1  0.666667  0.333333  0.499763  1
  Se  Se10  1  0.001693  0.335259  0.877689  1
  Se  Se11  1  0.998307  0.333565  0.122311  1
  Se  Se12  1  0.001693  0.666435  0.622311  1
  Se  Se13  1  0.998307  0.664741  0.377689  1
  Se  Se14  1  0.333565  0.998307  0.877689  1
  Se  Se15  1  0.333565  0.335259  0.622311  1
  Se  Se16  1  0.335259  0.333565  0.377689  1
  Se  Se17  1  0.335259  0.001693  0.122311  1
  Se  Se18  1  0.664741  0.666435  0.877689  1
  Se  Se19  1  0.666435  0.664741  0.122311  1
  Se  Se20  1  0.664741  0.998307  0.622311  1
  Se  Se21  1  0.666435  0.001693  0.377689  1
