# generated using pymatgen
data_HoEr5MnB14Os
_symmetry_space_group_name_H-M   'P 1'
_cell_length_a   7.98451810
_cell_length_b   7.98451803
_cell_length_c   9.27101300
_cell_angle_alpha   90.00000000
_cell_angle_beta   90.00000000
_cell_angle_gamma   154.92388429
_symmetry_Int_Tables_number   1
_chemical_formula_structural   HoEr5MnB14Os
_chemical_formula_sum   'Ho1 Er5 Mn1 B14 Os1'
_cell_volume   250.50015004
_cell_formula_units_Z   1
loop_
 _symmetry_equiv_pos_site_id
 _symmetry_equiv_pos_as_xyz
  1  'x, y, z'
loop_
 _atom_site_type_symbol
 _atom_site_label
 _atom_site_symmetry_multiplicity
 _atom_site_fract_x
 _atom_site_fract_y
 _atom_site_fract_z
 _atom_site_occupancy
  Ho  Ho0  1  0.244867  0.755133  0.250000  1
  Er  Er1  1  0.894629  0.105371  0.443454  1
  Er  Er2  1  0.104905  0.895095  0.563462  1
  Er  Er3  1  0.894629  0.105371  0.056546  1
  Er  Er4  1  0.104905  0.895095  0.936538  1
  Er  Er5  1  0.758928  0.241072  0.750000  1
  Mn  Mn6  1  0.947459  0.052541  0.750000  1
  B  B7  1  0.727211  0.272789  0.467210  1
  B  B8  1  0.272152  0.727848  0.534625  1
  B  B9  1  0.727211  0.272789  0.032790  1
  B  B10  1  0.272152  0.727848  0.965375  1
  B  B11  1  0.632038  0.367962  0.149827  1
  B  B12  1  0.369858  0.630142  0.846348  1
  B  B13  1  0.632038  0.367962  0.350173  1
  B  B14  1  0.369858  0.630142  0.653652  1
  B  B15  1  0.519721  0.480279  0.095033  1
  B  B16  1  0.478872  0.521128  0.901893  1
  B  B17  1  0.519721  0.480279  0.404967  1
  B  B18  1  0.478872  0.521128  0.598107  1
  B  B19  1  0.454445  0.545555  0.250000  1
  B  B20  1  0.542168  0.457832  0.750000  1
  Os  Os21  1  0.053361  0.946639  0.250000  1
