# generated using pymatgen
data_Tb3Pr2YRh18
_symmetry_space_group_name_H-M   'P 1'
_cell_length_a   5.32279000
_cell_length_b   5.32279006
_cell_length_c   17.54411000
_cell_angle_alpha   90.00000000
_cell_angle_beta   90.00000000
_cell_angle_gamma   119.99998723
_symmetry_Int_Tables_number   1
_chemical_formula_structural   Tb3Pr2YRh18
_chemical_formula_sum   'Tb3 Pr2 Y1 Rh18'
_cell_volume   430.46782734
_cell_formula_units_Z   1
loop_
 _symmetry_equiv_pos_site_id
 _symmetry_equiv_pos_as_xyz
  1  'x, y, z'
loop_
 _atom_site_type_symbol
 _atom_site_label
 _atom_site_symmetry_multiplicity
 _atom_site_fract_x
 _atom_site_fract_y
 _atom_site_fract_z
 _atom_site_occupancy
  Tb  Tb0  1  0.333333  0.666667  0.958548  1
  Tb  Tb1  1  0.666667  0.333333  0.041465  1
  Tb  Tb2  1  0.666667  0.333333  0.458520  1
  Pr  Pr3  1  0.333333  0.666667  0.749975  1
  Pr  Pr4  1  0.666667  0.333333  0.250016  1
  Y  Y5  1  0.333333  0.666667  0.541463  1
  Rh  Rh6  1  0.167327  0.832673  0.374985  1
  Rh  Rh7  1  0.167327  0.334653  0.374985  1
  Rh  Rh8  1  0.665347  0.832673  0.374985  1
  Rh  Rh9  1  0.832711  0.167289  0.625019  1
  Rh  Rh10  1  0.832711  0.665423  0.625019  1
  Rh  Rh11  1  0.334577  0.167289  0.625019  1
  Rh  Rh12  1  0.832678  0.167322  0.874949  1
  Rh  Rh13  1  0.832678  0.665358  0.874949  1
  Rh  Rh14  1  0.334642  0.167322  0.874949  1
  Rh  Rh15  1  0.167358  0.832642  0.125049  1
  Rh  Rh16  1  0.167358  0.334716  0.125049  1
  Rh  Rh17  1  0.665284  0.832642  0.125049  1
  Rh  Rh18  1  0.333333  0.666667  0.249984  1
  Rh  Rh19  1  0.666667  0.333333  0.750003  1
  Rh  Rh20  1  0.000000  0.000000  0.249993  1
  Rh  Rh21  1  0.000000  0.000000  0.749991  1
  Rh  Rh22  1  0.000000  0.000000  0.500030  1
  Rh  Rh23  1  0.000000  0.000000  0.000006  1
