# generated using pymatgen
data_Pr3Th(InAu2)2
_symmetry_space_group_name_H-M   'P 1'
_cell_length_a   8.15506372
_cell_length_b   8.15506372
_cell_length_c   3.95562400
_cell_angle_alpha   90.00000000
_cell_angle_beta   90.00000000
_cell_angle_gamma   90.73710900
_symmetry_Int_Tables_number   1
_chemical_formula_structural   Pr3Th(InAu2)2
_chemical_formula_sum   'Pr3 Th1 In2 Au4'
_cell_volume   263.04725839
_cell_formula_units_Z   1
loop_
 _symmetry_equiv_pos_site_id
 _symmetry_equiv_pos_as_xyz
  1  'x, y, z'
loop_
 _atom_site_type_symbol
 _atom_site_label
 _atom_site_symmetry_multiplicity
 _atom_site_fract_x
 _atom_site_fract_y
 _atom_site_fract_z
 _atom_site_occupancy
  Pr  Pr0  1  0.325225  0.825225  0.500000  1
  Pr  Pr1  1  0.174697  0.325477  0.500000  1
  Pr  Pr2  1  0.825477  0.674697  0.500000  1
  Th  Th3  1  0.672431  0.172431  0.500000  1
  In  In4  1  0.001442  0.999819  0.000000  1
  In  In5  1  0.499819  0.501442  0.000000  1
  Au  Au6  1  0.124379  0.624379  0.000000  1
  Au  Au7  1  0.869017  0.369017  0.000000  1
  Au  Au8  1  0.629472  0.878041  0.000000  1
  Au  Au9  1  0.378041  0.129472  0.000000  1
