# generated using pymatgen
data_LaNd(BrO3)6
_symmetry_space_group_name_H-M   'P 1'
_cell_length_a   9.95023100
_cell_length_b   9.95022991
_cell_length_c   5.91783900
_cell_angle_alpha   90.00000000
_cell_angle_beta   90.00000000
_cell_angle_gamma   119.99998701
_symmetry_Int_Tables_number   1
_chemical_formula_structural   LaNd(BrO3)6
_chemical_formula_sum   'La1 Nd1 Br6 O18'
_cell_volume   507.41127455
_cell_formula_units_Z   1
loop_
 _symmetry_equiv_pos_site_id
 _symmetry_equiv_pos_as_xyz
  1  'x, y, z'
loop_
 _atom_site_type_symbol
 _atom_site_label
 _atom_site_symmetry_multiplicity
 _atom_site_fract_x
 _atom_site_fract_y
 _atom_site_fract_z
 _atom_site_occupancy
  La  La0  1  0.333333  0.666667  0.201812  1
  Nd  Nd1  1  0.666667  0.333333  0.706231  1
  Br  Br2  1  0.702250  0.025149  0.371541  1
  Br  Br3  1  0.300673  0.979109  0.866552  1
  Br  Br4  1  0.020891  0.321562  0.866552  1
  Br  Br5  1  0.322898  0.297750  0.371541  1
  Br  Br6  1  0.974851  0.677102  0.371541  1
  Br  Br7  1  0.678438  0.699327  0.866552  1
  O  O8  1  0.775891  0.831293  0.059007  1
  O  O9  1  0.943722  0.778392  0.561638  1
  O  O10  1  0.834670  0.056278  0.561638  1
  O  O11  1  0.168707  0.944598  0.059007  1
  O  O12  1  0.055402  0.224109  0.059007  1
  O  O13  1  0.221608  0.165330  0.561638  1
  O  O14  1  0.718672  0.553584  0.919748  1
  O  O15  1  0.160375  0.715310  0.422144  1
  O  O16  1  0.513507  0.385085  0.451839  1
  O  O17  1  0.123180  0.512837  0.943984  1
  O  O18  1  0.389658  0.876820  0.943984  1
  O  O19  1  0.614915  0.128422  0.451839  1
  O  O20  1  0.871578  0.486493  0.451839  1
  O  O21  1  0.487163  0.610342  0.943984  1
  O  O22  1  0.284690  0.445065  0.422144  1
  O  O23  1  0.834912  0.281328  0.919748  1
  O  O24  1  0.446416  0.165088  0.919748  1
  O  O25  1  0.554935  0.839625  0.422144  1
