# generated using pymatgen
data_Sr4NbCrO8
_symmetry_space_group_name_H-M   'P 1'
_cell_length_a   6.98261702
_cell_length_b   6.98261623
_cell_length_c   5.61335700
_cell_angle_alpha   90.00000000
_cell_angle_beta   90.00000000
_cell_angle_gamma   132.50348596
_symmetry_Int_Tables_number   1
_chemical_formula_structural   Sr4NbCrO8
_chemical_formula_sum   'Sr4 Nb1 Cr1 O8'
_cell_volume   201.77424446
_cell_formula_units_Z   1
loop_
 _symmetry_equiv_pos_site_id
 _symmetry_equiv_pos_as_xyz
  1  'x, y, z'
loop_
 _atom_site_type_symbol
 _atom_site_label
 _atom_site_symmetry_multiplicity
 _atom_site_fract_x
 _atom_site_fract_y
 _atom_site_fract_z
 _atom_site_occupancy
  Sr  Sr0  1  0.648594  0.351406  0.000000  1
  Sr  Sr1  1  0.144963  0.855037  0.500000  1
  Sr  Sr2  1  0.855037  0.144963  0.500000  1
  Sr  Sr3  1  0.351406  0.648594  0.000000  1
  Nb  Nb4  1  0.500000  0.500000  0.500000  1
  Cr  Cr5  1  0.000000  0.000000  0.000000  1
  O  O6  1  0.750143  0.750143  0.748903  1
  O  O7  1  0.249857  0.249857  0.251097  1
  O  O8  1  0.249857  0.249857  0.748903  1
  O  O9  1  0.750143  0.750143  0.251097  1
  O  O10  1  0.838790  0.161210  0.000000  1
  O  O11  1  0.338977  0.661023  0.500000  1
  O  O12  1  0.661023  0.338977  0.500000  1
  O  O13  1  0.161210  0.838790  0.000000  1
