# generated using pymatgen
data_Li(HfS2)8
_symmetry_space_group_name_H-M   'P 1'
_cell_length_a   7.25457700
_cell_length_b   7.25457714
_cell_length_c   12.76534600
_cell_angle_alpha   90.00000000
_cell_angle_beta   90.00000000
_cell_angle_gamma   119.99998570
_symmetry_Int_Tables_number   1
_chemical_formula_structural   Li(HfS2)8
_chemical_formula_sum   'Li1 Hf8 S16'
_cell_volume   581.81844130
_cell_formula_units_Z   1
loop_
 _symmetry_equiv_pos_site_id
 _symmetry_equiv_pos_as_xyz
  1  'x, y, z'
loop_
 _atom_site_type_symbol
 _atom_site_label
 _atom_site_symmetry_multiplicity
 _atom_site_fract_x
 _atom_site_fract_y
 _atom_site_fract_z
 _atom_site_occupancy
  Li  Li0  1  0.000000  0.000000  0.000000  1
  Hf  Hf1  1  0.500835  0.499165  0.748374  1
  Hf  Hf2  1  0.499165  0.500835  0.251626  1
  Hf  Hf3  1  0.500835  0.001668  0.748374  1
  Hf  Hf4  1  0.499165  0.998332  0.251626  1
  Hf  Hf5  1  0.998332  0.499165  0.748374  1
  Hf  Hf6  1  0.001668  0.500835  0.251626  1
  Hf  Hf7  1  0.000000  0.000000  0.737824  1
  Hf  Hf8  1  0.000000  0.000000  0.262176  1
  S  S9  1  0.836739  0.673480  0.137879  1
  S  S10  1  0.830952  0.661904  0.631421  1
  S  S11  1  0.836739  0.163261  0.137879  1
  S  S12  1  0.830952  0.169048  0.631421  1
  S  S13  1  0.333333  0.666667  0.137201  1
  S  S14  1  0.333333  0.666667  0.636574  1
  S  S15  1  0.326520  0.163261  0.137879  1
  S  S16  1  0.338096  0.169048  0.631421  1
  S  S17  1  0.673480  0.836739  0.862121  1
  S  S18  1  0.661904  0.830952  0.368579  1
  S  S19  1  0.666667  0.333333  0.862799  1
  S  S20  1  0.666667  0.333333  0.363426  1
  S  S21  1  0.163261  0.836739  0.862121  1
  S  S22  1  0.169048  0.830952  0.368579  1
  S  S23  1  0.163261  0.326520  0.862121  1
  S  S24  1  0.169048  0.338096  0.368579  1
