# generated using pymatgen
data_Pa4Cd2CoNi3
_symmetry_space_group_name_H-M   'P 1'
_cell_length_a   7.52447902
_cell_length_b   7.52447902
_cell_length_c   3.44894500
_cell_angle_alpha   90.00000000
_cell_angle_beta   90.00000000
_cell_angle_gamma   89.83266184
_symmetry_Int_Tables_number   1
_chemical_formula_structural   Pa4Cd2CoNi3
_chemical_formula_sum   'Pa4 Cd2 Co1 Ni3'
_cell_volume   195.27079217
_cell_formula_units_Z   1
loop_
 _symmetry_equiv_pos_site_id
 _symmetry_equiv_pos_as_xyz
  1  'x, y, z'
loop_
 _atom_site_type_symbol
 _atom_site_label
 _atom_site_symmetry_multiplicity
 _atom_site_fract_x
 _atom_site_fract_y
 _atom_site_fract_z
 _atom_site_occupancy
  Pa  Pa0  1  0.328074  0.837035  0.500000  1
  Pa  Pa1  1  0.831790  0.668210  0.500000  1
  Pa  Pa2  1  0.178145  0.321855  0.500000  1
  Pa  Pa3  1  0.662965  0.171926  0.500000  1
  Cd  Cd4  1  0.994912  0.000571  0.000000  1
  Cd  Cd5  1  0.499429  0.505088  0.000000  1
  Co  Co6  1  0.372494  0.127506  0.000000  1
  Ni  Ni7  1  0.874785  0.372274  0.000000  1
  Ni  Ni8  1  0.127726  0.625215  0.000000  1
  Ni  Ni9  1  0.629680  0.870320  0.000000  1
