# generated using pymatgen
data_KAu(S2O7)2
_symmetry_space_group_name_H-M   'P 1'
_cell_length_a   6.12285534
_cell_length_b   7.26032842
_cell_length_c   9.41221015
_cell_angle_alpha   107.15271375
_cell_angle_beta   94.98006146
_cell_angle_gamma   101.13179308
_symmetry_Int_Tables_number   1
_chemical_formula_structural   KAu(S2O7)2
_chemical_formula_sum   'K1 Au1 S4 O14'
_cell_volume   387.63956572
_cell_formula_units_Z   1
loop_
 _symmetry_equiv_pos_site_id
 _symmetry_equiv_pos_as_xyz
  1  'x, y, z'
loop_
 _atom_site_type_symbol
 _atom_site_label
 _atom_site_symmetry_multiplicity
 _atom_site_fract_x
 _atom_site_fract_y
 _atom_site_fract_z
 _atom_site_occupancy
  K  K0  1  0.500000  0.000000  0.000000  1
  Au  Au1  1  0.500000  0.500000  0.500000  1
  S  S2  1  0.922246  0.713268  0.741150  1
  S  S3  1  0.077754  0.286732  0.258850  1
  S  S4  1  0.666979  0.329063  0.742081  1
  S  S5  1  0.333021  0.670937  0.257919  1
  O  O6  1  0.832326  0.636684  0.571215  1
  O  O7  1  0.167674  0.363316  0.428785  1
  O  O8  1  0.482975  0.425359  0.691972  1
  O  O9  1  0.517025  0.574641  0.308028  1
  O  O10  1  0.160908  0.788666  0.759027  1
  O  O11  1  0.839092  0.211334  0.240973  1
  O  O12  1  0.787701  0.832245  0.827388  1
  O  O13  1  0.212299  0.167755  0.172612  1
  O  O14  1  0.621871  0.300716  0.882160  1
  O  O15  1  0.378129  0.699284  0.117840  1
  O  O16  1  0.901341  0.512353  0.790076  1
  O  O17  1  0.098659  0.487647  0.209924  1
  O  O18  1  0.714249  0.173926  0.623436  1
  O  O19  1  0.285751  0.826074  0.376564  1
