# generated using pymatgen
data_HfPCl9
_symmetry_space_group_name_H-M   'P 1'
_cell_length_a   7.35266781
_cell_length_b   9.37582193
_cell_length_c   9.97126967
_cell_angle_alpha   101.45662872
_cell_angle_beta   96.24719705
_cell_angle_gamma   95.00947976
_symmetry_Int_Tables_number   1
_chemical_formula_structural   HfPCl9
_chemical_formula_sum   'Hf2 P2 Cl18'
_cell_volume   665.49624442
_cell_formula_units_Z   2
loop_
 _symmetry_equiv_pos_site_id
 _symmetry_equiv_pos_as_xyz
  1  'x, y, z'
loop_
 _atom_site_type_symbol
 _atom_site_label
 _atom_site_symmetry_multiplicity
 _atom_site_fract_x
 _atom_site_fract_y
 _atom_site_fract_z
 _atom_site_occupancy
  Hf  Hf0  1  0.612444  0.639212  0.678662  1
  Hf  Hf1  1  0.387556  0.360788  0.321338  1
  P  P2  1  0.049939  0.193992  0.778011  1
  P  P3  1  0.950061  0.806008  0.221989  1
  Cl  Cl4  1  0.375710  0.573812  0.216662  1
  Cl  Cl5  1  0.624290  0.426188  0.783338  1
  Cl  Cl6  1  0.420022  0.163033  0.441966  1
  Cl  Cl7  1  0.579978  0.836967  0.558034  1
  Cl  Cl8  1  0.069148  0.282528  0.244319  1
  Cl  Cl9  1  0.930852  0.717472  0.755681  1
  Cl  Cl10  1  0.518767  0.229619  0.130050  1
  Cl  Cl11  1  0.481233  0.770381  0.869950  1
  Cl  Cl12  1  0.294242  0.517419  0.546300  1
  Cl  Cl13  1  0.705758  0.482581  0.453700  1
  Cl  Cl14  1  0.843707  0.613130  0.117106  1
  Cl  Cl15  1  0.156293  0.386870  0.882894  1
  Cl  Cl16  1  0.947381  0.206712  0.592399  1
  Cl  Cl17  1  0.052619  0.793288  0.407601  1
  Cl  Cl18  1  0.242581  0.061676  0.766976  1
  Cl  Cl19  1  0.757419  0.938324  0.233024  1
  Cl  Cl20  1  0.854377  0.116858  0.871382  1
  Cl  Cl21  1  0.145623  0.883142  0.128618  1
