# generated using pymatgen
data_CaGaSbO5
_symmetry_space_group_name_H-M   'P 1'
_cell_length_a   9.21158900
_cell_length_b   6.79203213
_cell_length_c   7.72329521
_cell_angle_alpha   61.16569401
_cell_angle_beta   90.00000000
_cell_angle_gamma   90.00000000
_symmetry_Int_Tables_number   1
_chemical_formula_structural   CaGaSbO5
_chemical_formula_sum   'Ca4 Ga4 Sb4 O20'
_cell_volume   423.30167289
_cell_formula_units_Z   4
loop_
 _symmetry_equiv_pos_site_id
 _symmetry_equiv_pos_as_xyz
  1  'x, y, z'
loop_
 _atom_site_type_symbol
 _atom_site_label
 _atom_site_symmetry_multiplicity
 _atom_site_fract_x
 _atom_site_fract_y
 _atom_site_fract_z
 _atom_site_occupancy
  Ca  Ca0  1  0.664156  0.710625  0.283248  1
  Ca  Ca1  1  0.835844  0.710625  0.783248  1
  Ca  Ca2  1  0.335844  0.289375  0.716752  1
  Ca  Ca3  1  0.164156  0.289375  0.216752  1
  Ga  Ga4  1  0.187614  0.761920  0.746833  1
  Ga  Ga5  1  0.687614  0.238080  0.753167  1
  Ga  Ga6  1  0.312386  0.761920  0.246833  1
  Ga  Ga7  1  0.812386  0.238080  0.253167  1
  Sb  Sb8  1  0.500000  0.000000  0.500000  1
  Sb  Sb9  1  0.500000  0.500000  0.000000  1
  Sb  Sb10  1  0.000000  0.500000  0.500000  1
  Sb  Sb11  1  0.000000  0.000000  0.000000  1
  O  O12  1  0.803498  0.989109  0.889582  1
  O  O13  1  0.559875  0.242257  0.563201  1
  O  O14  1  0.918530  0.756961  0.254166  1
  O  O15  1  0.440125  0.757743  0.436799  1
  O  O16  1  0.696502  0.989109  0.389582  1
  O  O17  1  0.201157  0.504344  0.393198  1
  O  O18  1  0.418530  0.243039  0.245834  1
  O  O19  1  0.701157  0.495656  0.106802  1
  O  O20  1  0.798843  0.495656  0.606802  1
  O  O21  1  0.548638  0.279867  0.906732  1
  O  O22  1  0.951362  0.279867  0.406732  1
  O  O23  1  0.059875  0.757743  0.936799  1
  O  O24  1  0.940125  0.242257  0.063201  1
  O  O25  1  0.581470  0.756961  0.754166  1
  O  O26  1  0.048638  0.720133  0.593268  1
  O  O27  1  0.451362  0.720133  0.093268  1
  O  O28  1  0.298843  0.504344  0.893198  1
  O  O29  1  0.303498  0.010891  0.610418  1
  O  O30  1  0.081470  0.243039  0.745834  1
  O  O31  1  0.196502  0.010891  0.110418  1
