# generated using pymatgen
data_YbEr3(B4Ru5)2
_symmetry_space_group_name_H-M   'P 1'
_cell_length_a   3.04087400
_cell_length_b   8.74219644
_cell_length_c   10.20934224
_cell_angle_alpha   89.79502907
_cell_angle_beta   90.00000000
_cell_angle_gamma   90.00000000
_symmetry_Int_Tables_number   1
_chemical_formula_structural   YbEr3(B4Ru5)2
_chemical_formula_sum   'Yb1 Er3 B8 Ru10'
_cell_volume   271.40257885
_cell_formula_units_Z   1
loop_
 _symmetry_equiv_pos_site_id
 _symmetry_equiv_pos_as_xyz
  1  'x, y, z'
loop_
 _atom_site_type_symbol
 _atom_site_label
 _atom_site_symmetry_multiplicity
 _atom_site_fract_x
 _atom_site_fract_y
 _atom_site_fract_z
 _atom_site_occupancy
  Yb  Yb0  1  0.500000  0.840087  0.182066  1
  Er  Er1  1  0.500000  0.159389  0.820527  1
  Er  Er2  1  0.500000  0.660412  0.681160  1
  Er  Er3  1  0.500000  0.340047  0.316506  1
  B  B4  1  0.500000  0.966917  0.588113  1
  B  B5  1  0.500000  0.031952  0.411165  1
  B  B6  1  0.500000  0.853291  0.901101  1
  B  B7  1  0.500000  0.144496  0.101331  1
  B  B8  1  0.500000  0.647353  0.397461  1
  B  B9  1  0.500000  0.353180  0.599941  1
  B  B10  1  0.500000  0.467190  0.912088  1
  B  B11  1  0.500000  0.534919  0.088346  1
  Ru  Ru12  1  0.000000  0.658147  0.952663  1
  Ru  Ru13  1  0.000000  0.341624  0.045594  1
  Ru  Ru14  1  0.000000  0.841421  0.455190  1
  Ru  Ru15  1  0.000000  0.159489  0.546779  1
  Ru  Ru16  1  0.000000  0.999550  0.000562  1
  Ru  Ru17  1  0.000000  0.407108  0.760958  1
  Ru  Ru18  1  0.000000  0.593707  0.238289  1
  Ru  Ru19  1  0.000000  0.500384  0.499861  1
  Ru  Ru20  1  0.000000  0.907121  0.739172  1
  Ru  Ru21  1  0.000000  0.092214  0.261125  1
