# generated using pymatgen
data_CeScReB6
_symmetry_space_group_name_H-M   'P 1'
_cell_length_a   3.64167000
_cell_length_b   9.03934900
_cell_length_c   11.44433500
_cell_angle_alpha   90.00000000
_cell_angle_beta   90.00000000
_cell_angle_gamma   90.00000000
_symmetry_Int_Tables_number   1
_chemical_formula_structural   CeScReB6
_chemical_formula_sum   'Ce4 Sc4 Re4 B24'
_cell_volume   376.72835122
_cell_formula_units_Z   4
loop_
 _symmetry_equiv_pos_site_id
 _symmetry_equiv_pos_as_xyz
  1  'x, y, z'
loop_
 _atom_site_type_symbol
 _atom_site_label
 _atom_site_symmetry_multiplicity
 _atom_site_fract_x
 _atom_site_fract_y
 _atom_site_fract_z
 _atom_site_occupancy
  Ce  Ce0  1  0.000000  0.320691  0.414167  1
  Ce  Ce1  1  0.000000  0.679309  0.585833  1
  Ce  Ce2  1  0.000000  0.820691  0.085833  1
  Ce  Ce3  1  0.000000  0.179309  0.914167  1
  Sc  Sc4  1  0.000000  0.945380  0.373105  1
  Sc  Sc5  1  0.000000  0.054620  0.626895  1
  Sc  Sc6  1  0.000000  0.445380  0.126895  1
  Sc  Sc7  1  0.000000  0.554620  0.873105  1
  Re  Re8  1  0.000000  0.640888  0.318742  1
  Re  Re9  1  0.000000  0.359112  0.681258  1
  Re  Re10  1  0.000000  0.140888  0.181258  1
  Re  Re11  1  0.000000  0.859112  0.818742  1
  B  B12  1  0.500000  0.555550  0.431396  1
  B  B13  1  0.500000  0.444450  0.568604  1
  B  B14  1  0.500000  0.055550  0.068604  1
  B  B15  1  0.500000  0.944450  0.931396  1
  B  B16  1  0.500000  0.753693  0.418127  1
  B  B17  1  0.500000  0.246307  0.581873  1
  B  B18  1  0.500000  0.253693  0.081873  1
  B  B19  1  0.500000  0.746307  0.918127  1
  B  B20  1  0.500000  0.794183  0.265419  1
  B  B21  1  0.500000  0.205817  0.734581  1
  B  B22  1  0.500000  0.294183  0.234581  1
  B  B23  1  0.500000  0.705817  0.765419  1
  B  B24  1  0.500000  0.629226  0.183740  1
  B  B25  1  0.500000  0.370774  0.816260  1
  B  B26  1  0.500000  0.129226  0.316260  1
  B  B27  1  0.500000  0.870774  0.683740  1
  B  B28  1  0.500000  0.982376  0.214432  1
  B  B29  1  0.500000  0.017624  0.785568  1
  B  B30  1  0.500000  0.482376  0.285568  1
  B  B31  1  0.500000  0.517624  0.714432  1
  B  B32  1  0.500000  0.598139  0.026779  1
  B  B33  1  0.500000  0.401861  0.973221  1
  B  B34  1  0.500000  0.098139  0.473221  1
  B  B35  1  0.500000  0.901861  0.526779  1
