# generated using pymatgen
data_NaEu3(SnPt)4
_symmetry_space_group_name_H-M   'P 1'
_cell_length_a   4.67063500
_cell_length_b   7.49110739
_cell_length_c   8.02215083
_cell_angle_alpha   89.07776629
_cell_angle_beta   90.00000000
_cell_angle_gamma   90.00000000
_symmetry_Int_Tables_number   1
_chemical_formula_structural   NaEu3(SnPt)4
_chemical_formula_sum   'Na1 Eu3 Sn4 Pt4'
_cell_volume   280.64448625
_cell_formula_units_Z   1
loop_
 _symmetry_equiv_pos_site_id
 _symmetry_equiv_pos_as_xyz
  1  'x, y, z'
loop_
 _atom_site_type_symbol
 _atom_site_label
 _atom_site_symmetry_multiplicity
 _atom_site_fract_x
 _atom_site_fract_y
 _atom_site_fract_z
 _atom_site_occupancy
  Na  Na0  1  0.750000  0.481224  0.183522  1
  Eu  Eu1  1  0.250000  0.020598  0.685185  1
  Eu  Eu2  1  0.250000  0.522092  0.821861  1
  Eu  Eu3  1  0.750000  0.977195  0.314096  1
  Sn  Sn4  1  0.750000  0.340146  0.568951  1
  Sn  Sn5  1  0.250000  0.656171  0.420682  1
  Sn  Sn6  1  0.250000  0.170140  0.075934  1
  Sn  Sn7  1  0.750000  0.832908  0.927930  1
  Pt  Pt8  1  0.750000  0.710237  0.609256  1
  Pt  Pt9  1  0.250000  0.285904  0.394173  1
  Pt  Pt10  1  0.250000  0.796995  0.106088  1
  Pt  Pt11  1  0.750000  0.206389  0.892322  1
