# generated using pymatgen
data_Pr3Nd2(Sn5Ir2)2
_symmetry_space_group_name_H-M   'P 1'
_cell_length_a   14.20103400
_cell_length_b   14.20103400
_cell_length_c   4.69144400
_cell_angle_alpha   90.00000000
_cell_angle_beta   90.00000000
_cell_angle_gamma   90.00000000
_symmetry_Int_Tables_number   1
_chemical_formula_structural   Pr3Nd2(Sn5Ir2)2
_chemical_formula_sum   'Pr6 Nd4 Sn20 Ir8'
_cell_volume   946.12054024
_cell_formula_units_Z   2
loop_
 _symmetry_equiv_pos_site_id
 _symmetry_equiv_pos_as_xyz
  1  'x, y, z'
loop_
 _atom_site_type_symbol
 _atom_site_label
 _atom_site_symmetry_multiplicity
 _atom_site_fract_x
 _atom_site_fract_y
 _atom_site_fract_z
 _atom_site_occupancy
  Pr  Pr0  1  0.500000  0.500000  0.000000  1
  Pr  Pr1  1  0.000000  0.000000  0.000000  1
  Pr  Pr2  1  0.887072  0.387072  0.500000  1
  Pr  Pr3  1  0.112928  0.612928  0.500000  1
  Pr  Pr4  1  0.387072  0.112928  0.500000  1
  Pr  Pr5  1  0.612928  0.887072  0.500000  1
  Nd  Nd6  1  0.677242  0.177242  0.500000  1
  Nd  Nd7  1  0.322758  0.822758  0.500000  1
  Nd  Nd8  1  0.177242  0.322758  0.500000  1
  Nd  Nd9  1  0.822758  0.677242  0.500000  1
  Sn  Sn10  1  0.569760  0.069760  0.000000  1
  Sn  Sn11  1  0.430240  0.930240  0.000000  1
  Sn  Sn12  1  0.069760  0.430240  0.000000  1
  Sn  Sn13  1  0.930240  0.569760  0.000000  1
  Sn  Sn14  1  0.654768  0.698672  0.000000  1
  Sn  Sn15  1  0.345232  0.301328  0.000000  1
  Sn  Sn16  1  0.154768  0.801328  0.000000  1
  Sn  Sn17  1  0.845232  0.198672  0.000000  1
  Sn  Sn18  1  0.301328  0.654768  0.000000  1
  Sn  Sn19  1  0.698672  0.345232  0.000000  1
  Sn  Sn20  1  0.198672  0.154768  0.000000  1
  Sn  Sn21  1  0.801328  0.845232  0.000000  1
  Sn  Sn22  1  0.663463  0.505228  0.500000  1
  Sn  Sn23  1  0.336537  0.494772  0.500000  1
  Sn  Sn24  1  0.163463  0.994772  0.500000  1
  Sn  Sn25  1  0.836537  0.005228  0.500000  1
  Sn  Sn26  1  0.494772  0.663463  0.500000  1
  Sn  Sn27  1  0.505228  0.336537  0.500000  1
  Sn  Sn28  1  0.005228  0.163463  0.500000  1
  Sn  Sn29  1  0.994772  0.836537  0.500000  1
  Ir  Ir30  1  0.746245  0.528398  0.000000  1
  Ir  Ir31  1  0.253755  0.471602  0.000000  1
  Ir  Ir32  1  0.246245  0.971602  0.000000  1
  Ir  Ir33  1  0.753755  0.028398  0.000000  1
  Ir  Ir34  1  0.471602  0.746245  0.000000  1
  Ir  Ir35  1  0.528398  0.253755  0.000000  1
  Ir  Ir36  1  0.028398  0.246245  0.000000  1
  Ir  Ir37  1  0.971602  0.753755  0.000000  1
