# generated using pymatgen
data_SrNdTe2(RhO6)2
_symmetry_space_group_name_H-M   'P 1'
_cell_length_a   5.29164400
_cell_length_b   5.29180073
_cell_length_c   10.55501802
_cell_angle_alpha   90.00636412
_cell_angle_beta   89.99734371
_cell_angle_gamma   119.99739840
_symmetry_Int_Tables_number   1
_chemical_formula_structural   SrNdTe2(RhO6)2
_chemical_formula_sum   'Sr1 Nd1 Te2 Rh2 O12'
_cell_volume   255.97355143
_cell_formula_units_Z   1
loop_
 _symmetry_equiv_pos_site_id
 _symmetry_equiv_pos_as_xyz
  1  'x, y, z'
loop_
 _atom_site_type_symbol
 _atom_site_label
 _atom_site_symmetry_multiplicity
 _atom_site_fract_x
 _atom_site_fract_y
 _atom_site_fract_z
 _atom_site_occupancy
  Sr  Sr0  1  0.000002  0.000016  0.000390  1
  Nd  Nd1  1  0.000033  0.999981  0.499725  1
  Te  Te2  1  0.666719  0.333392  0.254979  1
  Te  Te3  1  0.333282  0.666578  0.744848  1
  Rh  Rh4  1  0.333355  0.666709  0.258136  1
  Rh  Rh5  1  0.666627  0.333291  0.741866  1
  O  O6  1  0.630508  0.624878  0.154276  1
  O  O7  1  0.994376  0.369528  0.154252  1
  O  O8  1  0.375221  0.005746  0.154267  1
  O  O9  1  0.366850  0.355640  0.361244  1
  O  O10  1  0.988825  0.633199  0.361279  1
  O  O11  1  0.644371  0.011173  0.361269  1
  O  O12  1  0.355587  0.988762  0.638599  1
  O  O13  1  0.011219  0.366827  0.638572  1
  O  O14  1  0.633103  0.644369  0.638610  1
  O  O15  1  0.624688  0.993812  0.845889  1
  O  O16  1  0.006064  0.630825  0.845912  1
  O  O17  1  0.369168  0.375275  0.845886  1
