# generated using pymatgen
data_Pa4PSe4
_symmetry_space_group_name_H-M   'P 1'
_cell_length_a   3.95458673
_cell_length_b   9.92120421
_cell_length_c   8.91494245
_cell_angle_alpha   43.47668822
_cell_angle_beta   102.81577569
_cell_angle_gamma   89.99128249
_symmetry_Int_Tables_number   1
_chemical_formula_structural   Pa4PSe4
_chemical_formula_sum   'Pa4 P1 Se4'
_cell_volume   227.80121233
_cell_formula_units_Z   1
loop_
 _symmetry_equiv_pos_site_id
 _symmetry_equiv_pos_as_xyz
  1  'x, y, z'
loop_
 _atom_site_type_symbol
 _atom_site_label
 _atom_site_symmetry_multiplicity
 _atom_site_fract_x
 _atom_site_fract_y
 _atom_site_fract_z
 _atom_site_occupancy
  Pa  Pa0  1  0.939841  0.969123  0.856152  1
  Pa  Pa1  1  0.147235  0.357318  0.269609  1
  Pa  Pa2  1  0.539551  0.151550  0.056822  1
  Pa  Pa3  1  0.747029  0.539660  0.470396  1
  P  P4  1  0.343402  0.254362  0.663235  1
  Se  Se5  1  0.745258  0.049095  0.465556  1
  Se  Se6  1  0.527872  0.669697  0.031701  1
  Se  Se7  1  0.941312  0.459888  0.860871  1
  Se  Se8  1  0.159100  0.839116  0.294871  1
