# generated using pymatgen
data_Hf3Th5(Fe4P3)4
_symmetry_space_group_name_H-M   'P 1'
_cell_length_a   12.47300400
_cell_length_b   12.47300285
_cell_length_c   3.88734500
_cell_angle_alpha   90.00000000
_cell_angle_beta   90.00000000
_cell_angle_gamma   120.00000304
_symmetry_Int_Tables_number   1
_chemical_formula_structural   Hf3Th5(Fe4P3)4
_chemical_formula_sum   'Hf3 Th5 Fe16 P12'
_cell_volume   523.75211220
_cell_formula_units_Z   1
loop_
 _symmetry_equiv_pos_site_id
 _symmetry_equiv_pos_as_xyz
  1  'x, y, z'
loop_
 _atom_site_type_symbol
 _atom_site_label
 _atom_site_symmetry_multiplicity
 _atom_site_fract_x
 _atom_site_fract_y
 _atom_site_fract_z
 _atom_site_occupancy
  Hf  Hf0  1  0.568464  0.568464  0.000000  1
  Hf  Hf1  1  0.431536  0.000000  0.000000  1
  Hf  Hf2  1  0.000000  0.431536  0.000000  1
  Th  Th3  1  0.183816  0.183816  0.500000  1
  Th  Th4  1  0.816184  0.000000  0.500000  1
  Th  Th5  1  0.000000  0.816184  0.500000  1
  Th  Th6  1  0.333333  0.666667  0.000000  1
  Th  Th7  1  0.666667  0.333333  0.000000  1
  Fe  Fe8  1  0.723175  0.723175  0.500000  1
  Fe  Fe9  1  0.276825  0.000000  0.500000  1
  Fe  Fe10  1  0.000000  0.276825  0.500000  1
  Fe  Fe11  1  0.183399  0.377506  0.000000  1
  Fe  Fe12  1  0.622494  0.805892  0.000000  1
  Fe  Fe13  1  0.194108  0.816601  0.000000  1
  Fe  Fe14  1  0.805892  0.622494  0.000000  1
  Fe  Fe15  1  0.816601  0.194108  0.000000  1
  Fe  Fe16  1  0.377506  0.183399  0.000000  1
  Fe  Fe17  1  0.360917  0.480179  0.500000  1
  Fe  Fe18  1  0.519821  0.880739  0.500000  1
  Fe  Fe19  1  0.119261  0.639083  0.500000  1
  Fe  Fe20  1  0.880739  0.519821  0.500000  1
  Fe  Fe21  1  0.639083  0.119261  0.500000  1
  Fe  Fe22  1  0.480179  0.360917  0.500000  1
  Fe  Fe23  1  0.000000  0.000000  0.000000  1
  P  P24  1  0.812812  0.812812  0.000000  1
  P  P25  1  0.187188  0.000000  0.000000  1
  P  P26  1  0.000000  0.187188  0.000000  1
  P  P27  1  0.170306  0.471529  0.500000  1
  P  P28  1  0.528471  0.698778  0.500000  1
  P  P29  1  0.301222  0.829694  0.500000  1
  P  P30  1  0.698778  0.528471  0.500000  1
  P  P31  1  0.829694  0.301222  0.500000  1
  P  P32  1  0.471529  0.170306  0.500000  1
  P  P33  1  0.360894  0.360894  0.000000  1
  P  P34  1  0.639106  0.000000  0.000000  1
  P  P35  1  0.000000  0.639106  0.000000  1
