# generated using pymatgen
data_Dy11Y4Th(CdPt)4
_symmetry_space_group_name_H-M   'P 1'
_cell_length_a   9.70790756
_cell_length_b   9.70930075
_cell_length_c   9.70930134
_cell_angle_alpha   60.19580333
_cell_angle_beta   60.19497112
_cell_angle_gamma   60.19496586
_symmetry_Int_Tables_number   1
_chemical_formula_structural   Dy11Y4Th(CdPt)4
_chemical_formula_sum   'Dy11 Y4 Th1 Cd4 Pt4'
_cell_volume   649.98369316
_cell_formula_units_Z   1
loop_
 _symmetry_equiv_pos_site_id
 _symmetry_equiv_pos_as_xyz
  1  'x, y, z'
loop_
 _atom_site_type_symbol
 _atom_site_label
 _atom_site_symmetry_multiplicity
 _atom_site_fract_x
 _atom_site_fract_y
 _atom_site_fract_z
 _atom_site_occupancy
  Dy  Dy0  1  0.353688  0.353590  0.939626  1
  Dy  Dy1  1  0.353688  0.939626  0.353590  1
  Dy  Dy2  1  0.939662  0.353679  0.353679  1
  Dy  Dy3  1  0.812301  0.189517  0.189517  1
  Dy  Dy4  1  0.190581  0.810584  0.810584  1
  Dy  Dy5  1  0.189544  0.812282  0.189513  1
  Dy  Dy6  1  0.810576  0.190605  0.810582  1
  Dy  Dy7  1  0.189544  0.189513  0.812282  1
  Dy  Dy8  1  0.810576  0.810582  0.190605  1
  Dy  Dy9  1  0.936524  0.565721  0.565721  1
  Dy  Dy10  1  0.563470  0.936617  0.936617  1
  Y  Y11  1  0.565807  0.936330  0.565808  1
  Y  Y12  1  0.936414  0.563668  0.936386  1
  Y  Y13  1  0.565807  0.565808  0.936330  1
  Y  Y14  1  0.936414  0.936386  0.563668  1
  Th  Th15  1  0.349041  0.349257  0.349257  1
  Cd  Cd16  1  0.581608  0.581604  0.581604  1
  Cd  Cd17  1  0.582572  0.582548  0.252704  1
  Cd  Cd18  1  0.582572  0.252704  0.582548  1
  Cd  Cd19  1  0.252730  0.582537  0.582537  1
  Pt  Pt20  1  0.144091  0.144119  0.144119  1
  Pt  Pt21  1  0.141128  0.141083  0.570545  1
  Pt  Pt22  1  0.141128  0.570545  0.141083  1
  Pt  Pt23  1  0.570533  0.141094  0.141094  1
