# generated using pymatgen
data_Ba6CaUSnSbSe12
_symmetry_space_group_name_H-M   'P 1'
_cell_length_a   8.90071792
_cell_length_b   8.90071627
_cell_length_c   8.90071800
_cell_angle_alpha   91.92688496
_cell_angle_beta   91.92688461
_cell_angle_gamma   91.92689130
_symmetry_Int_Tables_number   1
_chemical_formula_structural   Ba6CaUSnSbSe12
_chemical_formula_sum   'Ba6 Ca1 U1 Sn1 Sb1 Se12'
_cell_volume   703.91579008
_cell_formula_units_Z   1
loop_
 _symmetry_equiv_pos_site_id
 _symmetry_equiv_pos_as_xyz
  1  'x, y, z'
loop_
 _atom_site_type_symbol
 _atom_site_label
 _atom_site_symmetry_multiplicity
 _atom_site_fract_x
 _atom_site_fract_y
 _atom_site_fract_z
 _atom_site_occupancy
  Ba  Ba0  1  0.864441  0.625212  0.254212  1
  Ba  Ba1  1  0.254212  0.864441  0.625212  1
  Ba  Ba2  1  0.625212  0.254212  0.864441  1
  Ba  Ba3  1  0.746260  0.135625  0.372477  1
  Ba  Ba4  1  0.372477  0.746260  0.135625  1
  Ba  Ba5  1  0.135625  0.372477  0.746260  1
  Ca  Ca6  1  0.746608  0.746608  0.746608  1
  U  U7  1  0.000575  0.000575  0.000575  1
  Sn  Sn8  1  0.266844  0.266844  0.266844  1
  Sb  Sb9  1  0.506164  0.506164  0.506164  1
  Se  Se10  1  0.192193  0.548155  0.410107  1
  Se  Se11  1  0.410107  0.192193  0.548155  1
  Se  Se12  1  0.548155  0.410107  0.192193  1
  Se  Se13  1  0.918100  0.044422  0.702334  1
  Se  Se14  1  0.702334  0.918100  0.044422  1
  Se  Se15  1  0.044422  0.702334  0.918100  1
  Se  Se16  1  0.807046  0.453797  0.591136  1
  Se  Se17  1  0.591136  0.807046  0.453797  1
  Se  Se18  1  0.453797  0.591136  0.807046  1
  Se  Se19  1  0.072677  0.944882  0.296733  1
  Se  Se20  1  0.296733  0.072677  0.944882  1
  Se  Se21  1  0.944882  0.296733  0.072677  1
