# generated using pymatgen
data_Er6Al24Ir2PdRu4Pt
_symmetry_space_group_name_H-M   'P 1'
_cell_length_a   8.79231862
_cell_length_b   8.80185927
_cell_length_c   9.50480300
_cell_angle_alpha   89.86195272
_cell_angle_beta   90.23126074
_cell_angle_gamma   119.73106410
_symmetry_Int_Tables_number   1
_chemical_formula_structural   Er6Al24Ir2PdRu4Pt
_chemical_formula_sum   'Er6 Al24 Ir2 Pd1 Ru4 Pt1'
_cell_volume   638.73183891
_cell_formula_units_Z   1
loop_
 _symmetry_equiv_pos_site_id
 _symmetry_equiv_pos_as_xyz
  1  'x, y, z'
loop_
 _atom_site_type_symbol
 _atom_site_label
 _atom_site_symmetry_multiplicity
 _atom_site_fract_x
 _atom_site_fract_y
 _atom_site_fract_z
 _atom_site_occupancy
  Er  Er0  1  0.192944  0.385936  0.249765  1
  Er  Er1  1  0.807056  0.614064  0.750235  1
  Er  Er2  1  0.613030  0.808323  0.248428  1
  Er  Er3  1  0.386970  0.191677  0.751572  1
  Er  Er4  1  0.194830  0.808423  0.250726  1
  Er  Er5  1  0.805170  0.191577  0.749274  1
  Al  Al6  1  0.331583  0.668319  0.029310  1
  Al  Al7  1  0.668417  0.331681  0.970690  1
  Al  Al8  1  0.659844  0.329982  0.528160  1
  Al  Al9  1  0.340156  0.670018  0.471840  1
  Al  Al10  1  0.168439  0.324186  0.577818  1
  Al  Al11  1  0.831561  0.675814  0.422182  1
  Al  Al12  1  0.673435  0.836545  0.576183  1
  Al  Al13  1  0.841332  0.676431  0.077576  1
  Al  Al14  1  0.326565  0.163455  0.423817  1
  Al  Al15  1  0.158668  0.323569  0.922424  1
  Al  Al16  1  0.168280  0.843305  0.578413  1
  Al  Al17  1  0.324392  0.159435  0.077572  1
  Al  Al18  1  0.831720  0.156695  0.421587  1
  Al  Al19  1  0.675608  0.840565  0.922428  1
  Al  Al20  1  0.837336  0.162879  0.076793  1
  Al  Al21  1  0.162664  0.837121  0.923207  1
  Al  Al22  1  0.561025  0.123651  0.251141  1
  Al  Al23  1  0.438975  0.876349  0.748859  1
  Al  Al24  1  0.873477  0.437120  0.247262  1
  Al  Al25  1  0.126523  0.562880  0.752738  1
  Al  Al26  1  0.562023  0.437499  0.253448  1
  Al  Al27  1  0.437977  0.562501  0.746552  1
  Al  Al28  1  0.000194  0.000830  0.249928  1
  Al  Al29  1  0.999806  0.999170  0.750072  1
  Ir  Ir30  1  0.500000  0.000000  0.000000  1
  Ir  Ir31  1  0.000000  0.500000  0.000000  1
  Pd  Pd32  1  0.000000  0.500000  0.500000  1
  Ru  Ru33  1  0.500000  0.000000  0.500000  1
  Ru  Ru34  1  0.500000  0.500000  0.500000  1
  Ru  Ru35  1  0.000000  0.000000  0.000000  1
  Ru  Ru36  1  0.000000  0.000000  0.500000  1
  Pt  Pt37  1  0.500000  0.500000  0.000000  1
