# generated using pymatgen
data_Tm2HfZrPt2
_symmetry_space_group_name_H-M   'P 1'
_cell_length_a   4.65807900
_cell_length_b   7.02745300
_cell_length_c   8.21878600
_cell_angle_alpha   90.00000000
_cell_angle_beta   90.00000000
_cell_angle_gamma   90.00000000
_symmetry_Int_Tables_number   1
_chemical_formula_structural   Tm2HfZrPt2
_chemical_formula_sum   'Tm4 Hf2 Zr2 Pt4'
_cell_volume   269.03728522
_cell_formula_units_Z   2
loop_
 _symmetry_equiv_pos_site_id
 _symmetry_equiv_pos_as_xyz
  1  'x, y, z'
loop_
 _atom_site_type_symbol
 _atom_site_label
 _atom_site_symmetry_multiplicity
 _atom_site_fract_x
 _atom_site_fract_y
 _atom_site_fract_z
 _atom_site_occupancy
  Tm  Tm0  1  0.250000  0.982938  0.321638  1
  Tm  Tm1  1  0.250000  0.482938  0.178362  1
  Tm  Tm2  1  0.750000  0.015607  0.678178  1
  Tm  Tm3  1  0.750000  0.515607  0.821822  1
  Hf  Hf4  1  0.750000  0.147678  0.078746  1
  Hf  Hf5  1  0.750000  0.647678  0.421254  1
  Zr  Zr6  1  0.250000  0.851442  0.922051  1
  Zr  Zr7  1  0.250000  0.351442  0.577949  1
  Pt  Pt8  1  0.250000  0.233481  0.908537  1
  Pt  Pt9  1  0.250000  0.733481  0.591463  1
  Pt  Pt10  1  0.750000  0.768853  0.099250  1
  Pt  Pt11  1  0.750000  0.268853  0.400750  1
