# generated using pymatgen
data_Tb4Tm4Re3B24Rh
_symmetry_space_group_name_H-M   'P 1'
_cell_length_a   3.66447000
_cell_length_b   9.13631626
_cell_length_c   11.53080117
_cell_angle_alpha   90.13769123
_cell_angle_beta   90.00000000
_cell_angle_gamma   90.00000000
_symmetry_Int_Tables_number   1
_chemical_formula_structural   Tb4Tm4Re3B24Rh
_chemical_formula_sum   'Tb4 Tm4 Re3 B24 Rh1'
_cell_volume   386.04730441
_cell_formula_units_Z   1
loop_
 _symmetry_equiv_pos_site_id
 _symmetry_equiv_pos_as_xyz
  1  'x, y, z'
loop_
 _atom_site_type_symbol
 _atom_site_label
 _atom_site_symmetry_multiplicity
 _atom_site_fract_x
 _atom_site_fract_y
 _atom_site_fract_z
 _atom_site_occupancy
  Tb  Tb0  1  0.000000  0.318257  0.415518  1
  Tb  Tb1  1  0.000000  0.678419  0.590814  1
  Tb  Tb2  1  0.000000  0.826491  0.081767  1
  Tb  Tb3  1  0.000000  0.177883  0.912750  1
  Tm  Tm4  1  0.000000  0.943572  0.370201  1
  Tm  Tm5  1  0.000000  0.055786  0.628902  1
  Tm  Tm6  1  0.000000  0.441341  0.128776  1
  Tm  Tm7  1  0.000000  0.556618  0.871608  1
  Re  Re8  1  0.000000  0.361934  0.678562  1
  Re  Re9  1  0.000000  0.138980  0.180672  1
  Re  Re10  1  0.000000  0.861052  0.820155  1
  B  B11  1  0.500000  0.554347  0.433262  1
  B  B12  1  0.500000  0.446230  0.567089  1
  B  B13  1  0.500000  0.053916  0.067047  1
  B  B14  1  0.500000  0.946864  0.932128  1
  B  B15  1  0.500000  0.749919  0.419667  1
  B  B16  1  0.500000  0.249590  0.581367  1
  B  B17  1  0.500000  0.250296  0.081780  1
  B  B18  1  0.500000  0.750789  0.918460  1
  B  B19  1  0.500000  0.791407  0.265190  1
  B  B20  1  0.500000  0.208014  0.733979  1
  B  B21  1  0.500000  0.292204  0.235179  1
  B  B22  1  0.500000  0.707756  0.765951  1
  B  B23  1  0.500000  0.631041  0.183823  1
  B  B24  1  0.500000  0.370031  0.814506  1
  B  B25  1  0.500000  0.130059  0.315243  1
  B  B26  1  0.500000  0.869113  0.685036  1
  B  B27  1  0.500000  0.982707  0.212533  1
  B  B28  1  0.500000  0.017571  0.786336  1
  B  B29  1  0.500000  0.483174  0.287390  1
  B  B30  1  0.500000  0.518247  0.713014  1
  B  B31  1  0.500000  0.601999  0.028834  1
  B  B32  1  0.500000  0.399394  0.972774  1
  B  B33  1  0.500000  0.099646  0.471702  1
  B  B34  1  0.500000  0.896880  0.527526  1
  Rh  Rh35  1  0.000000  0.638474  0.320457  1
