# generated using pymatgen
data_Y2HoAl12PdRu3
_symmetry_space_group_name_H-M   'P 1'
_cell_length_a   8.83807792
_cell_length_b   8.81678792
_cell_length_c   9.57130864
_cell_angle_alpha   90.04807776
_cell_angle_beta   90.07583815
_cell_angle_gamma   119.63067469
_symmetry_Int_Tables_number   1
_chemical_formula_structural   Y2HoAl12PdRu3
_chemical_formula_sum   'Y4 Ho2 Al24 Pd2 Ru6'
_cell_volume   648.29609719
_cell_formula_units_Z   2
loop_
 _symmetry_equiv_pos_site_id
 _symmetry_equiv_pos_as_xyz
  1  'x, y, z'
loop_
 _atom_site_type_symbol
 _atom_site_label
 _atom_site_symmetry_multiplicity
 _atom_site_fract_x
 _atom_site_fract_y
 _atom_site_fract_z
 _atom_site_occupancy
  Y  Y0  1  0.190740  0.386193  0.252744  1
  Y  Y1  1  0.809260  0.613807  0.747256  1
  Y  Y2  1  0.615755  0.808531  0.251293  1
  Y  Y3  1  0.384245  0.191469  0.748707  1
  Ho  Ho4  1  0.191365  0.804942  0.252518  1
  Ho  Ho5  1  0.808635  0.195058  0.747482  1
  Al  Al6  1  0.327170  0.664342  0.024247  1
  Al  Al7  1  0.672830  0.335658  0.975753  1
  Al  Al8  1  0.666762  0.332919  0.521288  1
  Al  Al9  1  0.333238  0.667081  0.478712  1
  Al  Al10  1  0.163714  0.326875  0.576839  1
  Al  Al11  1  0.836286  0.673125  0.423161  1
  Al  Al12  1  0.673985  0.837231  0.575691  1
  Al  Al13  1  0.843010  0.675665  0.079267  1
  Al  Al14  1  0.326015  0.162769  0.424309  1
  Al  Al15  1  0.156990  0.324335  0.920733  1
  Al  Al16  1  0.163751  0.837362  0.576898  1
  Al  Al17  1  0.322279  0.161011  0.080571  1
  Al  Al18  1  0.836249  0.162638  0.423102  1
  Al  Al19  1  0.677721  0.838989  0.919429  1
  Al  Al20  1  0.842381  0.167602  0.078828  1
  Al  Al21  1  0.157619  0.832398  0.921172  1
  Al  Al22  1  0.561643  0.124333  0.252246  1
  Al  Al23  1  0.438357  0.875667  0.747754  1
  Al  Al24  1  0.877629  0.439418  0.248975  1
  Al  Al25  1  0.122371  0.560582  0.751025  1
  Al  Al26  1  0.562445  0.437474  0.252575  1
  Al  Al27  1  0.437555  0.562526  0.747425  1
  Al  Al28  1  0.998304  0.998995  0.250544  1
  Al  Al29  1  0.001696  0.001005  0.749456  1
  Pd  Pd30  1  0.500000  0.000000  0.000000  1
  Pd  Pd31  1  0.500000  0.500000  0.000000  1
  Ru  Ru32  1  0.000000  0.500000  0.000000  1
  Ru  Ru33  1  0.500000  0.000000  0.500000  1
  Ru  Ru34  1  0.000000  0.500000  0.500000  1
  Ru  Ru35  1  0.500000  0.500000  0.500000  1
  Ru  Ru36  1  0.000000  0.000000  0.000000  1
  Ru  Ru37  1  0.000000  0.000000  0.500000  1
