# generated using pymatgen
data_Ho(FeTc2)4
_symmetry_space_group_name_H-M   'P 1'
_cell_length_a   6.71974445
_cell_length_b   6.71974482
_cell_length_c   6.71974364
_cell_angle_alpha   97.27462526
_cell_angle_beta   97.27461676
_cell_angle_gamma   138.30959458
_symmetry_Int_Tables_number   1
_chemical_formula_structural   Ho(FeTc2)4
_chemical_formula_sum   'Ho1 Fe4 Tc8'
_cell_volume   188.60316392
_cell_formula_units_Z   1
loop_
 _symmetry_equiv_pos_site_id
 _symmetry_equiv_pos_as_xyz
  1  'x, y, z'
loop_
 _atom_site_type_symbol
 _atom_site_label
 _atom_site_symmetry_multiplicity
 _atom_site_fract_x
 _atom_site_fract_y
 _atom_site_fract_z
 _atom_site_occupancy
  Ho  Ho0  1  0.000000  0.000000  0.000000  1
  Fe  Fe1  1  0.000000  0.000000  0.500000  1
  Fe  Fe2  1  0.500000  0.000000  0.000000  1
  Fe  Fe3  1  0.000000  0.500000  0.000000  1
  Fe  Fe4  1  0.500000  0.500000  0.500000  1
  Tc  Tc5  1  0.643363  0.000000  0.643363  1
  Tc  Tc6  1  0.000000  0.643363  0.643363  1
  Tc  Tc7  1  0.000000  0.356637  0.356637  1
  Tc  Tc8  1  0.356637  0.000000  0.356637  1
  Tc  Tc9  1  0.716025  0.500000  0.216025  1
  Tc  Tc10  1  0.500000  0.716025  0.216025  1
  Tc  Tc11  1  0.500000  0.283975  0.783975  1
  Tc  Tc12  1  0.283975  0.500000  0.783975  1
