# generated using pymatgen
data_Ho17Er3Sn3Pb13
_symmetry_space_group_name_H-M   'P 1'
_cell_length_a   8.16691009
_cell_length_b   8.21414221
_cell_length_c   15.55825200
_cell_angle_alpha   90.00000000
_cell_angle_beta   90.00000000
_cell_angle_gamma   89.82717467
_symmetry_Int_Tables_number   1
_chemical_formula_structural   Ho17Er3Sn3Pb13
_chemical_formula_sum   'Ho17 Er3 Sn3 Pb13'
_cell_volume   1043.70753260
_cell_formula_units_Z   1
loop_
 _symmetry_equiv_pos_site_id
 _symmetry_equiv_pos_as_xyz
  1  'x, y, z'
loop_
 _atom_site_type_symbol
 _atom_site_label
 _atom_site_symmetry_multiplicity
 _atom_site_fract_x
 _atom_site_fract_y
 _atom_site_fract_z
 _atom_site_occupancy
  Ho  Ho0  1  0.379538  0.838927  0.876621  1
  Ho  Ho1  1  0.878818  0.661710  0.623310  1
  Ho  Ho2  1  0.618596  0.161772  0.377742  1
  Ho  Ho3  1  0.123347  0.340802  0.121199  1
  Ho  Ho4  1  0.618596  0.161772  0.122258  1
  Ho  Ho5  1  0.123347  0.340802  0.378801  1
  Ho  Ho6  1  0.379538  0.838927  0.623379  1
  Ho  Ho7  1  0.878818  0.661710  0.876690  1
  Ho  Ho8  1  0.538154  0.327331  0.898319  1
  Ho  Ho9  1  0.037632  0.172255  0.601713  1
  Ho  Ho10  1  0.462400  0.672256  0.399556  1
  Ho  Ho11  1  0.962266  0.824162  0.099883  1
  Ho  Ho12  1  0.462400  0.672256  0.100444  1
  Ho  Ho13  1  0.962266  0.824162  0.400117  1
  Ho  Ho14  1  0.538154  0.327331  0.601681  1
  Ho  Ho15  1  0.037632  0.172255  0.898287  1
  Ho  Ho16  1  0.211214  0.507536  0.750000  1
  Er  Er17  1  0.711441  0.992713  0.750000  1
  Er  Er18  1  0.787636  0.494441  0.250000  1
  Er  Er19  1  0.290787  0.006573  0.250000  1
  Sn  Sn20  1  0.574863  0.624036  0.750000  1
  Sn  Sn21  1  0.074438  0.876037  0.750000  1
  Sn  Sn22  1  0.425028  0.376002  0.250000  1
  Pb  Pb23  1  0.281453  0.031788  0.041657  1
  Pb  Pb24  1  0.781917  0.467157  0.458518  1
  Pb  Pb25  1  0.717786  0.967947  0.541915  1
  Pb  Pb26  1  0.217973  0.532953  0.957367  1
  Pb  Pb27  1  0.717786  0.967947  0.958085  1
  Pb  Pb28  1  0.217973  0.532953  0.542633  1
  Pb  Pb29  1  0.281453  0.031788  0.458343  1
  Pb  Pb30  1  0.781917  0.467157  0.041482  1
  Pb  Pb31  1  0.926809  0.125214  0.250000  1
  Pb  Pb32  1  0.349046  0.153439  0.750000  1
  Pb  Pb33  1  0.848134  0.346892  0.750000  1
  Pb  Pb34  1  0.650123  0.845523  0.250000  1
  Pb  Pb35  1  0.150717  0.653480  0.250000  1
