# generated using pymatgen
data_YbDy2TmNi8
_symmetry_space_group_name_H-M   'P 1'
_cell_length_a   5.01185400
_cell_length_b   5.01559447
_cell_length_c   8.69581280
_cell_angle_alpha   73.26681407
_cell_angle_beta   90.00000000
_cell_angle_gamma   119.97533324
_symmetry_Int_Tables_number   1
_chemical_formula_structural   YbDy2TmNi8
_chemical_formula_sum   'Yb1 Dy2 Tm1 Ni8'
_cell_volume   178.58679441
_cell_formula_units_Z   1
loop_
 _symmetry_equiv_pos_site_id
 _symmetry_equiv_pos_as_xyz
  1  'x, y, z'
loop_
 _atom_site_type_symbol
 _atom_site_label
 _atom_site_symmetry_multiplicity
 _atom_site_fract_x
 _atom_site_fract_y
 _atom_site_fract_z
 _atom_site_occupancy
  Yb  Yb0  1  0.873816  0.747633  0.378402  1
  Dy  Dy1  1  0.997653  0.995304  0.006700  1
  Dy  Dy2  1  0.501998  0.003996  0.493786  1
  Tm  Tm3  1  0.376172  0.752344  0.871661  1
  Ni  Ni4  1  0.436311  0.377451  0.186026  1
  Ni  Ni5  1  0.937595  0.373967  0.689013  1
  Ni  Ni6  1  0.436350  0.872701  0.186113  1
  Ni  Ni7  1  0.937452  0.874904  0.689487  1
  Ni  Ni8  1  0.187614  0.375229  0.436618  1
  Ni  Ni9  1  0.687526  0.375051  0.937151  1
  Ni  Ni10  1  0.941140  0.377451  0.186026  1
  Ni  Ni11  1  0.436372  0.373967  0.689013  1
