# generated using pymatgen
data_Tb4Y12CdIn3Ir4
_symmetry_space_group_name_H-M   'P 1'
_cell_length_a   9.69253578
_cell_length_b   9.70879718
_cell_length_c   9.70867882
_cell_angle_alpha   59.88684131
_cell_angle_beta   59.89568318
_cell_angle_gamma   59.89606178
_symmetry_Int_Tables_number   1
_chemical_formula_structural   Tb4Y12CdIn3Ir4
_chemical_formula_sum   'Tb4 Y12 Cd1 In3 Ir4'
_cell_volume   644.45268676
_cell_formula_units_Z   1
loop_
 _symmetry_equiv_pos_site_id
 _symmetry_equiv_pos_as_xyz
  1  'x, y, z'
loop_
 _atom_site_type_symbol
 _atom_site_label
 _atom_site_symmetry_multiplicity
 _atom_site_fract_x
 _atom_site_fract_y
 _atom_site_fract_z
 _atom_site_occupancy
  Tb  Tb0  1  0.349053  0.347787  0.347745  1
  Tb  Tb1  1  0.350342  0.351042  0.951284  1
  Tb  Tb2  1  0.350385  0.951232  0.351028  1
  Tb  Tb3  1  0.950914  0.350589  0.350534  1
  Y  Y4  1  0.808668  0.190882  0.190872  1
  Y  Y5  1  0.187226  0.810499  0.810479  1
  Y  Y6  1  0.190118  0.809535  0.189936  1
  Y  Y7  1  0.807692  0.189792  0.808302  1
  Y  Y8  1  0.190107  0.189936  0.809531  1
  Y  Y9  1  0.807681  0.808322  0.189779  1
  Y  Y10  1  0.940357  0.562081  0.562079  1
  Y  Y11  1  0.560468  0.939790  0.939788  1
  Y  Y12  1  0.563076  0.938510  0.560521  1
  Y  Y13  1  0.941354  0.560374  0.938634  1
  Y  Y14  1  0.563097  0.560535  0.938492  1
  Y  Y15  1  0.941355  0.938635  0.560370  1
  Cd  Cd16  1  0.253848  0.581413  0.581444  1
  In  In17  1  0.581896  0.583866  0.583903  1
  In  In18  1  0.581107  0.583042  0.251158  1
  In  In19  1  0.581079  0.251168  0.583048  1
  Ir  Ir20  1  0.142715  0.142272  0.142293  1
  Ir  Ir21  1  0.141648  0.141855  0.574865  1
  Ir  Ir22  1  0.141652  0.574830  0.141881  1
  Ir  Ir23  1  0.574165  0.142016  0.142038  1
