# generated using pymatgen
data_Sc6Ti4Al12FeCo5Ru
_symmetry_space_group_name_H-M   'P 1'
_cell_length_a   8.56270470
_cell_length_b   8.56270609
_cell_length_c   8.56270400
_cell_angle_alpha   60.00000806
_cell_angle_beta   60.00000271
_cell_angle_gamma   60.00000716
_symmetry_Int_Tables_number   1
_chemical_formula_structural   Sc6Ti4Al12FeCo5Ru
_chemical_formula_sum   'Sc6 Ti4 Al12 Fe1 Co5 Ru1'
_cell_volume   443.93357943
_cell_formula_units_Z   1
loop_
 _symmetry_equiv_pos_site_id
 _symmetry_equiv_pos_as_xyz
  1  'x, y, z'
loop_
 _atom_site_type_symbol
 _atom_site_label
 _atom_site_symmetry_multiplicity
 _atom_site_fract_x
 _atom_site_fract_y
 _atom_site_fract_z
 _atom_site_occupancy
  Sc  Sc0  1  0.705443  0.706351  0.293500  1
  Sc  Sc1  1  0.294706  0.706351  0.293500  1
  Sc  Sc2  1  0.705772  0.294228  0.294228  1
  Sc  Sc3  1  0.294706  0.293500  0.706351  1
  Sc  Sc4  1  0.705443  0.293500  0.706351  1
  Sc  Sc5  1  0.293603  0.706397  0.706397  1
  Ti  Ti6  1  0.882888  0.881325  0.352900  1
  Ti  Ti7  1  0.882888  0.352900  0.881325  1
  Ti  Ti8  1  0.352640  0.881153  0.881153  1
  Ti  Ti9  1  0.885054  0.881153  0.881153  1
  Al  Al10  1  0.118611  0.119777  0.642998  1
  Al  Al11  1  0.118611  0.642998  0.119777  1
  Al  Al12  1  0.643990  0.119904  0.119904  1
  Al  Al13  1  0.116201  0.119904  0.119904  1
  Al  Al14  1  0.670049  0.661283  0.998618  1
  Al  Al15  1  0.670049  0.998618  0.661283  1
  Al  Al16  1  0.999402  0.666552  0.666552  1
  Al  Al17  1  0.667493  0.666552  0.666552  1
  Al  Al18  1  0.330264  0.339408  0.000063  1
  Al  Al19  1  0.330264  0.000063  0.339408  1
  Al  Al20  1  0.998205  0.333985  0.333985  1
  Al  Al21  1  0.333824  0.333985  0.333985  1
  Fe  Fe22  1  0.000303  0.999697  0.999697  1
  Co  Co23  1  0.998413  0.997892  0.501750  1
  Co  Co24  1  0.501946  0.997892  0.501750  1
  Co  Co25  1  0.998225  0.501775  0.501775  1
  Co  Co26  1  0.501946  0.501750  0.997892  1
  Co  Co27  1  0.998413  0.501750  0.997892  1
  Ru  Ru28  1  0.500644  0.999356  0.999356  1
