# generated using pymatgen
data_Er7CoSn23Ru5
_symmetry_space_group_name_H-M   'P 1'
_cell_length_a   9.81629297
_cell_length_b   9.85441615
_cell_length_c   10.01476984
_cell_angle_alpha   89.99999970
_cell_angle_beta   90.00458223
_cell_angle_gamma   120.12855399
_symmetry_Int_Tables_number   1
_chemical_formula_structural   Er7CoSn23Ru5
_chemical_formula_sum   'Er7 Co1 Sn23 Ru5'
_cell_volume   837.88800072
_cell_formula_units_Z   1
loop_
 _symmetry_equiv_pos_site_id
 _symmetry_equiv_pos_as_xyz
  1  'x, y, z'
loop_
 _atom_site_type_symbol
 _atom_site_label
 _atom_site_symmetry_multiplicity
 _atom_site_fract_x
 _atom_site_fract_y
 _atom_site_fract_z
 _atom_site_occupancy
  Er  Er0  1  0.485679  0.514101  0.302716  1
  Er  Er1  1  0.513868  0.484657  0.695747  1
  Er  Er2  1  0.485679  0.971580  0.302716  1
  Er  Er3  1  0.513868  0.029210  0.695747  1
  Er  Er4  1  0.027826  0.513913  0.302283  1
  Er  Er5  1  0.968300  0.484150  0.696697  1
  Er  Er6  1  0.013439  0.006719  0.007209  1
  Co  Co7  1  0.657083  0.828541  0.797866  1
  Sn  Sn8  1  0.116052  0.882016  0.280567  1
  Sn  Sn9  1  0.877991  0.110537  0.725851  1
  Sn  Sn10  1  0.116052  0.234037  0.280567  1
  Sn  Sn11  1  0.877991  0.767455  0.725851  1
  Sn  Sn12  1  0.761168  0.880584  0.273785  1
  Sn  Sn13  1  0.237796  0.118898  0.724626  1
  Sn  Sn14  1  0.779063  0.221379  0.463737  1
  Sn  Sn15  1  0.220395  0.777183  0.536168  1
  Sn  Sn16  1  0.779063  0.557684  0.463737  1
  Sn  Sn17  1  0.220395  0.443211  0.536168  1
  Sn  Sn18  1  0.443407  0.221704  0.462822  1
  Sn  Sn19  1  0.560877  0.780438  0.541068  1
  Sn  Sn20  1  0.351255  0.998826  0.999857  1
  Sn  Sn21  1  0.653949  0.997070  0.994543  1
  Sn  Sn22  1  0.000657  0.348906  0.000173  1
  Sn  Sn23  1  0.000657  0.651752  0.000173  1
  Sn  Sn24  1  0.653949  0.656879  0.994543  1
  Sn  Sn25  1  0.351255  0.352429  0.999857  1
  Sn  Sn26  1  0.333935  0.666968  0.130292  1
  Sn  Sn27  1  0.665227  0.332613  0.868678  1
  Sn  Sn28  1  0.335466  0.667733  0.822523  1
  Sn  Sn29  1  0.666131  0.333065  0.174120  1
  Sn  Sn30  1  0.998071  0.999036  0.502018  1
  Ru  Ru31  1  0.828416  0.168480  0.201322  1
  Ru  Ru32  1  0.169379  0.829998  0.797117  1
  Ru  Ru33  1  0.828416  0.659937  0.201322  1
  Ru  Ru34  1  0.169379  0.339380  0.797117  1
  Ru  Ru35  1  0.337865  0.168934  0.200419  1
