# generated using pymatgen
data_Ti12V7Si16Os
_symmetry_space_group_name_H-M   'P 1'
_cell_length_a   6.53608731
_cell_length_b   6.54960829
_cell_length_c   12.02911930
_cell_angle_alpha   89.85064656
_cell_angle_beta   90.13086106
_cell_angle_gamma   89.79482247
_symmetry_Int_Tables_number   1
_chemical_formula_structural   Ti12V7Si16Os
_chemical_formula_sum   'Ti12 V7 Si16 Os1'
_cell_volume   514.94589661
_cell_formula_units_Z   1
loop_
 _symmetry_equiv_pos_site_id
 _symmetry_equiv_pos_as_xyz
  1  'x, y, z'
loop_
 _atom_site_type_symbol
 _atom_site_label
 _atom_site_symmetry_multiplicity
 _atom_site_fract_x
 _atom_site_fract_y
 _atom_site_fract_z
 _atom_site_occupancy
  Ti  Ti0  1  0.842132  0.003111  0.880070  1
  Ti  Ti1  1  0.004593  0.341850  0.221794  1
  Ti  Ti2  1  0.160269  0.502649  0.469464  1
  Ti  Ti3  1  0.835721  0.499680  0.969604  1
  Ti  Ti4  1  0.501490  0.160587  0.529032  1
  Ti  Ti5  1  0.498780  0.836611  0.031004  1
  Ti  Ti6  1  0.997741  0.662665  0.720926  1
  Ti  Ti7  1  0.342591  0.005540  0.778761  1
  Ti  Ti8  1  0.660017  0.997848  0.279434  1
  Ti  Ti9  1  0.331592  0.666166  0.247672  1
  Ti  Ti10  1  0.665117  0.331289  0.751496  1
  Ti  Ti11  1  0.833585  0.834210  0.499287  1
  V  V12  1  0.994456  0.154529  0.623671  1
  V  V13  1  0.347773  0.498342  0.869142  1
  V  V14  1  0.654059  0.506004  0.371848  1
  V  V15  1  0.499727  0.347893  0.131415  1
  V  V16  1  0.503685  0.653323  0.626913  1
  V  V17  1  0.005112  0.834113  0.121349  1
  V  V18  1  0.153860  0.996287  0.376721  1
  Si  Si19  1  0.045335  0.300936  0.815187  1
  Si  Si20  1  0.204377  0.534277  0.059997  1
  Si  Si21  1  0.798550  0.458233  0.563494  1
  Si  Si22  1  0.534420  0.204686  0.940947  1
  Si  Si23  1  0.456703  0.798575  0.435981  1
  Si  Si24  1  0.958120  0.702552  0.313289  1
  Si  Si25  1  0.294983  0.043777  0.184190  1
  Si  Si26  1  0.699866  0.957535  0.684882  1
  Si  Si27  1  0.290397  0.365969  0.672127  1
  Si  Si28  1  0.139353  0.791493  0.924633  1
  Si  Si29  1  0.866671  0.209584  0.423419  1
  Si  Si30  1  0.794345  0.132380  0.080059  1
  Si  Si31  1  0.208500  0.867826  0.576363  1
  Si  Si32  1  0.709806  0.633075  0.173961  1
  Si  Si33  1  0.366695  0.290723  0.326998  1
  Si  Si34  1  0.632088  0.706441  0.824368  1
  Os  Os35  1  0.167495  0.169242  0.000503  1
