# generated using pymatgen
data_Na(Co2Sn3)2
_symmetry_space_group_name_H-M   'P 1'
_cell_length_a   6.68019815
_cell_length_b   6.68019803
_cell_length_c   6.68019779
_cell_angle_alpha   119.74512858
_cell_angle_beta   119.74513412
_cell_angle_gamma   90.44201772
_symmetry_Int_Tables_number   1
_chemical_formula_structural   Na(Co2Sn3)2
_chemical_formula_sum   'Na1 Co4 Sn6'
_cell_volume   211.59667344
_cell_formula_units_Z   1
loop_
 _symmetry_equiv_pos_site_id
 _symmetry_equiv_pos_as_xyz
  1  'x, y, z'
loop_
 _atom_site_type_symbol
 _atom_site_label
 _atom_site_symmetry_multiplicity
 _atom_site_fract_x
 _atom_site_fract_y
 _atom_site_fract_z
 _atom_site_occupancy
  Na  Na0  1  0.000000  0.000000  0.000000  1
  Co  Co1  1  0.413117  0.413117  0.672980  1
  Co  Co2  1  0.740138  0.740138  0.327020  1
  Co  Co3  1  0.586883  0.259862  0.000000  1
  Co  Co4  1  0.259862  0.586883  0.000000  1
  Sn  Sn5  1  0.461402  0.461402  0.348415  1
  Sn  Sn6  1  0.112986  0.112986  0.651585  1
  Sn  Sn7  1  0.538598  0.887014  0.000000  1
  Sn  Sn8  1  0.887014  0.538598  0.000000  1
  Sn  Sn9  1  0.500000  0.000000  0.500000  1
  Sn  Sn10  1  0.000000  0.500000  0.500000  1
