# generated using pymatgen
data_SrMn3(AsO4)3
_symmetry_space_group_name_H-M   'P 1'
_cell_length_a   9.64047882
_cell_length_b   9.64127871
_cell_length_c   9.64136477
_cell_angle_alpha   137.69279625
_cell_angle_beta   112.50841159
_cell_angle_gamma   82.97201947
_symmetry_Int_Tables_number   1
_chemical_formula_structural   SrMn3(AsO4)3
_chemical_formula_sum   'Sr2 Mn6 As6 O24'
_cell_volume   538.29837185
_cell_formula_units_Z   2
loop_
 _symmetry_equiv_pos_site_id
 _symmetry_equiv_pos_as_xyz
  1  'x, y, z'
loop_
 _atom_site_type_symbol
 _atom_site_label
 _atom_site_symmetry_multiplicity
 _atom_site_fract_x
 _atom_site_fract_y
 _atom_site_fract_z
 _atom_site_occupancy
  Sr  Sr0  1  0.749971  0.839181  0.089208  1
  Sr  Sr1  1  0.250029  0.160819  0.910792  1
  Mn  Mn2  1  0.616681  0.616265  0.500142  1
  Mn  Mn3  1  0.883871  0.383714  0.000279  1
  Mn  Mn4  1  0.116129  0.616286  0.999721  1
  Mn  Mn5  1  0.383319  0.383735  0.499858  1
  Mn  Mn6  1  0.500000  0.000000  0.500000  1
  Mn  Mn7  1  0.000000  0.500000  0.500000  1
  As  As8  1  0.749933  0.324277  0.574325  1
  As  As9  1  0.250067  0.675723  0.425675  1
  As  As10  1  0.823691  0.823732  0.499999  1
  As  As11  1  0.676300  0.176245  0.999954  1
  As  As12  1  0.323700  0.823755  0.000046  1
  As  As13  1  0.176309  0.176268  0.500001  1
  O  O14  1  0.654580  0.083681  0.429141  1
  O  O15  1  0.345420  0.916319  0.570859  1
  O  O16  1  0.154608  0.725323  0.570738  1
  O  O17  1  0.845392  0.274677  0.429262  1
  O  O18  1  0.627365  0.487805  0.615305  1
  O  O19  1  0.127477  0.512175  0.139541  1
  O  O20  1  0.372635  0.512195  0.384695  1
  O  O21  1  0.872523  0.487825  0.860459  1
  O  O22  1  0.940648  0.076598  0.741455  1
  O  O23  1  0.664867  0.923352  0.864018  1
  O  O24  1  0.440611  0.699204  0.864016  1
  O  O25  1  0.164835  0.300834  0.741442  1
  O  O26  1  0.059352  0.923402  0.258545  1
  O  O27  1  0.335133  0.076648  0.135982  1
  O  O28  1  0.559389  0.300796  0.135984  1
  O  O29  1  0.835165  0.699166  0.258558  1
  O  O30  1  0.624624  0.795231  0.440811  1
  O  O31  1  0.645563  0.204745  0.829398  1
  O  O32  1  0.124615  0.683871  0.829350  1
  O  O33  1  0.145461  0.316119  0.440751  1
  O  O34  1  0.375376  0.204769  0.559189  1
  O  O35  1  0.354437  0.795255  0.170602  1
  O  O36  1  0.875385  0.316129  0.170650  1
  O  O37  1  0.854539  0.683881  0.559249  1
