# generated using pymatgen
data_NdDy2Mg3AgPb2
_symmetry_space_group_name_H-M   'P 1'
_cell_length_a   7.62850733
_cell_length_b   7.62850681
_cell_length_c   4.63117100
_cell_angle_alpha   90.00000000
_cell_angle_beta   90.00000000
_cell_angle_gamma   120.42037342
_symmetry_Int_Tables_number   1
_chemical_formula_structural   NdDy2Mg3AgPb2
_chemical_formula_sum   'Nd1 Dy2 Mg3 Ag1 Pb2'
_cell_volume   232.40489465
_cell_formula_units_Z   1
loop_
 _symmetry_equiv_pos_site_id
 _symmetry_equiv_pos_as_xyz
  1  'x, y, z'
loop_
 _atom_site_type_symbol
 _atom_site_label
 _atom_site_symmetry_multiplicity
 _atom_site_fract_x
 _atom_site_fract_y
 _atom_site_fract_z
 _atom_site_occupancy
  Nd  Nd0  1  0.415365  0.415365  0.500000  1
  Dy  Dy1  1  0.587987  0.001423  0.500000  1
  Dy  Dy2  1  0.001423  0.587987  0.500000  1
  Mg  Mg3  1  0.767387  0.767387  0.000000  1
  Mg  Mg4  1  0.232726  0.999570  0.000000  1
  Mg  Mg5  1  0.999570  0.232726  0.000000  1
  Ag  Ag6  1  0.993465  0.993465  0.500000  1
  Pb  Pb7  1  0.670411  0.331668  0.000000  1
  Pb  Pb8  1  0.331668  0.670411  0.000000  1
