# generated using pymatgen
data_Rb4Th6FeCl18
_symmetry_space_group_name_H-M   'P 1'
_cell_length_a   10.77943061
_cell_length_b   10.80495975
_cell_length_c   10.98448100
_cell_angle_alpha   117.86361633
_cell_angle_beta   100.08600915
_cell_angle_gamma   104.78777122
_symmetry_Int_Tables_number   1
_chemical_formula_structural   Rb4Th6FeCl18
_chemical_formula_sum   'Rb4 Th6 Fe1 Cl18'
_cell_volume   1026.66978131
_cell_formula_units_Z   1
loop_
 _symmetry_equiv_pos_site_id
 _symmetry_equiv_pos_as_xyz
  1  'x, y, z'
loop_
 _atom_site_type_symbol
 _atom_site_label
 _atom_site_symmetry_multiplicity
 _atom_site_fract_x
 _atom_site_fract_y
 _atom_site_fract_z
 _atom_site_occupancy
  Rb  Rb0  1  0.653244  0.540042  0.228431  1
  Rb  Rb1  1  0.346756  0.459958  0.771569  1
  Rb  Rb2  1  0.689604  0.230092  0.569044  1
  Rb  Rb3  1  0.310396  0.769908  0.430956  1
  Th  Th4  1  0.167618  0.065042  0.255273  1
  Th  Th5  1  0.832382  0.934958  0.744727  1
  Th  Th6  1  0.845998  0.138286  0.145743  1
  Th  Th7  1  0.154002  0.861714  0.854257  1
  Th  Th8  1  0.159566  0.266069  0.046913  1
  Th  Th9  1  0.840434  0.733931  0.953087  1
  Fe  Fe10  1  0.000000  0.000000  0.000000  1
  Cl  Cl11  1  0.013810  0.424592  0.204776  1
  Cl  Cl12  1  0.986190  0.575408  0.795224  1
  Cl  Cl13  1  0.338543  0.349380  0.318280  1
  Cl  Cl14  1  0.661457  0.650620  0.681720  1
  Cl  Cl15  1  0.347807  0.543583  0.106751  1
  Cl  Cl16  1  0.652193  0.456417  0.893249  1
  Cl  Cl17  1  0.004708  0.788676  0.217800  1
  Cl  Cl18  1  0.995292  0.211324  0.782200  1
  Cl  Cl19  1  0.700969  0.293426  0.305843  1
  Cl  Cl20  1  0.299031  0.706574  0.694157  1
  Cl  Cl21  1  0.324796  0.136054  0.899372  1
  Cl  Cl22  1  0.675204  0.863946  0.100628  1
  Cl  Cl23  1  0.016796  0.209753  0.417895  1
  Cl  Cl24  1  0.983204  0.790247  0.582105  1
  Cl  Cl25  1  0.324732  0.915765  0.112599  1
  Cl  Cl26  1  0.675268  0.084235  0.887401  1
  Cl  Cl27  1  0.351953  0.123256  0.515040  1
  Cl  Cl28  1  0.648047  0.876744  0.484960  1
