# generated using pymatgen
data_MnNb7Fe7Si14Mo
_symmetry_space_group_name_H-M   'P 1'
_cell_length_a   9.27322000
_cell_length_b   9.27073525
_cell_length_c   9.27149558
_cell_angle_alpha   94.12230602
_cell_angle_beta   94.13658555
_cell_angle_gamma   148.86899131
_symmetry_Int_Tables_number   1
_chemical_formula_structural   MnNb7Fe7Si14Mo
_chemical_formula_sum   'Mn1 Nb7 Fe7 Si14 Mo1'
_cell_volume   396.96575059
_cell_formula_units_Z   1
loop_
 _symmetry_equiv_pos_site_id
 _symmetry_equiv_pos_as_xyz
  1  'x, y, z'
loop_
 _atom_site_type_symbol
 _atom_site_label
 _atom_site_symmetry_multiplicity
 _atom_site_fract_x
 _atom_site_fract_y
 _atom_site_fract_z
 _atom_site_occupancy
  Mn  Mn0  1  0.399434  0.899434  0.798868  1
  Nb  Nb1  1  0.866313  0.866313  0.732627  1
  Nb  Nb2  1  0.863135  0.132811  0.998060  1
  Nb  Nb3  1  0.134925  0.865249  0.998060  1
  Nb  Nb4  1  0.501616  0.691613  0.192810  1
  Nb  Nb5  1  0.499088  0.309936  0.809100  1
  Nb  Nb6  1  0.310013  0.499165  0.809100  1
  Nb  Nb7  1  0.691194  0.501198  0.192810  1
  Fe  Fe8  1  0.101865  0.601865  0.203732  1
  Fe  Fe9  1  0.099058  0.898685  0.498580  1
  Fe  Fe10  1  0.399522  0.599895  0.498580  1
  Fe  Fe11  1  0.598287  0.398807  0.499010  1
  Fe  Fe12  1  0.900724  0.100203  0.499010  1
  Fe  Fe13  1  0.899614  0.399614  0.799229  1
  Fe  Fe14  1  0.600712  0.100712  0.201425  1
  Si  Si15  1  0.290478  0.290478  0.580957  1
  Si  Si16  1  0.708474  0.708474  0.416947  1
  Si  Si17  1  0.710831  0.296531  0.001802  1
  Si  Si18  1  0.290971  0.705271  0.001802  1
  Si  Si19  1  0.001068  0.291921  0.294613  1
  Si  Si20  1  0.995682  0.701529  0.702567  1
  Si  Si21  1  0.706885  0.001038  0.702567  1
  Si  Si22  1  0.293545  0.002693  0.294613  1
  Si  Si23  1  0.505679  0.910753  0.407604  1
  Si  Si24  1  0.500397  0.096329  0.591209  1
  Si  Si25  1  0.090812  0.494880  0.591209  1
  Si  Si26  1  0.901925  0.496852  0.407604  1
  Si  Si27  1  0.752647  0.752693  0.003270  1
  Si  Si28  1  0.250623  0.250578  0.003270  1
  Mo  Mo29  1  0.134482  0.134482  0.268963  1
