# generated using pymatgen
data_Ce2TaB2Ru5
_symmetry_space_group_name_H-M   'P 1'
_cell_length_a   9.79843700
_cell_length_b   9.79843700
_cell_length_c   3.12254700
_cell_angle_alpha   90.00000000
_cell_angle_beta   90.00000000
_cell_angle_gamma   90.00000000
_symmetry_Int_Tables_number   1
_chemical_formula_structural   Ce2TaB2Ru5
_chemical_formula_sum   'Ce4 Ta2 B4 Ru10'
_cell_volume   299.79376291
_cell_formula_units_Z   2
loop_
 _symmetry_equiv_pos_site_id
 _symmetry_equiv_pos_as_xyz
  1  'x, y, z'
loop_
 _atom_site_type_symbol
 _atom_site_label
 _atom_site_symmetry_multiplicity
 _atom_site_fract_x
 _atom_site_fract_y
 _atom_site_fract_z
 _atom_site_occupancy
  Ce  Ce0  1  0.824514  0.675486  0.000000  1
  Ce  Ce1  1  0.175486  0.324514  0.000000  1
  Ce  Ce2  1  0.324514  0.824514  0.000000  1
  Ce  Ce3  1  0.675486  0.175486  0.000000  1
  Ta  Ta4  1  0.500000  0.500000  0.000000  1
  Ta  Ta5  1  0.000000  0.000000  0.000000  1
  B  B6  1  0.621043  0.878957  0.000000  1
  B  B7  1  0.378957  0.121043  0.000000  1
  B  B8  1  0.121043  0.621043  0.000000  1
  B  B9  1  0.878957  0.378957  0.000000  1
  Ru  Ru10  1  0.570684  0.719570  0.500000  1
  Ru  Ru11  1  0.429316  0.280430  0.500000  1
  Ru  Ru12  1  0.070684  0.780430  0.500000  1
  Ru  Ru13  1  0.929316  0.219570  0.500000  1
  Ru  Ru14  1  0.280430  0.570684  0.500000  1
  Ru  Ru15  1  0.719570  0.429316  0.500000  1
  Ru  Ru16  1  0.219570  0.070684  0.500000  1
  Ru  Ru17  1  0.780430  0.929316  0.500000  1
  Ru  Ru18  1  0.500000  0.000000  0.500000  1
  Ru  Ru19  1  0.000000  0.500000  0.500000  1
