# generated using pymatgen
data_Th2TiAl19Re4
_symmetry_space_group_name_H-M   'P 1'
_cell_length_a   6.96097108
_cell_length_b   6.96097186
_cell_length_c   9.26753664
_cell_angle_alpha   90.07626839
_cell_angle_beta   89.92373961
_cell_angle_gamma   97.29806862
_symmetry_Int_Tables_number   1
_chemical_formula_structural   Th2TiAl19Re4
_chemical_formula_sum   'Th2 Ti1 Al19 Re4'
_cell_volume   445.42098020
_cell_formula_units_Z   1
loop_
 _symmetry_equiv_pos_site_id
 _symmetry_equiv_pos_as_xyz
  1  'x, y, z'
loop_
 _atom_site_type_symbol
 _atom_site_label
 _atom_site_symmetry_multiplicity
 _atom_site_fract_x
 _atom_site_fract_y
 _atom_site_fract_z
 _atom_site_occupancy
  Th  Th0  1  0.870611  0.128222  0.746692  1
  Th  Th1  1  0.128222  0.870611  0.253308  1
  Ti  Ti2  1  0.764154  0.764154  0.000000  1
  Al  Al3  1  0.518233  0.782382  0.755366  1
  Al  Al4  1  0.481296  0.216984  0.251843  1
  Al  Al5  1  0.597010  0.861178  0.247994  1
  Al  Al6  1  0.160602  0.842512  0.602301  1
  Al  Al7  1  0.227550  0.227550  0.000000  1
  Al  Al8  1  0.141189  0.404246  0.251054  1
  Al  Al9  1  0.627705  0.379638  0.959948  1
  Al  Al10  1  0.845016  0.149807  0.098183  1
  Al  Al11  1  0.376826  0.619912  0.458067  1
  Al  Al12  1  0.149807  0.845016  0.901817  1
  Al  Al13  1  0.216984  0.481296  0.748157  1
  Al  Al14  1  0.379638  0.627705  0.040052  1
  Al  Al15  1  0.842512  0.160602  0.397699  1
  Al  Al16  1  0.619912  0.376826  0.541933  1
  Al  Al17  1  0.404246  0.141189  0.748946  1
  Al  Al18  1  0.782382  0.518233  0.244634  1
  Al  Al19  1  0.774084  0.774084  0.500000  1
  Al  Al20  1  0.227739  0.227739  0.500000  1
  Al  Al21  1  0.861178  0.597010  0.752006  1
  Re  Re22  1  0.997129  0.502279  0.500375  1
  Re  Re23  1  0.007872  0.495825  0.999944  1
  Re  Re24  1  0.495825  0.007872  0.000056  1
  Re  Re25  1  0.502279  0.997129  0.499625  1
