# generated using pymatgen
data_NdDyHo4(Co3P2)6
_symmetry_space_group_name_H-M   'P 1'
_cell_length_a   3.70169500
_cell_length_b   10.52446500
_cell_length_c   12.18946700
_cell_angle_alpha   90.00000000
_cell_angle_beta   90.00000000
_cell_angle_gamma   90.00000000
_symmetry_Int_Tables_number   1
_chemical_formula_structural   NdDyHo4(Co3P2)6
_chemical_formula_sum   'Nd1 Dy1 Ho4 Co18 P12'
_cell_volume   474.88163711
_cell_formula_units_Z   1
loop_
 _symmetry_equiv_pos_site_id
 _symmetry_equiv_pos_as_xyz
  1  'x, y, z'
loop_
 _atom_site_type_symbol
 _atom_site_label
 _atom_site_symmetry_multiplicity
 _atom_site_fract_x
 _atom_site_fract_y
 _atom_site_fract_z
 _atom_site_occupancy
  Nd  Nd0  1  0.000000  0.500000  0.522201  1
  Dy  Dy1  1  0.500000  0.000000  0.478451  1
  Ho  Ho2  1  0.500000  0.818031  0.205659  1
  Ho  Ho3  1  0.500000  0.181969  0.205659  1
  Ho  Ho4  1  0.000000  0.682850  0.795001  1
  Ho  Ho5  1  0.000000  0.317150  0.795001  1
  Co  Co6  1  0.000000  0.500000  0.986882  1
  Co  Co7  1  0.500000  0.000000  0.013847  1
  Co  Co8  1  0.500000  0.294306  0.429595  1
  Co  Co9  1  0.500000  0.705694  0.429595  1
  Co  Co10  1  0.000000  0.200423  0.570230  1
  Co  Co11  1  0.000000  0.799577  0.570230  1
  Co  Co12  1  0.500000  0.880001  0.711130  1
  Co  Co13  1  0.500000  0.119999  0.711130  1
  Co  Co14  1  0.000000  0.621422  0.288279  1
  Co  Co15  1  0.000000  0.378578  0.288279  1
  Co  Co16  1  0.500000  0.332974  0.994857  1
  Co  Co17  1  0.500000  0.667026  0.994857  1
  Co  Co18  1  0.000000  0.166388  0.005044  1
  Co  Co19  1  0.000000  0.833612  0.005044  1
  Co  Co20  1  0.500000  0.500000  0.156586  1
  Co  Co21  1  0.000000  0.000000  0.841509  1
  Co  Co22  1  0.500000  0.500000  0.706254  1
  Co  Co23  1  0.000000  0.000000  0.295790  1
  P  P24  1  0.500000  0.306999  0.617500  1
  P  P25  1  0.500000  0.693001  0.617500  1
  P  P26  1  0.000000  0.188847  0.383671  1
  P  P27  1  0.000000  0.811153  0.383671  1
  P  P28  1  0.500000  0.500000  0.883787  1
  P  P29  1  0.000000  0.000000  0.117189  1
  P  P30  1  0.500000  0.847350  0.893382  1
  P  P31  1  0.500000  0.152650  0.893382  1
  P  P32  1  0.000000  0.653809  0.106267  1
  P  P33  1  0.000000  0.346191  0.106267  1
  P  P34  1  0.500000  0.500000  0.339604  1
  P  P35  1  0.000000  0.000000  0.656672  1
