# generated using pymatgen
data_ScPa6Co17P12
_symmetry_space_group_name_H-M   'P 1'
_cell_length_a   3.78116800
_cell_length_b   10.47656300
_cell_length_c   12.34504900
_cell_angle_alpha   90.00000000
_cell_angle_beta   90.00000000
_cell_angle_gamma   90.00000000
_symmetry_Int_Tables_number   1
_chemical_formula_structural   ScPa6Co17P12
_chemical_formula_sum   'Sc1 Pa6 Co17 P12'
_cell_volume   489.03238570
_cell_formula_units_Z   1
loop_
 _symmetry_equiv_pos_site_id
 _symmetry_equiv_pos_as_xyz
  1  'x, y, z'
loop_
 _atom_site_type_symbol
 _atom_site_label
 _atom_site_symmetry_multiplicity
 _atom_site_fract_x
 _atom_site_fract_y
 _atom_site_fract_z
 _atom_site_occupancy
  Sc  Sc0  1  0.500000  0.500000  0.147327  1
  Pa  Pa1  1  0.000000  0.500000  0.528472  1
  Pa  Pa2  1  0.500000  0.000000  0.477134  1
  Pa  Pa3  1  0.500000  0.819225  0.210719  1
  Pa  Pa4  1  0.500000  0.180775  0.210719  1
  Pa  Pa5  1  0.000000  0.684590  0.794561  1
  Pa  Pa6  1  0.000000  0.315410  0.794561  1
  Co  Co7  1  0.000000  0.500000  0.980700  1
  Co  Co8  1  0.500000  0.000000  0.022110  1
  Co  Co9  1  0.500000  0.300710  0.432869  1
  Co  Co10  1  0.500000  0.699290  0.432869  1
  Co  Co11  1  0.000000  0.196906  0.571514  1
  Co  Co12  1  0.000000  0.803094  0.571514  1
  Co  Co13  1  0.500000  0.878993  0.712793  1
  Co  Co14  1  0.500000  0.121007  0.712793  1
  Co  Co15  1  0.000000  0.625360  0.289051  1
  Co  Co16  1  0.000000  0.374640  0.289051  1
  Co  Co17  1  0.500000  0.326492  0.987055  1
  Co  Co18  1  0.500000  0.673508  0.987055  1
  Co  Co19  1  0.000000  0.162171  0.002092  1
  Co  Co20  1  0.000000  0.837829  0.002092  1
  Co  Co21  1  0.000000  0.000000  0.837123  1
  Co  Co22  1  0.500000  0.500000  0.701156  1
  Co  Co23  1  0.000000  0.000000  0.300661  1
  P  P24  1  0.500000  0.307751  0.615310  1
  P  P25  1  0.500000  0.692249  0.615310  1
  P  P26  1  0.000000  0.191003  0.389400  1
  P  P27  1  0.000000  0.808997  0.389400  1
  P  P28  1  0.500000  0.500000  0.881821  1
  P  P29  1  0.000000  0.000000  0.119005  1
  P  P30  1  0.500000  0.855913  0.893152  1
  P  P31  1  0.500000  0.144087  0.893152  1
  P  P32  1  0.000000  0.662726  0.098458  1
  P  P33  1  0.000000  0.337274  0.098458  1
  P  P34  1  0.500000  0.500000  0.353010  1
  P  P35  1  0.000000  0.000000  0.657529  1
