# generated using pymatgen
data_Y4Lu4Tc(B8Os)3
_symmetry_space_group_name_H-M   'P 1'
_cell_length_a   3.63094000
_cell_length_b   9.08541256
_cell_length_c   11.48468701
_cell_angle_alpha   89.95217554
_cell_angle_beta   90.00000000
_cell_angle_gamma   90.00000000
_symmetry_Int_Tables_number   1
_chemical_formula_structural   Y4Lu4Tc(B8Os)3
_chemical_formula_sum   'Y4 Lu4 Tc1 B24 Os3'
_cell_volume   378.86347477
_cell_formula_units_Z   1
loop_
 _symmetry_equiv_pos_site_id
 _symmetry_equiv_pos_as_xyz
  1  'x, y, z'
loop_
 _atom_site_type_symbol
 _atom_site_label
 _atom_site_symmetry_multiplicity
 _atom_site_fract_x
 _atom_site_fract_y
 _atom_site_fract_z
 _atom_site_occupancy
  Y  Y0  1  0.000000  0.323058  0.413302  1
  Y  Y1  1  0.000000  0.678323  0.583347  1
  Y  Y2  1  0.000000  0.819385  0.087636  1
  Y  Y3  1  0.000000  0.178612  0.915089  1
  Lu  Lu4  1  0.000000  0.942747  0.372409  1
  Lu  Lu5  1  0.000000  0.056801  0.627563  1
  Lu  Lu6  1  0.000000  0.444660  0.128423  1
  Lu  Lu7  1  0.000000  0.556455  0.872084  1
  Tc  Tc8  1  0.000000  0.638272  0.320085  1
  B  B9  1  0.500000  0.553570  0.432606  1
  B  B10  1  0.500000  0.445870  0.567631  1
  B  B11  1  0.500000  0.054204  0.067536  1
  B  B12  1  0.500000  0.945564  0.932808  1
  B  B13  1  0.500000  0.749932  0.418618  1
  B  B14  1  0.500000  0.250309  0.581261  1
  B  B15  1  0.500000  0.250039  0.081147  1
  B  B16  1  0.500000  0.749914  0.918806  1
  B  B17  1  0.500000  0.791989  0.265657  1
  B  B18  1  0.500000  0.208317  0.734444  1
  B  B19  1  0.500000  0.291618  0.233861  1
  B  B20  1  0.500000  0.708691  0.765527  1
  B  B21  1  0.500000  0.630197  0.184823  1
  B  B22  1  0.500000  0.369560  0.815654  1
  B  B23  1  0.500000  0.130215  0.315093  1
  B  B24  1  0.500000  0.870045  0.684489  1
  B  B25  1  0.500000  0.982330  0.213489  1
  B  B26  1  0.500000  0.017568  0.786930  1
  B  B27  1  0.500000  0.481910  0.286558  1
  B  B28  1  0.500000  0.517377  0.713454  1
  B  B29  1  0.500000  0.602456  0.027699  1
  B  B30  1  0.500000  0.397262  0.971633  1
  B  B31  1  0.500000  0.103087  0.471876  1
  B  B32  1  0.500000  0.898074  0.528523  1
  Os  Os33  1  0.000000  0.361645  0.680347  1
  Os  Os34  1  0.000000  0.138053  0.179295  1
  Os  Os35  1  0.000000  0.861889  0.820294  1
