# generated using pymatgen
data_Ca7MnNbVN9
_symmetry_space_group_name_H-M   'P 1'
_cell_length_a   6.08505421
_cell_length_b   10.02809000
_cell_length_c   9.06639402
_cell_angle_alpha   90.00000000
_cell_angle_beta   92.03907530
_cell_angle_gamma   90.00000000
_symmetry_Int_Tables_number   1
_chemical_formula_structural   Ca7MnNbVN9
_chemical_formula_sum   'Ca14 Mn2 Nb2 V2 N18'
_cell_volume   552.89438416
_cell_formula_units_Z   2
loop_
 _symmetry_equiv_pos_site_id
 _symmetry_equiv_pos_as_xyz
  1  'x, y, z'
loop_
 _atom_site_type_symbol
 _atom_site_label
 _atom_site_symmetry_multiplicity
 _atom_site_fract_x
 _atom_site_fract_y
 _atom_site_fract_z
 _atom_site_occupancy
  Ca  Ca0  1  0.073187  0.418293  0.170961  1
  Ca  Ca1  1  0.926813  0.918292  0.829039  1
  Ca  Ca2  1  0.926813  0.581708  0.829039  1
  Ca  Ca3  1  0.073187  0.081708  0.170961  1
  Ca  Ca4  1  0.246910  0.919466  0.508908  1
  Ca  Ca5  1  0.753090  0.419466  0.491092  1
  Ca  Ca6  1  0.753090  0.080534  0.491092  1
  Ca  Ca7  1  0.246910  0.580534  0.508908  1
  Ca  Ca8  1  0.576940  0.933786  0.162002  1
  Ca  Ca9  1  0.423060  0.433786  0.837998  1
  Ca  Ca10  1  0.423060  0.066214  0.837998  1
  Ca  Ca11  1  0.576940  0.566214  0.162002  1
  Ca  Ca12  1  0.912673  0.250000  0.798335  1
  Ca  Ca13  1  0.087327  0.750000  0.201665  1
  Mn  Mn14  1  0.457773  0.250000  0.281855  1
  Mn  Mn15  1  0.542227  0.750000  0.718145  1
  Nb  Nb16  1  0.282613  0.250000  0.559800  1
  Nb  Nb17  1  0.717387  0.750000  0.440200  1
  V  V18  1  0.669381  0.250000  0.067833  1
  V  V19  1  0.330619  0.750000  0.932167  1
  N  N20  1  0.113902  0.401754  0.658433  1
  N  N21  1  0.886098  0.901754  0.341567  1
  N  N22  1  0.886098  0.598246  0.341567  1
  N  N23  1  0.113902  0.098246  0.658433  1
  N  N24  1  0.232995  0.903556  0.018509  1
  N  N25  1  0.767005  0.403556  0.981491  1
  N  N26  1  0.767005  0.096444  0.981491  1
  N  N27  1  0.232995  0.596444  0.018509  1
  N  N28  1  0.363578  0.394141  0.373271  1
  N  N29  1  0.636422  0.894141  0.626729  1
  N  N30  1  0.636422  0.605859  0.626729  1
  N  N31  1  0.363578  0.105859  0.373271  1
  N  N32  1  0.359690  0.250000  0.069331  1
  N  N33  1  0.640310  0.750000  0.930669  1
  N  N34  1  0.555776  0.250000  0.669379  1
  N  N35  1  0.444224  0.750000  0.330621  1
  N  N36  1  0.770061  0.250000  0.269387  1
  N  N37  1  0.229939  0.750000  0.730613  1
