# generated using pymatgen
data_YHo3ErP12Ru19
_symmetry_space_group_name_H-M   'P 1'
_cell_length_a   12.52726201
_cell_length_b   12.52523039
_cell_length_c   3.97723000
_cell_angle_alpha   90.00000000
_cell_angle_beta   90.00000000
_cell_angle_gamma   119.99217754
_symmetry_Int_Tables_number   1
_chemical_formula_structural   YHo3ErP12Ru19
_chemical_formula_sum   'Y1 Ho3 Er1 P12 Ru19'
_cell_volume   540.48973460
_cell_formula_units_Z   1
loop_
 _symmetry_equiv_pos_site_id
 _symmetry_equiv_pos_as_xyz
  1  'x, y, z'
loop_
 _atom_site_type_symbol
 _atom_site_label
 _atom_site_symmetry_multiplicity
 _atom_site_fract_x
 _atom_site_fract_y
 _atom_site_fract_z
 _atom_site_occupancy
  Y  Y0  1  0.999998  0.183462  0.500000  1
  Ho  Ho1  1  0.183347  0.000021  0.500000  1
  Ho  Ho2  1  0.666673  0.333436  0.000000  1
  Ho  Ho3  1  0.333338  0.666758  0.000000  1
  Er  Er4  1  0.816654  0.816676  0.500000  1
  P  P5  1  0.999925  0.815300  0.000000  1
  P  P6  1  0.184631  0.184249  0.000000  1
  P  P7  1  0.815361  0.999542  0.000000  1
  P  P8  1  0.693506  0.171539  0.500000  1
  P  P9  1  0.828435  0.522150  0.500000  1
  P  P10  1  0.478158  0.306502  0.500000  1
  P  P11  1  0.171555  0.693727  0.500000  1
  P  P12  1  0.521844  0.828347  0.500000  1
  P  P13  1  0.306507  0.478058  0.500000  1
  P  P14  1  0.000001  0.372748  0.000000  1
  P  P15  1  0.627680  0.627646  0.000000  1
  P  P16  1  0.372380  0.999968  0.000000  1
  Ru  Ru17  1  0.000001  0.554536  0.000000  1
  Ru  Ru18  1  0.445868  0.445644  0.000000  1
  Ru  Ru19  1  0.554138  0.999782  0.000000  1
  Ru  Ru20  1  0.999932  0.716956  0.500000  1
  Ru  Ru21  1  0.283547  0.283280  0.500000  1
  Ru  Ru22  1  0.716510  0.999666  0.500000  1
  Ru  Ru23  1  0.807066  0.184756  0.000000  1
  Ru  Ru24  1  0.815113  0.623069  0.000000  1
  Ru  Ru25  1  0.377217  0.192167  0.000000  1
  Ru  Ru26  1  0.184858  0.807779  0.000000  1
  Ru  Ru27  1  0.622942  0.814929  0.000000  1
  Ru  Ru28  1  0.192933  0.377696  0.000000  1
  Ru  Ru29  1  0.873836  0.366058  0.500000  1
  Ru  Ru30  1  0.634242  0.508099  0.500000  1
  Ru  Ru31  1  0.492097  0.126194  0.500000  1
  Ru  Ru32  1  0.365794  0.873861  0.500000  1
  Ru  Ru33  1  0.507943  0.634133  0.500000  1
  Ru  Ru34  1  0.126170  0.492231  0.500000  1
  Ru  Ru35  1  0.999796  0.999040  0.000000  1
