# generated using pymatgen
data_Pr5Ga2P10Ir19
_symmetry_space_group_name_H-M   'P 1'
_cell_length_a   12.93835387
_cell_length_b   12.85773758
_cell_length_c   4.04018900
_cell_angle_alpha   90.00000000
_cell_angle_beta   90.00000000
_cell_angle_gamma   120.12474632
_symmetry_Int_Tables_number   1
_chemical_formula_structural   Pr5Ga2P10Ir19
_chemical_formula_sum   'Pr5 Ga2 P10 Ir19'
_cell_volume   581.33785416
_cell_formula_units_Z   1
loop_
 _symmetry_equiv_pos_site_id
 _symmetry_equiv_pos_as_xyz
  1  'x, y, z'
loop_
 _atom_site_type_symbol
 _atom_site_label
 _atom_site_symmetry_multiplicity
 _atom_site_fract_x
 _atom_site_fract_y
 _atom_site_fract_z
 _atom_site_occupancy
  Pr  Pr0  1  0.002422  0.812917  0.500000  1
  Pr  Pr1  1  0.182568  0.186226  0.500000  1
  Pr  Pr2  1  0.815039  0.000091  0.500000  1
  Pr  Pr3  1  0.335097  0.666554  0.000000  1
  Pr  Pr4  1  0.665664  0.332840  0.000000  1
  Ga  Ga5  1  0.518058  0.679131  0.500000  1
  Ga  Ga6  1  0.321634  0.837723  0.500000  1
  P  P7  1  0.995603  0.180062  0.000000  1
  P  P8  1  0.823024  0.817580  0.000000  1
  P  P9  1  0.181618  0.000733  0.000000  1
  P  P10  1  0.169702  0.481322  0.500000  1
  P  P11  1  0.479065  0.173462  0.500000  1
  P  P12  1  0.693609  0.519622  0.500000  1
  P  P13  1  0.824285  0.307336  0.500000  1
  P  P14  1  0.004601  0.639787  0.000000  1
  P  P15  1  0.360763  0.365756  0.000000  1
  P  P16  1  0.634873  0.993493  0.000000  1
  Ir  Ir17  1  0.994028  0.285224  0.500000  1
  Ir  Ir18  1  0.726175  0.715226  0.500000  1
  Ir  Ir19  1  0.283325  0.009790  0.500000  1
  Ir  Ir20  1  0.636799  0.808485  0.000000  1
  Ir  Ir21  1  0.190687  0.820510  0.000000  1
  Ir  Ir22  1  0.169295  0.377970  0.000000  1
  Ir  Ir23  1  0.379061  0.186668  0.000000  1
  Ir  Ir24  1  0.805851  0.619035  0.000000  1
  Ir  Ir25  1  0.814137  0.193572  0.000000  1
  Ir  Ir26  1  0.531509  0.884148  0.500000  1
  Ir  Ir27  1  0.122393  0.631495  0.500000  1
  Ir  Ir28  1  0.347975  0.468167  0.500000  1
  Ir  Ir29  1  0.496795  0.366602  0.500000  1
  Ir  Ir30  1  0.868890  0.504927  0.500000  1
  Ir  Ir31  1  0.634300  0.133398  0.500000  1
  Ir  Ir32  1  0.001320  0.002055  0.000000  1
  Ir  Ir33  1  0.992756  0.455952  0.000000  1
  Ir  Ir34  1  0.539074  0.544643  0.000000  1
  Ir  Ir35  1  0.458008  0.997496  0.000000  1
