# generated using pymatgen
data_Lu2Pa(ZnPt)3
_symmetry_space_group_name_H-M   'P 1'
_cell_length_a   7.26952884
_cell_length_b   7.33211247
_cell_length_c   3.77607300
_cell_angle_alpha   90.00000000
_cell_angle_beta   90.00000000
_cell_angle_gamma   120.28519758
_symmetry_Int_Tables_number   1
_chemical_formula_structural   Lu2Pa(ZnPt)3
_chemical_formula_sum   'Lu2 Pa1 Zn3 Pt3'
_cell_volume   173.80053747
_cell_formula_units_Z   1
loop_
 _symmetry_equiv_pos_site_id
 _symmetry_equiv_pos_as_xyz
  1  'x, y, z'
loop_
 _atom_site_type_symbol
 _atom_site_label
 _atom_site_symmetry_multiplicity
 _atom_site_fract_x
 _atom_site_fract_y
 _atom_site_fract_z
 _atom_site_occupancy
  Lu  Lu0  1  0.601631  0.003099  0.500000  1
  Lu  Lu1  1  0.398369  0.401468  0.500000  1
  Pa  Pa2  1  0.000000  0.592946  0.500000  1
  Zn  Zn3  1  0.000000  0.243813  0.000000  1
  Zn  Zn4  1  0.265676  0.010573  0.000000  1
  Zn  Zn5  1  0.734324  0.744896  0.000000  1
  Pt  Pt6  1  0.000000  0.993424  0.500000  1
  Pt  Pt7  1  0.678174  0.343977  0.000000  1
  Pt  Pt8  1  0.321826  0.665804  0.000000  1
