# generated using pymatgen
data_Ho4TcB12Ru
_symmetry_space_group_name_H-M   'P 1'
_cell_length_a   3.66086200
_cell_length_b   9.13214935
_cell_length_c   11.51493023
_cell_angle_alpha   89.85476792
_cell_angle_beta   90.00000000
_cell_angle_gamma   90.00000000
_symmetry_Int_Tables_number   1
_chemical_formula_structural   Ho4TcB12Ru
_chemical_formula_sum   'Ho8 Tc2 B24 Ru2'
_cell_volume   384.96059693
_cell_formula_units_Z   2
loop_
 _symmetry_equiv_pos_site_id
 _symmetry_equiv_pos_as_xyz
  1  'x, y, z'
loop_
 _atom_site_type_symbol
 _atom_site_label
 _atom_site_symmetry_multiplicity
 _atom_site_fract_x
 _atom_site_fract_y
 _atom_site_fract_z
 _atom_site_occupancy
  Ho  Ho0  1  0.000000  0.325207  0.415553  1
  Ho  Ho1  1  0.000000  0.674793  0.584447  1
  Ho  Ho2  1  0.000000  0.821563  0.087465  1
  Ho  Ho3  1  0.000000  0.178437  0.912535  1
  Ho  Ho4  1  0.000000  0.942376  0.370691  1
  Ho  Ho5  1  0.000000  0.057624  0.629309  1
  Ho  Ho6  1  0.000000  0.443124  0.129871  1
  Ho  Ho7  1  0.000000  0.556876  0.870129  1
  Tc  Tc8  1  0.000000  0.638595  0.320245  1
  Tc  Tc9  1  0.000000  0.361405  0.679755  1
  B  B10  1  0.500000  0.553088  0.433061  1
  B  B11  1  0.500000  0.446912  0.566939  1
  B  B12  1  0.500000  0.053763  0.066931  1
  B  B13  1  0.500000  0.946237  0.933069  1
  B  B14  1  0.500000  0.748559  0.419269  1
  B  B15  1  0.500000  0.251441  0.580731  1
  B  B16  1  0.500000  0.248476  0.080883  1
  B  B17  1  0.500000  0.751524  0.919117  1
  B  B18  1  0.500000  0.791765  0.265314  1
  B  B19  1  0.500000  0.208235  0.734686  1
  B  B20  1  0.500000  0.290839  0.234156  1
  B  B21  1  0.500000  0.709161  0.765844  1
  B  B22  1  0.500000  0.631525  0.185089  1
  B  B23  1  0.500000  0.368475  0.814911  1
  B  B24  1  0.500000  0.131262  0.314134  1
  B  B25  1  0.500000  0.868738  0.685866  1
  B  B26  1  0.500000  0.983154  0.211940  1
  B  B27  1  0.500000  0.016846  0.788060  1
  B  B28  1  0.500000  0.482581  0.287578  1
  B  B29  1  0.500000  0.517419  0.712422  1
  B  B30  1  0.500000  0.604235  0.028705  1
  B  B31  1  0.500000  0.395765  0.971295  1
  B  B32  1  0.500000  0.104261  0.470930  1
  B  B33  1  0.500000  0.895739  0.529070  1
  Ru  Ru34  1  0.000000  0.137788  0.178450  1
  Ru  Ru35  1  0.000000  0.862212  0.821550  1
