# generated using pymatgen
data_Tb2MgCo4P6Rh5
_symmetry_space_group_name_H-M   'P 1'
_cell_length_a   3.80004200
_cell_length_b   10.68558200
_cell_length_c   12.41268900
_cell_angle_alpha   90.00000000
_cell_angle_beta   90.00000000
_cell_angle_gamma   90.00000000
_symmetry_Int_Tables_number   1
_chemical_formula_structural   Tb2MgCo4P6Rh5
_chemical_formula_sum   'Tb4 Mg2 Co8 P12 Rh10'
_cell_volume   504.02543412
_cell_formula_units_Z   2
loop_
 _symmetry_equiv_pos_site_id
 _symmetry_equiv_pos_as_xyz
  1  'x, y, z'
loop_
 _atom_site_type_symbol
 _atom_site_label
 _atom_site_symmetry_multiplicity
 _atom_site_fract_x
 _atom_site_fract_y
 _atom_site_fract_z
 _atom_site_occupancy
  Tb  Tb0  1  0.250000  0.579867  0.709035  1
  Tb  Tb1  1  0.250000  0.920133  0.209035  1
  Tb  Tb2  1  0.750000  0.419700  0.290519  1
  Tb  Tb3  1  0.750000  0.080300  0.790519  1
  Mg  Mg4  1  0.250000  0.705128  0.988684  1
  Mg  Mg5  1  0.250000  0.794872  0.488684  1
  Co  Co6  1  0.250000  0.883705  0.693626  1
  Co  Co7  1  0.250000  0.616295  0.193626  1
  Co  Co8  1  0.750000  0.118807  0.303016  1
  Co  Co9  1  0.750000  0.381193  0.803016  1
  Co  Co10  1  0.250000  0.461325  0.934542  1
  Co  Co11  1  0.250000  0.038675  0.434542  1
  Co  Co12  1  0.750000  0.535159  0.064079  1
  Co  Co13  1  0.750000  0.964841  0.564079  1
  P  P14  1  0.250000  0.430879  0.110452  1
  P  P15  1  0.250000  0.069121  0.610452  1
  P  P16  1  0.750000  0.564929  0.885114  1
  P  P17  1  0.750000  0.935071  0.385114  1
  P  P18  1  0.250000  0.272496  0.868439  1
  P  P19  1  0.250000  0.227504  0.368439  1
  P  P20  1  0.750000  0.724622  0.138647  1
  P  P21  1  0.750000  0.775378  0.638647  1
  P  P22  1  0.250000  0.593239  0.379303  1
  P  P23  1  0.250000  0.906761  0.879303  1
  P  P24  1  0.750000  0.398892  0.616760  1
  P  P25  1  0.750000  0.101108  0.116760  1
  Rh  Rh26  1  0.750000  0.289246  0.010429  1
  Rh  Rh27  1  0.750000  0.210754  0.510429  1
  Rh  Rh28  1  0.250000  0.405025  0.479734  1
  Rh  Rh29  1  0.250000  0.094975  0.979734  1
  Rh  Rh30  1  0.750000  0.594873  0.523520  1
  Rh  Rh31  1  0.750000  0.905127  0.023520  1
  Rh  Rh32  1  0.250000  0.227998  0.179130  1
  Rh  Rh33  1  0.250000  0.272002  0.679130  1
  Rh  Rh34  1  0.750000  0.776292  0.824970  1
  Rh  Rh35  1  0.750000  0.723708  0.324970  1
