# generated using pymatgen
data_Mn4Cl6O
_symmetry_space_group_name_H-M   'P 1'
_cell_length_a   3.64792300
_cell_length_b   11.63461200
_cell_length_c   12.19049200
_cell_angle_alpha   90.00000000
_cell_angle_beta   90.00000000
_cell_angle_gamma   90.00000000
_symmetry_Int_Tables_number   1
_chemical_formula_structural   Mn4Cl6O
_chemical_formula_sum   'Mn8 Cl12 O2'
_cell_volume   517.39091813
_cell_formula_units_Z   2
loop_
 _symmetry_equiv_pos_site_id
 _symmetry_equiv_pos_as_xyz
  1  'x, y, z'
loop_
 _atom_site_type_symbol
 _atom_site_label
 _atom_site_symmetry_multiplicity
 _atom_site_fract_x
 _atom_site_fract_y
 _atom_site_fract_z
 _atom_site_occupancy
  Mn  Mn0  1  0.000000  0.112198  0.086038  1
  Mn  Mn1  1  0.000000  0.887802  0.913962  1
  Mn  Mn2  1  0.000000  0.612198  0.413962  1
  Mn  Mn3  1  0.000000  0.387802  0.586038  1
  Mn  Mn4  1  0.500000  0.126603  0.848168  1
  Mn  Mn5  1  0.500000  0.873397  0.151832  1
  Mn  Mn6  1  0.500000  0.626603  0.651832  1
  Mn  Mn7  1  0.500000  0.373397  0.348168  1
  Cl  Cl8  1  0.500000  0.267403  0.673946  1
  Cl  Cl9  1  0.500000  0.732597  0.326054  1
  Cl  Cl10  1  0.500000  0.767403  0.826054  1
  Cl  Cl11  1  0.500000  0.232597  0.173946  1
  Cl  Cl12  1  0.000000  0.250122  0.928829  1
  Cl  Cl13  1  0.000000  0.749878  0.071171  1
  Cl  Cl14  1  0.000000  0.482565  0.250636  1
  Cl  Cl15  1  0.000000  0.517435  0.749364  1
  Cl  Cl16  1  0.000000  0.982565  0.249364  1
  Cl  Cl17  1  0.000000  0.017435  0.750636  1
  Cl  Cl18  1  0.000000  0.249878  0.428829  1
  Cl  Cl19  1  0.000000  0.750122  0.571171  1
  O  O20  1  0.500000  0.000000  0.000000  1
  O  O21  1  0.500000  0.500000  0.500000  1
