# generated using pymatgen
data_YTh3(Ni2Sn)2
_symmetry_space_group_name_H-M   'P 1'
_cell_length_a   7.50534300
_cell_length_b   7.50534274
_cell_length_c   3.70904900
_cell_angle_alpha   90.00000000
_cell_angle_beta   90.00000000
_cell_angle_gamma   91.02055143
_symmetry_Int_Tables_number   1
_chemical_formula_structural   YTh3(Ni2Sn)2
_chemical_formula_sum   'Y1 Th3 Ni4 Sn2'
_cell_volume   208.89822411
_cell_formula_units_Z   1
loop_
 _symmetry_equiv_pos_site_id
 _symmetry_equiv_pos_as_xyz
  1  'x, y, z'
loop_
 _atom_site_type_symbol
 _atom_site_label
 _atom_site_symmetry_multiplicity
 _atom_site_fract_x
 _atom_site_fract_y
 _atom_site_fract_z
 _atom_site_occupancy
  Y  Y0  1  0.824795  0.675205  0.500000  1
  Th  Th1  1  0.675639  0.175782  0.500000  1
  Th  Th2  1  0.324218  0.824361  0.500000  1
  Th  Th3  1  0.172846  0.327154  0.500000  1
  Ni  Ni4  1  0.880275  0.371981  0.000000  1
  Ni  Ni5  1  0.128019  0.619725  0.000000  1
  Ni  Ni6  1  0.374639  0.125361  0.000000  1
  Ni  Ni7  1  0.617402  0.882598  0.000000  1
  Sn  Sn8  1  0.508511  0.506342  0.000000  1
  Sn  Sn9  1  0.993658  0.991489  0.000000  1
