# generated using pymatgen
data_Ho3Si2Ir3
_symmetry_space_group_name_H-M   'P 1'
_cell_length_a   5.52425100
_cell_length_b   7.55560400
_cell_length_c   14.86725800
_cell_angle_alpha   90.00000000
_cell_angle_beta   90.00000000
_cell_angle_gamma   90.00000000
_symmetry_Int_Tables_number   1
_chemical_formula_structural   Ho3Si2Ir3
_chemical_formula_sum   'Ho12 Si8 Ir12'
_cell_volume   620.54526892
_cell_formula_units_Z   4
loop_
 _symmetry_equiv_pos_site_id
 _symmetry_equiv_pos_as_xyz
  1  'x, y, z'
loop_
 _atom_site_type_symbol
 _atom_site_label
 _atom_site_symmetry_multiplicity
 _atom_site_fract_x
 _atom_site_fract_y
 _atom_site_fract_z
 _atom_site_occupancy
  Ho  Ho0  1  0.901127  0.828627  0.750000  1
  Ho  Ho1  1  0.869332  0.526100  0.391916  1
  Ho  Ho2  1  0.369332  0.973900  0.608084  1
  Ho  Ho3  1  0.130668  0.473900  0.891916  1
  Ho  Ho4  1  0.630668  0.026101  0.108084  1
  Ho  Ho5  1  0.098873  0.171373  0.250000  1
  Ho  Ho6  1  0.130668  0.473900  0.608084  1
  Ho  Ho7  1  0.630668  0.026101  0.391916  1
  Ho  Ho8  1  0.401127  0.671373  0.250000  1
  Ho  Ho9  1  0.369332  0.973900  0.891916  1
  Ho  Ho10  1  0.598873  0.328627  0.750000  1
  Ho  Ho11  1  0.869332  0.526100  0.108084  1
  Si  Si12  1  0.620653  0.624745  0.896576  1
  Si  Si13  1  0.879347  0.124745  0.603424  1
  Si  Si14  1  0.120653  0.875255  0.103424  1
  Si  Si15  1  0.120653  0.875255  0.396576  1
  Si  Si16  1  0.620653  0.624745  0.603424  1
  Si  Si17  1  0.879347  0.124745  0.896576  1
  Si  Si18  1  0.379347  0.375255  0.103424  1
  Si  Si19  1  0.379347  0.375255  0.396576  1
  Ir  Ir20  1  0.600587  0.331764  0.960132  1
  Ir  Ir21  1  0.100587  0.168236  0.460132  1
  Ir  Ir22  1  0.100587  0.168236  0.039868  1
  Ir  Ir23  1  0.413391  0.680220  0.750000  1
  Ir  Ir24  1  0.899413  0.831764  0.960132  1
  Ir  Ir25  1  0.586609  0.319780  0.250000  1
  Ir  Ir26  1  0.899413  0.831764  0.539868  1
  Ir  Ir27  1  0.913391  0.819780  0.250000  1
  Ir  Ir28  1  0.600587  0.331764  0.539868  1
  Ir  Ir29  1  0.399413  0.668236  0.460132  1
  Ir  Ir30  1  0.086609  0.180220  0.750000  1
  Ir  Ir31  1  0.399413  0.668236  0.039868  1
