# generated using pymatgen
data_DyHo4(FeB3)2
_symmetry_space_group_name_H-M   'P 1'
_cell_length_a   8.27509074
_cell_length_b   8.27509048
_cell_length_c   8.27508998
_cell_angle_alpha   38.13307277
_cell_angle_beta   38.13307757
_cell_angle_gamma   38.13306441
_symmetry_Int_Tables_number   1
_chemical_formula_structural   DyHo4(FeB3)2
_chemical_formula_sum   'Dy1 Ho4 Fe2 B6'
_cell_volume   193.99436566
_cell_formula_units_Z   1
loop_
 _symmetry_equiv_pos_site_id
 _symmetry_equiv_pos_as_xyz
  1  'x, y, z'
loop_
 _atom_site_type_symbol
 _atom_site_label
 _atom_site_symmetry_multiplicity
 _atom_site_fract_x
 _atom_site_fract_y
 _atom_site_fract_z
 _atom_site_occupancy
  Dy  Dy0  1  0.000000  0.000000  0.000000  1
  Ho  Ho1  1  0.583066  0.583066  0.583066  1
  Ho  Ho2  1  0.416934  0.416934  0.416934  1
  Ho  Ho3  1  0.749151  0.749151  0.749151  1
  Ho  Ho4  1  0.250849  0.250849  0.250849  1
  Fe  Fe5  1  0.882044  0.882044  0.882044  1
  Fe  Fe6  1  0.117956  0.117956  0.117956  1
  B  B7  1  0.500000  0.831965  0.168035  1
  B  B8  1  0.168035  0.500000  0.831965  1
  B  B9  1  0.831965  0.168035  0.500000  1
  B  B10  1  0.500000  0.168035  0.831965  1
  B  B11  1  0.831965  0.500000  0.168035  1
  B  B12  1  0.168035  0.831965  0.500000  1
