# generated using pymatgen
data_YErBe2(Ru2C)2
_symmetry_space_group_name_H-M   'P 1'
_cell_length_a   5.65914487
_cell_length_b   5.65914631
_cell_length_c   7.00287000
_cell_angle_alpha   90.00000000
_cell_angle_beta   90.00000000
_cell_angle_gamma   140.93037971
_symmetry_Int_Tables_number   1
_chemical_formula_structural   YErBe2(Ru2C)2
_chemical_formula_sum   'Y1 Er1 Be2 Ru4 C2'
_cell_volume   141.35151387
_cell_formula_units_Z   1
loop_
 _symmetry_equiv_pos_site_id
 _symmetry_equiv_pos_as_xyz
  1  'x, y, z'
loop_
 _atom_site_type_symbol
 _atom_site_label
 _atom_site_symmetry_multiplicity
 _atom_site_fract_x
 _atom_site_fract_y
 _atom_site_fract_z
 _atom_site_occupancy
  Y  Y0  1  0.455632  0.544368  0.750000  1
  Er  Er1  1  0.544711  0.455289  0.250000  1
  Be  Be2  1  0.271536  0.728464  0.250000  1
  Be  Be3  1  0.728306  0.271694  0.750000  1
  Ru  Ru4  1  0.826731  0.173269  0.057780  1
  Ru  Ru5  1  0.173018  0.826982  0.944313  1
  Ru  Ru6  1  0.173018  0.826982  0.555687  1
  Ru  Ru7  1  0.826731  0.173269  0.442220  1
  C  C8  1  0.000159  0.999841  0.002651  1
  C  C9  1  0.000159  0.999841  0.497349  1
