# generated using pymatgen
data_NaV2(SeO3)4
_symmetry_space_group_name_H-M   'P 1'
_cell_length_a   5.30436900
_cell_length_b   10.33030278
_cell_length_c   14.18250136
_cell_angle_alpha   48.59109672
_cell_angle_beta   90.00000000
_cell_angle_gamma   90.00000000
_symmetry_Int_Tables_number   1
_chemical_formula_structural   NaV2(SeO3)4
_chemical_formula_sum   'Na2 V4 Se8 O24'
_cell_volume   582.86191872
_cell_formula_units_Z   2
loop_
 _symmetry_equiv_pos_site_id
 _symmetry_equiv_pos_as_xyz
  1  'x, y, z'
loop_
 _atom_site_type_symbol
 _atom_site_label
 _atom_site_symmetry_multiplicity
 _atom_site_fract_x
 _atom_site_fract_y
 _atom_site_fract_z
 _atom_site_occupancy
  Na  Na0  1  0.039341  0.000000  0.750000  1
  Na  Na1  1  0.960659  0.000000  0.250000  1
  V  V2  1  0.000000  0.500000  0.500000  1
  V  V3  1  0.500000  0.000000  0.000000  1
  V  V4  1  0.500000  0.000000  0.500000  1
  V  V5  1  0.000000  0.500000  0.000000  1
  Se  Se6  1  0.491424  0.335326  0.183767  1
  Se  Se7  1  0.009905  0.745370  0.598262  1
  Se  Se8  1  0.009905  0.254630  0.901738  1
  Se  Se9  1  0.990095  0.254630  0.401738  1
  Se  Se10  1  0.508576  0.335326  0.683767  1
  Se  Se11  1  0.508576  0.664674  0.816233  1
  Se  Se12  1  0.491424  0.664674  0.316233  1
  Se  Se13  1  0.990095  0.745370  0.098262  1
  O  O14  1  0.208223  0.707969  0.351782  1
  O  O15  1  0.300546  0.812019  0.039293  1
  O  O16  1  0.791777  0.707969  0.851782  1
  O  O17  1  0.811880  0.916258  0.970231  1
  O  O18  1  0.699454  0.812019  0.539293  1
  O  O19  1  0.306918  0.343983  0.585288  1
  O  O20  1  0.188120  0.083742  0.029769  1
  O  O21  1  0.693082  0.343983  0.085288  1
  O  O22  1  0.791777  0.292031  0.648218  1
  O  O23  1  0.585381  0.128378  0.323128  1
  O  O24  1  0.693082  0.656017  0.414712  1
  O  O25  1  0.300546  0.187981  0.460707  1
  O  O26  1  0.585381  0.871622  0.176872  1
  O  O27  1  0.811880  0.083742  0.529769  1
  O  O28  1  0.414619  0.128378  0.823128  1
  O  O29  1  0.048815  0.418599  0.901575  1
  O  O30  1  0.699454  0.187981  0.960707  1
  O  O31  1  0.951185  0.418599  0.401575  1
  O  O32  1  0.048815  0.581401  0.598425  1
  O  O33  1  0.414619  0.871622  0.676872  1
  O  O34  1  0.306918  0.656017  0.914712  1
  O  O35  1  0.188120  0.916258  0.470231  1
  O  O36  1  0.951185  0.581401  0.098425  1
  O  O37  1  0.208223  0.292031  0.148218  1
