# generated using pymatgen
data_Dy6Y5ErCo5Sn
_symmetry_space_group_name_H-M   'P 1'
_cell_length_a   8.30605242
_cell_length_b   8.31472779
_cell_length_c   8.30605373
_cell_angle_alpha   107.16254643
_cell_angle_beta   110.60330269
_cell_angle_gamma   110.63079831
_symmetry_Int_Tables_number   1
_chemical_formula_structural   Dy6Y5ErCo5Sn
_chemical_formula_sum   'Dy6 Y5 Er1 Co5 Sn1'
_cell_volume   441.28129884
_cell_formula_units_Z   1
loop_
 _symmetry_equiv_pos_site_id
 _symmetry_equiv_pos_as_xyz
  1  'x, y, z'
loop_
 _atom_site_type_symbol
 _atom_site_label
 _atom_site_symmetry_multiplicity
 _atom_site_fract_x
 _atom_site_fract_y
 _atom_site_fract_z
 _atom_site_occupancy
  Dy  Dy0  1  0.692832  0.379763  0.686932  1
  Dy  Dy1  1  0.692359  0.005695  0.313336  1
  Dy  Dy2  1  0.192339  0.205761  0.399569  1
  Dy  Dy3  1  0.808299  0.794222  0.601662  1
  Dy  Dy4  1  0.192560  0.794222  0.985922  1
  Dy  Dy5  1  0.806193  0.205761  0.013423  1
  Y  Y6  1  0.479880  0.292577  0.186189  1
  Y  Y7  1  0.106388  0.292577  0.812696  1
  Y  Y8  1  0.893789  0.707276  0.187695  1
  Y  Y9  1  0.519582  0.707276  0.813487  1
  Y  Y10  1  0.305599  0.619242  0.313643  1
  Er  Er11  1  0.307923  0.994066  0.686141  1
  Co  Co12  1  0.500903  0.611405  0.110503  1
  Co  Co13  1  0.499443  0.386210  0.886768  1
  Co  Co14  1  0.379691  0.001336  0.379943  1
  Co  Co15  1  0.621393  0.001336  0.621645  1
  Co  Co16  1  0.000348  0.000574  0.000226  1
  Sn  Sn17  1  0.000479  0.500699  0.500220  1
