# generated using pymatgen
data_Tm3SiPt5
_symmetry_space_group_name_H-M   'P 1'
_cell_length_a   8.15853417
_cell_length_b   8.15853429
_cell_length_c   8.15853383
_cell_angle_alpha   127.67111497
_cell_angle_beta   125.98275785
_cell_angle_gamma   78.54081439
_symmetry_Int_Tables_number   1
_chemical_formula_structural   Tm3SiPt5
_chemical_formula_sum   'Tm6 Si2 Pt10'
_cell_volume   336.73981474
_cell_formula_units_Z   2
loop_
 _symmetry_equiv_pos_site_id
 _symmetry_equiv_pos_as_xyz
  1  'x, y, z'
loop_
 _atom_site_type_symbol
 _atom_site_label
 _atom_site_symmetry_multiplicity
 _atom_site_fract_x
 _atom_site_fract_y
 _atom_site_fract_z
 _atom_site_occupancy
  Tm  Tm0  1  0.828255  0.548274  0.279981  1
  Tm  Tm1  1  0.613843  0.250000  0.363843  1
  Tm  Tm2  1  0.171745  0.451726  0.720019  1
  Tm  Tm3  1  0.386157  0.750000  0.636157  1
  Tm  Tm4  1  0.231708  0.951726  0.279981  1
  Tm  Tm5  1  0.768292  0.048274  0.720019  1
  Si  Si6  1  0.222262  0.250000  0.972262  1
  Si  Si7  1  0.777738  0.750000  0.027738  1
  Pt  Pt8  1  0.169078  0.897958  0.854411  1
  Pt  Pt9  1  0.830922  0.102042  0.145589  1
  Pt  Pt10  1  0.456453  0.185333  0.854411  1
  Pt  Pt11  1  0.543547  0.397958  0.728880  1
  Pt  Pt12  1  0.830922  0.685333  0.728880  1
  Pt  Pt13  1  0.456453  0.602042  0.271120  1
  Pt  Pt14  1  0.543547  0.814667  0.145589  1
  Pt  Pt15  1  0.169078  0.314667  0.271120  1
  Pt  Pt16  1  0.000000  0.000000  0.500000  1
  Pt  Pt17  1  0.000000  0.500000  0.000000  1
