# generated using pymatgen
data_Ho6Tm2Re3OsC8
_symmetry_space_group_name_H-M   'P 1'
_cell_length_a   5.07305100
_cell_length_b   6.53488112
_cell_length_c   9.78807901
_cell_angle_alpha   89.84226617
_cell_angle_beta   90.00000000
_cell_angle_gamma   90.00000000
_symmetry_Int_Tables_number   1
_chemical_formula_structural   Ho6Tm2Re3OsC8
_chemical_formula_sum   'Ho6 Tm2 Re3 Os1 C8'
_cell_volume   324.49106323
_cell_formula_units_Z   1
loop_
 _symmetry_equiv_pos_site_id
 _symmetry_equiv_pos_as_xyz
  1  'x, y, z'
loop_
 _atom_site_type_symbol
 _atom_site_label
 _atom_site_symmetry_multiplicity
 _atom_site_fract_x
 _atom_site_fract_y
 _atom_site_fract_z
 _atom_site_occupancy
  Ho  Ho0  1  0.750000  0.320084  0.443904  1
  Ho  Ho1  1  0.750000  0.820773  0.055947  1
  Ho  Ho2  1  0.250000  0.531559  0.216651  1
  Ho  Ho3  1  0.750000  0.466622  0.784528  1
  Ho  Ho4  1  0.750000  0.968883  0.713191  1
  Ho  Ho5  1  0.250000  0.031494  0.283896  1
  Tm  Tm6  1  0.250000  0.676084  0.555838  1
  Tm  Tm7  1  0.250000  0.178269  0.943230  1
  Re  Re8  1  0.250000  0.721074  0.865735  1
  Re  Re9  1  0.750000  0.279096  0.132401  1
  Re  Re10  1  0.750000  0.778253  0.367356  1
  Os  Os11  1  0.250000  0.221772  0.634499  1
  C  C12  1  0.250000  0.455055  0.759492  1
  C  C13  1  0.750000  0.545653  0.240623  1
  C  C14  1  0.750000  0.045449  0.259518  1
  C  C15  1  0.250000  0.955310  0.741578  1
  C  C16  1  0.250000  0.825374  0.051133  1
  C  C17  1  0.750000  0.176260  0.947305  1
  C  C18  1  0.750000  0.676260  0.553252  1
  C  C19  1  0.250000  0.326676  0.449924  1
