# generated using pymatgen
data_DyEr3Al18(Ir2Pt)2
_symmetry_space_group_name_H-M   'P 1'
_cell_length_a   7.57241397
_cell_length_b   7.57112361
_cell_length_c   9.44152691
_cell_angle_alpha   89.95431081
_cell_angle_beta   89.97347829
_cell_angle_gamma   119.58996827
_symmetry_Int_Tables_number   1
_chemical_formula_structural   DyEr3Al18(Ir2Pt)2
_chemical_formula_sum   'Dy1 Er3 Al18 Ir4 Pt2'
_cell_volume   470.70283299
_cell_formula_units_Z   1
loop_
 _symmetry_equiv_pos_site_id
 _symmetry_equiv_pos_as_xyz
  1  'x, y, z'
loop_
 _atom_site_type_symbol
 _atom_site_label
 _atom_site_symmetry_multiplicity
 _atom_site_fract_x
 _atom_site_fract_y
 _atom_site_fract_z
 _atom_site_occupancy
  Dy  Dy0  1  0.328823  0.005010  0.248953  1
  Er  Er1  1  0.994925  0.671414  0.751274  1
  Er  Er2  1  0.004782  0.328311  0.248816  1
  Er  Er3  1  0.671700  0.995216  0.751264  1
  Al  Al4  1  0.127784  0.127999  0.750767  1
  Al  Al5  1  0.871738  0.871987  0.249245  1
  Al  Al6  1  0.000352  0.331978  0.578225  1
  Al  Al7  1  0.999152  0.667693  0.422202  1
  Al  Al8  1  0.999971  0.664396  0.074793  1
  Al  Al9  1  0.335427  0.999759  0.924151  1
  Al  Al10  1  0.999670  0.335309  0.924800  1
  Al  Al11  1  0.665141  0.000251  0.074678  1
  Al  Al12  1  0.668434  0.999460  0.422300  1
  Al  Al13  1  0.331919  0.000377  0.578798  1
  Al  Al14  1  0.332137  0.332420  0.051047  1
  Al  Al15  1  0.667906  0.667933  0.948007  1
  Al  Al16  1  0.669421  0.669458  0.558370  1
  Al  Al17  1  0.330563  0.330862  0.442618  1
  Al  Al18  1  0.340782  0.548142  0.752908  1
  Al  Al19  1  0.659596  0.452400  0.247010  1
  Al  Al20  1  0.548102  0.340992  0.752911  1
  Al  Al21  1  0.451812  0.658651  0.247007  1
  Ir  Ir22  1  0.327997  0.672052  0.999723  1
  Ir  Ir23  1  0.672151  0.328137  0.999724  1
  Ir  Ir24  1  0.999832  0.999864  0.500306  1
  Ir  Ir25  1  0.999854  0.999861  0.999710  1
  Pt  Pt26  1  0.672263  0.327791  0.500213  1
  Pt  Pt27  1  0.327763  0.672278  0.500180  1
