# generated using pymatgen
data_Dy20CoOs3Pt8
_symmetry_space_group_name_H-M   'P 1'
_cell_length_a   11.00959600
_cell_length_b   11.00959600
_cell_length_c   6.40612000
_cell_angle_alpha   90.00000000
_cell_angle_beta   90.00000000
_cell_angle_gamma   90.00000000
_symmetry_Int_Tables_number   1
_chemical_formula_structural   Dy20CoOs3Pt8
_chemical_formula_sum   'Dy20 Co1 Os3 Pt8'
_cell_volume   776.49351870
_cell_formula_units_Z   1
loop_
 _symmetry_equiv_pos_site_id
 _symmetry_equiv_pos_as_xyz
  1  'x, y, z'
loop_
 _atom_site_type_symbol
 _atom_site_label
 _atom_site_symmetry_multiplicity
 _atom_site_fract_x
 _atom_site_fract_y
 _atom_site_fract_z
 _atom_site_occupancy
  Dy  Dy0  1  0.297139  0.086278  0.372289  1
  Dy  Dy1  1  0.297425  0.913908  0.872283  1
  Dy  Dy2  1  0.702575  0.086092  0.872283  1
  Dy  Dy3  1  0.702861  0.913722  0.372289  1
  Dy  Dy4  1  0.586092  0.797425  0.872283  1
  Dy  Dy5  1  0.586278  0.202861  0.372289  1
  Dy  Dy6  1  0.413722  0.797139  0.372289  1
  Dy  Dy7  1  0.413908  0.202575  0.872283  1
  Dy  Dy8  1  0.202239  0.413364  0.626945  1
  Dy  Dy9  1  0.201761  0.586140  0.127437  1
  Dy  Dy10  1  0.798239  0.413860  0.127437  1
  Dy  Dy11  1  0.797761  0.586636  0.626945  1
  Dy  Dy12  1  0.913860  0.701761  0.127437  1
  Dy  Dy13  1  0.913364  0.297761  0.626945  1
  Dy  Dy14  1  0.086636  0.702239  0.626945  1
  Dy  Dy15  1  0.086140  0.298239  0.127437  1
  Dy  Dy16  1  0.000000  0.000000  0.499666  1
  Dy  Dy17  1  0.000000  0.000000  0.999508  1
  Dy  Dy18  1  0.500000  0.500000  0.999508  1
  Dy  Dy19  1  0.500000  0.500000  0.499666  1
  Co  Co20  1  0.000000  0.500000  0.378139  1
  Os  Os21  1  0.500000  0.000000  0.125258  1
  Os  Os22  1  0.500000  0.000000  0.624851  1
  Os  Os23  1  0.000000  0.500000  0.874865  1
  Pt  Pt24  1  0.847472  0.154220  0.250291  1
  Pt  Pt25  1  0.847260  0.845987  0.750390  1
  Pt  Pt26  1  0.152740  0.154013  0.750390  1
  Pt  Pt27  1  0.152528  0.845780  0.250291  1
  Pt  Pt28  1  0.654013  0.347260  0.750390  1
  Pt  Pt29  1  0.654220  0.652528  0.250291  1
  Pt  Pt30  1  0.345780  0.347472  0.250291  1
  Pt  Pt31  1  0.345987  0.652740  0.750390  1
