# generated using pymatgen
data_NdThSi3Ag
_symmetry_space_group_name_H-M   'P 1'
_cell_length_a   4.14952853
_cell_length_b   4.28301601
_cell_length_c   7.83334222
_cell_angle_alpha   74.13428189
_cell_angle_beta   74.64117477
_cell_angle_gamma   90.00000003
_symmetry_Int_Tables_number   1
_chemical_formula_structural   NdThSi3Ag
_chemical_formula_sum   'Nd1 Th1 Si3 Ag1'
_cell_volume   128.73784786
_cell_formula_units_Z   1
loop_
 _symmetry_equiv_pos_site_id
 _symmetry_equiv_pos_as_xyz
  1  'x, y, z'
loop_
 _atom_site_type_symbol
 _atom_site_label
 _atom_site_symmetry_multiplicity
 _atom_site_fract_x
 _atom_site_fract_y
 _atom_site_fract_z
 _atom_site_occupancy
  Nd  Nd0  1  0.134821  0.384821  0.730357  1
  Th  Th1  1  0.867885  0.617885  0.264229  1
  Si  Si2  1  0.292745  0.042745  0.414510  1
  Si  Si3  1  0.453846  0.203846  0.092308  1
  Si  Si4  1  0.710297  0.960297  0.579406  1
  Ag  Ag5  1  0.540405  0.790405  0.919191  1
