# generated using pymatgen
data_MnNb4Si2B4Ru9
_symmetry_space_group_name_H-M   'P 1'
_cell_length_a   9.20510720
_cell_length_b   9.20510720
_cell_length_c   2.97025300
_cell_angle_alpha   90.00000000
_cell_angle_beta   90.00000000
_cell_angle_gamma   90.22152464
_symmetry_Int_Tables_number   1
_chemical_formula_structural   MnNb4Si2B4Ru9
_chemical_formula_sum   'Mn1 Nb4 Si2 B4 Ru9'
_cell_volume   251.67953232
_cell_formula_units_Z   1
loop_
 _symmetry_equiv_pos_site_id
 _symmetry_equiv_pos_as_xyz
  1  'x, y, z'
loop_
 _atom_site_type_symbol
 _atom_site_label
 _atom_site_symmetry_multiplicity
 _atom_site_fract_x
 _atom_site_fract_y
 _atom_site_fract_z
 _atom_site_occupancy
  Mn  Mn0  1  0.500000  0.000000  0.500000  1
  Nb  Nb1  1  0.821908  0.678092  0.000000  1
  Nb  Nb2  1  0.178092  0.321908  0.000000  1
  Nb  Nb3  1  0.330880  0.830880  0.000000  1
  Nb  Nb4  1  0.669120  0.169120  0.000000  1
  Si  Si5  1  0.500000  0.500000  0.000000  1
  Si  Si6  1  0.000000  0.000000  0.000000  1
  B  B7  1  0.616518  0.883482  0.000000  1
  B  B8  1  0.383482  0.116518  0.000000  1
  B  B9  1  0.126039  0.626039  0.000000  1
  B  B10  1  0.873961  0.373961  0.000000  1
  Ru  Ru11  1  0.565999  0.714045  0.500000  1
  Ru  Ru12  1  0.434001  0.285955  0.500000  1
  Ru  Ru13  1  0.068385  0.790225  0.500000  1
  Ru  Ru14  1  0.931615  0.209775  0.500000  1
  Ru  Ru15  1  0.290225  0.568385  0.500000  1
  Ru  Ru16  1  0.709775  0.431615  0.500000  1
  Ru  Ru17  1  0.214045  0.065999  0.500000  1
  Ru  Ru18  1  0.785955  0.934001  0.500000  1
  Ru  Ru19  1  0.000000  0.500000  0.500000  1
