# generated using pymatgen
data_La5ErZn4Pt13
_symmetry_space_group_name_H-M   'P 1'
_cell_length_a   8.43572547
_cell_length_b   8.43572593
_cell_length_c   8.43572588
_cell_angle_alpha   109.57895740
_cell_angle_beta   109.57895874
_cell_angle_gamma   109.25596882
_symmetry_Int_Tables_number   1
_chemical_formula_structural   La5ErZn4Pt13
_chemical_formula_sum   'La5 Er1 Zn4 Pt13'
_cell_volume   462.10516667
_cell_formula_units_Z   1
loop_
 _symmetry_equiv_pos_site_id
 _symmetry_equiv_pos_as_xyz
  1  'x, y, z'
loop_
 _atom_site_type_symbol
 _atom_site_label
 _atom_site_symmetry_multiplicity
 _atom_site_fract_x
 _atom_site_fract_y
 _atom_site_fract_z
 _atom_site_occupancy
  La  La0  1  0.301379  0.999584  0.301795  1
  La  La1  1  0.999584  0.301379  0.301795  1
  La  La2  1  0.300255  0.300255  0.000000  1
  La  La3  1  0.697788  0.999584  0.698205  1
  La  La4  1  0.999584  0.697788  0.698205  1
  Er  Er5  1  0.691613  0.691613  0.000000  1
  Zn  Zn6  1  0.000820  0.000820  0.497379  1
  Zn  Zn7  1  0.000820  0.503441  0.000000  1
  Zn  Zn8  1  0.503441  0.000820  0.000000  1
  Zn  Zn9  1  0.503441  0.503441  0.502621  1
  Pt  Pt10  1  0.334254  0.334254  0.665112  1
  Pt  Pt11  1  0.674093  0.997464  0.323372  1
  Pt  Pt12  1  0.997464  0.674093  0.323372  1
  Pt  Pt13  1  0.669143  0.334254  0.000000  1
  Pt  Pt14  1  0.327515  0.656290  0.328775  1
  Pt  Pt15  1  0.998740  0.327515  0.671225  1
  Pt  Pt16  1  0.334254  0.669143  0.000000  1
  Pt  Pt17  1  0.327515  0.998740  0.671225  1
  Pt  Pt18  1  0.656290  0.327515  0.328775  1
  Pt  Pt19  1  0.669143  0.669143  0.334888  1
  Pt  Pt20  1  0.674093  0.350720  0.676628  1
  Pt  Pt21  1  0.350720  0.674093  0.676628  1
  Pt  Pt22  1  0.988052  0.988052  0.000000  1
