# generated using pymatgen
data_CaOsO4
_symmetry_space_group_name_H-M   'P 1'
_cell_length_a   5.14315700
_cell_length_b   5.14672000
_cell_length_c   12.59855200
_cell_angle_alpha   90.00000000
_cell_angle_beta   90.00000000
_cell_angle_gamma   90.00000000
_symmetry_Int_Tables_number   1
_chemical_formula_structural   CaOsO4
_chemical_formula_sum   'Ca4 Os4 O16'
_cell_volume   333.48857221
_cell_formula_units_Z   4
loop_
 _symmetry_equiv_pos_site_id
 _symmetry_equiv_pos_as_xyz
  1  'x, y, z'
loop_
 _atom_site_type_symbol
 _atom_site_label
 _atom_site_symmetry_multiplicity
 _atom_site_fract_x
 _atom_site_fract_y
 _atom_site_fract_z
 _atom_site_occupancy
  Ca  Ca0  1  0.750000  0.000000  0.666571  1
  Ca  Ca1  1  0.250000  0.500000  0.833429  1
  Ca  Ca2  1  0.250000  0.000000  0.333429  1
  Ca  Ca3  1  0.750000  0.500000  0.166571  1
  Os  Os4  1  0.750000  0.500000  0.426657  1
  Os  Os5  1  0.250000  0.000000  0.073343  1
  Os  Os6  1  0.250000  0.500000  0.573343  1
  Os  Os7  1  0.750000  0.000000  0.926657  1
  O  O8  1  0.120570  0.276260  0.676210  1
  O  O9  1  0.620570  0.223740  0.823790  1
  O  O10  1  0.879430  0.776260  0.823790  1
  O  O11  1  0.379430  0.723740  0.676210  1
  O  O12  1  0.879430  0.723740  0.323790  1
  O  O13  1  0.379430  0.776260  0.176210  1
  O  O14  1  0.120570  0.223740  0.176210  1
  O  O15  1  0.620570  0.276260  0.323790  1
  O  O16  1  0.559562  0.304753  0.544155  1
  O  O17  1  0.059562  0.195247  0.955845  1
  O  O18  1  0.440438  0.804753  0.955845  1
  O  O19  1  0.940438  0.695247  0.544155  1
  O  O20  1  0.440438  0.695247  0.455845  1
  O  O21  1  0.940438  0.804753  0.044155  1
  O  O22  1  0.559562  0.195247  0.044155  1
  O  O23  1  0.059562  0.304753  0.455845  1
