# generated using pymatgen
data_Ho3Th(NiP)4
_symmetry_space_group_name_H-M   'P 1'
_cell_length_a   3.92792900
_cell_length_b   3.92792936
_cell_length_c   15.33753700
_cell_angle_alpha   90.00000000
_cell_angle_beta   90.00000000
_cell_angle_gamma   119.99998857
_symmetry_Int_Tables_number   1
_chemical_formula_structural   Ho3Th(NiP)4
_chemical_formula_sum   'Ho3 Th1 Ni4 P4'
_cell_volume   204.93380456
_cell_formula_units_Z   1
loop_
 _symmetry_equiv_pos_site_id
 _symmetry_equiv_pos_as_xyz
  1  'x, y, z'
loop_
 _atom_site_type_symbol
 _atom_site_label
 _atom_site_symmetry_multiplicity
 _atom_site_fract_x
 _atom_site_fract_y
 _atom_site_fract_z
 _atom_site_occupancy
  Ho  Ho0  1  0.000000  0.000000  0.500000  1
  Ho  Ho1  1  0.000000  0.000000  0.256550  1
  Ho  Ho2  1  0.000000  0.000000  0.743450  1
  Th  Th3  1  0.000000  0.000000  0.000000  1
  Ni  Ni4  1  0.333333  0.666667  0.371131  1
  Ni  Ni5  1  0.666667  0.333333  0.628869  1
  Ni  Ni6  1  0.666667  0.333333  0.866671  1
  Ni  Ni7  1  0.333333  0.666667  0.133329  1
  P  P8  1  0.333333  0.666667  0.870234  1
  P  P9  1  0.666667  0.333333  0.129766  1
  P  P10  1  0.666667  0.333333  0.380696  1
  P  P11  1  0.333333  0.666667  0.619304  1
