# generated using pymatgen
data_Ho2NiB8Pt
_symmetry_space_group_name_H-M   'P 1'
_cell_length_a   6.91849073
_cell_length_b   6.91849005
_cell_length_c   6.91848999
_cell_angle_alpha   111.43262419
_cell_angle_beta   113.43768622
_cell_angle_gamma   103.70020741
_symmetry_Int_Tables_number   1
_chemical_formula_structural   Ho2NiB8Pt
_chemical_formula_sum   'Ho4 Ni2 B16 Pt2'
_cell_volume   252.92507553
_cell_formula_units_Z   2
loop_
 _symmetry_equiv_pos_site_id
 _symmetry_equiv_pos_as_xyz
  1  'x, y, z'
loop_
 _atom_site_type_symbol
 _atom_site_label
 _atom_site_symmetry_multiplicity
 _atom_site_fract_x
 _atom_site_fract_y
 _atom_site_fract_z
 _atom_site_occupancy
  Ho  Ho0  1  0.796629  0.796629  0.000000  1
  Ho  Ho1  1  0.203371  0.203371  0.000000  1
  Ho  Ho2  1  0.746361  0.246361  0.500000  1
  Ho  Ho3  1  0.253639  0.753639  0.500000  1
  Ni  Ni4  1  0.500000  0.743353  0.243353  1
  Ni  Ni5  1  0.500000  0.256647  0.756647  1
  B  B6  1  0.272794  0.107943  0.380737  1
  B  B7  1  0.727206  0.892057  0.619263  1
  B  B8  1  0.272794  0.892057  0.164851  1
  B  B9  1  0.727206  0.107943  0.835149  1
  B  B10  1  0.109877  0.735402  0.845279  1
  B  B11  1  0.890123  0.264598  0.154721  1
  B  B12  1  0.109877  0.264598  0.374475  1
  B  B13  1  0.890123  0.735402  0.625525  1
  B  B14  1  0.113525  0.106147  0.526269  1
  B  B15  1  0.579878  0.587256  0.473731  1
  B  B16  1  0.113525  0.587256  0.007378  1
  B  B17  1  0.579878  0.106147  0.992622  1
  B  B18  1  0.886475  0.893853  0.473731  1
  B  B19  1  0.420122  0.412744  0.526269  1
  B  B20  1  0.886475  0.412744  0.992622  1
  B  B21  1  0.420122  0.893853  0.007378  1
  Pt  Pt22  1  0.272440  0.500000  0.772440  1
  Pt  Pt23  1  0.727560  0.500000  0.227560  1
