# generated using pymatgen
data_Dy3Ho13(In3Ni)2
_symmetry_space_group_name_H-M   'P 1'
_cell_length_a   10.43073600
_cell_length_b   10.43073656
_cell_length_c   6.90464300
_cell_angle_alpha   90.00000000
_cell_angle_beta   90.00000000
_cell_angle_gamma   119.99999823
_symmetry_Int_Tables_number   1
_chemical_formula_structural   Dy3Ho13(In3Ni)2
_chemical_formula_sum   'Dy3 Ho13 In6 Ni2'
_cell_volume   650.58163334
_cell_formula_units_Z   1
loop_
 _symmetry_equiv_pos_site_id
 _symmetry_equiv_pos_as_xyz
  1  'x, y, z'
loop_
 _atom_site_type_symbol
 _atom_site_label
 _atom_site_symmetry_multiplicity
 _atom_site_fract_x
 _atom_site_fract_y
 _atom_site_fract_z
 _atom_site_occupancy
  Dy  Dy0  1  0.531990  0.063980  0.507702  1
  Dy  Dy1  1  0.936020  0.468010  0.507702  1
  Dy  Dy2  1  0.531990  0.468010  0.507702  1
  Ho  Ho3  1  0.467920  0.935839  0.007602  1
  Ho  Ho4  1  0.064161  0.532080  0.007602  1
  Ho  Ho5  1  0.467920  0.532080  0.007602  1
  Ho  Ho6  1  0.177262  0.354524  0.715776  1
  Ho  Ho7  1  0.645476  0.822738  0.715776  1
  Ho  Ho8  1  0.177262  0.822738  0.715776  1
  Ho  Ho9  1  0.822813  0.645625  0.215299  1
  Ho  Ho10  1  0.354375  0.177187  0.215299  1
  Ho  Ho11  1  0.822813  0.177187  0.215299  1
  Ho  Ho12  1  0.666667  0.333333  0.892431  1
  Ho  Ho13  1  0.333333  0.666667  0.392103  1
  Ho  Ho14  1  0.000000  0.000000  0.491150  1
  Ho  Ho15  1  0.000000  0.000000  0.991307  1
  In  In16  1  0.837445  0.674891  0.748024  1
  In  In17  1  0.325109  0.162555  0.748024  1
  In  In18  1  0.837445  0.162555  0.748024  1
  In  In19  1  0.162656  0.325311  0.247787  1
  In  In20  1  0.674689  0.837344  0.247787  1
  In  In21  1  0.162656  0.837344  0.247787  1
  Ni  Ni22  1  0.666667  0.333333  0.282001  1
  Ni  Ni23  1  0.333333  0.666667  0.782481  1
