# generated using pymatgen
data_SmMnF7
_symmetry_space_group_name_H-M   'P 1'
_cell_length_a   5.49817400
_cell_length_b   8.86995372
_cell_length_c   11.87183114
_cell_angle_alpha   62.19561374
_cell_angle_beta   90.00000000
_cell_angle_gamma   90.00000000
_symmetry_Int_Tables_number   1
_chemical_formula_structural   SmMnF7
_chemical_formula_sum   'Sm4 Mn4 F28'
_cell_volume   512.12692346
_cell_formula_units_Z   4
loop_
 _symmetry_equiv_pos_site_id
 _symmetry_equiv_pos_as_xyz
  1  'x, y, z'
loop_
 _atom_site_type_symbol
 _atom_site_label
 _atom_site_symmetry_multiplicity
 _atom_site_fract_x
 _atom_site_fract_y
 _atom_site_fract_z
 _atom_site_occupancy
  Sm  Sm0  1  0.760234  0.808321  0.764498  1
  Sm  Sm1  1  0.260234  0.191679  0.735502  1
  Sm  Sm2  1  0.239766  0.191679  0.235502  1
  Sm  Sm3  1  0.739766  0.808321  0.264498  1
  Mn  Mn4  1  0.756996  0.273658  0.957288  1
  Mn  Mn5  1  0.256996  0.726342  0.542712  1
  Mn  Mn6  1  0.243004  0.726342  0.042712  1
  Mn  Mn7  1  0.743004  0.273658  0.457288  1
  F  F8  1  0.426666  0.707001  0.920966  1
  F  F9  1  0.926666  0.292999  0.579034  1
  F  F10  1  0.573334  0.292999  0.079034  1
  F  F11  1  0.073334  0.707001  0.420966  1
  F  F12  1  0.457578  0.280720  0.537554  1
  F  F13  1  0.957578  0.719280  0.962446  1
  F  F14  1  0.542422  0.719280  0.462446  1
  F  F15  1  0.042422  0.280720  0.037554  1
  F  F16  1  0.770064  0.508371  0.863802  1
  F  F17  1  0.270064  0.491629  0.636198  1
  F  F18  1  0.229936  0.491629  0.136198  1
  F  F19  1  0.729936  0.508371  0.363802  1
  F  F20  1  0.757054  0.040621  0.046049  1
  F  F21  1  0.257054  0.959379  0.453951  1
  F  F22  1  0.242946  0.959379  0.953951  1
  F  F23  1  0.742946  0.040621  0.546049  1
  F  F24  1  0.978047  0.727265  0.628410  1
  F  F25  1  0.478047  0.272735  0.871590  1
  F  F26  1  0.021953  0.272735  0.371590  1
  F  F27  1  0.521953  0.727265  0.128410  1
  F  F28  1  0.062418  0.741655  0.168690  1
  F  F29  1  0.562418  0.258345  0.331310  1
  F  F30  1  0.937582  0.258345  0.831310  1
  F  F31  1  0.437582  0.741655  0.668690  1
  F  F32  1  0.402919  0.966815  0.228347  1
  F  F33  1  0.902919  0.033185  0.271653  1
  F  F34  1  0.597081  0.033185  0.771653  1
  F  F35  1  0.097081  0.966815  0.728347  1
