# generated using pymatgen
data_Er3Zn2Si2AgHg
_symmetry_space_group_name_H-M   'P 1'
_cell_length_a   6.94998901
_cell_length_b   6.94998843
_cell_length_c   4.27445400
_cell_angle_alpha   90.00000000
_cell_angle_beta   90.00000000
_cell_angle_gamma   118.97072791
_symmetry_Int_Tables_number   1
_chemical_formula_structural   Er3Zn2Si2AgHg
_chemical_formula_sum   'Er3 Zn2 Si2 Ag1 Hg1'
_cell_volume   180.63047373
_cell_formula_units_Z   1
loop_
 _symmetry_equiv_pos_site_id
 _symmetry_equiv_pos_as_xyz
  1  'x, y, z'
loop_
 _atom_site_type_symbol
 _atom_site_label
 _atom_site_symmetry_multiplicity
 _atom_site_fract_x
 _atom_site_fract_y
 _atom_site_fract_z
 _atom_site_occupancy
  Er  Er0  1  0.429227  0.003071  0.500000  1
  Er  Er1  1  0.003071  0.429227  0.500000  1
  Er  Er2  1  0.569895  0.569895  0.500000  1
  Zn  Zn3  1  0.740024  0.997543  0.000000  1
  Zn  Zn4  1  0.997543  0.740024  0.000000  1
  Si  Si5  1  0.332485  0.674242  0.000000  1
  Si  Si6  1  0.674242  0.332485  0.000000  1
  Ag  Ag7  1  0.264663  0.264663  0.000000  1
  Hg  Hg8  1  0.988847  0.988847  0.500000  1
