# generated using pymatgen
data_GdB3Mo
_symmetry_space_group_name_H-M   'P 1'
_cell_length_a   5.49193405
_cell_length_b   3.16886500
_cell_length_c   6.89136439
_cell_angle_alpha   90.00000000
_cell_angle_beta   102.44181073
_cell_angle_gamma   90.00000000
_symmetry_Int_Tables_number   1
_chemical_formula_structural   GdB3Mo
_chemical_formula_sum   'Gd2 B6 Mo2'
_cell_volume   117.11521656
_cell_formula_units_Z   2
loop_
 _symmetry_equiv_pos_site_id
 _symmetry_equiv_pos_as_xyz
  1  'x, y, z'
loop_
 _atom_site_type_symbol
 _atom_site_label
 _atom_site_symmetry_multiplicity
 _atom_site_fract_x
 _atom_site_fract_y
 _atom_site_fract_z
 _atom_site_occupancy
  Gd  Gd0  1  0.173422  0.250000  0.208207  1
  Gd  Gd1  1  0.826578  0.750000  0.791793  1
  B  B2  1  0.577605  0.250000  0.025920  1
  B  B3  1  0.083330  0.750000  0.493966  1
  B  B4  1  0.412766  0.750000  0.495977  1
  B  B5  1  0.587232  0.250000  0.504023  1
  B  B6  1  0.916671  0.250000  0.506034  1
  B  B7  1  0.422395  0.750000  0.974079  1
  Mo  Mo8  1  0.687394  0.750000  0.281572  1
  Mo  Mo9  1  0.312607  0.250000  0.718429  1
