# generated using pymatgen
data_LiCa2Si2(PPd5)4
_symmetry_space_group_name_H-M   'P 1'
_cell_length_a   8.65595772
_cell_length_b   8.65595781
_cell_length_c   8.64616700
_cell_angle_alpha   60.03740582
_cell_angle_beta   60.03740550
_cell_angle_gamma   59.92518051
_symmetry_Int_Tables_number   1
_chemical_formula_structural   LiCa2Si2(PPd5)4
_chemical_formula_sum   'Li1 Ca2 Si2 P4 Pd20'
_cell_volume   458.07621528
_cell_formula_units_Z   1
loop_
 _symmetry_equiv_pos_site_id
 _symmetry_equiv_pos_as_xyz
  1  'x, y, z'
loop_
 _atom_site_type_symbol
 _atom_site_label
 _atom_site_symmetry_multiplicity
 _atom_site_fract_x
 _atom_site_fract_y
 _atom_site_fract_z
 _atom_site_occupancy
  Li  Li0  1  0.000000  0.000000  0.000000  1
  Ca  Ca1  1  0.250000  0.250000  0.250000  1
  Ca  Ca2  1  0.750000  0.750000  0.750000  1
  Si  Si3  1  0.263544  0.263544  0.736456  1
  Si  Si4  1  0.736456  0.736456  0.263544  1
  P  P5  1  0.736559  0.263441  0.263441  1
  P  P6  1  0.263441  0.736559  0.736559  1
  P  P7  1  0.263441  0.736559  0.263441  1
  P  P8  1  0.736559  0.263441  0.736559  1
  Pd  Pd9  1  0.386228  0.386228  0.384391  1
  Pd  Pd10  1  0.613772  0.613772  0.615609  1
  Pd  Pd11  1  0.386228  0.386228  0.843155  1
  Pd  Pd12  1  0.384391  0.843155  0.386228  1
  Pd  Pd13  1  0.613772  0.613772  0.156845  1
  Pd  Pd14  1  0.615609  0.156845  0.613772  1
  Pd  Pd15  1  0.843155  0.384391  0.386228  1
  Pd  Pd16  1  0.156845  0.615609  0.613772  1
  Pd  Pd17  1  0.343928  0.997944  0.002056  1
  Pd  Pd18  1  0.656072  0.002056  0.997944  1
  Pd  Pd19  1  0.997944  0.343928  0.656072  1
  Pd  Pd20  1  0.002056  0.656072  0.343928  1
  Pd  Pd21  1  0.997944  0.343928  0.002056  1
  Pd  Pd22  1  0.656072  0.002056  0.343928  1
  Pd  Pd23  1  0.002056  0.656072  0.997944  1
  Pd  Pd24  1  0.343928  0.997944  0.656072  1
  Pd  Pd25  1  0.000000  0.000000  0.342239  1
  Pd  Pd26  1  0.000000  0.000000  0.657761  1
  Pd  Pd27  1  0.657761  0.342239  0.000000  1
  Pd  Pd28  1  0.342239  0.657761  0.000000  1
