# generated using pymatgen
data_Ho4Ga20Ni11
_symmetry_space_group_name_H-M   'P 1'
_cell_length_a   4.07269675
_cell_length_b   10.54563720
_cell_length_c   12.96330279
_cell_angle_alpha   80.53531467
_cell_angle_beta   80.86761770
_cell_angle_gamma   78.70012186
_symmetry_Int_Tables_number   1
_chemical_formula_structural   Ho4Ga20Ni11
_chemical_formula_sum   'Ho4 Ga20 Ni11'
_cell_volume   533.91323059
_cell_formula_units_Z   1
loop_
 _symmetry_equiv_pos_site_id
 _symmetry_equiv_pos_as_xyz
  1  'x, y, z'
loop_
 _atom_site_type_symbol
 _atom_site_label
 _atom_site_symmetry_multiplicity
 _atom_site_fract_x
 _atom_site_fract_y
 _atom_site_fract_z
 _atom_site_occupancy
  Ho  Ho0  1  0.121330  0.095269  0.665612  1
  Ho  Ho1  1  0.230526  0.366461  0.177695  1
  Ho  Ho2  1  0.774421  0.633618  0.821521  1
  Ho  Ho3  1  0.884080  0.904312  0.333844  1
  Ga  Ga4  1  0.069052  0.666351  0.202748  1
  Ga  Ga5  1  0.300212  0.902353  0.502080  1
  Ga  Ga6  1  0.608061  0.792767  0.003113  1
  Ga  Ga7  1  0.251368  0.796166  0.704160  1
  Ga  Ga8  1  0.890516  0.671005  0.548332  1
  Ga  Ga9  1  0.753141  0.203704  0.295233  1
  Ga  Ga10  1  0.633581  0.940332  0.801990  1
  Ga  Ga11  1  0.704003  0.097520  0.497285  1
  Ga  Ga12  1  0.398672  0.207700  0.996259  1
  Ga  Ga13  1  0.935561  0.334250  0.795970  1
  Ga  Ga14  1  0.462447  0.704173  0.377215  1
  Ga  Ga15  1  0.996473  0.921848  0.090296  1
  Ga  Ga16  1  0.802889  0.398469  0.003114  1
  Ga  Ga17  1  0.542831  0.295403  0.621955  1
  Ga  Ga18  1  0.009102  0.078906  0.908945  1
  Ga  Ga19  1  0.202191  0.601798  0.996146  1
  Ga  Ga20  1  0.111380  0.329145  0.450536  1
  Ga  Ga21  1  0.372835  0.059805  0.197765  1
  Ga  Ga22  1  0.614090  0.471129  0.306859  1
  Ga  Ga23  1  0.391046  0.528951  0.691708  1
  Ni  Ni24  1  0.139194  0.839367  0.894646  1
  Ni  Ni25  1  0.504144  0.182933  0.811395  1
  Ni  Ni26  1  0.868001  0.160963  0.104724  1
  Ni  Ni27  1  0.975339  0.436853  0.612441  1
  Ni  Ni28  1  0.504216  0.499414  0.499248  1
  Ni  Ni29  1  0.655268  0.578885  0.114265  1
  Ni  Ni30  1  0.028997  0.563208  0.386279  1
  Ni  Ni31  1  0.349210  0.421440  0.884778  1
  Ni  Ni32  1  0.250025  0.119040  0.386330  1
  Ni  Ni33  1  0.500446  0.817649  0.187895  1
  Ni  Ni34  1  0.754159  0.880739  0.613258  1
