# generated using pymatgen
data_Pr3SnRh3Pb2
_symmetry_space_group_name_H-M   'P 1'
_cell_length_a   7.77891496
_cell_length_b   7.76369963
_cell_length_c   4.07920500
_cell_angle_alpha   90.00000000
_cell_angle_beta   90.00000000
_cell_angle_gamma   119.93531754
_symmetry_Int_Tables_number   1
_chemical_formula_structural   Pr3SnRh3Pb2
_chemical_formula_sum   'Pr3 Sn1 Rh3 Pb2'
_cell_volume   213.48954335
_cell_formula_units_Z   1
loop_
 _symmetry_equiv_pos_site_id
 _symmetry_equiv_pos_as_xyz
  1  'x, y, z'
loop_
 _atom_site_type_symbol
 _atom_site_label
 _atom_site_symmetry_multiplicity
 _atom_site_fract_x
 _atom_site_fract_y
 _atom_site_fract_z
 _atom_site_occupancy
  Pr  Pr0  1  0.592587  0.002514  0.500000  1
  Pr  Pr1  1  0.407413  0.409928  0.500000  1
  Pr  Pr2  1  0.000000  0.585985  0.500000  1
  Sn  Sn3  1  0.000000  0.255878  0.000000  1
  Rh  Rh4  1  0.000000  0.014905  0.500000  1
  Rh  Rh5  1  0.324987  0.656202  0.000000  1
  Rh  Rh6  1  0.675013  0.331214  0.000000  1
  Pb  Pb7  1  0.256181  0.999777  0.000000  1
  Pb  Pb8  1  0.743819  0.743597  0.000000  1
