# generated using pymatgen
data_Ce3In3NiIr2
_symmetry_space_group_name_H-M   'P 1'
_cell_length_a   7.58395100
_cell_length_b   7.58395142
_cell_length_c   3.94349300
_cell_angle_alpha   90.00000000
_cell_angle_beta   90.00000000
_cell_angle_gamma   119.99999381
_symmetry_Int_Tables_number   1
_chemical_formula_structural   Ce3In3NiIr2
_chemical_formula_sum   'Ce3 In3 Ni1 Ir2'
_cell_volume   196.42772819
_cell_formula_units_Z   1
loop_
 _symmetry_equiv_pos_site_id
 _symmetry_equiv_pos_as_xyz
  1  'x, y, z'
loop_
 _atom_site_type_symbol
 _atom_site_label
 _atom_site_symmetry_multiplicity
 _atom_site_fract_x
 _atom_site_fract_y
 _atom_site_fract_z
 _atom_site_occupancy
  Ce  Ce0  1  0.415803  0.415803  0.000000  1
  Ce  Ce1  1  0.584197  0.000000  0.000000  1
  Ce  Ce2  1  0.000000  0.584197  0.000000  1
  In  In3  1  0.000000  0.244446  0.500000  1
  In  In4  1  0.755554  0.755554  0.500000  1
  In  In5  1  0.244446  0.000000  0.500000  1
  Ni  Ni6  1  0.000000  0.000000  0.000000  1
  Ir  Ir7  1  0.333333  0.666667  0.500000  1
  Ir  Ir8  1  0.666667  0.333333  0.500000  1
