# generated using pymatgen
data_CeTh3Ga2Ru3
_symmetry_space_group_name_H-M   'P 1'
_cell_length_a   7.42265400
_cell_length_b   7.42265300
_cell_length_c   4.07019000
_cell_angle_alpha   90.00000000
_cell_angle_beta   90.00000000
_cell_angle_gamma   121.45742806
_symmetry_Int_Tables_number   1
_chemical_formula_structural   CeTh3Ga2Ru3
_chemical_formula_sum   'Ce1 Th3 Ga2 Ru3'
_cell_volume   191.29183101
_cell_formula_units_Z   1
loop_
 _symmetry_equiv_pos_site_id
 _symmetry_equiv_pos_as_xyz
  1  'x, y, z'
loop_
 _atom_site_type_symbol
 _atom_site_label
 _atom_site_symmetry_multiplicity
 _atom_site_fract_x
 _atom_site_fract_y
 _atom_site_fract_z
 _atom_site_occupancy
  Ce  Ce0  1  0.759438  0.759438  0.000000  1
  Th  Th1  1  0.393907  0.393907  0.500000  1
  Th  Th2  1  0.572277  0.014037  0.500000  1
  Th  Th3  1  0.014037  0.572277  0.500000  1
  Ga  Ga4  1  0.242745  0.994638  0.000000  1
  Ga  Ga5  1  0.994638  0.242745  0.000000  1
  Ru  Ru6  1  0.670861  0.327919  0.000000  1
  Ru  Ru7  1  0.327919  0.670861  0.000000  1
  Ru  Ru8  1  0.024179  0.024179  0.500000  1
