# generated using pymatgen
data_Lu4Al6TcOs
_symmetry_space_group_name_H-M   'P 1'
_cell_length_a   5.41732900
_cell_length_b   5.41732792
_cell_length_c   8.82848300
_cell_angle_alpha   90.00000000
_cell_angle_beta   90.00000000
_cell_angle_gamma   120.00001270
_symmetry_Int_Tables_number   1
_chemical_formula_structural   Lu4Al6TcOs
_chemical_formula_sum   'Lu4 Al6 Tc1 Os1'
_cell_volume   224.38147459
_cell_formula_units_Z   1
loop_
 _symmetry_equiv_pos_site_id
 _symmetry_equiv_pos_as_xyz
  1  'x, y, z'
loop_
 _atom_site_type_symbol
 _atom_site_label
 _atom_site_symmetry_multiplicity
 _atom_site_fract_x
 _atom_site_fract_y
 _atom_site_fract_z
 _atom_site_occupancy
  Lu  Lu0  1  0.666667  0.333333  0.946979  1
  Lu  Lu1  1  0.333333  0.666667  0.053021  1
  Lu  Lu2  1  0.333333  0.666667  0.447177  1
  Lu  Lu3  1  0.666667  0.333333  0.552823  1
  Al  Al4  1  0.326763  0.163381  0.252015  1
  Al  Al5  1  0.836619  0.163381  0.252015  1
  Al  Al6  1  0.836619  0.673237  0.252015  1
  Al  Al7  1  0.163381  0.326763  0.747985  1
  Al  Al8  1  0.163381  0.836619  0.747985  1
  Al  Al9  1  0.673237  0.836619  0.747985  1
  Tc  Tc10  1  0.000000  0.000000  0.000000  1
  Os  Os11  1  0.000000  0.000000  0.500000  1
