# generated using pymatgen
data_LiCe3Y3Co17P12
_symmetry_space_group_name_H-M   'P 1'
_cell_length_a   3.72598700
_cell_length_b   10.57123217
_cell_length_c   12.22418968
_cell_angle_alpha   90.25114961
_cell_angle_beta   90.00000000
_cell_angle_gamma   90.00000000
_symmetry_Int_Tables_number   1
_chemical_formula_structural   LiCe3Y3Co17P12
_chemical_formula_sum   'Li1 Ce3 Y3 Co17 P12'
_cell_volume   481.48510280
_cell_formula_units_Z   1
loop_
 _symmetry_equiv_pos_site_id
 _symmetry_equiv_pos_as_xyz
  1  'x, y, z'
loop_
 _atom_site_type_symbol
 _atom_site_label
 _atom_site_symmetry_multiplicity
 _atom_site_fract_x
 _atom_site_fract_y
 _atom_site_fract_z
 _atom_site_occupancy
  Li  Li0  1  0.000000  0.999798  0.849657  1
  Ce  Ce1  1  0.000000  0.499159  0.526758  1
  Ce  Ce2  1  0.500000  0.000912  0.474868  1
  Ce  Ce3  1  0.500000  0.819528  0.207248  1
  Y  Y4  1  0.500000  0.186271  0.203597  1
  Y  Y5  1  0.000000  0.683270  0.795410  1
  Y  Y6  1  0.000000  0.316139  0.794127  1
  Co  Co7  1  0.500000  0.500078  0.159296  1
  Co  Co8  1  0.500000  0.499465  0.699634  1
  Co  Co9  1  0.000000  0.996101  0.297447  1
  Co  Co10  1  0.000000  0.499815  0.984171  1
  Co  Co11  1  0.500000  0.001518  0.013972  1
  Co  Co12  1  0.500000  0.336130  0.995631  1
  Co  Co13  1  0.500000  0.664324  0.996523  1
  Co  Co14  1  0.000000  0.170307  0.004490  1
  Co  Co15  1  0.000000  0.831391  0.005248  1
  Co  Co16  1  0.500000  0.298661  0.428959  1
  Co  Co17  1  0.500000  0.699333  0.431091  1
  Co  Co18  1  0.000000  0.201417  0.567345  1
  Co  Co19  1  0.000000  0.797612  0.569918  1
  Co  Co20  1  0.500000  0.878373  0.709520  1
  Co  Co21  1  0.500000  0.121162  0.708021  1
  Co  Co22  1  0.000000  0.619912  0.289377  1
  Co  Co23  1  0.000000  0.380554  0.288995  1
  P  P24  1  0.500000  0.499773  0.880726  1
  P  P25  1  0.000000  0.002642  0.114089  1
  P  P26  1  0.500000  0.499263  0.342702  1
  P  P27  1  0.000000  0.999689  0.657335  1
  P  P28  1  0.500000  0.305590  0.615013  1
  P  P29  1  0.500000  0.692977  0.616991  1
  P  P30  1  0.000000  0.192604  0.382335  1
  P  P31  1  0.000000  0.804486  0.387773  1
  P  P32  1  0.500000  0.843623  0.896046  1
  P  P33  1  0.500000  0.157186  0.894719  1
  P  P34  1  0.000000  0.651130  0.105133  1
  P  P35  1  0.000000  0.349807  0.105835  1
