# generated using pymatgen
data_Dy5Y(Er3Co2)2
_symmetry_space_group_name_H-M   'P 1'
_cell_length_a   6.19115213
_cell_length_b   6.92385032
_cell_length_c   9.40294600
_cell_angle_alpha   90.00037238
_cell_angle_beta   89.65516743
_cell_angle_gamma   89.98263305
_symmetry_Int_Tables_number   1
_chemical_formula_structural   Dy5Y(Er3Co2)2
_chemical_formula_sum   'Dy5 Y1 Er6 Co4'
_cell_volume   403.06510640
_cell_formula_units_Z   1
loop_
 _symmetry_equiv_pos_site_id
 _symmetry_equiv_pos_as_xyz
  1  'x, y, z'
loop_
 _atom_site_type_symbol
 _atom_site_label
 _atom_site_symmetry_multiplicity
 _atom_site_fract_x
 _atom_site_fract_y
 _atom_site_fract_z
 _atom_site_occupancy
  Dy  Dy0  1  0.321968  0.675424  0.431180  1
  Dy  Dy1  1  0.177571  0.175692  0.068803  1
  Dy  Dy2  1  0.858777  0.542282  0.249341  1
  Dy  Dy3  1  0.641308  0.042040  0.250721  1
  Dy  Dy4  1  0.139201  0.457390  0.750049  1
  Y  Y5  1  0.360884  0.956960  0.749703  1
  Er  Er6  1  0.325793  0.674991  0.067134  1
  Er  Er7  1  0.173618  0.174826  0.432894  1
  Er  Er8  1  0.674615  0.325762  0.568273  1
  Er  Er9  1  0.826133  0.825504  0.931665  1
  Er  Er10  1  0.676969  0.324751  0.932010  1
  Er  Er11  1  0.823884  0.824440  0.568195  1
  Co  Co12  1  0.049634  0.886764  0.250279  1
  Co  Co13  1  0.450266  0.386797  0.249721  1
  Co  Co14  1  0.947426  0.114206  0.745521  1
  Co  Co15  1  0.551956  0.612175  0.754514  1
