# generated using pymatgen
data_Tb12CoNi3OsPb
_symmetry_space_group_name_H-M   'P 1'
_cell_length_a   8.35402150
_cell_length_b   8.35352469
_cell_length_c   8.35401900
_cell_angle_alpha   111.17614562
_cell_angle_beta   109.57654000
_cell_angle_gamma   107.68220420
_symmetry_Int_Tables_number   1
_chemical_formula_structural   Tb12CoNi3OsPb
_chemical_formula_sum   'Tb12 Co1 Ni3 Os1 Pb1'
_cell_volume   448.35481180
_cell_formula_units_Z   1
loop_
 _symmetry_equiv_pos_site_id
 _symmetry_equiv_pos_as_xyz
  1  'x, y, z'
loop_
 _atom_site_type_symbol
 _atom_site_label
 _atom_site_symmetry_multiplicity
 _atom_site_fract_x
 _atom_site_fract_y
 _atom_site_fract_z
 _atom_site_occupancy
  Tb  Tb0  1  0.408054  0.216454  0.191619  1
  Tb  Tb1  1  0.591141  0.782449  0.808699  1
  Tb  Tb2  1  0.024835  0.216454  0.808399  1
  Tb  Tb3  1  0.973749  0.782449  0.191309  1
  Tb  Tb4  1  0.176997  0.282732  0.462738  1
  Tb  Tb5  1  0.820007  0.714254  0.537282  1
  Tb  Tb6  1  0.176973  0.714254  0.894248  1
  Tb  Tb7  1  0.819994  0.282732  0.105734  1
  Tb  Tb8  1  0.320686  0.627197  0.306509  1
  Tb  Tb9  1  0.683904  0.375152  0.691249  1
  Tb  Tb10  1  0.320657  0.014109  0.693451  1
  Tb  Tb11  1  0.683902  0.992702  0.308801  1
  Co  Co12  1  0.884841  0.384881  0.500040  1
  Ni  Ni13  1  0.364482  0.999051  0.365452  1
  Ni  Ni14  1  0.633598  0.999051  0.634568  1
  Ni  Ni15  1  0.117747  0.617639  0.499892  1
  Os  Os16  1  0.998697  0.998695  0.999998  1
  Pb  Pb17  1  0.499734  0.499748  0.000014  1
