# generated using pymatgen
data_TbDy3Ga18(NiIr2)2
_symmetry_space_group_name_H-M   'P 1'
_cell_length_a   7.56189934
_cell_length_b   7.56035899
_cell_length_c   9.45126400
_cell_angle_alpha   90.00000000
_cell_angle_beta   90.00000000
_cell_angle_gamma   120.06096561
_symmetry_Int_Tables_number   1
_chemical_formula_structural   TbDy3Ga18(NiIr2)2
_chemical_formula_sum   'Tb1 Dy3 Ga18 Ni2 Ir4'
_cell_volume   467.65621220
_cell_formula_units_Z   1
loop_
 _symmetry_equiv_pos_site_id
 _symmetry_equiv_pos_as_xyz
  1  'x, y, z'
loop_
 _atom_site_type_symbol
 _atom_site_label
 _atom_site_symmetry_multiplicity
 _atom_site_fract_x
 _atom_site_fract_y
 _atom_site_fract_z
 _atom_site_occupancy
  Tb  Tb0  1  0.996882  0.661041  0.250000  1
  Dy  Dy1  1  0.003162  0.339069  0.750000  1
  Dy  Dy2  1  0.660918  0.996855  0.250000  1
  Dy  Dy3  1  0.339042  0.003163  0.750000  1
  Ga  Ga4  1  0.110204  0.110251  0.250000  1
  Ga  Ga5  1  0.889831  0.889840  0.750000  1
  Ga  Ga6  1  0.999324  0.327555  0.078485  1
  Ga  Ga7  1  0.000673  0.672342  0.921370  1
  Ga  Ga8  1  0.000673  0.672342  0.578630  1
  Ga  Ga9  1  0.327754  0.999429  0.421469  1
  Ga  Ga10  1  0.999324  0.327555  0.421515  1
  Ga  Ga11  1  0.672386  0.000683  0.578560  1
  Ga  Ga12  1  0.672386  0.000683  0.921440  1
  Ga  Ga13  1  0.327754  0.999429  0.078531  1
  Ga  Ga14  1  0.326805  0.326796  0.564886  1
  Ga  Ga15  1  0.673122  0.673204  0.435205  1
  Ga  Ga16  1  0.673122  0.673204  0.064795  1
  Ga  Ga17  1  0.326805  0.326796  0.935114  1
  Ga  Ga18  1  0.338298  0.541020  0.250000  1
  Ga  Ga19  1  0.661724  0.458895  0.750000  1
  Ga  Ga20  1  0.540966  0.338198  0.250000  1
  Ga  Ga21  1  0.458900  0.661693  0.750000  1
  Ni  Ni22  1  0.999987  0.000009  0.999990  1
  Ni  Ni23  1  0.999987  0.000009  0.500010  1
  Ir  Ir24  1  0.671596  0.328282  0.999977  1
  Ir  Ir25  1  0.328391  0.671686  0.999996  1
  Ir  Ir26  1  0.328391  0.671686  0.500004  1
  Ir  Ir27  1  0.671596  0.328282  0.500023  1
