# generated using pymatgen
data_Y3Tm17(Cd3Tc)2
_symmetry_space_group_name_H-M   'P 1'
_cell_length_a   9.44465000
_cell_length_b   9.44465101
_cell_length_c   9.82228300
_cell_angle_alpha   90.00000000
_cell_angle_beta   90.00000000
_cell_angle_gamma   119.99999645
_symmetry_Int_Tables_number   1
_chemical_formula_structural   Y3Tm17(Cd3Tc)2
_chemical_formula_sum   'Y3 Tm17 Cd6 Tc2'
_cell_volume   758.77825014
_cell_formula_units_Z   1
loop_
 _symmetry_equiv_pos_site_id
 _symmetry_equiv_pos_as_xyz
  1  'x, y, z'
loop_
 _atom_site_type_symbol
 _atom_site_label
 _atom_site_symmetry_multiplicity
 _atom_site_fract_x
 _atom_site_fract_y
 _atom_site_fract_z
 _atom_site_occupancy
  Y  Y0  1  0.461223  0.538777  0.750000  1
  Y  Y1  1  0.461223  0.922445  0.750000  1
  Y  Y2  1  0.077555  0.538777  0.750000  1
  Tm  Tm3  1  0.000000  0.000000  0.499592  1
  Tm  Tm4  1  0.000000  0.000000  0.000408  1
  Tm  Tm5  1  0.539786  0.460214  0.250000  1
  Tm  Tm6  1  0.539786  0.079572  0.250000  1
  Tm  Tm7  1  0.920428  0.460214  0.250000  1
  Tm  Tm8  1  0.209981  0.790019  0.440599  1
  Tm  Tm9  1  0.209981  0.419964  0.440599  1
  Tm  Tm10  1  0.580036  0.790019  0.440599  1
  Tm  Tm11  1  0.789441  0.210559  0.557016  1
  Tm  Tm12  1  0.789441  0.578880  0.557016  1
  Tm  Tm13  1  0.421120  0.210559  0.557016  1
  Tm  Tm14  1  0.789441  0.210559  0.942984  1
  Tm  Tm15  1  0.789441  0.578880  0.942984  1
  Tm  Tm16  1  0.421120  0.210559  0.942984  1
  Tm  Tm17  1  0.209981  0.790019  0.059401  1
  Tm  Tm18  1  0.209981  0.419964  0.059401  1
  Tm  Tm19  1  0.580036  0.790019  0.059401  1
  Cd  Cd20  1  0.885571  0.114429  0.250000  1
  Cd  Cd21  1  0.885571  0.771142  0.250000  1
  Cd  Cd22  1  0.228858  0.114429  0.250000  1
  Cd  Cd23  1  0.112940  0.887060  0.750000  1
  Cd  Cd24  1  0.112940  0.225879  0.750000  1
  Cd  Cd25  1  0.774121  0.887060  0.750000  1
  Tc  Tc26  1  0.333333  0.666667  0.250000  1
  Tc  Tc27  1  0.666667  0.333333  0.750000  1
