# generated using pymatgen
data_NpTcRh2F24
_symmetry_space_group_name_H-M   'P 1'
_cell_length_a   5.28463302
_cell_length_b   9.09173500
_cell_length_c   9.98489493
_cell_angle_alpha   90.00000000
_cell_angle_beta   90.05083526
_cell_angle_gamma   90.00000000
_symmetry_Int_Tables_number   1
_chemical_formula_structural   NpTcRh2F24
_chemical_formula_sum   'Np1 Tc1 Rh2 F24'
_cell_volume   479.73889558
_cell_formula_units_Z   1
loop_
 _symmetry_equiv_pos_site_id
 _symmetry_equiv_pos_as_xyz
  1  'x, y, z'
loop_
 _atom_site_type_symbol
 _atom_site_label
 _atom_site_symmetry_multiplicity
 _atom_site_fract_x
 _atom_site_fract_y
 _atom_site_fract_z
 _atom_site_occupancy
  Np  Np0  1  0.582845  0.750000  0.128802  1
  Tc  Tc1  1  0.918189  0.750000  0.629991  1
  Rh  Rh2  1  0.081187  0.250000  0.370746  1
  Rh  Rh3  1  0.418225  0.250000  0.870129  1
  F  F4  1  0.204165  0.750000  0.522243  1
  F  F5  1  0.794171  0.250000  0.481151  1
  F  F6  1  0.705078  0.250000  0.980713  1
  F  F7  1  0.275737  0.750000  0.010020  1
  F  F8  1  0.631811  0.750000  0.738162  1
  F  F9  1  0.368700  0.250000  0.260749  1
  F  F10  1  0.130374  0.250000  0.759903  1
  F  F11  1  0.889764  0.750000  0.247911  1
  F  F12  1  0.772874  0.606634  0.523865  1
  F  F13  1  0.228351  0.396476  0.478517  1
  F  F14  1  0.270604  0.396306  0.977485  1
  F  F15  1  0.228351  0.103524  0.478517  1
  F  F16  1  0.742062  0.595615  0.013946  1
  F  F17  1  0.772874  0.893366  0.523865  1
  F  F18  1  0.742062  0.904385  0.013946  1
  F  F19  1  0.270604  0.103694  0.977485  1
  F  F20  1  0.061484  0.606179  0.735936  1
  F  F21  1  0.933329  0.396244  0.263209  1
  F  F22  1  0.565086  0.396395  0.762518  1
  F  F23  1  0.933329  0.103756  0.263209  1
  F  F24  1  0.426086  0.595564  0.244265  1
  F  F25  1  0.061484  0.893821  0.735936  1
  F  F26  1  0.426086  0.904436  0.244265  1
  F  F27  1  0.565086  0.103605  0.762518  1
