# generated using pymatgen
data_HoLu4(FeB3)2
_symmetry_space_group_name_H-M   'P 1'
_cell_length_a   5.36950091
_cell_length_b   5.36949975
_cell_length_c   8.05861581
_cell_angle_alpha   70.53975325
_cell_angle_beta   70.53975732
_cell_angle_gamma   60.00001366
_symmetry_Int_Tables_number   1
_chemical_formula_structural   HoLu4(FeB3)2
_chemical_formula_sum   'Ho1 Lu4 Fe2 B6'
_cell_volume   185.72990261
_cell_formula_units_Z   1
loop_
 _symmetry_equiv_pos_site_id
 _symmetry_equiv_pos_as_xyz
  1  'x, y, z'
loop_
 _atom_site_type_symbol
 _atom_site_label
 _atom_site_symmetry_multiplicity
 _atom_site_fract_x
 _atom_site_fract_y
 _atom_site_fract_z
 _atom_site_occupancy
  Ho  Ho0  1  0.000000  0.000000  0.000000  1
  Lu  Lu1  1  0.748777  0.748777  0.753668  1
  Lu  Lu2  1  0.251223  0.251223  0.246332  1
  Lu  Lu3  1  0.583579  0.583579  0.249262  1
  Lu  Lu4  1  0.416421  0.416421  0.750738  1
  Fe  Fe5  1  0.884075  0.884075  0.347776  1
  Fe  Fe6  1  0.115925  0.115925  0.652224  1
  B  B7  1  0.500000  0.168751  0.500000  1
  B  B8  1  0.831249  0.500000  0.500000  1
  B  B9  1  0.168751  0.831249  0.500000  1
  B  B10  1  0.168751  0.500000  0.500000  1
  B  B11  1  0.831249  0.168751  0.500000  1
  B  B12  1  0.500000  0.831249  0.500000  1
