# generated using pymatgen
data_Ho13Er7(Ir2Ru)4
_symmetry_space_group_name_H-M   'P 1'
_cell_length_a   10.76653402
_cell_length_b   10.76622502
_cell_length_c   6.39644700
_cell_angle_alpha   90.00150805
_cell_angle_beta   90.00289856
_cell_angle_gamma   90.00586453
_symmetry_Int_Tables_number   1
_chemical_formula_structural   Ho13Er7(Ir2Ru)4
_chemical_formula_sum   'Ho13 Er7 Ir8 Ru4'
_cell_volume   741.44368781
_cell_formula_units_Z   1
loop_
 _symmetry_equiv_pos_site_id
 _symmetry_equiv_pos_as_xyz
  1  'x, y, z'
loop_
 _atom_site_type_symbol
 _atom_site_label
 _atom_site_symmetry_multiplicity
 _atom_site_fract_x
 _atom_site_fract_y
 _atom_site_fract_z
 _atom_site_occupancy
  Ho  Ho0  1  0.293344  0.086452  0.377074  1
  Ho  Ho1  1  0.293334  0.913591  0.877083  1
  Ho  Ho2  1  0.706703  0.086426  0.877079  1
  Ho  Ho3  1  0.706643  0.913633  0.377109  1
  Ho  Ho4  1  0.586391  0.793353  0.877128  1
  Ho  Ho5  1  0.586394  0.206660  0.377165  1
  Ho  Ho6  1  0.413605  0.793340  0.377158  1
  Ho  Ho7  1  0.413586  0.206635  0.877143  1
  Ho  Ho8  1  0.206471  0.413593  0.622880  1
  Ho  Ho9  1  0.206570  0.586332  0.122871  1
  Ho  Ho10  1  0.793462  0.413540  0.122838  1
  Ho  Ho11  1  0.793491  0.586357  0.622885  1
  Ho  Ho12  1  0.913662  0.706614  0.122893  1
  Er  Er13  1  0.913666  0.293499  0.622788  1
  Er  Er14  1  0.086371  0.706534  0.622781  1
  Er  Er15  1  0.086322  0.293505  0.122733  1
  Er  Er16  1  0.999988  0.000017  0.500044  1
  Er  Er17  1  0.000026  0.000040  0.999897  1
  Er  Er18  1  0.500027  0.499976  0.999981  1
  Er  Er19  1  0.500005  0.499977  0.499908  1
  Ir  Ir20  1  0.847763  0.152521  0.250203  1
  Ir  Ir21  1  0.847689  0.847525  0.749971  1
  Ir  Ir22  1  0.152267  0.152557  0.750214  1
  Ir  Ir23  1  0.152309  0.847507  0.250237  1
  Ir  Ir24  1  0.652527  0.347580  0.749954  1
  Ir  Ir25  1  0.652420  0.652423  0.250037  1
  Ir  Ir26  1  0.347441  0.347574  0.249954  1
  Ir  Ir27  1  0.347483  0.652407  0.749972  1
  Ru  Ru28  1  0.499978  0.999975  0.122009  1
  Ru  Ru29  1  0.499998  0.000002  0.622046  1
  Ru  Ru30  1  0.000029  0.499904  0.877866  1
  Ru  Ru31  1  0.000032  0.499950  0.378099  1
