# generated using pymatgen
data_Ho2Al8ZnPd3
_symmetry_space_group_name_H-M   'P 1'
_cell_length_a   7.58111027
_cell_length_b   7.58110983
_cell_length_c   9.47419600
_cell_angle_alpha   90.00000000
_cell_angle_beta   90.00000000
_cell_angle_gamma   119.19647276
_symmetry_Int_Tables_number   1
_chemical_formula_structural   Ho2Al8ZnPd3
_chemical_formula_sum   'Ho4 Al16 Zn2 Pd6'
_cell_volume   475.33345902
_cell_formula_units_Z   2
loop_
 _symmetry_equiv_pos_site_id
 _symmetry_equiv_pos_as_xyz
  1  'x, y, z'
loop_
 _atom_site_type_symbol
 _atom_site_label
 _atom_site_symmetry_multiplicity
 _atom_site_fract_x
 _atom_site_fract_y
 _atom_site_fract_z
 _atom_site_occupancy
  Ho  Ho0  1  0.993834  0.669904  0.250000  1
  Ho  Ho1  1  0.006166  0.330096  0.750000  1
  Ho  Ho2  1  0.669904  0.993834  0.250000  1
  Ho  Ho3  1  0.330096  0.006166  0.750000  1
  Al  Al4  1  0.001311  0.332294  0.077653  1
  Al  Al5  1  0.998689  0.667706  0.922347  1
  Al  Al6  1  0.998689  0.667706  0.577653  1
  Al  Al7  1  0.332294  0.001311  0.422347  1
  Al  Al8  1  0.001311  0.332294  0.422347  1
  Al  Al9  1  0.667706  0.998689  0.577653  1
  Al  Al10  1  0.667706  0.998689  0.922347  1
  Al  Al11  1  0.332294  0.001311  0.077653  1
  Al  Al12  1  0.332895  0.332895  0.558046  1
  Al  Al13  1  0.667105  0.667106  0.441954  1
  Al  Al14  1  0.667105  0.667106  0.058046  1
  Al  Al15  1  0.332895  0.332895  0.941954  1
  Al  Al16  1  0.337274  0.544279  0.250000  1
  Al  Al17  1  0.662726  0.455721  0.750000  1
  Al  Al18  1  0.544279  0.337274  0.250000  1
  Al  Al19  1  0.455721  0.662726  0.750000  1
  Zn  Zn20  1  0.135860  0.135860  0.250000  1
  Zn  Zn21  1  0.864140  0.864140  0.750000  1
  Pd  Pd22  1  0.672049  0.327951  0.000000  1
  Pd  Pd23  1  0.327951  0.672049  0.000000  1
  Pd  Pd24  1  0.327951  0.672049  0.500000  1
  Pd  Pd25  1  0.672049  0.327951  0.500000  1
  Pd  Pd26  1  0.000000  0.000000  0.000000  1
  Pd  Pd27  1  0.000000  0.000000  0.500000  1
