# generated using pymatgen
data_Lu2AlB2Ir4Ru
_symmetry_space_group_name_H-M   'P 1'
_cell_length_a   9.56118500
_cell_length_b   9.56118500
_cell_length_c   3.05909200
_cell_angle_alpha   90.00000000
_cell_angle_beta   90.00000000
_cell_angle_gamma   90.00000000
_symmetry_Int_Tables_number   1
_chemical_formula_structural   Lu2AlB2Ir4Ru
_chemical_formula_sum   'Lu4 Al2 B4 Ir8 Ru2'
_cell_volume   279.65074537
_cell_formula_units_Z   2
loop_
 _symmetry_equiv_pos_site_id
 _symmetry_equiv_pos_as_xyz
  1  'x, y, z'
loop_
 _atom_site_type_symbol
 _atom_site_label
 _atom_site_symmetry_multiplicity
 _atom_site_fract_x
 _atom_site_fract_y
 _atom_site_fract_z
 _atom_site_occupancy
  Lu  Lu0  1  0.674724  0.174724  0.000000  1
  Lu  Lu1  1  0.325276  0.825276  0.000000  1
  Lu  Lu2  1  0.174724  0.325276  0.000000  1
  Lu  Lu3  1  0.825276  0.674724  0.000000  1
  Al  Al4  1  0.000000  0.000000  0.000000  1
  Al  Al5  1  0.500000  0.500000  0.000000  1
  B  B6  1  0.121580  0.621580  0.000000  1
  B  B7  1  0.878420  0.378420  0.000000  1
  B  B8  1  0.621580  0.878420  0.000000  1
  B  B9  1  0.378420  0.121580  0.000000  1
  Ir  Ir10  1  0.216523  0.069569  0.500000  1
  Ir  Ir11  1  0.783477  0.930431  0.500000  1
  Ir  Ir12  1  0.069569  0.783477  0.500000  1
  Ir  Ir13  1  0.716523  0.430431  0.500000  1
  Ir  Ir14  1  0.930431  0.216523  0.500000  1
  Ir  Ir15  1  0.283477  0.569569  0.500000  1
  Ir  Ir16  1  0.569569  0.716523  0.500000  1
  Ir  Ir17  1  0.430431  0.283477  0.500000  1
  Ru  Ru18  1  0.500000  0.000000  0.500000  1
  Ru  Ru19  1  0.000000  0.500000  0.500000  1
