# generated using pymatgen
data_Tb2Er2Al4IrPd3
_symmetry_space_group_name_H-M   'P 1'
_cell_length_a   4.42002100
_cell_length_b   6.83572108
_cell_length_c   7.83669083
_cell_angle_alpha   89.92893852
_cell_angle_beta   89.99990507
_cell_angle_gamma   90.00034707
_symmetry_Int_Tables_number   1
_chemical_formula_structural   Tb2Er2Al4IrPd3
_chemical_formula_sum   'Tb2 Er2 Al4 Ir1 Pd3'
_cell_volume   236.77783546
_cell_formula_units_Z   1
loop_
 _symmetry_equiv_pos_site_id
 _symmetry_equiv_pos_as_xyz
  1  'x, y, z'
loop_
 _atom_site_type_symbol
 _atom_site_label
 _atom_site_symmetry_multiplicity
 _atom_site_fract_x
 _atom_site_fract_y
 _atom_site_fract_z
 _atom_site_occupancy
  Tb  Tb0  1  0.249998  0.036144  0.323416  1
  Tb  Tb1  1  0.249995  0.533006  0.178785  1
  Er  Er2  1  0.749996  0.976235  0.679710  1
  Er  Er3  1  0.750001  0.462056  0.816688  1
  Al  Al4  1  0.250000  0.144637  0.935837  1
  Al  Al5  1  0.250000  0.637614  0.562379  1
  Al  Al6  1  0.750004  0.856841  0.057987  1
  Al  Al7  1  0.750000  0.355593  0.443114  1
  Ir  Ir8  1  0.250003  0.267527  0.622533  1
  Pd  Pd9  1  0.250009  0.770997  0.878838  1
  Pd  Pd10  1  0.749998  0.729950  0.379839  1
  Pd  Pd11  1  0.749996  0.229401  0.120875  1
