# generated using pymatgen
data_Eu4NCl6
_symmetry_space_group_name_H-M   'P 1'
_cell_length_a   9.47951000
_cell_length_b   9.47951095
_cell_length_c   7.15580900
_cell_angle_alpha   90.00000000
_cell_angle_beta   90.00000000
_cell_angle_gamma   120.00000365
_symmetry_Int_Tables_number   1
_chemical_formula_structural   Eu4NCl6
_chemical_formula_sum   'Eu8 N2 Cl12'
_cell_volume   556.87943173
_cell_formula_units_Z   2
loop_
 _symmetry_equiv_pos_site_id
 _symmetry_equiv_pos_as_xyz
  1  'x, y, z'
loop_
 _atom_site_type_symbol
 _atom_site_label
 _atom_site_symmetry_multiplicity
 _atom_site_fract_x
 _atom_site_fract_y
 _atom_site_fract_z
 _atom_site_occupancy
  Eu  Eu0  1  0.799507  0.200493  0.502775  1
  Eu  Eu1  1  0.599014  0.799507  0.002775  1
  Eu  Eu2  1  0.200493  0.400986  0.002775  1
  Eu  Eu3  1  0.799507  0.599014  0.502775  1
  Eu  Eu4  1  0.400986  0.200493  0.502775  1
  Eu  Eu5  1  0.200493  0.799507  0.002775  1
  Eu  Eu6  1  0.666667  0.333333  0.929459  1
  Eu  Eu7  1  0.333333  0.666667  0.429459  1
  N  N8  1  0.333333  0.666667  0.106824  1
  N  N9  1  0.666667  0.333333  0.606824  1
  Cl  Cl10  1  0.464943  0.929885  0.714468  1
  Cl  Cl11  1  0.535057  0.070115  0.214468  1
  Cl  Cl12  1  0.929885  0.464943  0.214468  1
  Cl  Cl13  1  0.464943  0.535057  0.714468  1
  Cl  Cl14  1  0.857693  0.142307  0.891029  1
  Cl  Cl15  1  0.715387  0.857693  0.391029  1
  Cl  Cl16  1  0.535057  0.464943  0.214468  1
  Cl  Cl17  1  0.070115  0.535057  0.714468  1
  Cl  Cl18  1  0.142307  0.857693  0.391029  1
  Cl  Cl19  1  0.284613  0.142307  0.891029  1
  Cl  Cl20  1  0.857693  0.715387  0.891029  1
  Cl  Cl21  1  0.142307  0.284613  0.391029  1
