# generated using pymatgen
data_Ca3GaP3
_symmetry_space_group_name_H-M   'P 1'
_cell_length_a   4.08475300
_cell_length_b   12.09934200
_cell_length_c   13.08236700
_cell_angle_alpha   90.00000000
_cell_angle_beta   90.00000000
_cell_angle_gamma   90.00000000
_symmetry_Int_Tables_number   1
_chemical_formula_structural   Ca3GaP3
_chemical_formula_sum   'Ca12 Ga4 P12'
_cell_volume   646.56751563
_cell_formula_units_Z   4
loop_
 _symmetry_equiv_pos_site_id
 _symmetry_equiv_pos_as_xyz
  1  'x, y, z'
loop_
 _atom_site_type_symbol
 _atom_site_label
 _atom_site_symmetry_multiplicity
 _atom_site_fract_x
 _atom_site_fract_y
 _atom_site_fract_z
 _atom_site_occupancy
  Ca  Ca0  1  0.750000  0.142727  0.996031  1
  Ca  Ca1  1  0.250000  0.276349  0.208642  1
  Ca  Ca2  1  0.250000  0.357273  0.496031  1
  Ca  Ca3  1  0.750000  0.642727  0.503969  1
  Ca  Ca4  1  0.750000  0.427424  0.893742  1
  Ca  Ca5  1  0.250000  0.857273  0.003969  1
  Ca  Ca6  1  0.750000  0.223651  0.708642  1
  Ca  Ca7  1  0.750000  0.927424  0.606258  1
  Ca  Ca8  1  0.250000  0.072576  0.393742  1
  Ca  Ca9  1  0.250000  0.572576  0.106258  1
  Ca  Ca10  1  0.250000  0.776349  0.291358  1
  Ca  Ca11  1  0.750000  0.723651  0.791358  1
  Ga  Ga12  1  0.750000  0.944460  0.201958  1
  Ga  Ga13  1  0.750000  0.444460  0.298042  1
  Ga  Ga14  1  0.250000  0.555540  0.701958  1
  Ga  Ga15  1  0.250000  0.055540  0.798042  1
  P  P16  1  0.750000  0.758139  0.127339  1
  P  P17  1  0.250000  0.095251  0.616059  1
  P  P18  1  0.250000  0.595251  0.883941  1
  P  P19  1  0.750000  0.904749  0.383941  1
  P  P20  1  0.250000  0.741861  0.627339  1
  P  P21  1  0.250000  0.045561  0.147290  1
  P  P22  1  0.750000  0.954439  0.852710  1
  P  P23  1  0.750000  0.454439  0.647290  1
  P  P24  1  0.250000  0.545561  0.352710  1
  P  P25  1  0.750000  0.258139  0.372661  1
  P  P26  1  0.750000  0.404749  0.116059  1
  P  P27  1  0.250000  0.241861  0.872661  1
