# generated using pymatgen
data_Y5Ho(Al3Os)8
_symmetry_space_group_name_H-M   'P 1'
_cell_length_a   8.84276801
_cell_length_b   8.84276777
_cell_length_c   9.56715500
_cell_angle_alpha   90.00000000
_cell_angle_beta   90.00000000
_cell_angle_gamma   120.00511901
_symmetry_Int_Tables_number   1
_chemical_formula_structural   Y5Ho(Al3Os)8
_chemical_formula_sum   'Y5 Ho1 Al24 Os8'
_cell_volume   647.83959607
_cell_formula_units_Z   1
loop_
 _symmetry_equiv_pos_site_id
 _symmetry_equiv_pos_as_xyz
  1  'x, y, z'
loop_
 _atom_site_type_symbol
 _atom_site_label
 _atom_site_symmetry_multiplicity
 _atom_site_fract_x
 _atom_site_fract_y
 _atom_site_fract_z
 _atom_site_occupancy
  Y  Y0  1  0.193198  0.386383  0.250000  1
  Y  Y1  1  0.806942  0.613748  0.750000  1
  Y  Y2  1  0.613617  0.806802  0.250000  1
  Y  Y3  1  0.386252  0.193058  0.750000  1
  Y  Y4  1  0.193177  0.806823  0.250000  1
  Ho  Ho5  1  0.806752  0.193248  0.750000  1
  Al  Al6  1  0.333357  0.666643  0.015382  1
  Al  Al7  1  0.666751  0.333249  0.984590  1
  Al  Al8  1  0.666751  0.333249  0.515410  1
  Al  Al9  1  0.333357  0.666643  0.484618  1
  Al  Al10  1  0.162578  0.325396  0.576057  1
  Al  Al11  1  0.837200  0.674510  0.424060  1
  Al  Al12  1  0.674604  0.837422  0.576057  1
  Al  Al13  1  0.837200  0.674510  0.075940  1
  Al  Al14  1  0.325490  0.162800  0.424060  1
  Al  Al15  1  0.162578  0.325396  0.923943  1
  Al  Al16  1  0.162724  0.837276  0.575954  1
  Al  Al17  1  0.325490  0.162800  0.075940  1
  Al  Al18  1  0.837260  0.162740  0.424230  1
  Al  Al19  1  0.674604  0.837422  0.923943  1
  Al  Al20  1  0.837260  0.162740  0.075770  1
  Al  Al21  1  0.162724  0.837276  0.924046  1
  Al  Al22  1  0.560257  0.120518  0.250000  1
  Al  Al23  1  0.440070  0.879723  0.750000  1
  Al  Al24  1  0.879482  0.439743  0.250000  1
  Al  Al25  1  0.120277  0.559930  0.750000  1
  Al  Al26  1  0.560245  0.439755  0.250000  1
  Al  Al27  1  0.439750  0.560250  0.750000  1
  Al  Al28  1  0.000000  0.000000  0.250000  1
  Al  Al29  1  0.999748  0.000252  0.750000  1
  Os  Os30  1  0.500299  0.000230  0.999750  1
  Os  Os31  1  0.999770  0.499701  0.999750  1
  Os  Os32  1  0.500299  0.000230  0.500250  1
  Os  Os33  1  0.500073  0.499927  0.999897  1
  Os  Os34  1  0.999770  0.499701  0.500250  1
  Os  Os35  1  0.500073  0.499927  0.500103  1
  Os  Os36  1  0.000010  0.999990  0.999956  1
  Os  Os37  1  0.000010  0.999990  0.500044  1
