# generated using pymatgen
data_Dy16Mg3TlPt4
_symmetry_space_group_name_H-M   'P 1'
_cell_length_a   9.71089756
_cell_length_b   9.75750841
_cell_length_c   9.75750800
_cell_angle_alpha   59.99999460
_cell_angle_beta   59.84108939
_cell_angle_gamma   59.84109111
_symmetry_Int_Tables_number   1
_chemical_formula_structural   Dy16Mg3TlPt4
_chemical_formula_sum   'Dy16 Mg3 Tl1 Pt4'
_cell_volume   652.19111828
_cell_formula_units_Z   1
loop_
 _symmetry_equiv_pos_site_id
 _symmetry_equiv_pos_as_xyz
  1  'x, y, z'
loop_
 _atom_site_type_symbol
 _atom_site_label
 _atom_site_symmetry_multiplicity
 _atom_site_fract_x
 _atom_site_fract_y
 _atom_site_fract_z
 _atom_site_occupancy
  Dy  Dy0  1  0.350553  0.350784  0.350784  1
  Dy  Dy1  1  0.350553  0.350784  0.947881  1
  Dy  Dy2  1  0.350553  0.947881  0.350784  1
  Dy  Dy3  1  0.949573  0.350143  0.350143  1
  Dy  Dy4  1  0.813040  0.187434  0.187434  1
  Dy  Dy5  1  0.190161  0.811147  0.811147  1
  Dy  Dy6  1  0.190161  0.811147  0.187545  1
  Dy  Dy7  1  0.813040  0.187434  0.812091  1
  Dy  Dy8  1  0.190161  0.187545  0.811147  1
  Dy  Dy9  1  0.813040  0.812091  0.187434  1
  Dy  Dy10  1  0.936702  0.564522  0.564522  1
  Dy  Dy11  1  0.566219  0.933810  0.933810  1
  Dy  Dy12  1  0.566219  0.933810  0.566162  1
  Dy  Dy13  1  0.936702  0.564521  0.934255  1
  Dy  Dy14  1  0.566219  0.566162  0.933810  1
  Dy  Dy15  1  0.936702  0.934255  0.564521  1
  Mg  Mg16  1  0.577234  0.580719  0.580719  1
  Mg  Mg17  1  0.577234  0.580719  0.261325  1
  Mg  Mg18  1  0.577234  0.261325  0.580719  1
  Tl  Tl19  1  0.249532  0.583489  0.583489  1
  Pt  Pt20  1  0.143054  0.143058  0.143058  1
  Pt  Pt21  1  0.143054  0.143058  0.570831  1
  Pt  Pt22  1  0.143054  0.570831  0.143058  1
  Pt  Pt23  1  0.570007  0.143332  0.143332  1
