# generated using pymatgen
data_SrDyU2(Si5Os3)2
_symmetry_space_group_name_H-M   'P 1'
_cell_length_a   8.13451457
_cell_length_b   8.16200393
_cell_length_c   5.81229406
_cell_angle_alpha   70.43033289
_cell_angle_beta   70.56688135
_cell_angle_gamma   93.50281608
_symmetry_Int_Tables_number   1
_chemical_formula_structural   SrDyU2(Si5Os3)2
_chemical_formula_sum   'Sr1 Dy1 U2 Si10 Os6'
_cell_volume   336.36825558
_cell_formula_units_Z   1
loop_
 _symmetry_equiv_pos_site_id
 _symmetry_equiv_pos_as_xyz
  1  'x, y, z'
loop_
 _atom_site_type_symbol
 _atom_site_label
 _atom_site_symmetry_multiplicity
 _atom_site_fract_x
 _atom_site_fract_y
 _atom_site_fract_z
 _atom_site_occupancy
  Sr  Sr0  1  0.397819  0.132558  0.743493  1
  Dy  Dy1  1  0.868191  0.600759  0.756605  1
  U  U2  1  0.134789  0.402950  0.237710  1
  U  U3  1  0.595754  0.867460  0.260896  1
  Si  Si4  1  0.060394  0.261881  0.835911  1
  Si  Si5  1  0.737314  0.932095  0.666105  1
  Si  Si6  1  0.936613  0.739322  0.163510  1
  Si  Si7  1  0.262360  0.064515  0.335281  1
  Si  Si8  1  0.205173  0.793658  0.748553  1
  Si  Si9  1  0.794067  0.206895  0.250090  1
  Si  Si10  1  0.516601  0.485736  0.747941  1
  Si  Si11  1  0.489357  0.513101  0.250819  1
  Si  Si12  1  0.776238  0.228614  0.750496  1
  Si  Si13  1  0.223657  0.774231  0.251159  1
  Os  Os14  1  0.254154  0.542252  0.635406  1
  Os  Os15  1  0.456803  0.739190  0.868213  1
  Os  Os16  1  0.752147  0.458020  0.364048  1
  Os  Os17  1  0.545753  0.256755  0.130765  1
  Os  Os18  1  0.998085  0.998002  0.750198  1
  Os  Os19  1  0.994731  0.002004  0.252802  1
