# generated using pymatgen
data_Li3Y5(Ni4P3)4
_symmetry_space_group_name_H-M   'P 1'
_cell_length_a   12.14816100
_cell_length_b   12.14815985
_cell_length_c   3.78975500
_cell_angle_alpha   90.00000000
_cell_angle_beta   90.00000000
_cell_angle_gamma   120.00000040
_symmetry_Int_Tables_number   1
_chemical_formula_structural   Li3Y5(Ni4P3)4
_chemical_formula_sum   'Li3 Y5 Ni16 P12'
_cell_volume   484.35390064
_cell_formula_units_Z   1
loop_
 _symmetry_equiv_pos_site_id
 _symmetry_equiv_pos_as_xyz
  1  'x, y, z'
loop_
 _atom_site_type_symbol
 _atom_site_label
 _atom_site_symmetry_multiplicity
 _atom_site_fract_x
 _atom_site_fract_y
 _atom_site_fract_z
 _atom_site_occupancy
  Li  Li0  1  0.564084  0.564084  0.000000  1
  Li  Li1  1  0.435916  0.000000  0.000000  1
  Li  Li2  1  0.000000  0.435916  0.000000  1
  Y  Y3  1  0.188665  0.188665  0.500000  1
  Y  Y4  1  0.811335  0.000000  0.500000  1
  Y  Y5  1  0.000000  0.811335  0.500000  1
  Y  Y6  1  0.333333  0.666667  0.000000  1
  Y  Y7  1  0.666667  0.333333  0.000000  1
  Ni  Ni8  1  0.718512  0.718512  0.500000  1
  Ni  Ni9  1  0.281488  0.000000  0.500000  1
  Ni  Ni10  1  0.000000  0.281488  0.500000  1
  Ni  Ni11  1  0.183671  0.380494  0.000000  1
  Ni  Ni12  1  0.619506  0.803179  0.000000  1
  Ni  Ni13  1  0.196821  0.816329  0.000000  1
  Ni  Ni14  1  0.803179  0.619506  0.000000  1
  Ni  Ni15  1  0.816329  0.196821  0.000000  1
  Ni  Ni16  1  0.380494  0.183671  0.000000  1
  Ni  Ni17  1  0.361915  0.484032  0.500000  1
  Ni  Ni18  1  0.515968  0.877884  0.500000  1
  Ni  Ni19  1  0.122116  0.638085  0.500000  1
  Ni  Ni20  1  0.877884  0.515968  0.500000  1
  Ni  Ni21  1  0.638085  0.122116  0.500000  1
  Ni  Ni22  1  0.484032  0.361915  0.500000  1
  Ni  Ni23  1  0.000000  0.000000  0.000000  1
  P  P24  1  0.820988  0.820988  0.000000  1
  P  P25  1  0.179012  0.000000  0.000000  1
  P  P26  1  0.000000  0.179012  0.000000  1
  P  P27  1  0.169754  0.477285  0.500000  1
  P  P28  1  0.522715  0.692468  0.500000  1
  P  P29  1  0.307532  0.830246  0.500000  1
  P  P30  1  0.692468  0.522715  0.500000  1
  P  P31  1  0.830246  0.307532  0.500000  1
  P  P32  1  0.477285  0.169754  0.500000  1
  P  P33  1  0.365316  0.365316  0.000000  1
  P  P34  1  0.634684  0.000000  0.000000  1
  P  P35  1  0.000000  0.634684  0.000000  1
