# generated using pymatgen
data_Ca3La(GePd2)4
_symmetry_space_group_name_H-M   'P 1'
_cell_length_a   5.67021733
_cell_length_b   7.14953800
_cell_length_c   7.59747729
_cell_angle_alpha   90.00000000
_cell_angle_beta   89.55224680
_cell_angle_gamma   90.00000000
_symmetry_Int_Tables_number   1
_chemical_formula_structural   Ca3La(GePd2)4
_chemical_formula_sum   'Ca3 La1 Ge4 Pd8'
_cell_volume   307.98802654
_cell_formula_units_Z   1
loop_
 _symmetry_equiv_pos_site_id
 _symmetry_equiv_pos_as_xyz
  1  'x, y, z'
loop_
 _atom_site_type_symbol
 _atom_site_label
 _atom_site_symmetry_multiplicity
 _atom_site_fract_x
 _atom_site_fract_y
 _atom_site_fract_z
 _atom_site_occupancy
  Ca  Ca0  1  0.136555  0.750000  0.523958  1
  Ca  Ca1  1  0.865089  0.250000  0.473722  1
  Ca  Ca2  1  0.638609  0.250000  0.973921  1
  La  La3  1  0.360367  0.750000  0.027453  1
  Ge  Ge4  1  0.863321  0.750000  0.870507  1
  Ge  Ge5  1  0.135291  0.250000  0.125071  1
  Ge  Ge6  1  0.364775  0.250000  0.623760  1
  Ge  Ge7  1  0.638290  0.750000  0.381156  1
  Pd  Pd8  1  0.591966  0.552742  0.672495  1
  Pd  Pd9  1  0.405049  0.446519  0.326316  1
  Pd  Pd10  1  0.099132  0.446150  0.827203  1
  Pd  Pd11  1  0.405049  0.053481  0.326316  1
  Pd  Pd12  1  0.902704  0.553550  0.174212  1
  Pd  Pd13  1  0.591966  0.947258  0.672495  1
  Pd  Pd14  1  0.902704  0.946450  0.174212  1
  Pd  Pd15  1  0.099132  0.053850  0.827203  1
