# generated using pymatgen
data_Nb5GaSiGe
_symmetry_space_group_name_H-M   'P 1'
_cell_length_a   7.64665615
_cell_length_b   7.64665587
_cell_length_c   7.64665754
_cell_angle_alpha   128.62831436
_cell_angle_beta   128.63557513
_cell_angle_gamma   75.60351736
_symmetry_Int_Tables_number   1
_chemical_formula_structural   Nb5GaSiGe
_chemical_formula_sum   'Nb10 Ga2 Si2 Ge2'
_cell_volume   265.44239662
_cell_formula_units_Z   2
loop_
 _symmetry_equiv_pos_site_id
 _symmetry_equiv_pos_as_xyz
  1  'x, y, z'
loop_
 _atom_site_type_symbol
 _atom_site_label
 _atom_site_symmetry_multiplicity
 _atom_site_fract_x
 _atom_site_fract_y
 _atom_site_fract_z
 _atom_site_occupancy
  Nb  Nb0  1  0.014749  0.182569  0.495870  1
  Nb  Nb1  1  0.514749  0.018879  0.832182  1
  Nb  Nb2  1  0.183092  0.687127  0.174825  1
  Nb  Nb3  1  0.487699  0.991734  0.174825  1
  Nb  Nb4  1  0.683092  0.508266  0.495965  1
  Nb  Nb5  1  0.987699  0.812873  0.495965  1
  Nb  Nb6  1  0.313302  0.481121  0.495870  1
  Nb  Nb7  1  0.813302  0.317431  0.832182  1
  Nb  Nb8  1  0.501894  0.495027  0.996921  1
  Nb  Nb9  1  0.001894  0.004973  0.006868  1
  Ga  Ga10  1  0.132675  0.633603  0.766279  1
  Ga  Ga11  1  0.632675  0.866397  0.499072  1
  Si  Si12  1  0.369850  0.128858  0.498709  1
  Si  Si13  1  0.869850  0.371142  0.240992  1
  Ge  Ge14  1  0.746738  0.750000  0.996738  1
  Ge  Ge15  1  0.246738  0.250000  0.996738  1
