# generated using pymatgen
data_Dy8TaSi16W11
_symmetry_space_group_name_H-M   'P 1'
_cell_length_a   6.89133793
_cell_length_b   6.89133718
_cell_length_c   12.83906265
_cell_angle_alpha   90.05322264
_cell_angle_beta   89.94677830
_cell_angle_gamma   90.09022060
_symmetry_Int_Tables_number   1
_chemical_formula_structural   Dy8TaSi16W11
_chemical_formula_sum   'Dy8 Ta1 Si16 W11'
_cell_volume   609.73265101
_cell_formula_units_Z   1
loop_
 _symmetry_equiv_pos_site_id
 _symmetry_equiv_pos_as_xyz
  1  'x, y, z'
loop_
 _atom_site_type_symbol
 _atom_site_label
 _atom_site_symmetry_multiplicity
 _atom_site_fract_x
 _atom_site_fract_y
 _atom_site_fract_z
 _atom_site_occupancy
  Dy  Dy0  1  0.000035  0.663720  0.030921  1
  Dy  Dy1  1  0.997845  0.337503  0.530877  1
  Dy  Dy2  1  0.663720  0.000035  0.969079  1
  Dy  Dy3  1  0.161629  0.499363  0.780133  1
  Dy  Dy4  1  0.837036  0.502954  0.281539  1
  Dy  Dy5  1  0.499363  0.161629  0.219867  1
  Dy  Dy6  1  0.502954  0.837036  0.718461  1
  Dy  Dy7  1  0.337503  0.997845  0.469123  1
  Ta  Ta8  1  0.332579  0.332579  0.000000  1
  Si  Si9  1  0.034496  0.713013  0.437185  1
  Si  Si10  1  0.959164  0.290538  0.933545  1
  Si  Si11  1  0.713013  0.034496  0.562815  1
  Si  Si12  1  0.210657  0.466539  0.188575  1
  Si  Si13  1  0.787687  0.535830  0.686324  1
  Si  Si14  1  0.466539  0.210657  0.811425  1
  Si  Si15  1  0.535830  0.787687  0.313676  1
  Si  Si16  1  0.290538  0.959164  0.066455  1
  Si  Si17  1  0.799608  0.874830  0.183819  1
  Si  Si18  1  0.298766  0.625104  0.565869  1
  Si  Si19  1  0.704961  0.372243  0.066927  1
  Si  Si20  1  0.625104  0.298766  0.434131  1
  Si  Si21  1  0.372243  0.704961  0.933073  1
  Si  Si22  1  0.125262  0.201484  0.316141  1
  Si  Si23  1  0.201484  0.125262  0.683859  1
  Si  Si24  1  0.874830  0.799608  0.816181  1
  W  W25  1  0.334138  0.501139  0.376715  1
  W  W26  1  0.833727  0.001607  0.372733  1
  W  W27  1  0.002385  0.166898  0.124343  1
  W  W28  1  0.001607  0.833727  0.627267  1
  W  W29  1  0.501139  0.334138  0.623285  1
  W  W30  1  0.166898  0.002385  0.875657  1
  W  W31  1  0.666817  0.666817  0.500000  1
  W  W32  1  0.833802  0.165636  0.747843  1
  W  W33  1  0.165636  0.833802  0.252157  1
  W  W34  1  0.500840  0.660162  0.123007  1
  W  W35  1  0.660162  0.500840  0.876993  1
