# generated using pymatgen
data_Hf(SnRh2)5
_symmetry_space_group_name_H-M   'P 1'
_cell_length_a   4.20834800
_cell_length_b   5.66324051
_cell_length_c   11.05714064
_cell_angle_alpha   90.29791664
_cell_angle_beta   90.00000000
_cell_angle_gamma   90.00000000
_symmetry_Int_Tables_number   1
_chemical_formula_structural   Hf(SnRh2)5
_chemical_formula_sum   'Hf1 Sn5 Rh10'
_cell_volume   263.52001995
_cell_formula_units_Z   1
loop_
 _symmetry_equiv_pos_site_id
 _symmetry_equiv_pos_as_xyz
  1  'x, y, z'
loop_
 _atom_site_type_symbol
 _atom_site_label
 _atom_site_symmetry_multiplicity
 _atom_site_fract_x
 _atom_site_fract_y
 _atom_site_fract_z
 _atom_site_occupancy
  Hf  Hf0  1  0.500000  0.334490  0.142254  1
  Sn  Sn1  1  0.500000  0.155270  0.645938  1
  Sn  Sn2  1  0.500000  0.837341  0.353791  1
  Sn  Sn3  1  0.500000  0.659739  0.855675  1
  Sn  Sn4  1  0.000000  0.501581  0.498617  1
  Sn  Sn5  1  0.000000  0.017383  0.004847  1
  Rh  Rh6  1  0.500000  0.193619  0.891137  1
  Rh  Rh7  1  0.500000  0.809311  0.110007  1
  Rh  Rh8  1  0.500000  0.687674  0.607776  1
  Rh  Rh9  1  0.500000  0.312790  0.386843  1
  Rh  Rh10  1  0.000000  0.409939  0.737508  1
  Rh  Rh11  1  0.000000  0.569830  0.253126  1
  Rh  Rh12  1  0.000000  0.004814  0.502721  1
  Rh  Rh13  1  0.000000  0.514594  0.999035  1
  Rh  Rh14  1  0.000000  0.080152  0.246122  1
  Rh  Rh15  1  0.000000  0.911473  0.764604  1
