# generated using pymatgen
data_Sn16Pd3Rh
_symmetry_space_group_name_H-M   'P 1'
_cell_length_a   12.75913733
_cell_length_b   12.75913716
_cell_length_c   12.75981863
_cell_angle_alpha   150.83028725
_cell_angle_beta   150.83028451
_cell_angle_gamma   41.71595389
_symmetry_Int_Tables_number   1
_chemical_formula_structural   Sn16Pd3Rh
_chemical_formula_sum   'Sn16 Pd3 Rh1'
_cell_volume   492.34422495
_cell_formula_units_Z   1
loop_
 _symmetry_equiv_pos_site_id
 _symmetry_equiv_pos_as_xyz
  1  'x, y, z'
loop_
 _atom_site_type_symbol
 _atom_site_label
 _atom_site_symmetry_multiplicity
 _atom_site_fract_x
 _atom_site_fract_y
 _atom_site_fract_z
 _atom_site_occupancy
  Sn  Sn0  1  0.139910  0.639543  0.151142  1
  Sn  Sn1  1  0.639853  0.488934  0.500254  1
  Sn  Sn2  1  0.884806  0.891216  0.649510  1
  Sn  Sn3  1  0.390544  0.741037  0.005021  1
  Sn  Sn4  1  0.608784  0.615194  0.350490  1
  Sn  Sn5  1  0.114478  0.763984  0.005021  1
  Sn  Sn6  1  0.860457  0.360090  0.848858  1
  Sn  Sn7  1  0.360402  0.511321  0.500254  1
  Sn  Sn8  1  0.988679  0.139598  0.499746  1
  Sn  Sn9  1  0.488401  0.988769  0.848858  1
  Sn  Sn10  1  0.736016  0.385522  0.994979  1
  Sn  Sn11  1  0.241706  0.235296  0.350490  1
  Sn  Sn12  1  0.758963  0.109456  0.994979  1
  Sn  Sn13  1  0.264704  0.258294  0.649510  1
  Sn  Sn14  1  0.011066  0.860147  0.499746  1
  Sn  Sn15  1  0.511231  0.011599  0.151142  1
  Pd  Pd16  1  0.750000  0.750000  0.000000  1
  Pd  Pd17  1  0.250000  0.250000  0.000000  1
  Pd  Pd18  1  0.000000  0.500000  0.500000  1
  Rh  Rh19  1  0.500000  0.000000  0.500000  1
