# generated using pymatgen
data_Rb12GeMo3S16
_symmetry_space_group_name_H-M   'P 1'
_cell_length_a   9.56840200
_cell_length_b   9.66036787
_cell_length_c   11.23323600
_cell_angle_alpha   90.00000000
_cell_angle_beta   90.00000000
_cell_angle_gamma   89.83537854
_symmetry_Int_Tables_number   1
_chemical_formula_structural   Rb12GeMo3S16
_chemical_formula_sum   'Rb12 Ge1 Mo3 S16'
_cell_volume   1038.33183282
_cell_formula_units_Z   1
loop_
 _symmetry_equiv_pos_site_id
 _symmetry_equiv_pos_as_xyz
  1  'x, y, z'
loop_
 _atom_site_type_symbol
 _atom_site_label
 _atom_site_symmetry_multiplicity
 _atom_site_fract_x
 _atom_site_fract_y
 _atom_site_fract_z
 _atom_site_occupancy
  Rb  Rb0  1  0.547720  0.714685  0.039054  1
  Rb  Rb1  1  0.055172  0.797237  0.464122  1
  Rb  Rb2  1  0.439411  0.282268  0.547349  1
  Rb  Rb3  1  0.958206  0.197988  0.947772  1
  Rb  Rb4  1  0.439411  0.282268  0.952651  1
  Rb  Rb5  1  0.958206  0.197988  0.552228  1
  Rb  Rb6  1  0.547720  0.714685  0.460946  1
  Rb  Rb7  1  0.055172  0.797237  0.035878  1
  Rb  Rb8  1  0.355715  0.079449  0.250000  1
  Rb  Rb9  1  0.855446  0.413927  0.250000  1
  Rb  Rb10  1  0.632015  0.924808  0.750000  1
  Rb  Rb11  1  0.147739  0.586703  0.750000  1
  Ge  Ge12  1  0.219796  0.015506  0.750000  1
  Mo  Mo13  1  0.278130  0.514045  0.250000  1
  Mo  Mo14  1  0.783440  0.986118  0.250000  1
  Mo  Mo15  1  0.721365  0.485393  0.750000  1
  S  S16  1  0.298113  0.744580  0.250000  1
  S  S17  1  0.799347  0.754786  0.250000  1
  S  S18  1  0.700116  0.256275  0.750000  1
  S  S19  1  0.199544  0.248686  0.750000  1
  S  S20  1  0.492045  0.418374  0.250000  1
  S  S21  1  0.998910  0.076714  0.250000  1
  S  S22  1  0.508825  0.580863  0.750000  1
  S  S23  1  0.004803  0.920035  0.750000  1
  S  S24  1  0.163681  0.451927  0.085626  1
  S  S25  1  0.670029  0.053728  0.413322  1
  S  S26  1  0.834550  0.546650  0.585142  1
  S  S27  1  0.333555  0.952387  0.916660  1
  S  S28  1  0.834550  0.546650  0.914858  1
  S  S29  1  0.333555  0.952387  0.583340  1
  S  S30  1  0.163681  0.451927  0.414374  1
  S  S31  1  0.670029  0.053728  0.086678  1
