# generated using pymatgen
data_Ag3GeF8
_symmetry_space_group_name_H-M   'P 1'
_cell_length_a   5.48739468
_cell_length_b   5.76952976
_cell_length_c   5.70786464
_cell_angle_alpha   81.31675560
_cell_angle_beta   93.61569705
_cell_angle_gamma   94.71654112
_symmetry_Int_Tables_number   1
_chemical_formula_structural   Ag3GeF8
_chemical_formula_sum   'Ag3 Ge1 F8'
_cell_volume   177.79757061
_cell_formula_units_Z   1
loop_
 _symmetry_equiv_pos_site_id
 _symmetry_equiv_pos_as_xyz
  1  'x, y, z'
loop_
 _atom_site_type_symbol
 _atom_site_label
 _atom_site_symmetry_multiplicity
 _atom_site_fract_x
 _atom_site_fract_y
 _atom_site_fract_z
 _atom_site_occupancy
  Ag  Ag0  1  0.000000  0.500000  0.500000  1
  Ag  Ag1  1  0.500000  0.500000  0.000000  1
  Ag  Ag2  1  0.000000  0.000000  0.000000  1
  Ge  Ge3  1  0.500000  0.000000  0.500000  1
  F  F4  1  0.641664  0.243556  0.649181  1
  F  F5  1  0.241804  0.174097  0.385079  1
  F  F6  1  0.338772  0.876343  0.770748  1
  F  F7  1  0.855061  0.640647  0.141996  1
  F  F8  1  0.144939  0.359353  0.858004  1
  F  F9  1  0.661228  0.123657  0.229252  1
  F  F10  1  0.758196  0.825903  0.614921  1
  F  F11  1  0.358336  0.756444  0.350819  1
