# generated using pymatgen
data_Y5Be5P7Ir19
_symmetry_space_group_name_H-M   'P 1'
_cell_length_a   12.56802318
_cell_length_b   12.49497513
_cell_length_c   3.95400000
_cell_angle_alpha   90.00000000
_cell_angle_beta   90.00000000
_cell_angle_gamma   119.78138385
_symmetry_Int_Tables_number   1
_chemical_formula_structural   Y5Be5P7Ir19
_chemical_formula_sum   'Y5 Be5 P7 Ir19'
_cell_volume   538.91735990
_cell_formula_units_Z   1
loop_
 _symmetry_equiv_pos_site_id
 _symmetry_equiv_pos_as_xyz
  1  'x, y, z'
loop_
 _atom_site_type_symbol
 _atom_site_label
 _atom_site_symmetry_multiplicity
 _atom_site_fract_x
 _atom_site_fract_y
 _atom_site_fract_z
 _atom_site_occupancy
  Y  Y0  1  0.334014  0.665768  0.500000  1
  Y  Y1  1  0.664094  0.321394  0.500000  1
  Y  Y2  1  0.188955  0.190958  0.000000  1
  Y  Y3  1  0.812224  0.001896  0.000000  1
  Y  Y4  1  0.006090  0.816634  0.000000  1
  Be  Be5  1  0.311588  0.835180  0.000000  1
  Be  Be6  1  0.164708  0.477215  0.000000  1
  Be  Be7  1  0.522853  0.687192  0.000000  1
  Be  Be8  1  0.832224  0.307440  0.000000  1
  Be  Be9  1  0.477739  0.164677  0.000000  1
  P  P10  1  0.692899  0.515757  0.000000  1
  P  P11  1  0.367036  0.374481  0.500000  1
  P  P12  1  0.624031  0.999399  0.500000  1
  P  P13  1  0.006436  0.630337  0.500000  1
  P  P14  1  0.817245  0.819544  0.500000  1
  P  P15  1  0.185457  0.003613  0.500000  1
  P  P16  1  0.999021  0.183466  0.500000  1
  Ir  Ir17  1  0.194556  0.818524  0.500000  1
  Ir  Ir18  1  0.181313  0.376945  0.500000  1
  Ir  Ir19  1  0.624459  0.809054  0.500000  1
  Ir  Ir20  1  0.814261  0.190143  0.500000  1
  Ir  Ir21  1  0.377199  0.189626  0.500000  1
  Ir  Ir22  1  0.809057  0.622891  0.500000  1
  Ir  Ir23  1  0.125285  0.638904  0.000000  1
  Ir  Ir24  1  0.359139  0.487192  0.000000  1
  Ir  Ir25  1  0.510340  0.871335  0.000000  1
  Ir  Ir26  1  0.637713  0.123838  0.000000  1
  Ir  Ir27  1  0.496820  0.364790  0.000000  1
  Ir  Ir28  1  0.872252  0.508152  0.000000  1
  Ir  Ir29  1  0.548234  0.557134  0.500000  1
  Ir  Ir30  1  0.444255  0.002628  0.500000  1
  Ir  Ir31  1  0.996127  0.443157  0.500000  1
  Ir  Ir32  1  0.719163  0.715622  0.000000  1
  Ir  Ir33  1  0.283373  0.003308  0.000000  1
  Ir  Ir34  1  0.999352  0.281609  0.000000  1
  Ir  Ir35  1  0.000489  0.000200  0.500000  1
