# generated using pymatgen
data_CeEr2NiSn3Ir2
_symmetry_space_group_name_H-M   'P 1'
_cell_length_a   7.42629342
_cell_length_b   7.49472317
_cell_length_c   3.90746300
_cell_angle_alpha   90.00000000
_cell_angle_beta   90.00000000
_cell_angle_gamma   120.30528137
_symmetry_Int_Tables_number   1
_chemical_formula_structural   CeEr2NiSn3Ir2
_chemical_formula_sum   'Ce1 Er2 Ni1 Sn3 Ir2'
_cell_volume   187.76255483
_cell_formula_units_Z   1
loop_
 _symmetry_equiv_pos_site_id
 _symmetry_equiv_pos_as_xyz
  1  'x, y, z'
loop_
 _atom_site_type_symbol
 _atom_site_label
 _atom_site_symmetry_multiplicity
 _atom_site_fract_x
 _atom_site_fract_y
 _atom_site_fract_z
 _atom_site_occupancy
  Ce  Ce0  1  0.000000  0.584058  0.000000  1
  Er  Er1  1  0.409406  0.408004  0.000000  1
  Er  Er2  1  0.590594  0.998598  0.000000  1
  Ni  Ni3  1  0.000000  0.997776  0.000000  1
  Sn  Sn4  1  0.000000  0.244527  0.500000  1
  Sn  Sn5  1  0.743580  0.750329  0.500000  1
  Sn  Sn6  1  0.256420  0.006749  0.500000  1
  Ir  Ir7  1  0.676287  0.343123  0.500000  1
  Ir  Ir8  1  0.323713  0.666838  0.500000  1
