# generated using pymatgen
data_Hf8ZnIn4Pd2Pt5
_symmetry_space_group_name_H-M   'P 1'
_cell_length_a   7.49270058
_cell_length_b   7.49795338
_cell_length_c   6.86937008
_cell_angle_alpha   90.10897666
_cell_angle_beta   90.18849032
_cell_angle_gamma   90.43129921
_symmetry_Int_Tables_number   1
_chemical_formula_structural   Hf8ZnIn4Pd2Pt5
_chemical_formula_sum   'Hf8 Zn1 In4 Pd2 Pt5'
_cell_volume   385.90691998
_cell_formula_units_Z   1
loop_
 _symmetry_equiv_pos_site_id
 _symmetry_equiv_pos_as_xyz
  1  'x, y, z'
loop_
 _atom_site_type_symbol
 _atom_site_label
 _atom_site_symmetry_multiplicity
 _atom_site_fract_x
 _atom_site_fract_y
 _atom_site_fract_z
 _atom_site_occupancy
  Hf  Hf0  1  0.142008  0.145691  0.998934  1
  Hf  Hf1  1  0.845827  0.849696  0.003625  1
  Hf  Hf2  1  0.653802  0.353789  0.505644  1
  Hf  Hf3  1  0.355755  0.652216  0.503321  1
  Hf  Hf4  1  0.696475  0.313586  0.994570  1
  Hf  Hf5  1  0.315739  0.695104  0.996445  1
  Hf  Hf6  1  0.810991  0.812743  0.496507  1
  Hf  Hf7  1  0.181918  0.183476  0.501397  1
  Zn  Zn8  1  0.371159  0.370579  0.207366  1
  In  In9  1  0.498605  0.004170  0.250813  1
  In  In10  1  0.497684  0.004140  0.746566  1
  In  In11  1  0.003359  0.499543  0.251137  1
  In  In12  1  0.005625  0.502461  0.746599  1
  Pd  Pd13  1  0.367360  0.367293  0.796610  1
  Pd  Pd14  1  0.131350  0.867019  0.711285  1
  Pt  Pt15  1  0.629696  0.629464  0.786279  1
  Pt  Pt16  1  0.621684  0.621608  0.217002  1
  Pt  Pt17  1  0.871190  0.127966  0.715164  1
  Pt  Pt18  1  0.868279  0.131370  0.286802  1
  Pt  Pt19  1  0.131495  0.868087  0.283936  1
