# generated using pymatgen
data_Pr2Zn3P(PtRh)2
_symmetry_space_group_name_H-M   'P 1'
_cell_length_a   4.14693400
_cell_length_b   4.14693400
_cell_length_c   10.82163600
_cell_angle_alpha   90.00000000
_cell_angle_beta   90.00000000
_cell_angle_gamma   90.00000000
_symmetry_Int_Tables_number   1
_chemical_formula_structural   Pr2Zn3P(PtRh)2
_chemical_formula_sum   'Pr2 Zn3 P1 Pt2 Rh2'
_cell_volume   186.10034091
_cell_formula_units_Z   1
loop_
 _symmetry_equiv_pos_site_id
 _symmetry_equiv_pos_as_xyz
  1  'x, y, z'
loop_
 _atom_site_type_symbol
 _atom_site_label
 _atom_site_symmetry_multiplicity
 _atom_site_fract_x
 _atom_site_fract_y
 _atom_site_fract_z
 _atom_site_occupancy
  Pr  Pr0  1  0.000000  0.500000  0.240636  1
  Pr  Pr1  1  0.500000  0.000000  0.754988  1
  Zn  Zn2  1  0.000000  0.000000  0.494577  1
  Zn  Zn3  1  0.500000  0.500000  0.494577  1
  Zn  Zn4  1  0.000000  0.500000  0.878596  1
  P  P5  1  0.500000  0.000000  0.116261  1
  Pt  Pt6  1  0.000000  0.500000  0.642440  1
  Pt  Pt7  1  0.500000  0.000000  0.341877  1
  Rh  Rh8  1  0.000000  0.000000  0.018023  1
  Rh  Rh9  1  0.500000  0.500000  0.018023  1
