# generated using pymatgen
data_Eu2CdIn3Pd2
_symmetry_space_group_name_H-M   'P 1'
_cell_length_a   5.76474467
_cell_length_b   5.76474453
_cell_length_c   8.28807981
_cell_angle_alpha   90.25480513
_cell_angle_beta   89.74519506
_cell_angle_gamma   135.30481050
_symmetry_Int_Tables_number   1
_chemical_formula_structural   Eu2CdIn3Pd2
_chemical_formula_sum   'Eu2 Cd1 In3 Pd2'
_cell_volume   193.71858569
_cell_formula_units_Z   1
loop_
 _symmetry_equiv_pos_site_id
 _symmetry_equiv_pos_as_xyz
  1  'x, y, z'
loop_
 _atom_site_type_symbol
 _atom_site_label
 _atom_site_symmetry_multiplicity
 _atom_site_fract_x
 _atom_site_fract_y
 _atom_site_fract_z
 _atom_site_occupancy
  Eu  Eu0  1  0.064940  0.935060  0.252726  1
  Eu  Eu1  1  0.935500  0.064500  0.745490  1
  Cd  Cd2  1  0.643485  0.356515  0.551904  1
  In  In3  1  0.352207  0.647793  0.450079  1
  In  In4  1  0.644349  0.355651  0.946051  1
  In  In5  1  0.356163  0.643837  0.051785  1
  Pd  Pd6  1  0.223290  0.776710  0.755241  1
  Pd  Pd7  1  0.780068  0.219932  0.246724  1
