# generated using pymatgen
data_Ho5Er3(TmIr2)2
_symmetry_space_group_name_H-M   'P 1'
_cell_length_a   6.46159761
_cell_length_b   7.17929582
_cell_length_c   8.42797561
_cell_angle_alpha   96.51720086
_cell_angle_beta   112.54543100
_cell_angle_gamma   90.01610629
_symmetry_Int_Tables_number   1
_chemical_formula_structural   Ho5Er3(TmIr2)2
_chemical_formula_sum   'Ho5 Er3 Tm2 Ir4'
_cell_volume   358.34939641
_cell_formula_units_Z   1
loop_
 _symmetry_equiv_pos_site_id
 _symmetry_equiv_pos_as_xyz
  1  'x, y, z'
loop_
 _atom_site_type_symbol
 _atom_site_label
 _atom_site_symmetry_multiplicity
 _atom_site_fract_x
 _atom_site_fract_y
 _atom_site_fract_z
 _atom_site_occupancy
  Ho  Ho0  1  0.970202  0.918899  0.181826  1
  Ho  Ho1  1  0.788123  0.581251  0.818107  1
  Ho  Ho2  1  0.030024  0.081305  0.818270  1
  Ho  Ho3  1  0.211790  0.418609  0.181971  1
  Ho  Ho4  1  0.653804  0.817595  0.441760  1
  Er  Er5  1  0.212221  0.682074  0.558394  1
  Er  Er6  1  0.346260  0.182401  0.558518  1
  Er  Er7  1  0.787879  0.317823  0.441662  1
  Tm  Tm8  1  0.427642  0.749996  0.999833  1
  Tm  Tm9  1  0.572234  0.249898  0.999955  1
  Ir  Ir10  1  0.824833  0.572747  0.218326  1
  Ir  Ir11  1  0.605764  0.927170  0.781823  1
  Ir  Ir12  1  0.175330  0.427026  0.781216  1
  Ir  Ir13  1  0.393893  0.073206  0.218339  1
