# generated using pymatgen
data_Nd4YZn2Bi
_symmetry_space_group_name_H-M   'P 1'
_cell_length_a   8.79062905
_cell_length_b   8.79062983
_cell_length_c   8.79063057
_cell_angle_alpha   122.20495734
_cell_angle_beta   122.20496062
_cell_angle_gamma   86.22152161
_symmetry_Int_Tables_number   1
_chemical_formula_structural   Nd4YZn2Bi
_chemical_formula_sum   'Nd8 Y2 Zn4 Bi2'
_cell_volume   463.23018426
_cell_formula_units_Z   2
loop_
 _symmetry_equiv_pos_site_id
 _symmetry_equiv_pos_as_xyz
  1  'x, y, z'
loop_
 _atom_site_type_symbol
 _atom_site_label
 _atom_site_symmetry_multiplicity
 _atom_site_fract_x
 _atom_site_fract_y
 _atom_site_fract_z
 _atom_site_occupancy
  Nd  Nd0  1  0.793631  0.293631  0.802502  1
  Nd  Nd1  1  0.206369  0.706369  0.197498  1
  Nd  Nd2  1  0.491127  0.991127  0.197498  1
  Nd  Nd3  1  0.293631  0.491127  0.500000  1
  Nd  Nd4  1  0.008873  0.206369  0.500000  1
  Nd  Nd5  1  0.508873  0.008873  0.802502  1
  Nd  Nd6  1  0.706369  0.508873  0.500000  1
  Nd  Nd7  1  0.991127  0.793631  0.500000  1
  Y  Y8  1  0.000000  0.000000  0.000000  1
  Y  Y9  1  0.500000  0.500000  0.000000  1
  Zn  Zn10  1  0.147004  0.647004  0.794008  1
  Zn  Zn11  1  0.852996  0.352996  0.205992  1
  Zn  Zn12  1  0.647004  0.852996  0.500000  1
  Zn  Zn13  1  0.352996  0.147004  0.500000  1
  Bi  Bi14  1  0.250000  0.250000  0.000000  1
  Bi  Bi15  1  0.750000  0.750000  0.000000  1
