# generated using pymatgen
data_Ce2Th2Si7
_symmetry_space_group_name_H-M   'P 1'
_cell_length_a   7.89624878
_cell_length_b   7.89624942
_cell_length_c   8.56369900
_cell_angle_alpha   90.00000000
_cell_angle_beta   90.00000000
_cell_angle_gamma   119.74479041
_symmetry_Int_Tables_number   1
_chemical_formula_structural   Ce2Th2Si7
_chemical_formula_sum   'Ce4 Th4 Si14'
_cell_volume   463.60149755
_cell_formula_units_Z   2
loop_
 _symmetry_equiv_pos_site_id
 _symmetry_equiv_pos_as_xyz
  1  'x, y, z'
loop_
 _atom_site_type_symbol
 _atom_site_label
 _atom_site_symmetry_multiplicity
 _atom_site_fract_x
 _atom_site_fract_y
 _atom_site_fract_z
 _atom_site_occupancy
  Ce  Ce0  1  0.257964  0.257964  0.000000  1
  Ce  Ce1  1  0.742036  0.742036  0.000000  1
  Ce  Ce2  1  0.742036  0.742036  0.500000  1
  Ce  Ce3  1  0.257964  0.257964  0.500000  1
  Th  Th4  1  0.250587  0.749413  0.496273  1
  Th  Th5  1  0.749413  0.250587  0.503727  1
  Th  Th6  1  0.749413  0.250587  0.996273  1
  Th  Th7  1  0.250587  0.749413  0.003727  1
  Si  Si8  1  0.061822  0.369954  0.250000  1
  Si  Si9  1  0.938178  0.630046  0.750000  1
  Si  Si10  1  0.583659  0.416341  0.250000  1
  Si  Si11  1  0.416341  0.583659  0.750000  1
  Si  Si12  1  0.411298  0.588702  0.250000  1
  Si  Si13  1  0.588702  0.411298  0.750000  1
  Si  Si14  1  0.059004  0.940996  0.250000  1
  Si  Si15  1  0.940996  0.059004  0.750000  1
  Si  Si16  1  0.630046  0.938178  0.250000  1
  Si  Si17  1  0.369954  0.061822  0.750000  1
  Si  Si18  1  0.927564  0.590687  0.250000  1
  Si  Si19  1  0.072436  0.409313  0.750000  1
  Si  Si20  1  0.409313  0.072436  0.250000  1
  Si  Si21  1  0.590687  0.927564  0.750000  1
