# generated using pymatgen
data_Zr9Sc(CoPb3)2
_symmetry_space_group_name_H-M   'P 1'
_cell_length_a   5.93094400
_cell_length_b   8.81952278
_cell_length_c   8.81952200
_cell_angle_alpha   60.00000292
_cell_angle_beta   90.00000000
_cell_angle_gamma   90.00000000
_symmetry_Int_Tables_number   1
_chemical_formula_structural   Zr9Sc(CoPb3)2
_chemical_formula_sum   'Zr9 Sc1 Co2 Pb6'
_cell_volume   399.52559048
_cell_formula_units_Z   1
loop_
 _symmetry_equiv_pos_site_id
 _symmetry_equiv_pos_as_xyz
  1  'x, y, z'
loop_
 _atom_site_type_symbol
 _atom_site_label
 _atom_site_symmetry_multiplicity
 _atom_site_fract_x
 _atom_site_fract_y
 _atom_site_fract_z
 _atom_site_occupancy
  Zr  Zr0  1  0.251961  0.240436  0.998629  1
  Zr  Zr1  1  0.748037  0.760935  0.998629  1
  Zr  Zr2  1  0.251961  0.760935  0.240436  1
  Zr  Zr3  1  0.748037  0.998629  0.240436  1
  Zr  Zr4  1  0.500001  0.333335  0.333334  1
  Zr  Zr5  1  0.000000  0.666667  0.666666  1
  Zr  Zr6  1  0.500001  0.666667  0.666666  1
  Zr  Zr7  1  0.251961  0.998629  0.760935  1
  Zr  Zr8  1  0.748037  0.240436  0.760935  1
  Sc  Sc9  1  0.000000  0.333335  0.333334  1
  Co  Co10  1  0.000000  0.000000  0.000000  1
  Co  Co11  1  0.500001  0.000000  0.000000  1
  Pb  Pb12  1  0.751063  0.397051  0.001145  1
  Pb  Pb13  1  0.248935  0.601805  0.001145  1
  Pb  Pb14  1  0.751063  0.601805  0.397050  1
  Pb  Pb15  1  0.248935  0.001145  0.397051  1
  Pb  Pb16  1  0.751063  0.001145  0.601805  1
  Pb  Pb17  1  0.248935  0.397050  0.601805  1
