# generated using pymatgen
data_BeNb3Si
_symmetry_space_group_name_H-M   'P 1'
_cell_length_a   6.66545400
_cell_length_b   6.66425900
_cell_length_c   3.42989200
_cell_angle_alpha   90.00000000
_cell_angle_beta   90.00000000
_cell_angle_gamma   90.00000000
_symmetry_Int_Tables_number   1
_chemical_formula_structural   BeNb3Si
_chemical_formula_sum   'Be2 Nb6 Si2'
_cell_volume   152.35687211
_cell_formula_units_Z   2
loop_
 _symmetry_equiv_pos_site_id
 _symmetry_equiv_pos_as_xyz
  1  'x, y, z'
loop_
 _atom_site_type_symbol
 _atom_site_label
 _atom_site_symmetry_multiplicity
 _atom_site_fract_x
 _atom_site_fract_y
 _atom_site_fract_z
 _atom_site_occupancy
  Be  Be0  1  0.619904  0.879569  0.000000  1
  Be  Be1  1  0.119904  0.620431  0.000000  1
  Nb  Nb2  1  0.997678  0.993513  0.000000  1
  Nb  Nb3  1  0.497678  0.506487  0.000000  1
  Nb  Nb4  1  0.678102  0.173122  0.500000  1
  Nb  Nb5  1  0.178102  0.326878  0.500000  1
  Nb  Nb6  1  0.821291  0.683268  0.500000  1
  Nb  Nb7  1  0.321291  0.816732  0.500000  1
  Si  Si8  1  0.883025  0.386041  0.000000  1
  Si  Si9  1  0.383025  0.113959  0.000000  1
