# generated using pymatgen
data_Na4TmBiO6
_symmetry_space_group_name_H-M   'P 1'
_cell_length_a   5.81262515
_cell_length_b   5.81262771
_cell_length_c   5.91384986
_cell_angle_alpha   99.43350532
_cell_angle_beta   99.43402400
_cell_angle_gamma   119.98911969
_symmetry_Int_Tables_number   1
_chemical_formula_structural   Na4TmBiO6
_chemical_formula_sum   'Na4 Tm1 Bi1 O6'
_cell_volume   163.49903781
_cell_formula_units_Z   1
loop_
 _symmetry_equiv_pos_site_id
 _symmetry_equiv_pos_as_xyz
  1  'x, y, z'
loop_
 _atom_site_type_symbol
 _atom_site_label
 _atom_site_symmetry_multiplicity
 _atom_site_fract_x
 _atom_site_fract_y
 _atom_site_fract_z
 _atom_site_occupancy
  Na  Na0  1  0.499572  0.500427  0.000000  1
  Na  Na1  1  0.006255  0.993746  0.499998  1
  Na  Na2  1  0.339429  0.660573  0.500002  1
  Na  Na3  1  0.657075  0.342924  0.500000  1
  Tm  Tm4  1  0.832711  0.167285  0.000001  1
  Bi  Bi5  1  0.167259  0.832743  0.000000  1
  O  O6  1  0.941743  0.583450  0.216290  1
  O  O7  1  0.561887  0.932363  0.220352  1
  O  O8  1  0.213909  0.204025  0.219763  1
  O  O9  1  0.795972  0.786092  0.780236  1
  O  O10  1  0.067642  0.438118  0.779649  1
  O  O11  1  0.416553  0.058260  0.783710  1
