# generated using pymatgen
data_Tb4CrFe2RhO12
_symmetry_space_group_name_H-M   'P 1'
_cell_length_a   5.34484185
_cell_length_b   5.67544430
_cell_length_c   7.70350760
_cell_angle_alpha   90.36294240
_cell_angle_beta   89.57002800
_cell_angle_gamma   90.05352367
_symmetry_Int_Tables_number   1
_chemical_formula_structural   Tb4CrFe2RhO12
_chemical_formula_sum   'Tb4 Cr1 Fe2 Rh1 O12'
_cell_volume   233.66955297
_cell_formula_units_Z   1
loop_
 _symmetry_equiv_pos_site_id
 _symmetry_equiv_pos_as_xyz
  1  'x, y, z'
loop_
 _atom_site_type_symbol
 _atom_site_label
 _atom_site_symmetry_multiplicity
 _atom_site_fract_x
 _atom_site_fract_y
 _atom_site_fract_z
 _atom_site_occupancy
  Tb  Tb0  1  0.023698  0.929331  0.749590  1
  Tb  Tb1  1  0.517482  0.571091  0.250334  1
  Tb  Tb2  1  0.482518  0.428909  0.749666  1
  Tb  Tb3  1  0.976302  0.070669  0.250410  1
  Cr  Cr4  1  0.000000  0.500000  0.000000  1
  Fe  Fe5  1  0.000000  0.500000  0.500000  1
  Fe  Fe6  1  0.500000  0.000000  0.000000  1
  Rh  Rh7  1  0.500000  0.000000  0.500000  1
  O  O8  1  0.691564  0.308579  0.441940  1
  O  O9  1  0.185568  0.200154  0.559332  1
  O  O10  1  0.807103  0.803381  0.057856  1
  O  O11  1  0.306929  0.695943  0.941556  1
  O  O12  1  0.308436  0.691421  0.558060  1
  O  O13  1  0.814432  0.799846  0.440668  1
  O  O14  1  0.192897  0.196619  0.942144  1
  O  O15  1  0.693071  0.304057  0.058444  1
  O  O16  1  0.112400  0.459115  0.248682  1
  O  O17  1  0.619299  0.042360  0.753182  1
  O  O18  1  0.380701  0.957640  0.246818  1
  O  O19  1  0.887600  0.540885  0.751318  1
