# generated using pymatgen
data_CaU5Co11B4Ir3
_symmetry_space_group_name_H-M   'P 1'
_cell_length_a   5.05630400
_cell_length_b   5.09784398
_cell_length_c   14.29137528
_cell_angle_alpha   90.46293087
_cell_angle_beta   90.00000000
_cell_angle_gamma   119.73079964
_symmetry_Int_Tables_number   1
_chemical_formula_structural   CaU5Co11B4Ir3
_chemical_formula_sum   'Ca1 U5 Co11 B4 Ir3'
_cell_volume   319.87277501
_cell_formula_units_Z   1
loop_
 _symmetry_equiv_pos_site_id
 _symmetry_equiv_pos_as_xyz
  1  'x, y, z'
loop_
 _atom_site_type_symbol
 _atom_site_label
 _atom_site_symmetry_multiplicity
 _atom_site_fract_x
 _atom_site_fract_y
 _atom_site_fract_z
 _atom_site_occupancy
  Ca  Ca0  1  0.332529  0.665061  0.254341  1
  U  U1  1  0.667194  0.334386  0.748045  1
  U  U2  1  0.333820  0.667641  0.030954  1
  U  U3  1  0.665980  0.331959  0.525662  1
  U  U4  1  0.667005  0.334011  0.964385  1
  U  U5  1  0.331167  0.662336  0.472704  1
  Co  Co6  1  0.164941  0.833074  0.650629  1
  Co  Co7  1  0.668133  0.833074  0.650629  1
  Co  Co8  1  0.328846  0.160645  0.150800  1
  Co  Co9  1  0.831800  0.160645  0.150800  1
  Co  Co10  1  0.167519  0.335038  0.845156  1
  Co  Co11  1  0.166993  0.837225  0.847001  1
  Co  Co12  1  0.164565  0.329132  0.651294  1
  Co  Co13  1  0.670231  0.837225  0.847001  1
  Co  Co14  1  0.332262  0.166813  0.354430  1
  Co  Co15  1  0.834412  0.668823  0.352491  1
  Co  Co16  1  0.834552  0.166813  0.354430  1
  B  B17  1  0.004279  0.008556  0.253998  1
  B  B18  1  0.999703  0.999405  0.748780  1
  B  B19  1  0.334467  0.668936  0.748582  1
  B  B20  1  0.660577  0.321153  0.254168  1
  Ir  Ir21  1  0.009771  0.019541  0.995761  1
  Ir  Ir22  1  0.998212  0.996424  0.501644  1
  Ir  Ir23  1  0.831044  0.662087  0.146316  1
