# generated using pymatgen
data_Sr2DyNpO6
_symmetry_space_group_name_H-M   'P 1'
_cell_length_a   6.10393800
_cell_length_b   5.94996674
_cell_length_c   10.39008077
_cell_angle_alpha   55.20981300
_cell_angle_beta   90.00000000
_cell_angle_gamma   90.00000000
_symmetry_Int_Tables_number   1
_chemical_formula_structural   Sr2DyNpO6
_chemical_formula_sum   'Sr4 Dy2 Np2 O12'
_cell_volume   309.89697816
_cell_formula_units_Z   2
loop_
 _symmetry_equiv_pos_site_id
 _symmetry_equiv_pos_as_xyz
  1  'x, y, z'
loop_
 _atom_site_type_symbol
 _atom_site_label
 _atom_site_symmetry_multiplicity
 _atom_site_fract_x
 _atom_site_fract_y
 _atom_site_fract_z
 _atom_site_occupancy
  Sr  Sr0  1  0.454284  0.260793  0.749669  1
  Sr  Sr1  1  0.954284  0.739207  0.750331  1
  Sr  Sr2  1  0.045716  0.260793  0.249669  1
  Sr  Sr3  1  0.545716  0.739207  0.250331  1
  Dy  Dy4  1  0.500000  0.000000  0.500000  1
  Dy  Dy5  1  0.000000  0.000000  0.000000  1
  Np  Np6  1  0.000000  0.500000  0.500000  1
  Np  Np7  1  0.500000  0.500000  0.000000  1
  O  O8  1  0.195410  0.735762  0.549630  1
  O  O9  1  0.695410  0.264238  0.950370  1
  O  O10  1  0.804590  0.264238  0.450370  1
  O  O11  1  0.304590  0.735762  0.049630  1
  O  O12  1  0.710826  0.642292  0.555242  1
  O  O13  1  0.210826  0.357708  0.944758  1
  O  O14  1  0.289174  0.357708  0.444758  1
  O  O15  1  0.789174  0.642292  0.055242  1
  O  O16  1  0.038182  0.156970  0.743989  1
  O  O17  1  0.538182  0.843030  0.756011  1
  O  O18  1  0.961818  0.843030  0.256011  1
  O  O19  1  0.461818  0.156970  0.243989  1
