# generated using pymatgen
data_Li8Ce3LuBr24
_symmetry_space_group_name_H-M   'P 1'
_cell_length_a   6.94330700
_cell_length_b   6.94330740
_cell_length_c   27.24558800
_cell_angle_alpha   90.00000000
_cell_angle_beta   90.00000000
_cell_angle_gamma   119.99999333
_symmetry_Int_Tables_number   1
_chemical_formula_structural   Li8Ce3LuBr24
_chemical_formula_sum   'Li8 Ce3 Lu1 Br24'
_cell_volume   1137.52148267
_cell_formula_units_Z   1
loop_
 _symmetry_equiv_pos_site_id
 _symmetry_equiv_pos_as_xyz
  1  'x, y, z'
loop_
 _atom_site_type_symbol
 _atom_site_label
 _atom_site_symmetry_multiplicity
 _atom_site_fract_x
 _atom_site_fract_y
 _atom_site_fract_z
 _atom_site_occupancy
  Li  Li0  1  0.000000  0.000000  0.250000  1
  Li  Li1  1  0.000000  0.000000  0.750000  1
  Li  Li2  1  0.333333  0.666667  0.001336  1
  Li  Li3  1  0.333333  0.666667  0.498664  1
  Li  Li4  1  0.333333  0.666667  0.250000  1
  Li  Li5  1  0.666667  0.333333  0.750000  1
  Li  Li6  1  0.666667  0.333333  0.998845  1
  Li  Li7  1  0.666667  0.333333  0.501155  1
  Ce  Ce8  1  0.000000  0.000000  0.000294  1
  Ce  Ce9  1  0.000000  0.000000  0.499706  1
  Ce  Ce10  1  0.666667  0.333333  0.250000  1
  Lu  Lu11  1  0.333333  0.666667  0.750000  1
  Br  Br12  1  0.330796  0.997296  0.307084  1
  Br  Br13  1  0.333467  0.995096  0.806141  1
  Br  Br14  1  0.998877  0.334939  0.057275  1
  Br  Br15  1  0.001235  0.336686  0.556517  1
  Br  Br16  1  0.002704  0.333501  0.307084  1
  Br  Br17  1  0.004904  0.338371  0.806141  1
  Br  Br18  1  0.330796  0.333501  0.192916  1
  Br  Br19  1  0.333467  0.338371  0.693859  1
  Br  Br20  1  0.336062  0.334939  0.442725  1
  Br  Br21  1  0.335452  0.336686  0.943483  1
  Br  Br22  1  0.665061  0.001123  0.442725  1
  Br  Br23  1  0.336062  0.001123  0.057275  1
  Br  Br24  1  0.335452  0.998765  0.556517  1
  Br  Br25  1  0.665061  0.663938  0.057275  1
  Br  Br26  1  0.663314  0.664548  0.556517  1
  Br  Br27  1  0.666499  0.669204  0.307084  1
  Br  Br28  1  0.661629  0.666533  0.806141  1
  Br  Br29  1  0.002704  0.669204  0.192916  1
  Br  Br30  1  0.004904  0.666533  0.693859  1
  Br  Br31  1  0.998877  0.663938  0.442725  1
  Br  Br32  1  0.001235  0.664548  0.943483  1
  Br  Br33  1  0.663314  0.998765  0.943483  1
  Br  Br34  1  0.666499  0.997296  0.192916  1
  Br  Br35  1  0.661629  0.995096  0.693859  1
