# generated using pymatgen
data_Dy5HoAl24(Os3Ru)2
_symmetry_space_group_name_H-M   'P 1'
_cell_length_a   8.82199200
_cell_length_b   8.82199184
_cell_length_c   9.55768500
_cell_angle_alpha   90.00000000
_cell_angle_beta   90.00000000
_cell_angle_gamma   120.00000060
_symmetry_Int_Tables_number   1
_chemical_formula_structural   Dy5HoAl24(Os3Ru)2
_chemical_formula_sum   'Dy5 Ho1 Al24 Os6 Ru2'
_cell_volume   644.19396738
_cell_formula_units_Z   1
loop_
 _symmetry_equiv_pos_site_id
 _symmetry_equiv_pos_as_xyz
  1  'x, y, z'
loop_
 _atom_site_type_symbol
 _atom_site_label
 _atom_site_symmetry_multiplicity
 _atom_site_fract_x
 _atom_site_fract_y
 _atom_site_fract_z
 _atom_site_occupancy
  Dy  Dy0  1  0.193281  0.386562  0.250000  1
  Dy  Dy1  1  0.613438  0.806719  0.250000  1
  Dy  Dy2  1  0.806719  0.193281  0.750000  1
  Dy  Dy3  1  0.806719  0.613438  0.750000  1
  Dy  Dy4  1  0.386562  0.193281  0.750000  1
  Ho  Ho5  1  0.193281  0.806719  0.250000  1
  Al  Al6  1  0.560857  0.439143  0.250000  1
  Al  Al7  1  0.560857  0.121715  0.250000  1
  Al  Al8  1  0.878285  0.439143  0.250000  1
  Al  Al9  1  0.439143  0.560857  0.750000  1
  Al  Al10  1  0.439143  0.878285  0.750000  1
  Al  Al11  1  0.121715  0.560857  0.750000  1
  Al  Al12  1  0.324139  0.162070  0.423560  1
  Al  Al13  1  0.837930  0.162070  0.423560  1
  Al  Al14  1  0.837930  0.675861  0.423560  1
  Al  Al15  1  0.675861  0.837930  0.576440  1
  Al  Al16  1  0.162070  0.837930  0.576440  1
  Al  Al17  1  0.162070  0.324139  0.576440  1
  Al  Al18  1  0.675861  0.837930  0.923560  1
  Al  Al19  1  0.162070  0.837930  0.923560  1
  Al  Al20  1  0.162070  0.324139  0.923560  1
  Al  Al21  1  0.324139  0.162070  0.076440  1
  Al  Al22  1  0.837930  0.162070  0.076440  1
  Al  Al23  1  0.837930  0.675861  0.076440  1
  Al  Al24  1  0.666667  0.333333  0.515744  1
  Al  Al25  1  0.333333  0.666667  0.484256  1
  Al  Al26  1  0.333333  0.666667  0.015744  1
  Al  Al27  1  0.666667  0.333333  0.984256  1
  Al  Al28  1  0.000000  0.000000  0.250000  1
  Al  Al29  1  0.000000  0.000000  0.750000  1
  Os  Os30  1  0.500000  0.500000  0.500000  1
  Os  Os31  1  0.500000  0.000000  0.500000  1
  Os  Os32  1  0.000000  0.500000  0.500000  1
  Os  Os33  1  0.500000  0.500000  0.000000  1
  Os  Os34  1  0.500000  0.000000  0.000000  1
  Os  Os35  1  0.000000  0.500000  0.000000  1
  Ru  Ru36  1  0.000000  0.000000  0.500000  1
  Ru  Ru37  1  0.000000  0.000000  0.000000  1
