# generated using pymatgen
data_Sc12Zn(Si4Os)3
_symmetry_space_group_name_H-M   'P 1'
_cell_length_a   4.02648900
_cell_length_b   10.32511080
_cell_length_c   11.70501505
_cell_angle_alpha   90.13472102
_cell_angle_beta   90.00000000
_cell_angle_gamma   90.00000000
_symmetry_Int_Tables_number   1
_chemical_formula_structural   Sc12Zn(Si4Os)3
_chemical_formula_sum   'Sc12 Zn1 Si12 Os3'
_cell_volume   486.62230717
_cell_formula_units_Z   1
loop_
 _symmetry_equiv_pos_site_id
 _symmetry_equiv_pos_as_xyz
  1  'x, y, z'
loop_
 _atom_site_type_symbol
 _atom_site_label
 _atom_site_symmetry_multiplicity
 _atom_site_fract_x
 _atom_site_fract_y
 _atom_site_fract_z
 _atom_site_occupancy
  Sc  Sc0  1  0.250000  0.878137  0.024325  1
  Sc  Sc1  1  0.250000  0.624372  0.517105  1
  Sc  Sc2  1  0.750000  0.125917  0.982602  1
  Sc  Sc3  1  0.750000  0.378720  0.479268  1
  Sc  Sc4  1  0.250000  0.921447  0.600563  1
  Sc  Sc5  1  0.250000  0.579244  0.104275  1
  Sc  Sc6  1  0.750000  0.079056  0.395469  1
  Sc  Sc7  1  0.750000  0.421308  0.898004  1
  Sc  Sc8  1  0.250000  0.654732  0.798746  1
  Sc  Sc9  1  0.250000  0.842600  0.298456  1
  Sc  Sc10  1  0.750000  0.341311  0.201843  1
  Sc  Sc11  1  0.750000  0.164949  0.698619  1
  Zn  Zn12  1  0.750000  0.886027  0.824923  1
  Si  Si13  1  0.250000  0.023171  0.825845  1
  Si  Si14  1  0.250000  0.485385  0.321290  1
  Si  Si15  1  0.750000  0.985658  0.174419  1
  Si  Si16  1  0.750000  0.512171  0.677561  1
  Si  Si17  1  0.250000  0.253958  0.842371  1
  Si  Si18  1  0.250000  0.248939  0.342085  1
  Si  Si19  1  0.750000  0.749470  0.159166  1
  Si  Si20  1  0.750000  0.746352  0.651535  1
  Si  Si21  1  0.250000  0.196127  0.544146  1
  Si  Si22  1  0.250000  0.305120  0.047355  1
  Si  Si23  1  0.750000  0.806310  0.451558  1
  Si  Si24  1  0.750000  0.680558  0.960081  1
  Os  Os25  1  0.250000  0.389773  0.677012  1
  Os  Os26  1  0.250000  0.110098  0.177924  1
  Os  Os27  1  0.750000  0.609087  0.323455  1
