# generated using pymatgen
data_Nd4Er(SiHg)2
_symmetry_space_group_name_H-M   'P 1'
_cell_length_a   9.14345600
_cell_length_b   9.14345657
_cell_length_c   7.68012500
_cell_angle_alpha   90.00000000
_cell_angle_beta   90.00000000
_cell_angle_gamma   130.41673747
_symmetry_Int_Tables_number   1
_chemical_formula_structural   Nd4Er(SiHg)2
_chemical_formula_sum   'Nd8 Er2 Si4 Hg4'
_cell_volume   488.84685303
_cell_formula_units_Z   2
loop_
 _symmetry_equiv_pos_site_id
 _symmetry_equiv_pos_as_xyz
  1  'x, y, z'
loop_
 _atom_site_type_symbol
 _atom_site_label
 _atom_site_symmetry_multiplicity
 _atom_site_fract_x
 _atom_site_fract_y
 _atom_site_fract_z
 _atom_site_occupancy
  Nd  Nd0  1  0.557577  0.812064  0.178415  1
  Nd  Nd1  1  0.312064  0.057577  0.321585  1
  Nd  Nd2  1  0.187936  0.442423  0.821585  1
  Nd  Nd3  1  0.942423  0.687936  0.678415  1
  Nd  Nd4  1  0.687936  0.942423  0.678415  1
  Nd  Nd5  1  0.442423  0.187936  0.821585  1
  Nd  Nd6  1  0.812064  0.557577  0.178415  1
  Nd  Nd7  1  0.057577  0.312064  0.321585  1
  Er  Er8  1  0.500000  0.500000  0.500000  1
  Er  Er9  1  0.000000  0.000000  0.000000  1
  Si  Si10  1  0.615903  0.615903  0.881406  1
  Si  Si11  1  0.115903  0.115903  0.618594  1
  Si  Si12  1  0.884097  0.884097  0.381406  1
  Si  Si13  1  0.384097  0.384097  0.118594  1
  Hg  Hg14  1  0.279866  0.720134  0.500000  1
  Hg  Hg15  1  0.220134  0.779866  0.000000  1
  Hg  Hg16  1  0.720134  0.279866  0.500000  1
  Hg  Hg17  1  0.779866  0.220134  0.000000  1
