# generated using pymatgen
data_La19SmSi15Cl
_symmetry_space_group_name_H-M   'P 1'
_cell_length_a   8.00384952
_cell_length_b   8.09971679
_cell_length_c   15.62797500
_cell_angle_alpha   88.84639743
_cell_angle_beta   85.32174518
_cell_angle_gamma   89.61229421
_symmetry_Int_Tables_number   1
_chemical_formula_structural   La19SmSi15Cl
_chemical_formula_sum   'La19 Sm1 Si15 Cl1'
_cell_volume   1009.55125638
_cell_formula_units_Z   1
loop_
 _symmetry_equiv_pos_site_id
 _symmetry_equiv_pos_as_xyz
  1  'x, y, z'
loop_
 _atom_site_type_symbol
 _atom_site_label
 _atom_site_symmetry_multiplicity
 _atom_site_fract_x
 _atom_site_fract_y
 _atom_site_fract_z
 _atom_site_occupancy
  La  La0  1  0.864804  0.348796  0.614284  1
  La  La1  1  0.471204  0.691885  0.895855  1
  La  La2  1  0.969971  0.816639  0.897218  1
  La  La3  1  0.177081  0.674047  0.121173  1
  La  La4  1  0.676047  0.813113  0.121688  1
  La  La5  1  0.323942  0.184293  0.880430  1
  La  La6  1  0.136409  0.657673  0.386174  1
  La  La7  1  0.030225  0.183416  0.104998  1
  La  La8  1  0.365825  0.176195  0.614801  1
  La  La9  1  0.827850  0.483481  0.239110  1
  La  La10  1  0.330169  0.996973  0.253463  1
  La  La11  1  0.485369  0.301695  0.395334  1
  La  La12  1  0.824126  0.323671  0.879162  1
  La  La13  1  0.019100  0.842290  0.607911  1
  La  La14  1  0.496236  0.704155  0.611292  1
  La  La15  1  0.991372  0.158365  0.392832  1
  La  La16  1  0.632106  0.827030  0.386544  1
  La  La17  1  0.672122  0.005606  0.746170  1
  La  La18  1  0.529273  0.305642  0.104233  1
  Sm  Sm19  1  0.172343  0.517072  0.748737  1
  Si  Si20  1  0.445053  0.593781  0.255002  1
  Si  Si21  1  0.220591  0.371071  0.250798  1
  Si  Si22  1  0.553073  0.408865  0.750281  1
  Si  Si23  1  0.634317  0.025662  0.959363  1
  Si  Si24  1  0.052134  0.116639  0.750544  1
  Si  Si25  1  0.780322  0.626820  0.751332  1
  Si  Si26  1  0.718895  0.109411  0.250849  1
  Si  Si27  1  0.290376  0.966140  0.454781  1
  Si  Si28  1  0.945256  0.889093  0.252176  1
  Si  Si29  1  0.366696  0.971486  0.041752  1
  Si  Si30  1  0.718306  0.035182  0.541679  1
  Si  Si31  1  0.134886  0.477857  0.956639  1
  Si  Si32  1  0.211347  0.490381  0.553379  1
  Si  Si33  1  0.867309  0.523167  0.040532  1
  Si  Si34  1  0.276476  0.885988  0.753775  1
  Cl  Cl35  1  0.789386  0.496426  0.435704  1
