# generated using pymatgen
data_Tb4Zr2Pb5
_symmetry_space_group_name_H-M   'P 1'
_cell_length_a   6.34110569
_cell_length_b   9.45017918
_cell_length_c   11.60146393
_cell_angle_alpha   114.03432687
_cell_angle_beta   105.86008139
_cell_angle_gamma   90.00000029
_symmetry_Int_Tables_number   1
_chemical_formula_structural   Tb4Zr2Pb5
_chemical_formula_sum   'Tb8 Zr4 Pb10'
_cell_volume   605.84640259
_cell_formula_units_Z   2
loop_
 _symmetry_equiv_pos_site_id
 _symmetry_equiv_pos_as_xyz
  1  'x, y, z'
loop_
 _atom_site_type_symbol
 _atom_site_label
 _atom_site_symmetry_multiplicity
 _atom_site_fract_x
 _atom_site_fract_y
 _atom_site_fract_z
 _atom_site_occupancy
  Tb  Tb0  1  0.440648  0.670388  0.881296  1
  Tb  Tb1  1  0.559352  0.329612  0.118704  1
  Tb  Tb2  1  0.940648  0.210908  0.881296  1
  Tb  Tb3  1  0.059352  0.789092  0.118704  1
  Tb  Tb4  1  0.145959  0.257173  0.291919  1
  Tb  Tb5  1  0.854041  0.742827  0.708081  1
  Tb  Tb6  1  0.645959  0.034747  0.291919  1
  Tb  Tb7  1  0.354041  0.965253  0.708081  1
  Zr  Zr8  1  0.553731  0.303731  0.607462  1
  Zr  Zr9  1  0.446269  0.696269  0.392538  1
  Zr  Zr10  1  0.946269  0.696269  0.392538  1
  Zr  Zr11  1  0.053731  0.303731  0.607462  1
  Pb  Pb12  1  0.290664  0.589040  0.581327  1
  Pb  Pb13  1  0.709336  0.410960  0.418673  1
  Pb  Pb14  1  0.790664  0.992287  0.581327  1
  Pb  Pb15  1  0.209336  0.007713  0.418673  1
  Pb  Pb16  1  0.250000  0.000000  0.000000  1
  Pb  Pb17  1  0.750000  0.000000  0.000000  1
  Pb  Pb18  1  0.079153  0.478028  0.158306  1
  Pb  Pb19  1  0.920847  0.521972  0.841694  1
  Pb  Pb20  1  0.579153  0.680278  0.158306  1
  Pb  Pb21  1  0.420847  0.319722  0.841694  1
