# generated using pymatgen
data_Tm2Co10Mo2P7
_symmetry_space_group_name_H-M   'P 1'
_cell_length_a   8.99778327
_cell_length_b   9.00977428
_cell_length_c   3.67260000
_cell_angle_alpha   90.00000000
_cell_angle_beta   90.00000000
_cell_angle_gamma   119.81286293
_symmetry_Int_Tables_number   1
_chemical_formula_structural   Tm2Co10Mo2P7
_chemical_formula_sum   'Tm2 Co10 Mo2 P7'
_cell_volume   258.32686442
_cell_formula_units_Z   1
loop_
 _symmetry_equiv_pos_site_id
 _symmetry_equiv_pos_as_xyz
  1  'x, y, z'
loop_
 _atom_site_type_symbol
 _atom_site_label
 _atom_site_symmetry_multiplicity
 _atom_site_fract_x
 _atom_site_fract_y
 _atom_site_fract_z
 _atom_site_occupancy
  Tm  Tm0  1  0.666618  0.333816  0.500000  1
  Tm  Tm1  1  0.336904  0.666720  0.000000  1
  Co  Co2  1  0.720447  0.877632  0.000000  1
  Co  Co3  1  0.937216  0.370831  0.000000  1
  Co  Co4  1  0.161495  0.284768  0.000000  1
  Co  Co5  1  0.387688  0.440372  0.500000  1
  Co  Co6  1  0.118289  0.836639  0.000000  1
  Co  Co7  1  0.432728  0.061251  0.000000  1
  Co  Co8  1  0.047429  0.613687  0.500000  1
  Co  Co9  1  0.561745  0.946044  0.500000  1
  Co  Co10  1  0.630240  0.567363  0.000000  1
  Co  Co11  1  0.873835  0.780569  0.500000  1
  Mo  Mo12  1  0.218188  0.098144  0.500000  1
  Mo  Mo13  1  0.904172  0.122925  0.500000  1
  P  P14  1  0.414833  0.301825  0.000000  1
  P  P15  1  0.288841  0.878720  0.500000  1
  P  P16  1  0.697223  0.111976  0.000000  1
  P  P17  1  0.596530  0.710598  0.500000  1
  P  P18  1  0.886112  0.587382  0.000000  1
  P  P19  1  0.120016  0.412693  0.500000  1
  P  P20  1  0.999453  0.996045  0.000000  1
