# generated using pymatgen
data_La11Nd(RuBr3)4
_symmetry_space_group_name_H-M   'P 1'
_cell_length_a   10.64263345
_cell_length_b   10.68587728
_cell_length_c   10.64263300
_cell_angle_alpha   109.17511324
_cell_angle_beta   110.10057808
_cell_angle_gamma   109.17511441
_symmetry_Int_Tables_number   1
_chemical_formula_structural   La11Nd(RuBr3)4
_chemical_formula_sum   'La11 Nd1 Ru4 Br12'
_cell_volume   931.23404423
_cell_formula_units_Z   1
loop_
 _symmetry_equiv_pos_site_id
 _symmetry_equiv_pos_as_xyz
  1  'x, y, z'
loop_
 _atom_site_type_symbol
 _atom_site_label
 _atom_site_symmetry_multiplicity
 _atom_site_fract_x
 _atom_site_fract_y
 _atom_site_fract_z
 _atom_site_occupancy
  La  La0  1  0.481711  0.750000  0.018289  1
  La  La1  1  0.234196  0.467309  0.482876  1
  La  La2  1  0.017124  0.032691  0.265804  1
  La  La3  1  0.230952  0.265866  0.745305  1
  La  La4  1  0.020659  0.485190  0.756429  1
  La  La5  1  0.481717  0.233284  0.464210  1
  La  La6  1  0.269373  0.014643  0.034745  1
  La  La7  1  0.754695  0.234134  0.269048  1
  La  La8  1  0.743571  0.014810  0.479341  1
  La  La9  1  0.465255  0.485357  0.230627  1
  La  La10  1  0.035790  0.266716  0.018283  1
  Nd  Nd11  1  0.264283  0.750000  0.235717  1
  Ru  Ru12  1  0.498848  0.998835  0.249973  1
  Ru  Ru13  1  0.250027  0.501165  0.001152  1
  Ru  Ru14  1  0.001530  0.250000  0.498470  1
  Ru  Ru15  1  0.249618  0.250000  0.250382  1
  Br  Br16  1  0.251815  0.997732  0.506484  1
  Br  Br17  1  0.508149  0.503458  0.754392  1
  Br  Br18  1  0.249041  0.752701  0.745882  1
  Br  Br19  1  0.991919  0.746305  0.995482  1
  Br  Br20  1  0.993516  0.502268  0.248185  1
  Br  Br21  1  0.745608  0.996542  0.991851  1
  Br  Br22  1  0.754118  0.747299  0.250959  1
  Br  Br23  1  0.504518  0.753695  0.508081  1
  Br  Br24  1  0.503192  0.250000  0.996808  1
  Br  Br25  1  0.754018  0.505492  0.502436  1
  Br  Br26  1  0.747192  0.250000  0.752808  1
  Br  Br27  1  0.997564  0.994508  0.745982  1
