# generated using pymatgen
data_NdYFe3Re14C3
_symmetry_space_group_name_H-M   'P 1'
_cell_length_a   6.93906810
_cell_length_b   6.93906781
_cell_length_c   6.93906823
_cell_angle_alpha   82.60995671
_cell_angle_beta   82.60995229
_cell_angle_gamma   82.60994421
_symmetry_Int_Tables_number   1
_chemical_formula_structural   NdYFe3Re14C3
_chemical_formula_sum   'Nd1 Y1 Fe3 Re14 C3'
_cell_volume   326.45220549
_cell_formula_units_Z   1
loop_
 _symmetry_equiv_pos_site_id
 _symmetry_equiv_pos_as_xyz
  1  'x, y, z'
loop_
 _atom_site_type_symbol
 _atom_site_label
 _atom_site_symmetry_multiplicity
 _atom_site_fract_x
 _atom_site_fract_y
 _atom_site_fract_z
 _atom_site_occupancy
  Nd  Nd0  1  0.648176  0.648176  0.648176  1
  Y  Y1  1  0.350842  0.350842  0.350842  1
  Fe  Fe2  1  0.999632  0.999632  0.500184  1
  Fe  Fe3  1  0.500184  0.999632  0.999632  1
  Fe  Fe4  1  0.999632  0.500184  0.999632  1
  Re  Re5  1  0.722133  0.277569  0.000358  1
  Re  Re6  1  0.000358  0.722133  0.277569  1
  Re  Re7  1  0.277569  0.000358  0.722133  1
  Re  Re8  1  0.000358  0.277569  0.722133  1
  Re  Re9  1  0.722133  0.000358  0.277569  1
  Re  Re10  1  0.277569  0.722133  0.000358  1
  Re  Re11  1  0.345176  0.345176  0.863179  1
  Re  Re12  1  0.863179  0.345176  0.345176  1
  Re  Re13  1  0.345176  0.863179  0.345176  1
  Re  Re14  1  0.653826  0.653826  0.139105  1
  Re  Re15  1  0.139105  0.653826  0.653826  1
  Re  Re16  1  0.653826  0.139105  0.653826  1
  Re  Re17  1  0.898565  0.898565  0.898565  1
  Re  Re18  1  0.101985  0.101985  0.101985  1
  C  C19  1  0.497305  0.497305  0.005965  1
  C  C20  1  0.005965  0.497305  0.497305  1
  C  C21  1  0.497305  0.005965  0.497305  1
