# generated using pymatgen
data_Sr5InHg4
_symmetry_space_group_name_H-M   'P 1'
_cell_length_a   4.05411400
_cell_length_b   4.05411400
_cell_length_c   19.97890100
_cell_angle_alpha   90.00000000
_cell_angle_beta   90.00000000
_cell_angle_gamma   90.00000000
_symmetry_Int_Tables_number   1
_chemical_formula_structural   Sr5InHg4
_chemical_formula_sum   'Sr5 In1 Hg4'
_cell_volume   328.37002670
_cell_formula_units_Z   1
loop_
 _symmetry_equiv_pos_site_id
 _symmetry_equiv_pos_as_xyz
  1  'x, y, z'
loop_
 _atom_site_type_symbol
 _atom_site_label
 _atom_site_symmetry_multiplicity
 _atom_site_fract_x
 _atom_site_fract_y
 _atom_site_fract_z
 _atom_site_occupancy
  Sr  Sr0  1  0.500000  0.500000  0.103215  1
  Sr  Sr1  1  0.500000  0.500000  0.299734  1
  Sr  Sr2  1  0.500000  0.500000  0.500000  1
  Sr  Sr3  1  0.500000  0.500000  0.700266  1
  Sr  Sr4  1  0.500000  0.500000  0.896785  1
  In  In5  1  0.000000  0.000000  0.000000  1
  Hg  Hg6  1  0.000000  0.000000  0.200366  1
  Hg  Hg7  1  0.000000  0.000000  0.400606  1
  Hg  Hg8  1  0.000000  0.000000  0.599394  1
  Hg  Hg9  1  0.000000  0.000000  0.799634  1
