# generated using pymatgen
data_TbY(Al3Co)3
_symmetry_space_group_name_H-M   'P 1'
_cell_length_a   7.38011364
_cell_length_b   7.38092512
_cell_length_c   9.32468200
_cell_angle_alpha   90.00000000
_cell_angle_beta   90.00000000
_cell_angle_gamma   119.19758543
_symmetry_Int_Tables_number   1
_chemical_formula_structural   TbY(Al3Co)3
_chemical_formula_sum   'Tb2 Y2 Al18 Co6'
_cell_volume   443.39785130
_cell_formula_units_Z   2
loop_
 _symmetry_equiv_pos_site_id
 _symmetry_equiv_pos_as_xyz
  1  'x, y, z'
loop_
 _atom_site_type_symbol
 _atom_site_label
 _atom_site_symmetry_multiplicity
 _atom_site_fract_x
 _atom_site_fract_y
 _atom_site_fract_z
 _atom_site_occupancy
  Tb  Tb0  1  0.993000  0.671975  0.250000  1
  Tb  Tb1  1  0.007000  0.328025  0.750000  1
  Y  Y2  1  0.671938  0.992996  0.250000  1
  Y  Y3  1  0.328062  0.007004  0.750000  1
  Al  Al4  1  0.125311  0.125347  0.250000  1
  Al  Al5  1  0.874689  0.874653  0.750000  1
  Al  Al6  1  0.332255  0.332204  0.541852  1
  Al  Al7  1  0.667745  0.667796  0.041852  1
  Al  Al8  1  0.332255  0.332204  0.958148  1
  Al  Al9  1  0.667745  0.667796  0.458148  1
  Al  Al10  1  0.338832  0.553235  0.250000  1
  Al  Al11  1  0.661168  0.446765  0.750000  1
  Al  Al12  1  0.553134  0.338705  0.250000  1
  Al  Al13  1  0.446866  0.661295  0.750000  1
  Al  Al14  1  0.998233  0.335075  0.070734  1
  Al  Al15  1  0.001767  0.664925  0.570734  1
  Al  Al16  1  0.335219  0.998281  0.429318  1
  Al  Al17  1  0.664781  0.001719  0.929318  1
  Al  Al18  1  0.001767  0.664925  0.929266  1
  Al  Al19  1  0.998233  0.335075  0.429266  1
  Al  Al20  1  0.664781  0.001719  0.570682  1
  Al  Al21  1  0.335219  0.998281  0.070682  1
  Co  Co22  1  0.000000  0.000000  0.000000  1
  Co  Co23  1  0.000000  0.000000  0.500000  1
  Co  Co24  1  0.670915  0.329062  0.999999  1
  Co  Co25  1  0.329085  0.670938  0.499999  1
  Co  Co26  1  0.329085  0.670938  0.000001  1
  Co  Co27  1  0.670915  0.329062  0.500001  1
