# generated using pymatgen
data_Hf9TaCuRe3
_symmetry_space_group_name_H-M   'P 1'
_cell_length_a   8.69783700
_cell_length_b   8.69783742
_cell_length_c   8.51234300
_cell_angle_alpha   90.00000000
_cell_angle_beta   90.00000000
_cell_angle_gamma   120.00000219
_symmetry_Int_Tables_number   1
_chemical_formula_structural   Hf9TaCuRe3
_chemical_formula_sum   'Hf18 Ta2 Cu2 Re6'
_cell_volume   557.70210972
_cell_formula_units_Z   2
loop_
 _symmetry_equiv_pos_site_id
 _symmetry_equiv_pos_as_xyz
  1  'x, y, z'
loop_
 _atom_site_type_symbol
 _atom_site_label
 _atom_site_symmetry_multiplicity
 _atom_site_fract_x
 _atom_site_fract_y
 _atom_site_fract_z
 _atom_site_occupancy
  Hf  Hf0  1  0.197726  0.802274  0.447469  1
  Hf  Hf1  1  0.197726  0.395452  0.447469  1
  Hf  Hf2  1  0.604548  0.802274  0.447469  1
  Hf  Hf3  1  0.802274  0.197726  0.552531  1
  Hf  Hf4  1  0.802274  0.604548  0.552531  1
  Hf  Hf5  1  0.395452  0.197726  0.552531  1
  Hf  Hf6  1  0.802274  0.197726  0.947469  1
  Hf  Hf7  1  0.802274  0.604548  0.947469  1
  Hf  Hf8  1  0.395452  0.197726  0.947469  1
  Hf  Hf9  1  0.197726  0.802274  0.052531  1
  Hf  Hf10  1  0.197726  0.395452  0.052531  1
  Hf  Hf11  1  0.604548  0.802274  0.052531  1
  Hf  Hf12  1  0.540716  0.459284  0.250000  1
  Hf  Hf13  1  0.540716  0.081431  0.250000  1
  Hf  Hf14  1  0.918569  0.459284  0.250000  1
  Hf  Hf15  1  0.459284  0.540716  0.750000  1
  Hf  Hf16  1  0.459284  0.918569  0.750000  1
  Hf  Hf17  1  0.081431  0.540716  0.750000  1
  Ta  Ta18  1  0.000000  0.000000  0.500000  1
  Ta  Ta19  1  0.000000  0.000000  0.000000  1
  Cu  Cu20  1  0.333333  0.666667  0.250000  1
  Cu  Cu21  1  0.666667  0.333333  0.750000  1
  Re  Re22  1  0.886302  0.113698  0.250000  1
  Re  Re23  1  0.886302  0.772605  0.250000  1
  Re  Re24  1  0.227395  0.113698  0.250000  1
  Re  Re25  1  0.113698  0.886302  0.750000  1
  Re  Re26  1  0.113698  0.227395  0.750000  1
  Re  Re27  1  0.772605  0.886302  0.750000  1
