# generated using pymatgen
data_Y2CoGeF14
_symmetry_space_group_name_H-M   'P 1'
_cell_length_a   5.43543200
_cell_length_b   8.70636188
_cell_length_c   11.69649100
_cell_angle_alpha   62.39058303
_cell_angle_beta   90.00000000
_cell_angle_gamma   90.00000000
_symmetry_Int_Tables_number   1
_chemical_formula_structural   Y2CoGeF14
_chemical_formula_sum   'Y4 Co2 Ge2 F28'
_cell_volume   490.48140646
_cell_formula_units_Z   2
loop_
 _symmetry_equiv_pos_site_id
 _symmetry_equiv_pos_as_xyz
  1  'x, y, z'
loop_
 _atom_site_type_symbol
 _atom_site_label
 _atom_site_symmetry_multiplicity
 _atom_site_fract_x
 _atom_site_fract_y
 _atom_site_fract_z
 _atom_site_occupancy
  Y  Y0  1  0.763000  0.808341  0.767645  1
  Y  Y1  1  0.263000  0.191659  0.732355  1
  Y  Y2  1  0.237649  0.190657  0.237152  1
  Y  Y3  1  0.737649  0.809343  0.262848  1
  Co  Co4  1  0.240755  0.725460  0.044546  1
  Co  Co5  1  0.740755  0.274540  0.455454  1
  Ge  Ge6  1  0.758343  0.272716  0.957584  1
  Ge  Ge7  1  0.258343  0.727284  0.542416  1
  F  F8  1  0.423489  0.704053  0.923538  1
  F  F9  1  0.923489  0.295947  0.576462  1
  F  F10  1  0.565818  0.294592  0.076503  1
  F  F11  1  0.065818  0.705408  0.423497  1
  F  F12  1  0.459380  0.281884  0.538359  1
  F  F13  1  0.959380  0.718116  0.961641  1
  F  F14  1  0.541246  0.718273  0.459457  1
  F  F15  1  0.041246  0.281727  0.040543  1
  F  F16  1  0.771398  0.508894  0.863312  1
  F  F17  1  0.271398  0.491106  0.636688  1
  F  F18  1  0.225554  0.492450  0.137929  1
  F  F19  1  0.725554  0.507550  0.362071  1
  F  F20  1  0.759644  0.037474  0.046183  1
  F  F21  1  0.259644  0.962526  0.453817  1
  F  F22  1  0.243396  0.956783  0.957459  1
  F  F23  1  0.743396  0.043217  0.542541  1
  F  F24  1  0.985400  0.729373  0.633723  1
  F  F25  1  0.485400  0.270627  0.866277  1
  F  F26  1  0.016774  0.275039  0.368169  1
  F  F27  1  0.516774  0.724961  0.131831  1
  F  F28  1  0.058851  0.740687  0.170348  1
  F  F29  1  0.558851  0.259313  0.329652  1
  F  F30  1  0.950336  0.256993  0.832833  1
  F  F31  1  0.450336  0.743007  0.667167  1
  F  F32  1  0.406420  0.969945  0.228549  1
  F  F33  1  0.906420  0.030055  0.271451  1
  F  F34  1  0.592547  0.029316  0.773463  1
  F  F35  1  0.092547  0.970684  0.726537  1
