# generated using pymatgen
data_Tm20NiBi8Os3
_symmetry_space_group_name_H-M   'P 1'
_cell_length_a   7.88558965
_cell_length_b   8.97296500
_cell_length_c   12.28543907
_cell_angle_alpha   90.00000000
_cell_angle_beta   90.29710111
_cell_angle_gamma   90.00000000
_symmetry_Int_Tables_number   1
_chemical_formula_structural   Tm20NiBi8Os3
_chemical_formula_sum   'Tm20 Ni1 Bi8 Os3'
_cell_volume   869.27059860
_cell_formula_units_Z   1
loop_
 _symmetry_equiv_pos_site_id
 _symmetry_equiv_pos_as_xyz
  1  'x, y, z'
loop_
 _atom_site_type_symbol
 _atom_site_label
 _atom_site_symmetry_multiplicity
 _atom_site_fract_x
 _atom_site_fract_y
 _atom_site_fract_z
 _atom_site_occupancy
  Tm  Tm0  1  0.839491  0.750000  0.794307  1
  Tm  Tm1  1  0.160862  0.250000  0.208334  1
  Tm  Tm2  1  0.340403  0.250000  0.709585  1
  Tm  Tm3  1  0.657723  0.750000  0.293441  1
  Tm  Tm4  1  0.379481  0.750000  0.694254  1
  Tm  Tm5  1  0.619037  0.250000  0.307085  1
  Tm  Tm6  1  0.879021  0.250000  0.808137  1
  Tm  Tm7  1  0.119358  0.750000  0.188372  1
  Tm  Tm8  1  0.941503  0.750000  0.503438  1
  Tm  Tm9  1  0.059943  0.250000  0.496493  1
  Tm  Tm10  1  0.444202  0.250000  0.997838  1
  Tm  Tm11  1  0.555073  0.750000  0.001635  1
  Tm  Tm12  1  0.672623  0.042589  0.564103  1
  Tm  Tm13  1  0.325978  0.955592  0.435651  1
  Tm  Tm14  1  0.174500  0.958735  0.935230  1
  Tm  Tm15  1  0.325978  0.544408  0.435651  1
  Tm  Tm16  1  0.826209  0.044103  0.064011  1
  Tm  Tm17  1  0.672623  0.457411  0.564103  1
  Tm  Tm18  1  0.826209  0.455897  0.064011  1
  Tm  Tm19  1  0.174500  0.541265  0.935230  1
  Ni  Ni20  1  0.927060  0.750000  0.009392  1
  Bi  Bi21  1  0.570399  0.490978  0.828531  1
  Bi  Bi22  1  0.431728  0.509657  0.171211  1
  Bi  Bi23  1  0.068044  0.508898  0.672538  1
  Bi  Bi24  1  0.431728  0.990343  0.171211  1
  Bi  Bi25  1  0.931434  0.491813  0.326656  1
  Bi  Bi26  1  0.570399  0.009022  0.828531  1
  Bi  Bi27  1  0.931434  0.008187  0.326656  1
  Bi  Bi28  1  0.068044  0.991102  0.672538  1
  Os  Os29  1  0.576448  0.750000  0.511214  1
  Os  Os30  1  0.423285  0.250000  0.490369  1
  Os  Os31  1  0.075281  0.250000  0.990248  1
