# generated using pymatgen
data_Dy10(RuPt)3
_symmetry_space_group_name_H-M   'P 1'
_cell_length_a   10.89836248
_cell_length_b   10.89216800
_cell_length_c   6.44879298
_cell_angle_alpha   90.00000000
_cell_angle_beta   89.87952836
_cell_angle_gamma   90.00000000
_symmetry_Int_Tables_number   1
_chemical_formula_structural   Dy10(RuPt)3
_chemical_formula_sum   'Dy20 Ru6 Pt6'
_cell_volume   765.51385444
_cell_formula_units_Z   2
loop_
 _symmetry_equiv_pos_site_id
 _symmetry_equiv_pos_as_xyz
  1  'x, y, z'
loop_
 _atom_site_type_symbol
 _atom_site_label
 _atom_site_symmetry_multiplicity
 _atom_site_fract_x
 _atom_site_fract_y
 _atom_site_fract_z
 _atom_site_occupancy
  Dy  Dy0  1  0.296653  0.085784  0.377212  1
  Dy  Dy1  1  0.296653  0.914216  0.877212  1
  Dy  Dy2  1  0.708110  0.084887  0.878519  1
  Dy  Dy3  1  0.708110  0.915113  0.378519  1
  Dy  Dy4  1  0.590438  0.796485  0.875768  1
  Dy  Dy5  1  0.590438  0.203515  0.375768  1
  Dy  Dy6  1  0.415196  0.797251  0.375991  1
  Dy  Dy7  1  0.415196  0.202749  0.875991  1
  Dy  Dy8  1  0.202729  0.414760  0.624189  1
  Dy  Dy9  1  0.202729  0.585240  0.124189  1
  Dy  Dy10  1  0.796276  0.410205  0.124222  1
  Dy  Dy11  1  0.796276  0.589795  0.624222  1
  Dy  Dy12  1  0.912152  0.705541  0.119628  1
  Dy  Dy13  1  0.912152  0.294459  0.619628  1
  Dy  Dy14  1  0.082290  0.706532  0.624802  1
  Dy  Dy15  1  0.082290  0.293468  0.124802  1
  Dy  Dy16  1  0.995547  0.000863  0.499841  1
  Dy  Dy17  1  0.995547  0.999137  0.999841  1
  Dy  Dy18  1  0.500119  0.500192  0.999844  1
  Dy  Dy19  1  0.500119  0.499808  0.499844  1
  Ru  Ru20  1  0.847829  0.153726  0.249476  1
  Ru  Ru21  1  0.847829  0.846274  0.749476  1
  Ru  Ru22  1  0.498860  0.000259  0.125687  1
  Ru  Ru23  1  0.498860  0.999741  0.625687  1
  Ru  Ru24  1  0.000358  0.500270  0.874580  1
  Ru  Ru25  1  0.000358  0.499730  0.374580  1
  Pt  Pt26  1  0.154419  0.153549  0.750280  1
  Pt  Pt27  1  0.154419  0.846451  0.250280  1
  Pt  Pt28  1  0.651867  0.348039  0.749904  1
  Pt  Pt29  1  0.651867  0.651961  0.249904  1
  Pt  Pt30  1  0.347155  0.347127  0.250056  1
  Pt  Pt31  1  0.347155  0.652873  0.750056  1
