# generated using pymatgen
data_LaPrNdRuI3
_symmetry_space_group_name_H-M   'P 1'
_cell_length_a   4.36843100
_cell_length_b   9.61096063
_cell_length_c   12.46337797
_cell_angle_alpha   87.80834465
_cell_angle_beta   90.00000000
_cell_angle_gamma   90.00000000
_symmetry_Int_Tables_number   1
_chemical_formula_structural   LaPrNdRuI3
_chemical_formula_sum   'La2 Pr2 Nd2 Ru2 I6'
_cell_volume   522.88988448
_cell_formula_units_Z   2
loop_
 _symmetry_equiv_pos_site_id
 _symmetry_equiv_pos_as_xyz
  1  'x, y, z'
loop_
 _atom_site_type_symbol
 _atom_site_label
 _atom_site_symmetry_multiplicity
 _atom_site_fract_x
 _atom_site_fract_y
 _atom_site_fract_z
 _atom_site_occupancy
  La  La0  1  0.250000  0.884289  0.328311  1
  La  La1  1  0.750000  0.115711  0.671689  1
  Pr  Pr2  1  0.250000  0.902118  0.896441  1
  Pr  Pr3  1  0.750000  0.097882  0.103559  1
  Nd  Nd4  1  0.750000  0.687260  0.118132  1
  Nd  Nd5  1  0.250000  0.312740  0.881868  1
  Ru  Ru6  1  0.250000  0.885992  0.130139  1
  Ru  Ru7  1  0.750000  0.114008  0.869861  1
  I  I8  1  0.250000  0.865103  0.619717  1
  I  I9  1  0.750000  0.134897  0.380283  1
  I  I10  1  0.750000  0.632731  0.375151  1
  I  I11  1  0.250000  0.367269  0.624849  1
  I  I12  1  0.250000  0.395181  0.134842  1
  I  I13  1  0.750000  0.604819  0.865158  1
