# generated using pymatgen
data_Dy8ErMg(SiB4)4
_symmetry_space_group_name_H-M   'P 1'
_cell_length_a   7.19118000
_cell_length_b   7.19118000
_cell_length_c   8.01375600
_cell_angle_alpha   90.00000000
_cell_angle_beta   90.00000000
_cell_angle_gamma   90.00000000
_symmetry_Int_Tables_number   1
_chemical_formula_structural   Dy8ErMg(SiB4)4
_chemical_formula_sum   'Dy8 Er1 Mg1 Si4 B16'
_cell_volume   414.41592333
_cell_formula_units_Z   1
loop_
 _symmetry_equiv_pos_site_id
 _symmetry_equiv_pos_as_xyz
  1  'x, y, z'
loop_
 _atom_site_type_symbol
 _atom_site_label
 _atom_site_symmetry_multiplicity
 _atom_site_fract_x
 _atom_site_fract_y
 _atom_site_fract_z
 _atom_site_occupancy
  Dy  Dy0  1  0.681878  0.179996  0.228663  1
  Dy  Dy1  1  0.318122  0.820004  0.771337  1
  Dy  Dy2  1  0.318122  0.820004  0.228663  1
  Dy  Dy3  1  0.820004  0.681878  0.228663  1
  Dy  Dy4  1  0.820004  0.681878  0.771337  1
  Dy  Dy5  1  0.681878  0.179996  0.771337  1
  Dy  Dy6  1  0.179996  0.318122  0.771337  1
  Dy  Dy7  1  0.179996  0.318122  0.228663  1
  Er  Er8  1  0.500000  0.500000  0.500000  1
  Mg  Mg9  1  0.000000  0.000000  0.500000  1
  Si  Si10  1  0.115844  0.615843  0.500000  1
  Si  Si11  1  0.884156  0.384157  0.500000  1
  Si  Si12  1  0.384157  0.115844  0.500000  1
  Si  Si13  1  0.615843  0.884156  0.500000  1
  B  B14  1  0.174615  0.038425  0.000000  1
  B  B15  1  0.825385  0.961575  0.000000  1
  B  B16  1  0.961575  0.174615  0.000000  1
  B  B17  1  0.326986  0.539555  0.000000  1
  B  B18  1  0.038425  0.825385  0.000000  1
  B  B19  1  0.673014  0.460445  0.000000  1
  B  B20  1  0.539555  0.673014  0.000000  1
  B  B21  1  0.460445  0.326986  0.000000  1
  B  B22  1  0.089251  0.588417  0.000000  1
  B  B23  1  0.910749  0.411583  0.000000  1
  B  B24  1  0.411583  0.089251  0.000000  1
  B  B25  1  0.588417  0.910749  0.000000  1
  B  B26  1  0.000000  0.000000  0.158647  1
  B  B27  1  0.000000  0.000000  0.841353  1
  B  B28  1  0.500000  0.500000  0.836918  1
  B  B29  1  0.500000  0.500000  0.163082  1
