# generated using pymatgen
data_LaSnHIr
_symmetry_space_group_name_H-M   'P 1'
_cell_length_a   4.59086600
_cell_length_b   7.46920900
_cell_length_c   8.58325500
_cell_angle_alpha   90.00000000
_cell_angle_beta   90.00000000
_cell_angle_gamma   90.00000000
_symmetry_Int_Tables_number   1
_chemical_formula_structural   LaSnHIr
_chemical_formula_sum   'La4 Sn4 H4 Ir4'
_cell_volume   294.32099539
_cell_formula_units_Z   4
loop_
 _symmetry_equiv_pos_site_id
 _symmetry_equiv_pos_as_xyz
  1  'x, y, z'
loop_
 _atom_site_type_symbol
 _atom_site_label
 _atom_site_symmetry_multiplicity
 _atom_site_fract_x
 _atom_site_fract_y
 _atom_site_fract_z
 _atom_site_occupancy
  La  La0  1  0.750000  0.015586  0.693874  1
  La  La1  1  0.250000  0.984414  0.306126  1
  La  La2  1  0.250000  0.484414  0.193874  1
  La  La3  1  0.750000  0.515586  0.806126  1
  Sn  Sn4  1  0.750000  0.655432  0.424638  1
  Sn  Sn5  1  0.250000  0.344568  0.575362  1
  Sn  Sn6  1  0.250000  0.844568  0.924638  1
  Sn  Sn7  1  0.750000  0.155432  0.075362  1
  H  H8  1  0.250000  0.446786  0.914651  1
  H  H9  1  0.750000  0.553214  0.085349  1
  H  H10  1  0.750000  0.053214  0.414651  1
  H  H11  1  0.250000  0.946786  0.585349  1
  Ir  Ir12  1  0.750000  0.779820  0.099613  1
  Ir  Ir13  1  0.250000  0.220180  0.900387  1
  Ir  Ir14  1  0.250000  0.720180  0.599613  1
  Ir  Ir15  1  0.750000  0.279820  0.400387  1
