# generated using pymatgen
data_CeHf(As2O7)2
_symmetry_space_group_name_H-M   'P 1'
_cell_length_a   5.56281828
_cell_length_b   5.56046655
_cell_length_c   9.92168600
_cell_angle_alpha   81.38066043
_cell_angle_beta   81.40564531
_cell_angle_gamma   98.62290592
_symmetry_Int_Tables_number   1
_chemical_formula_structural   CeHf(As2O7)2
_chemical_formula_sum   'Ce1 Hf1 As4 O14'
_cell_volume   295.32488420
_cell_formula_units_Z   1
loop_
 _symmetry_equiv_pos_site_id
 _symmetry_equiv_pos_as_xyz
  1  'x, y, z'
loop_
 _atom_site_type_symbol
 _atom_site_label
 _atom_site_symmetry_multiplicity
 _atom_site_fract_x
 _atom_site_fract_y
 _atom_site_fract_z
 _atom_site_occupancy
  Ce  Ce0  1  0.000000  0.000000  0.500000  1
  Hf  Hf1  1  0.000000  0.000000  0.000000  1
  As  As2  1  0.172867  0.449499  0.192399  1
  As  As3  1  0.444061  0.186969  0.708425  1
  As  As4  1  0.555939  0.813031  0.291575  1
  As  As5  1  0.827133  0.550501  0.807601  1
  O  O6  1  0.094484  0.716745  0.123627  1
  O  O7  1  0.775896  0.741637  0.921398  1
  O  O8  1  0.297088  0.986434  0.852848  1
  O  O9  1  0.028713  0.683221  0.660346  1
  O  O10  1  0.467017  0.523219  0.240965  1
  O  O11  1  0.699514  0.083154  0.643296  1
  O  O12  1  0.731699  0.750992  0.412518  1
  O  O13  1  0.268301  0.249008  0.587482  1
  O  O14  1  0.224104  0.258363  0.078602  1
  O  O15  1  0.702912  0.013566  0.147152  1
  O  O16  1  0.905516  0.283255  0.876373  1
  O  O17  1  0.971287  0.316779  0.339654  1
  O  O18  1  0.300486  0.916846  0.356704  1
  O  O19  1  0.532983  0.476781  0.759035  1
