# generated using pymatgen
data_Er16Cd4Ir2PdRu
_symmetry_space_group_name_H-M   'P 1'
_cell_length_a   9.53368142
_cell_length_b   9.60691194
_cell_length_c   9.62427200
_cell_angle_alpha   59.94021252
_cell_angle_beta   59.68517700
_cell_angle_gamma   59.57719945
_symmetry_Int_Tables_number   1
_chemical_formula_structural   Er16Cd4Ir2PdRu
_chemical_formula_sum   'Er16 Cd4 Ir2 Pd1 Ru1'
_cell_volume   619.52455186
_cell_formula_units_Z   1
loop_
 _symmetry_equiv_pos_site_id
 _symmetry_equiv_pos_as_xyz
  1  'x, y, z'
loop_
 _atom_site_type_symbol
 _atom_site_label
 _atom_site_symmetry_multiplicity
 _atom_site_fract_x
 _atom_site_fract_y
 _atom_site_fract_z
 _atom_site_occupancy
  Er  Er0  1  0.346944  0.353618  0.350787  1
  Er  Er1  1  0.346944  0.353618  0.948651  1
  Er  Er2  1  0.348481  0.946414  0.352553  1
  Er  Er3  1  0.962027  0.346630  0.345670  1
  Er  Er4  1  0.813421  0.189849  0.191026  1
  Er  Er5  1  0.185738  0.809490  0.812872  1
  Er  Er6  1  0.185738  0.809490  0.191900  1
  Er  Er7  1  0.813421  0.189849  0.805705  1
  Er  Er8  1  0.187328  0.191523  0.810574  1
  Er  Er9  1  0.816157  0.804862  0.189491  1
  Er  Er10  1  0.935737  0.564412  0.562316  1
  Er  Er11  1  0.557752  0.938890  0.936777  1
  Er  Er12  1  0.557752  0.938890  0.566581  1
  Er  Er13  1  0.935737  0.564412  0.937536  1
  Er  Er14  1  0.557384  0.567460  0.937578  1
  Er  Er15  1  0.935073  0.937522  0.563703  1
  Cd  Cd16  1  0.581208  0.579694  0.580546  1
  Cd  Cd17  1  0.581208  0.579694  0.258550  1
  Cd  Cd18  1  0.581211  0.257901  0.580443  1
  Cd  Cd19  1  0.253827  0.581516  0.582328  1
  Ir  Ir20  1  0.148618  0.138903  0.138614  1
  Ir  Ir21  1  0.148618  0.138903  0.573865  1
  Pd  Pd22  1  0.572045  0.142561  0.142696  1
  Ru  Ru23  1  0.147629  0.573900  0.139236  1
