# generated using pymatgen
data_NdPa5VCo17P12
_symmetry_space_group_name_H-M   'P 1'
_cell_length_a   3.76690300
_cell_length_b   10.46284800
_cell_length_c   12.33238700
_cell_angle_alpha   90.00000000
_cell_angle_beta   90.00000000
_cell_angle_gamma   90.00000000
_symmetry_Int_Tables_number   1
_chemical_formula_structural   NdPa5VCo17P12
_chemical_formula_sum   'Nd1 Pa5 V1 Co17 P12'
_cell_volume   486.05061602
_cell_formula_units_Z   1
loop_
 _symmetry_equiv_pos_site_id
 _symmetry_equiv_pos_as_xyz
  1  'x, y, z'
loop_
 _atom_site_type_symbol
 _atom_site_label
 _atom_site_symmetry_multiplicity
 _atom_site_fract_x
 _atom_site_fract_y
 _atom_site_fract_z
 _atom_site_occupancy
  Nd  Nd0  1  0.500000  0.000000  0.481056  1
  Pa  Pa1  1  0.000000  0.500000  0.523142  1
  Pa  Pa2  1  0.500000  0.819943  0.209523  1
  Pa  Pa3  1  0.500000  0.180057  0.209523  1
  Pa  Pa4  1  0.000000  0.683670  0.793074  1
  Pa  Pa5  1  0.000000  0.316330  0.793074  1
  V  V6  1  0.500000  0.500000  0.151899  1
  Co  Co7  1  0.000000  0.000000  0.840605  1
  Co  Co8  1  0.500000  0.500000  0.701855  1
  Co  Co9  1  0.000000  0.000000  0.290847  1
  Co  Co10  1  0.000000  0.500000  0.983695  1
  Co  Co11  1  0.500000  0.000000  0.019146  1
  Co  Co12  1  0.500000  0.333314  0.991727  1
  Co  Co13  1  0.500000  0.666686  0.991727  1
  Co  Co14  1  0.000000  0.168557  0.005099  1
  Co  Co15  1  0.000000  0.831443  0.005099  1
  Co  Co16  1  0.500000  0.304577  0.428561  1
  Co  Co17  1  0.500000  0.695423  0.428561  1
  Co  Co18  1  0.000000  0.204017  0.573967  1
  Co  Co19  1  0.000000  0.795983  0.573967  1
  Co  Co20  1  0.500000  0.876610  0.716274  1
  Co  Co21  1  0.500000  0.123390  0.716274  1
  Co  Co22  1  0.000000  0.622001  0.285766  1
  Co  Co23  1  0.000000  0.377999  0.285766  1
  P  P24  1  0.500000  0.500000  0.881737  1
  P  P25  1  0.000000  0.000000  0.113811  1
  P  P26  1  0.500000  0.500000  0.341001  1
  P  P27  1  0.000000  0.000000  0.660063  1
  P  P28  1  0.500000  0.309876  0.613218  1
  P  P29  1  0.500000  0.690124  0.613218  1
  P  P30  1  0.000000  0.191510  0.388100  1
  P  P31  1  0.000000  0.808490  0.388100  1
  P  P32  1  0.500000  0.850758  0.896077  1
  P  P33  1  0.500000  0.149242  0.896077  1
  P  P34  1  0.000000  0.654074  0.104185  1
  P  P35  1  0.000000  0.345926  0.104185  1
