# generated using pymatgen
data_PrTh7Se12
_symmetry_space_group_name_H-M   'P 1'
_cell_length_a   11.39633618
_cell_length_b   4.06843300
_cell_length_c   11.48140161
_cell_angle_alpha   90.00000000
_cell_angle_beta   89.54318494
_cell_angle_gamma   90.00000000
_symmetry_Int_Tables_number   1
_chemical_formula_structural   PrTh7Se12
_chemical_formula_sum   'Pr1 Th7 Se12'
_cell_volume   532.32090885
_cell_formula_units_Z   1
loop_
 _symmetry_equiv_pos_site_id
 _symmetry_equiv_pos_as_xyz
  1  'x, y, z'
loop_
 _atom_site_type_symbol
 _atom_site_label
 _atom_site_symmetry_multiplicity
 _atom_site_fract_x
 _atom_site_fract_y
 _atom_site_fract_z
 _atom_site_occupancy
  Pr  Pr0  1  0.479665  0.250000  0.186915  1
  Th  Th1  1  0.980660  0.250000  0.315014  1
  Th  Th2  1  0.520310  0.750000  0.815307  1
  Th  Th3  1  0.019829  0.750000  0.684792  1
  Th  Th4  1  0.697898  0.750000  0.485594  1
  Th  Th5  1  0.195280  0.750000  0.011099  1
  Th  Th6  1  0.303282  0.250000  0.513928  1
  Th  Th7  1  0.801072  0.250000  0.986600  1
  Se  Se8  1  0.553164  0.250000  0.623008  1
  Se  Se9  1  0.051542  0.250000  0.877255  1
  Se  Se10  1  0.448343  0.750000  0.382153  1
  Se  Se11  1  0.947068  0.750000  0.121806  1
  Se  Se12  1  0.623662  0.750000  0.053697  1
  Se  Se13  1  0.123111  0.750000  0.444514  1
  Se  Se14  1  0.377196  0.250000  0.944492  1
  Se  Se15  1  0.877890  0.250000  0.555706  1
  Se  Se16  1  0.721891  0.250000  0.296832  1
  Se  Se17  1  0.216851  0.250000  0.201446  1
  Se  Se18  1  0.280344  0.750000  0.704893  1
  Se  Se19  1  0.780942  0.750000  0.794948  1
