# generated using pymatgen
data_Ti13Al9Fe7Au
_symmetry_space_group_name_H-M   'P 1'
_cell_length_a   8.52718817
_cell_length_b   8.52718750
_cell_length_c   8.48905400
_cell_angle_alpha   59.93322014
_cell_angle_beta   59.93323053
_cell_angle_gamma   59.65043246
_symmetry_Int_Tables_number   1
_chemical_formula_structural   Ti13Al9Fe7Au
_chemical_formula_sum   'Ti13 Al9 Fe7 Au1'
_cell_volume   434.86925054
_cell_formula_units_Z   1
loop_
 _symmetry_equiv_pos_site_id
 _symmetry_equiv_pos_as_xyz
  1  'x, y, z'
loop_
 _atom_site_type_symbol
 _atom_site_label
 _atom_site_symmetry_multiplicity
 _atom_site_fract_x
 _atom_site_fract_y
 _atom_site_fract_z
 _atom_site_occupancy
  Ti  Ti0  1  0.209213  0.209213  0.799509  1
  Ti  Ti1  1  0.793094  0.213169  0.205131  1
  Ti  Ti2  1  0.213169  0.793094  0.205131  1
  Ti  Ti3  1  0.805230  0.805230  0.171618  1
  Ti  Ti4  1  0.183322  0.796551  0.806681  1
  Ti  Ti5  1  0.796551  0.183322  0.806681  1
  Ti  Ti6  1  0.382479  0.382479  0.378963  1
  Ti  Ti7  1  0.399192  0.854732  0.375910  1
  Ti  Ti8  1  0.854732  0.399192  0.375910  1
  Ti  Ti9  1  0.383645  0.383645  0.859339  1
  Ti  Ti10  1  0.841921  0.469323  0.839854  1
  Ti  Ti11  1  0.469323  0.841921  0.839854  1
  Ti  Ti12  1  0.834775  0.834775  0.465538  1
  Al  Al13  1  0.165617  0.165617  0.149421  1
  Al  Al14  1  0.162606  0.520232  0.162489  1
  Al  Al15  1  0.520232  0.162606  0.162489  1
  Al  Al16  1  0.165970  0.165970  0.530578  1
  Al  Al17  1  0.614272  0.614272  0.623880  1
  Al  Al18  1  0.607397  0.147192  0.622824  1
  Al  Al19  1  0.147192  0.607397  0.622824  1
  Al  Al20  1  0.616467  0.616467  0.144883  1
  Al  Al21  1  0.821631  0.821631  0.836456  1
  Fe  Fe22  1  0.497731  0.001312  0.005209  1
  Fe  Fe23  1  0.001312  0.497731  0.005209  1
  Fe  Fe24  1  0.501676  0.501676  0.000796  1
  Fe  Fe25  1  0.998115  0.504019  0.500377  1
  Fe  Fe26  1  0.504019  0.998115  0.500377  1
  Fe  Fe27  1  0.499815  0.499815  0.500079  1
  Fe  Fe28  1  0.005585  0.005585  0.002705  1
  Au  Au29  1  0.003721  0.003721  0.499287  1
