# generated using pymatgen
data_Zr5TlGaPb2
_symmetry_space_group_name_H-M   'P 1'
_cell_length_a   8.86406600
_cell_length_b   8.85480472
_cell_length_c   5.97800800
_cell_angle_alpha   90.00000000
_cell_angle_beta   90.00000000
_cell_angle_gamma   119.96543976
_symmetry_Int_Tables_number   1
_chemical_formula_structural   Zr5TlGaPb2
_chemical_formula_sum   'Zr10 Tl2 Ga2 Pb4'
_cell_volume   406.49034155
_cell_formula_units_Z   2
loop_
 _symmetry_equiv_pos_site_id
 _symmetry_equiv_pos_as_xyz
  1  'x, y, z'
loop_
 _atom_site_type_symbol
 _atom_site_label
 _atom_site_symmetry_multiplicity
 _atom_site_fract_x
 _atom_site_fract_y
 _atom_site_fract_z
 _atom_site_occupancy
  Zr  Zr0  1  0.666355  0.333036  0.998861  1
  Zr  Zr1  1  0.333645  0.666682  0.998861  1
  Zr  Zr2  1  0.333645  0.666682  0.501139  1
  Zr  Zr3  1  0.666355  0.333036  0.501139  1
  Zr  Zr4  1  0.739610  0.739750  0.750000  1
  Zr  Zr5  1  0.260390  0.000140  0.750000  1
  Zr  Zr6  1  0.000000  0.260686  0.750000  1
  Zr  Zr7  1  0.261356  0.261789  0.250000  1
  Zr  Zr8  1  0.738644  0.000432  0.250000  1
  Zr  Zr9  1  0.000000  0.738691  0.250000  1
  Tl  Tl10  1  0.387472  0.387110  0.750000  1
  Tl  Tl11  1  0.612528  0.999639  0.750000  1
  Ga  Ga12  1  0.000000  0.000458  0.000174  1
  Ga  Ga13  1  0.000000  0.000458  0.499826  1
  Pb  Pb14  1  0.000000  0.612047  0.750000  1
  Pb  Pb15  1  0.612021  0.612126  0.250000  1
  Pb  Pb16  1  0.387979  0.000106  0.250000  1
  Pb  Pb17  1  0.000000  0.387130  0.250000  1
