# generated using pymatgen
data_Li2Ni9MoP7W2
_symmetry_space_group_name_H-M   'P 1'
_cell_length_a   9.12396894
_cell_length_b   9.12508169
_cell_length_c   3.61070400
_cell_angle_alpha   90.00000000
_cell_angle_beta   90.00000000
_cell_angle_gamma   119.90427297
_symmetry_Int_Tables_number   1
_chemical_formula_structural   Li2Ni9MoP7W2
_chemical_formula_sum   'Li2 Ni9 Mo1 P7 W2'
_cell_volume   260.59206927
_cell_formula_units_Z   1
loop_
 _symmetry_equiv_pos_site_id
 _symmetry_equiv_pos_as_xyz
  1  'x, y, z'
loop_
 _atom_site_type_symbol
 _atom_site_label
 _atom_site_symmetry_multiplicity
 _atom_site_fract_x
 _atom_site_fract_y
 _atom_site_fract_z
 _atom_site_occupancy
  Li  Li0  1  0.333395  0.666750  0.000000  1
  Li  Li1  1  0.666025  0.333049  0.500000  1
  Ni  Ni2  1  0.710742  0.874365  0.000000  1
  Ni  Ni3  1  0.163684  0.289781  0.000000  1
  Ni  Ni4  1  0.125443  0.835531  0.000000  1
  Ni  Ni5  1  0.627697  0.564074  0.000000  1
  Ni  Ni6  1  0.936012  0.372247  0.000000  1
  Ni  Ni7  1  0.436553  0.063378  0.000000  1
  Ni  Ni8  1  0.555604  0.943180  0.500000  1
  Ni  Ni9  1  0.388433  0.443941  0.500000  1
  Ni  Ni10  1  0.057380  0.613415  0.500000  1
  Mo  Mo11  1  0.221763  0.098132  0.500000  1
  P  P12  1  0.582543  0.708815  0.500000  1
  P  P13  1  0.125946  0.416321  0.500000  1
  P  P14  1  0.290867  0.875085  0.500000  1
  P  P15  1  0.000784  0.000583  0.000000  1
  P  P16  1  0.879632  0.581763  0.000000  1
  P  P17  1  0.702145  0.120721  0.000000  1
  P  P18  1  0.418006  0.298046  0.000000  1
  W  W19  1  0.875654  0.777618  0.500000  1
  W  W20  1  0.901690  0.123205  0.500000  1
