# generated using pymatgen
data_SrLa6Sm(In4Au3)4
_symmetry_space_group_name_H-M   'P 1'
_cell_length_a   15.24898300
_cell_length_b   15.07020812
_cell_length_c   4.55260900
_cell_angle_alpha   90.00000000
_cell_angle_beta   90.00000000
_cell_angle_gamma   120.59726996
_symmetry_Int_Tables_number   1
_chemical_formula_structural   SrLa6Sm(In4Au3)4
_chemical_formula_sum   'Sr1 La6 Sm1 In16 Au12'
_cell_volume   900.54564195
_cell_formula_units_Z   1
loop_
 _symmetry_equiv_pos_site_id
 _symmetry_equiv_pos_as_xyz
  1  'x, y, z'
loop_
 _atom_site_type_symbol
 _atom_site_label
 _atom_site_symmetry_multiplicity
 _atom_site_fract_x
 _atom_site_fract_y
 _atom_site_fract_z
 _atom_site_occupancy
  Sr  Sr0  1  0.667279  0.328293  0.000000  1
  La  La1  1  0.000031  0.451684  0.000000  1
  La  La2  1  0.548009  0.547213  0.000000  1
  La  La3  1  0.340803  0.674443  0.000000  1
  La  La4  1  0.821910  0.999067  0.500000  1
  La  La5  1  0.000522  0.822662  0.500000  1
  La  La6  1  0.176096  0.177985  0.500000  1
  Sm  Sm7  1  0.448219  0.000877  0.000000  1
  In  In8  1  0.180961  0.380354  0.000000  1
  In  In9  1  0.627463  0.806248  0.000000  1
  In  In10  1  0.378638  0.180253  0.000000  1
  In  In11  1  0.200354  0.821563  0.000000  1
  In  In12  1  0.804169  0.622226  0.000000  1
  In  In13  1  0.819024  0.190412  0.000000  1
  In  In14  1  0.277014  0.999228  0.500000  1
  In  In15  1  0.001871  0.281809  0.500000  1
  In  In16  1  0.717985  0.718774  0.500000  1
  In  In17  1  0.349336  0.473682  0.500000  1
  In  In18  1  0.523685  0.876236  0.500000  1
  In  In19  1  0.474506  0.347009  0.500000  1
  In  In20  1  0.127489  0.652779  0.500000  1
  In  In21  1  0.876013  0.526015  0.500000  1
  In  In22  1  0.647264  0.121713  0.500000  1
  In  In23  1  0.000039  0.999922  0.000000  1
  Au  Au24  1  0.175064  0.495938  0.500000  1
  Au  Au25  1  0.508762  0.681353  0.500000  1
  Au  Au26  1  0.486312  0.162322  0.500000  1
  Au  Au27  1  0.323064  0.834836  0.500000  1
  Au  Au28  1  0.679685  0.508850  0.500000  1
  Au  Au29  1  0.830854  0.317514  0.500000  1
  Au  Au30  1  0.176252  0.001431  0.000000  1
  Au  Au31  1  0.001132  0.177743  0.000000  1
  Au  Au32  1  0.824015  0.821200  0.000000  1
  Au  Au33  1  0.645964  0.997404  0.000000  1
  Au  Au34  1  0.002283  0.661691  0.000000  1
  Au  Au35  1  0.337937  0.339274  0.000000  1
