# generated using pymatgen
data_Er6Zn22IrS
_symmetry_space_group_name_H-M   'P 1'
_cell_length_a   9.01908755
_cell_length_b   8.97243671
_cell_length_c   9.01908800
_cell_angle_alpha   60.17095343
_cell_angle_beta   59.64050716
_cell_angle_gamma   60.17095808
_symmetry_Int_Tables_number   1
_chemical_formula_structural   Er6Zn22IrS
_chemical_formula_sum   'Er6 Zn22 Ir1 S1'
_cell_volume   515.98632122
_cell_formula_units_Z   1
loop_
 _symmetry_equiv_pos_site_id
 _symmetry_equiv_pos_as_xyz
  1  'x, y, z'
loop_
 _atom_site_type_symbol
 _atom_site_label
 _atom_site_symmetry_multiplicity
 _atom_site_fract_x
 _atom_site_fract_y
 _atom_site_fract_z
 _atom_site_occupancy
  Er  Er0  1  0.716642  0.291775  0.283358  1
  Er  Er1  1  0.713851  0.286149  0.713851  1
  Er  Er2  1  0.716642  0.708225  0.283358  1
  Er  Er3  1  0.283358  0.708225  0.716642  1
  Er  Er4  1  0.286149  0.713851  0.286149  1
  Er  Er5  1  0.283358  0.291775  0.716642  1
  Zn  Zn6  1  0.626589  0.125153  0.123106  1
  Zn  Zn7  1  0.123453  0.623840  0.123453  1
  Zn  Zn8  1  0.123106  0.125153  0.626589  1
  Zn  Zn9  1  0.123453  0.129254  0.123453  1
  Zn  Zn10  1  0.373411  0.874847  0.876894  1
  Zn  Zn11  1  0.876547  0.376160  0.876547  1
  Zn  Zn12  1  0.876894  0.874847  0.373411  1
  Zn  Zn13  1  0.876547  0.870746  0.876547  1
  Zn  Zn14  1  0.500000  0.000000  0.000000  1
  Zn  Zn15  1  0.500000  0.000000  0.500000  1
  Zn  Zn16  1  0.500000  0.500000  0.000000  1
  Zn  Zn17  1  0.000000  0.500000  0.500000  1
  Zn  Zn18  1  0.000000  0.000000  0.500000  1
  Zn  Zn19  1  0.000000  0.000000  0.000000  1
  Zn  Zn20  1  0.011083  0.329535  0.329845  1
  Zn  Zn21  1  0.332157  0.006330  0.332157  1
  Zn  Zn22  1  0.329845  0.329535  0.011083  1
  Zn  Zn23  1  0.332157  0.329352  0.332157  1
  Zn  Zn24  1  0.988917  0.670465  0.670155  1
  Zn  Zn25  1  0.667843  0.993670  0.667843  1
  Zn  Zn26  1  0.670155  0.670465  0.988917  1
  Zn  Zn27  1  0.667843  0.670648  0.667843  1
  Ir  Ir28  1  0.000000  0.500000  0.000000  1
  S  S29  1  0.500000  0.500000  0.500000  1
