# generated using pymatgen
data_Sc8Ta12Si15As
_symmetry_space_group_name_H-M   'P 1'
_cell_length_a   6.70920179
_cell_length_b   6.89155118
_cell_length_c   13.12070147
_cell_angle_alpha   89.98391789
_cell_angle_beta   90.27268208
_cell_angle_gamma   90.15589238
_symmetry_Int_Tables_number   1
_chemical_formula_structural   Sc8Ta12Si15As
_chemical_formula_sum   'Sc8 Ta12 Si15 As1'
_cell_volume   606.65020989
_cell_formula_units_Z   1
loop_
 _symmetry_equiv_pos_site_id
 _symmetry_equiv_pos_as_xyz
  1  'x, y, z'
loop_
 _atom_site_type_symbol
 _atom_site_label
 _atom_site_symmetry_multiplicity
 _atom_site_fract_x
 _atom_site_fract_y
 _atom_site_fract_z
 _atom_site_occupancy
  Sc  Sc0  1  0.497785  0.675033  0.595304  1
  Sc  Sc1  1  0.000293  0.826560  0.904498  1
  Sc  Sc2  1  0.499785  0.325846  0.094724  1
  Sc  Sc3  1  0.005273  0.176529  0.403206  1
  Sc  Sc4  1  0.500200  0.325606  0.404674  1
  Sc  Sc5  1  0.000240  0.173332  0.095008  1
  Sc  Sc6  1  0.500333  0.674116  0.905176  1
  Sc  Sc7  1  0.999687  0.823976  0.597120  1
  Ta  Ta8  1  0.659023  0.174393  0.625679  1
  Ta  Ta9  1  0.161799  0.325603  0.875230  1
  Ta  Ta10  1  0.337862  0.826349  0.124938  1
  Ta  Ta11  1  0.840810  0.669765  0.374221  1
  Ta  Ta12  1  0.338739  0.827090  0.376159  1
  Ta  Ta13  1  0.837817  0.674164  0.124649  1
  Ta  Ta14  1  0.661561  0.174029  0.874943  1
  Ta  Ta15  1  0.159879  0.327130  0.625197  1
  Ta  Ta16  1  0.836956  0.493981  0.749670  1
  Ta  Ta17  1  0.336072  0.005478  0.749745  1
  Ta  Ta18  1  0.163178  0.506001  0.250320  1
  Ta  Ta19  1  0.664354  0.993680  0.248615  1
  Si  Si20  1  0.169472  0.532426  0.039344  1
  Si  Si21  1  0.330303  0.032278  0.960151  1
  Si  Si22  1  0.828924  0.467242  0.539648  1
  Si  Si23  1  0.318134  0.034676  0.541040  1
  Si  Si24  1  0.830630  0.468157  0.960227  1
  Si  Si25  1  0.669458  0.967950  0.039698  1
  Si  Si26  1  0.171264  0.533033  0.460904  1
  Si  Si27  1  0.457768  0.386529  0.750458  1
  Si  Si28  1  0.957756  0.113084  0.750146  1
  Si  Si29  1  0.540937  0.613722  0.249997  1
  Si  Si30  1  0.042359  0.886118  0.249896  1
  Si  Si31  1  0.703460  0.861382  0.750564  1
  Si  Si32  1  0.204329  0.637572  0.750825  1
  Si  Si33  1  0.297045  0.138488  0.249440  1
  Si  Si34  1  0.796437  0.361673  0.248961  1
  As  As35  1  0.680081  0.967007  0.459624  1
