# generated using pymatgen
data_Tm5ZnIn4Ir
_symmetry_space_group_name_H-M   'P 1'
_cell_length_a   3.59028800
_cell_length_b   8.08911356
_cell_length_c   18.12138876
_cell_angle_alpha   89.55097964
_cell_angle_beta   90.00000000
_cell_angle_gamma   90.00000000
_symmetry_Int_Tables_number   1
_chemical_formula_structural   Tm5ZnIn4Ir
_chemical_formula_sum   'Tm10 Zn2 In8 Ir2'
_cell_volume   526.26969348
_cell_formula_units_Z   2
loop_
 _symmetry_equiv_pos_site_id
 _symmetry_equiv_pos_as_xyz
  1  'x, y, z'
loop_
 _atom_site_type_symbol
 _atom_site_label
 _atom_site_symmetry_multiplicity
 _atom_site_fract_x
 _atom_site_fract_y
 _atom_site_fract_z
 _atom_site_occupancy
  Tm  Tm0  1  0.000000  0.119428  0.419817  1
  Tm  Tm1  1  0.000000  0.880572  0.580183  1
  Tm  Tm2  1  0.000000  0.383772  0.913917  1
  Tm  Tm3  1  0.000000  0.616228  0.086083  1
  Tm  Tm4  1  0.000000  0.260549  0.216901  1
  Tm  Tm5  1  0.000000  0.739451  0.783099  1
  Tm  Tm6  1  0.000000  0.281445  0.722446  1
  Tm  Tm7  1  0.000000  0.718555  0.277554  1
  Tm  Tm8  1  0.000000  0.000000  0.000000  1
  Tm  Tm9  1  0.000000  0.500000  0.500000  1
  Zn  Zn10  1  0.500000  0.022025  0.301865  1
  Zn  Zn11  1  0.500000  0.977975  0.698135  1
  In  In12  1  0.500000  0.418464  0.352140  1
  In  In13  1  0.500000  0.581536  0.647860  1
  In  In14  1  0.500000  0.078760  0.850128  1
  In  In15  1  0.500000  0.921240  0.149872  1
  In  In16  1  0.500000  0.294708  0.066085  1
  In  In17  1  0.500000  0.705292  0.933915  1
  In  In18  1  0.500000  0.207730  0.568757  1
  In  In19  1  0.500000  0.792270  0.431243  1
  Ir  Ir20  1  0.500000  0.476261  0.803822  1
  Ir  Ir21  1  0.500000  0.523739  0.196178  1
