# generated using pymatgen
data_VSe34
_symmetry_space_group_name_H-M   'P 1'
_cell_length_a   7.96835437
_cell_length_b   7.96835428
_cell_length_c   37.36473362
_cell_angle_alpha   90.26322477
_cell_angle_beta   90.26322465
_cell_angle_gamma   26.32257591
_symmetry_Int_Tables_number   1
_chemical_formula_structural   VSe34
_chemical_formula_sum   'V1 Se34'
_cell_volume   1051.99557282
_cell_formula_units_Z   1
loop_
 _symmetry_equiv_pos_site_id
 _symmetry_equiv_pos_as_xyz
  1  'x, y, z'
loop_
 _atom_site_type_symbol
 _atom_site_label
 _atom_site_symmetry_multiplicity
 _atom_site_fract_x
 _atom_site_fract_y
 _atom_site_fract_z
 _atom_site_occupancy
  V  V0  1  0.000000  0.000000  0.000000  1
  Se  Se1  1  0.559943  0.559943  0.838451  1
  Se  Se2  1  0.415318  0.415318  0.658971  1
  Se  Se3  1  0.197825  0.197825  0.457156  1
  Se  Se4  1  0.979617  0.979618  0.257691  1
  Se  Se5  1  0.814595  0.814595  0.067233  1
  Se  Se6  1  0.185405  0.185405  0.932767  1
  Se  Se7  1  0.020383  0.020383  0.742309  1
  Se  Se8  1  0.802175  0.802175  0.542844  1
  Se  Se9  1  0.584682  0.584682  0.341029  1
  Se  Se10  1  0.440057  0.440057  0.161549  1
  Se  Se11  1  0.786742  0.786742  0.795357  1
  Se  Se12  1  0.618695  0.618695  0.605223  1
  Se  Se13  1  0.381305  0.381305  0.394777  1
  Se  Se14  1  0.213258  0.213258  0.204643  1
  Se  Se15  1  0.032078  0.032078  0.933923  1
  Se  Se16  1  0.835982  0.835982  0.690070  1
  Se  Se17  1  0.635937  0.635937  0.492461  1
  Se  Se18  1  0.441590  0.441590  0.304619  1
  Se  Se19  1  0.283549  0.283549  0.110482  1
  Se  Se20  1  0.716451  0.716451  0.889518  1
  Se  Se21  1  0.558410  0.558410  0.695381  1
  Se  Se22  1  0.364063  0.364063  0.507539  1
  Se  Se23  1  0.164018  0.164018  0.309930  1
  Se  Se24  1  0.967922  0.967922  0.066077  1
  Se  Se25  1  0.463068  0.463068  0.789737  1
  Se  Se26  1  0.239321  0.239321  0.596689  1
  Se  Se27  1  0.003017  0.003017  0.391910  1
  Se  Se28  1  0.807203  0.807203  0.179908  1
  Se  Se29  1  0.605127  0.605127  0.014580  1
  Se  Se30  1  0.394873  0.394873  0.985420  1
  Se  Se31  1  0.192797  0.192797  0.820092  1
  Se  Se32  1  0.996983  0.996983  0.608090  1
  Se  Se33  1  0.760679  0.760679  0.403311  1
  Se  Se34  1  0.536932  0.536932  0.210263  1
