# generated using pymatgen
data_YbDy2Er(Ga3Ir)6
_symmetry_space_group_name_H-M   'P 1'
_cell_length_a   7.57210108
_cell_length_b   7.57747703
_cell_length_c   9.52195500
_cell_angle_alpha   90.00000000
_cell_angle_beta   90.00000000
_cell_angle_gamma   119.75411065
_symmetry_Int_Tables_number   1
_chemical_formula_structural   YbDy2Er(Ga3Ir)6
_chemical_formula_sum   'Yb1 Dy2 Er1 Ga18 Ir6'
_cell_volume   474.31683009
_cell_formula_units_Z   1
loop_
 _symmetry_equiv_pos_site_id
 _symmetry_equiv_pos_as_xyz
  1  'x, y, z'
loop_
 _atom_site_type_symbol
 _atom_site_label
 _atom_site_symmetry_multiplicity
 _atom_site_fract_x
 _atom_site_fract_y
 _atom_site_fract_z
 _atom_site_occupancy
  Yb  Yb0  1  0.996267  0.668548  0.750000  1
  Dy  Dy1  1  0.001305  0.330880  0.250000  1
  Dy  Dy2  1  0.669021  0.998475  0.750000  1
  Er  Er3  1  0.330125  0.000337  0.250000  1
  Ga  Ga4  1  0.126536  0.127801  0.750000  1
  Ga  Ga5  1  0.872459  0.871952  0.250000  1
  Ga  Ga6  1  0.000982  0.336760  0.580722  1
  Ga  Ga7  1  0.000166  0.664906  0.420710  1
  Ga  Ga8  1  0.000166  0.664906  0.079290  1
  Ga  Ga9  1  0.333012  0.998742  0.919992  1
  Ga  Ga10  1  0.000982  0.336760  0.919278  1
  Ga  Ga11  1  0.664856  0.000539  0.080954  1
  Ga  Ga12  1  0.664856  0.000539  0.419046  1
  Ga  Ga13  1  0.333012  0.998742  0.580008  1
  Ga  Ga14  1  0.332537  0.331869  0.066339  1
  Ga  Ga15  1  0.669035  0.667654  0.938175  1
  Ga  Ga16  1  0.669035  0.667654  0.561825  1
  Ga  Ga17  1  0.332537  0.331869  0.433661  1
  Ga  Ga18  1  0.339622  0.547786  0.750000  1
  Ga  Ga19  1  0.661484  0.453002  0.250000  1
  Ga  Ga20  1  0.545930  0.337354  0.750000  1
  Ga  Ga21  1  0.453475  0.661342  0.250000  1
  Ir  Ir22  1  0.670643  0.328177  0.499716  1
  Ir  Ir23  1  0.329352  0.671303  0.499204  1
  Ir  Ir24  1  0.329352  0.671303  0.000796  1
  Ir  Ir25  1  0.670643  0.328177  0.000284  1
  Ir  Ir26  1  0.001306  0.001311  0.498750  1
  Ir  Ir27  1  0.001306  0.001311  0.001250  1
