# generated using pymatgen
data_Rb2NaSbSe4
_symmetry_space_group_name_H-M   'P 1'
_cell_length_a   11.93824100
_cell_length_b   8.59723092
_cell_length_c   13.83847890
_cell_angle_alpha   53.66384033
_cell_angle_beta   90.00000000
_cell_angle_gamma   90.00000000
_symmetry_Int_Tables_number   1
_chemical_formula_structural   Rb2NaSbSe4
_chemical_formula_sum   'Rb8 Na4 Sb4 Se16'
_cell_volume   1144.14803008
_cell_formula_units_Z   4
loop_
 _symmetry_equiv_pos_site_id
 _symmetry_equiv_pos_as_xyz
  1  'x, y, z'
loop_
 _atom_site_type_symbol
 _atom_site_label
 _atom_site_symmetry_multiplicity
 _atom_site_fract_x
 _atom_site_fract_y
 _atom_site_fract_z
 _atom_site_occupancy
  Rb  Rb0  1  0.994233  0.113698  0.270484  1
  Rb  Rb1  1  0.727758  0.638361  0.005953  1
  Rb  Rb2  1  0.772242  0.638361  0.505953  1
  Rb  Rb3  1  0.505767  0.113698  0.770484  1
  Rb  Rb4  1  0.227758  0.361639  0.494047  1
  Rb  Rb5  1  0.272242  0.361639  0.994047  1
  Rb  Rb6  1  0.005767  0.886302  0.729516  1
  Rb  Rb7  1  0.494233  0.886302  0.229516  1
  Na  Na8  1  0.016265  0.330699  0.789876  1
  Na  Na9  1  0.983735  0.669301  0.210124  1
  Na  Na10  1  0.483735  0.330699  0.289876  1
  Na  Na11  1  0.516265  0.669301  0.710124  1
  Sb  Sb12  1  0.731672  0.181358  0.469120  1
  Sb  Sb13  1  0.268328  0.818642  0.530880  1
  Sb  Sb14  1  0.768328  0.181358  0.969120  1
  Sb  Sb15  1  0.231672  0.818642  0.030880  1
  Se  Se16  1  0.731287  0.848809  0.664449  1
  Se  Se17  1  0.921804  0.326947  0.451681  1
  Se  Se18  1  0.578196  0.326947  0.951681  1
  Se  Se19  1  0.425087  0.614168  0.536779  1
  Se  Se20  1  0.268713  0.151191  0.335551  1
  Se  Se21  1  0.574913  0.385832  0.463221  1
  Se  Se22  1  0.702122  0.156402  0.298336  1
  Se  Se23  1  0.421804  0.673053  0.048319  1
  Se  Se24  1  0.074913  0.614168  0.036779  1
  Se  Se25  1  0.768713  0.848809  0.164449  1
  Se  Se26  1  0.231287  0.151191  0.835551  1
  Se  Se27  1  0.202122  0.843598  0.201664  1
  Se  Se28  1  0.078196  0.673053  0.548319  1
  Se  Se29  1  0.797878  0.156402  0.798336  1
  Se  Se30  1  0.297878  0.843598  0.701664  1
  Se  Se31  1  0.925087  0.385832  0.963221  1
