# generated using pymatgen
data_Dy16CdCo2Hg3Ru2
_symmetry_space_group_name_H-M   'P 1'
_cell_length_a   9.51848787
_cell_length_b   9.57703998
_cell_length_c   9.57655743
_cell_angle_alpha   59.93879788
_cell_angle_beta   59.76592944
_cell_angle_gamma   59.76628804
_symmetry_Int_Tables_number   1
_chemical_formula_structural   Dy16CdCo2Hg3Ru2
_chemical_formula_sum   'Dy16 Cd1 Co2 Hg3 Ru2'
_cell_volume   614.82201077
_cell_formula_units_Z   1
loop_
 _symmetry_equiv_pos_site_id
 _symmetry_equiv_pos_as_xyz
  1  'x, y, z'
loop_
 _atom_site_type_symbol
 _atom_site_label
 _atom_site_symmetry_multiplicity
 _atom_site_fract_x
 _atom_site_fract_y
 _atom_site_fract_z
 _atom_site_occupancy
  Dy  Dy0  1  0.148404  0.539623  0.157797  1
  Dy  Dy1  1  0.693617  0.311402  0.686108  1
  Dy  Dy2  1  0.691358  0.310664  0.310692  1
  Dy  Dy3  1  0.937288  0.563763  0.563773  1
  Dy  Dy4  1  0.546796  0.152825  0.152750  1
  Dy  Dy5  1  0.148336  0.157840  0.539667  1
  Dy  Dy6  1  0.941764  0.935321  0.561229  1
  Dy  Dy7  1  0.312246  0.686011  0.310863  1
  Dy  Dy8  1  0.560696  0.940326  0.940370  1
  Dy  Dy9  1  0.561381  0.936967  0.560479  1
  Dy  Dy10  1  0.693619  0.686097  0.311429  1
  Dy  Dy11  1  0.561415  0.560486  0.937008  1
  Dy  Dy12  1  0.941721  0.561253  0.935338  1
  Dy  Dy13  1  0.313550  0.689272  0.689269  1
  Dy  Dy14  1  0.147305  0.154941  0.154936  1
  Dy  Dy15  1  0.312248  0.310845  0.686014  1
  Cd  Cd16  1  0.238289  0.920773  0.920785  1
  Co  Co17  1  0.920144  0.358407  0.358361  1
  Co  Co18  1  0.359424  0.360311  0.360250  1
  Hg  Hg19  1  0.917144  0.253356  0.914924  1
  Hg  Hg20  1  0.918336  0.915163  0.915162  1
  Hg  Hg21  1  0.917159  0.914920  0.253355  1
  Ru  Ru22  1  0.358875  0.359249  0.920162  1
  Ru  Ru23  1  0.358882  0.920185  0.359282  1
