# generated using pymatgen
data_Pr3BOsO9
_symmetry_space_group_name_H-M   'P 1'
_cell_length_a   8.81357400
_cell_length_b   8.81357538
_cell_length_c   5.65613700
_cell_angle_alpha   90.00000000
_cell_angle_beta   90.00000000
_cell_angle_gamma   119.99999582
_symmetry_Int_Tables_number   1
_chemical_formula_structural   Pr3BOsO9
_chemical_formula_sum   'Pr6 B2 Os2 O18'
_cell_volume   380.50007679
_cell_formula_units_Z   2
loop_
 _symmetry_equiv_pos_site_id
 _symmetry_equiv_pos_as_xyz
  1  'x, y, z'
loop_
 _atom_site_type_symbol
 _atom_site_label
 _atom_site_symmetry_multiplicity
 _atom_site_fract_x
 _atom_site_fract_y
 _atom_site_fract_z
 _atom_site_occupancy
  Pr  Pr0  1  0.357234  0.079893  0.198141  1
  Pr  Pr1  1  0.920108  0.277341  0.198141  1
  Pr  Pr2  1  0.722660  0.642767  0.198141  1
  Pr  Pr3  1  0.277341  0.357234  0.698140  1
  Pr  Pr4  1  0.079893  0.722660  0.698140  1
  Pr  Pr5  1  0.642767  0.920108  0.698140  1
  B  B6  1  0.000000  0.000000  0.364201  1
  B  B7  1  0.000000  0.000000  0.864200  1
  Os  Os8  1  0.333335  0.666667  0.247343  1
  Os  Os9  1  0.666665  0.333332  0.747344  1
  O  O10  1  0.213028  0.467405  0.045961  1
  O  O11  1  0.254374  0.786970  0.045961  1
  O  O12  1  0.532594  0.745626  0.045963  1
  O  O13  1  0.128967  0.174765  0.355940  1
  O  O14  1  0.045798  0.871034  0.355940  1
  O  O15  1  0.825235  0.954202  0.355940  1
  O  O16  1  0.134345  0.520546  0.465844  1
  O  O17  1  0.479453  0.613798  0.465844  1
  O  O18  1  0.386201  0.865655  0.465844  1
  O  O19  1  0.786970  0.532595  0.545960  1
  O  O20  1  0.745625  0.213031  0.545962  1
  O  O21  1  0.467405  0.254375  0.545962  1
  O  O22  1  0.174766  0.045799  0.855941  1
  O  O23  1  0.954201  0.128967  0.855941  1
  O  O24  1  0.871034  0.825234  0.855941  1
  O  O25  1  0.613799  0.134346  0.965843  1
  O  O26  1  0.520547  0.386201  0.965843  1
  O  O27  1  0.865655  0.479454  0.965844  1
