# generated using pymatgen
data_TmPa9(Re3C8)2
_symmetry_space_group_name_H-M   'P 1'
_cell_length_a   11.42965708
_cell_length_b   11.42965708
_cell_length_c   3.39765000
_cell_angle_alpha   90.00000000
_cell_angle_beta   90.00000000
_cell_angle_gamma   89.98619446
_symmetry_Int_Tables_number   1
_chemical_formula_structural   TmPa9(Re3C8)2
_chemical_formula_sum   'Tm1 Pa9 Re6 C16'
_cell_volume   443.85899754
_cell_formula_units_Z   1
loop_
 _symmetry_equiv_pos_site_id
 _symmetry_equiv_pos_as_xyz
  1  'x, y, z'
loop_
 _atom_site_type_symbol
 _atom_site_label
 _atom_site_symmetry_multiplicity
 _atom_site_fract_x
 _atom_site_fract_y
 _atom_site_fract_z
 _atom_site_occupancy
  Tm  Tm0  1  0.000000  0.500000  0.000000  1
  Pa  Pa1  1  0.270845  0.543537  0.500000  1
  Pa  Pa2  1  0.729155  0.456463  0.500000  1
  Pa  Pa3  1  0.543119  0.726036  0.500000  1
  Pa  Pa4  1  0.773964  0.956881  0.500000  1
  Pa  Pa5  1  0.226036  0.043119  0.500000  1
  Pa  Pa6  1  0.956463  0.229155  0.500000  1
  Pa  Pa7  1  0.456881  0.273964  0.500000  1
  Pa  Pa8  1  0.500000  0.000000  0.000000  1
  Pa  Pa9  1  0.043537  0.770845  0.500000  1
  Re  Re10  1  0.203159  0.296841  0.000000  1
  Re  Re11  1  0.701745  0.201745  0.000000  1
  Re  Re12  1  0.298255  0.798255  0.000000  1
  Re  Re13  1  0.500000  0.500000  0.000000  1
  Re  Re14  1  0.796841  0.703159  0.000000  1
  Re  Re15  1  0.000000  0.000000  0.000000  1
  C  C16  1  0.346038  0.402982  0.000000  1
  C  C17  1  0.617989  0.117989  0.500000  1
  C  C18  1  0.902982  0.846038  0.000000  1
  C  C19  1  0.652725  0.847275  0.000000  1
  C  C20  1  0.347275  0.152725  0.000000  1
  C  C21  1  0.118666  0.381334  0.500000  1
  C  C22  1  0.152119  0.901329  0.000000  1
  C  C23  1  0.846730  0.346730  0.000000  1
  C  C24  1  0.653962  0.597018  0.000000  1
  C  C25  1  0.598671  0.347881  0.000000  1
  C  C26  1  0.881334  0.618666  0.500000  1
  C  C27  1  0.847881  0.098671  0.000000  1
  C  C28  1  0.382011  0.882011  0.500000  1
  C  C29  1  0.153270  0.653270  0.000000  1
  C  C30  1  0.097018  0.153962  0.000000  1
  C  C31  1  0.401329  0.652119  0.000000  1
