# generated using pymatgen
data_Pr3Nd2Bi3P
_symmetry_space_group_name_H-M   'P 1'
_cell_length_a   9.58840940
_cell_length_b   9.58358915
_cell_length_c   6.88220000
_cell_angle_alpha   90.00000000
_cell_angle_beta   90.00000000
_cell_angle_gamma   119.98336613
_symmetry_Int_Tables_number   1
_chemical_formula_structural   Pr3Nd2Bi3P
_chemical_formula_sum   'Pr6 Nd4 Bi6 P2'
_cell_volume   547.77908581
_cell_formula_units_Z   2
loop_
 _symmetry_equiv_pos_site_id
 _symmetry_equiv_pos_as_xyz
  1  'x, y, z'
loop_
 _atom_site_type_symbol
 _atom_site_label
 _atom_site_symmetry_multiplicity
 _atom_site_fract_x
 _atom_site_fract_y
 _atom_site_fract_z
 _atom_site_occupancy
  Pr  Pr0  1  0.666701  0.333323  0.000035  1
  Pr  Pr1  1  0.333299  0.666623  0.000035  1
  Pr  Pr2  1  0.333299  0.666623  0.499965  1
  Pr  Pr3  1  0.666701  0.333323  0.499965  1
  Pr  Pr4  1  0.760745  0.760810  0.750000  1
  Pr  Pr5  1  0.239255  0.000065  0.750000  1
  Nd  Nd6  1  0.000000  0.238385  0.750000  1
  Nd  Nd7  1  0.238444  0.238523  0.250000  1
  Nd  Nd8  1  0.761556  0.000080  0.250000  1
  Nd  Nd9  1  0.000000  0.761596  0.250000  1
  Bi  Bi10  1  0.396248  0.396510  0.750000  1
  Bi  Bi11  1  0.603752  0.000262  0.750000  1
  Bi  Bi12  1  0.000000  0.603026  0.750000  1
  Bi  Bi13  1  0.603523  0.603517  0.250000  1
  Bi  Bi14  1  0.396477  0.999994  0.250000  1
  Bi  Bi15  1  0.000000  0.396430  0.250000  1
  P  P16  1  0.000000  0.000456  0.000859  1
  P  P17  1  0.000000  0.000456  0.499141  1
