# generated using pymatgen
data_TbZn6CdAu5
_symmetry_space_group_name_H-M   'P 1'
_cell_length_a   7.10274108
_cell_length_b   7.10273783
_cell_length_c   7.10274100
_cell_angle_alpha   96.14979096
_cell_angle_beta   99.31579202
_cell_angle_gamma   136.96997260
_symmetry_Int_Tables_number   1
_chemical_formula_structural   TbZn6CdAu5
_chemical_formula_sum   'Tb1 Zn6 Cd1 Au5'
_cell_volume   227.36348860
_cell_formula_units_Z   1
loop_
 _symmetry_equiv_pos_site_id
 _symmetry_equiv_pos_as_xyz
  1  'x, y, z'
loop_
 _atom_site_type_symbol
 _atom_site_label
 _atom_site_symmetry_multiplicity
 _atom_site_fract_x
 _atom_site_fract_y
 _atom_site_fract_z
 _atom_site_occupancy
  Tb  Tb0  1  0.999998  0.995800  0.995802  1
  Zn  Zn1  1  0.004584  0.997174  0.502283  1
  Zn  Zn2  1  0.505111  0.497700  0.502283  1
  Zn  Zn3  1  0.494890  0.997174  0.992590  1
  Zn  Zn4  1  0.995416  0.497700  0.992590  1
  Zn  Zn5  1  0.730491  0.502485  0.232976  1
  Zn  Zn6  1  0.269509  0.502485  0.771993  1
  Cd  Cd7  1  0.000003  0.350666  0.350663  1
  Au  Au8  1  0.999995  0.656148  0.656153  1
  Au  Au9  1  0.670136  0.997119  0.667255  1
  Au  Au10  1  0.329863  0.997119  0.326983  1
  Au  Au11  1  0.500007  0.323589  0.823582  1
  Au  Au12  1  0.499997  0.684843  0.184846  1
