# generated using pymatgen
data_Y3Ho5Cd2PdPt
_symmetry_space_group_name_H-M   'P 1'
_cell_length_a   9.68911880
_cell_length_b   9.68911906
_cell_length_c   9.65847300
_cell_angle_alpha   60.10457743
_cell_angle_beta   60.10457655
_cell_angle_gamma   60.13975467
_symmetry_Int_Tables_number   1
_chemical_formula_structural   Y3Ho5Cd2PdPt
_chemical_formula_sum   'Y6 Ho10 Cd4 Pd2 Pt2'
_cell_volume   642.84277986
_cell_formula_units_Z   2
loop_
 _symmetry_equiv_pos_site_id
 _symmetry_equiv_pos_as_xyz
  1  'x, y, z'
loop_
 _atom_site_type_symbol
 _atom_site_label
 _atom_site_symmetry_multiplicity
 _atom_site_fract_x
 _atom_site_fract_y
 _atom_site_fract_z
 _atom_site_occupancy
  Y  Y0  1  0.936207  0.565007  0.563418  1
  Y  Y1  1  0.565007  0.936207  0.935368  1
  Y  Y2  1  0.565007  0.936207  0.563418  1
  Y  Y3  1  0.936207  0.565007  0.935368  1
  Y  Y4  1  0.565886  0.565886  0.934114  1
  Y  Y5  1  0.936459  0.936459  0.563541  1
  Ho  Ho6  1  0.353045  0.353045  0.347842  1
  Ho  Ho7  1  0.353045  0.353045  0.946070  1
  Ho  Ho8  1  0.358625  0.935196  0.353090  1
  Ho  Ho9  1  0.935196  0.358625  0.353090  1
  Ho  Ho10  1  0.810356  0.189740  0.188787  1
  Ho  Ho11  1  0.189740  0.810356  0.811117  1
  Ho  Ho12  1  0.189740  0.810356  0.188787  1
  Ho  Ho13  1  0.810356  0.189740  0.811117  1
  Ho  Ho14  1  0.190847  0.190847  0.809153  1
  Ho  Ho15  1  0.811827  0.811827  0.188173  1
  Cd  Cd16  1  0.580468  0.580468  0.584379  1
  Cd  Cd17  1  0.580468  0.580468  0.254684  1
  Cd  Cd18  1  0.579107  0.254297  0.583297  1
  Cd  Cd19  1  0.254297  0.579107  0.583297  1
  Pd  Pd20  1  0.143820  0.143820  0.148028  1
  Pd  Pd21  1  0.143820  0.143820  0.564333  1
  Pt  Pt22  1  0.140124  0.570346  0.144766  1
  Pt  Pt23  1  0.570346  0.140124  0.144766  1
