# generated using pymatgen
data_HfU2Co6Sn
_symmetry_space_group_name_H-M   'P 1'
_cell_length_a   5.15359900
_cell_length_b   7.24548000
_cell_length_c   8.09798100
_cell_angle_alpha   90.00000000
_cell_angle_beta   90.00000000
_cell_angle_gamma   90.00000000
_symmetry_Int_Tables_number   1
_chemical_formula_structural   HfU2Co6Sn
_chemical_formula_sum   'Hf2 U4 Co12 Sn2'
_cell_volume   302.38102765
_cell_formula_units_Z   2
loop_
 _symmetry_equiv_pos_site_id
 _symmetry_equiv_pos_as_xyz
  1  'x, y, z'
loop_
 _atom_site_type_symbol
 _atom_site_label
 _atom_site_symmetry_multiplicity
 _atom_site_fract_x
 _atom_site_fract_y
 _atom_site_fract_z
 _atom_site_occupancy
  Hf  Hf0  1  0.750000  0.939491  0.402801  1
  Hf  Hf1  1  0.750000  0.439491  0.097199  1
  U  U2  1  0.750000  0.882993  0.843587  1
  U  U3  1  0.750000  0.382993  0.656413  1
  U  U4  1  0.250000  0.121534  0.149918  1
  U  U5  1  0.250000  0.621534  0.350082  1
  Co  Co6  1  0.750000  0.567872  0.403564  1
  Co  Co7  1  0.750000  0.067872  0.096436  1
  Co  Co8  1  0.250000  0.430883  0.594482  1
  Co  Co9  1  0.250000  0.930883  0.905518  1
  Co  Co10  1  0.999277  0.266300  0.359160  1
  Co  Co11  1  0.500723  0.766300  0.140840  1
  Co  Co12  1  0.499174  0.733285  0.636270  1
  Co  Co13  1  0.000826  0.233285  0.863730  1
  Co  Co14  1  0.000826  0.733285  0.636270  1
  Co  Co15  1  0.499174  0.233285  0.863730  1
  Co  Co16  1  0.500723  0.266300  0.359160  1
  Co  Co17  1  0.999277  0.766300  0.140840  1
  Sn  Sn18  1  0.250000  0.058056  0.593134  1
  Sn  Sn19  1  0.250000  0.558056  0.906866  1
