# generated using pymatgen
data_Yb3CePr4(US5)4
_symmetry_space_group_name_H-M   'P 1'
_cell_length_a   7.57237891
_cell_length_b   8.14297498
_cell_length_c   11.92781414
_cell_angle_alpha   89.96690686
_cell_angle_beta   89.92015744
_cell_angle_gamma   90.31001779
_symmetry_Int_Tables_number   1
_chemical_formula_structural   Yb3CePr4(US5)4
_chemical_formula_sum   'Yb3 Ce1 Pr4 U4 S20'
_cell_volume   735.47759516
_cell_formula_units_Z   1
loop_
 _symmetry_equiv_pos_site_id
 _symmetry_equiv_pos_as_xyz
  1  'x, y, z'
loop_
 _atom_site_type_symbol
 _atom_site_label
 _atom_site_symmetry_multiplicity
 _atom_site_fract_x
 _atom_site_fract_y
 _atom_site_fract_z
 _atom_site_occupancy
  Yb  Yb0  1  0.525401  0.499586  0.324630  1
  Yb  Yb1  1  0.974531  0.000791  0.819183  1
  Yb  Yb2  1  0.476809  0.999630  0.678535  1
  Ce  Ce3  1  0.027405  0.499587  0.176685  1
  Pr  Pr4  1  0.467686  0.498017  0.674409  1
  Pr  Pr5  1  0.034313  0.000887  0.173111  1
  Pr  Pr6  1  0.530569  0.997381  0.327840  1
  Pr  Pr7  1  0.966195  0.501998  0.823654  1
  U  U8  1  0.070262  0.752630  0.494560  1
  U  U9  1  0.435013  0.748943  0.990631  1
  U  U10  1  0.931676  0.251458  0.508131  1
  U  U11  1  0.565920  0.249095  0.006640  1
  S  S12  1  0.838398  0.961517  0.588139  1
  S  S13  1  0.662723  0.539975  0.090475  1
  S  S14  1  0.158679  0.462433  0.407218  1
  S  S15  1  0.337238  0.036851  0.911997  1
  S  S16  1  0.163137  0.042683  0.408060  1
  S  S17  1  0.335983  0.458542  0.909649  1
  S  S18  1  0.835933  0.541831  0.590432  1
  S  S19  1  0.661845  0.959726  0.092674  1
  S  S20  1  0.845631  0.748432  0.311544  1
  S  S21  1  0.659959  0.747822  0.814172  1
  S  S22  1  0.157452  0.254514  0.685563  1
  S  S23  1  0.337768  0.250212  0.186482  1
  S  S24  1  0.447024  0.750232  0.497116  1
  S  S25  1  0.050985  0.743423  0.000884  1
  S  S26  1  0.553119  0.250481  0.502057  1
  S  S27  1  0.948189  0.253117  0.004716  1
  S  S28  1  0.185847  0.750035  0.712698  1
  S  S29  1  0.313306  0.746705  0.210184  1
  S  S30  1  0.815558  0.250204  0.287997  1
  S  S31  1  0.685442  0.251260  0.789934  1
