# generated using pymatgen
data_Ca4YbRh2
_symmetry_space_group_name_H-M   'P 1'
_cell_length_a   8.50387586
_cell_length_b   8.50387599
_cell_length_c   7.66206800
_cell_angle_alpha   82.61312470
_cell_angle_beta   82.61311780
_cell_angle_gamma   44.32254548
_symmetry_Int_Tables_number   1
_chemical_formula_structural   Ca4YbRh2
_chemical_formula_sum   'Ca8 Yb2 Rh4'
_cell_volume   383.39185506
_cell_formula_units_Z   2
loop_
 _symmetry_equiv_pos_site_id
 _symmetry_equiv_pos_as_xyz
  1  'x, y, z'
loop_
 _atom_site_type_symbol
 _atom_site_label
 _atom_site_symmetry_multiplicity
 _atom_site_fract_x
 _atom_site_fract_y
 _atom_site_fract_z
 _atom_site_occupancy
  Ca  Ca0  1  0.031053  0.792714  0.920689  1
  Ca  Ca1  1  0.207286  0.968947  0.579311  1
  Ca  Ca2  1  0.968947  0.207286  0.079311  1
  Ca  Ca3  1  0.792714  0.031053  0.420689  1
  Ca  Ca4  1  0.366460  0.198167  0.823267  1
  Ca  Ca5  1  0.801833  0.633540  0.676733  1
  Ca  Ca6  1  0.633540  0.801833  0.176733  1
  Ca  Ca7  1  0.198167  0.366460  0.323267  1
  Yb  Yb8  1  0.577182  0.422818  0.750000  1
  Yb  Yb9  1  0.422818  0.577182  0.250000  1
  Rh  Rh10  1  0.192845  0.595214  0.579481  1
  Rh  Rh11  1  0.404786  0.807155  0.920519  1
  Rh  Rh12  1  0.807155  0.404786  0.420519  1
  Rh  Rh13  1  0.595214  0.192845  0.079481  1
