# generated using pymatgen
data_ScPa(Al5Os)4
_symmetry_space_group_name_H-M   'P 1'
_cell_length_a   6.83867905
_cell_length_b   6.83867873
_cell_length_c   9.12652400
_cell_angle_alpha   90.00000000
_cell_angle_beta   90.00000000
_cell_angle_gamma   97.05294580
_symmetry_Int_Tables_number   1
_chemical_formula_structural   ScPa(Al5Os)4
_chemical_formula_sum   'Sc1 Pa1 Al20 Os4'
_cell_volume   423.59523839
_cell_formula_units_Z   1
loop_
 _symmetry_equiv_pos_site_id
 _symmetry_equiv_pos_as_xyz
  1  'x, y, z'
loop_
 _atom_site_type_symbol
 _atom_site_label
 _atom_site_symmetry_multiplicity
 _atom_site_fract_x
 _atom_site_fract_y
 _atom_site_fract_z
 _atom_site_occupancy
  Sc  Sc0  1  0.137034  0.862966  0.250000  1
  Pa  Pa1  1  0.872899  0.127101  0.750000  1
  Al  Al2  1  0.516966  0.781039  0.750000  1
  Al  Al3  1  0.783527  0.520886  0.250000  1
  Al  Al4  1  0.479114  0.216473  0.250000  1
  Al  Al5  1  0.218961  0.483034  0.750000  1
  Al  Al6  1  0.622229  0.377771  0.953478  1
  Al  Al7  1  0.373913  0.626087  0.047385  1
  Al  Al8  1  0.622229  0.377771  0.546522  1
  Al  Al9  1  0.373913  0.626087  0.452615  1
  Al  Al10  1  0.409818  0.146386  0.750000  1
  Al  Al11  1  0.149222  0.422410  0.250000  1
  Al  Al12  1  0.577590  0.850778  0.250000  1
  Al  Al13  1  0.853614  0.590182  0.750000  1
  Al  Al14  1  0.846127  0.153873  0.396095  1
  Al  Al15  1  0.152848  0.847152  0.599401  1
  Al  Al16  1  0.846127  0.153873  0.103905  1
  Al  Al17  1  0.152848  0.847152  0.900599  1
  Al  Al18  1  0.780007  0.776942  0.003035  1
  Al  Al19  1  0.780007  0.776942  0.496965  1
  Al  Al20  1  0.223058  0.219993  0.003035  1
  Al  Al21  1  0.223058  0.219993  0.496965  1
  Os  Os22  1  0.503391  0.000945  0.998866  1
  Os  Os23  1  0.999055  0.496609  0.998866  1
  Os  Os24  1  0.503391  0.000945  0.501134  1
  Os  Os25  1  0.999055  0.496609  0.501134  1
