# generated using pymatgen
data_Rb2TcF7
_symmetry_space_group_name_H-M   'P 1'
_cell_length_a   6.01784000
_cell_length_b   6.01705200
_cell_length_c   10.55472900
_cell_angle_alpha   90.00000000
_cell_angle_beta   90.00000000
_cell_angle_gamma   90.00000000
_symmetry_Int_Tables_number   1
_chemical_formula_structural   Rb2TcF7
_chemical_formula_sum   'Rb4 Tc2 F14'
_cell_volume   382.18310846
_cell_formula_units_Z   2
loop_
 _symmetry_equiv_pos_site_id
 _symmetry_equiv_pos_as_xyz
  1  'x, y, z'
loop_
 _atom_site_type_symbol
 _atom_site_label
 _atom_site_symmetry_multiplicity
 _atom_site_fract_x
 _atom_site_fract_y
 _atom_site_fract_z
 _atom_site_occupancy
  Rb  Rb0  1  0.000000  0.500000  0.363063  1
  Rb  Rb1  1  0.500000  0.000000  0.636937  1
  Rb  Rb2  1  0.500000  0.500000  0.999165  1
  Rb  Rb3  1  0.000000  0.000000  0.000835  1
  Tc  Tc4  1  0.000000  0.500000  0.759822  1
  Tc  Tc5  1  0.500000  0.000000  0.240178  1
  F  F6  1  0.216870  0.264301  0.796567  1
  F  F7  1  0.283130  0.235699  0.203433  1
  F  F8  1  0.716870  0.764301  0.203433  1
  F  F9  1  0.783130  0.735699  0.796567  1
  F  F10  1  0.216870  0.735699  0.796567  1
  F  F11  1  0.716870  0.235699  0.203433  1
  F  F12  1  0.283130  0.764301  0.203433  1
  F  F13  1  0.783130  0.264301  0.796567  1
  F  F14  1  0.000000  0.500000  0.947568  1
  F  F15  1  0.500000  0.000000  0.052432  1
  F  F16  1  0.194742  0.500000  0.610546  1
  F  F17  1  0.805258  0.500000  0.610546  1
  F  F18  1  0.305258  0.000000  0.389454  1
  F  F19  1  0.694742  0.000000  0.389454  1
