# generated using pymatgen
data_Pr3Ho(AsPt)4
_symmetry_space_group_name_H-M   'P 1'
_cell_length_a   4.32867500
_cell_length_b   4.32867480
_cell_length_c   16.14792800
_cell_angle_alpha   90.00000000
_cell_angle_beta   90.00000000
_cell_angle_gamma   120.00000914
_symmetry_Int_Tables_number   1
_chemical_formula_structural   Pr3Ho(AsPt)4
_chemical_formula_sum   'Pr3 Ho1 As4 Pt4'
_cell_volume   262.03381277
_cell_formula_units_Z   1
loop_
 _symmetry_equiv_pos_site_id
 _symmetry_equiv_pos_as_xyz
  1  'x, y, z'
loop_
 _atom_site_type_symbol
 _atom_site_label
 _atom_site_symmetry_multiplicity
 _atom_site_fract_x
 _atom_site_fract_y
 _atom_site_fract_z
 _atom_site_occupancy
  Pr  Pr0  1  0.000000  0.000000  0.505996  1
  Pr  Pr1  1  0.000000  0.000000  0.994004  1
  Pr  Pr2  1  0.000000  0.000000  0.250000  1
  Ho  Ho3  1  0.000000  0.000000  0.750000  1
  As  As4  1  0.333333  0.666667  0.876867  1
  As  As5  1  0.666667  0.333333  0.119511  1
  As  As6  1  0.666667  0.333333  0.380489  1
  As  As7  1  0.333333  0.666667  0.623133  1
  Pt  Pt8  1  0.333333  0.666667  0.374885  1
  Pt  Pt9  1  0.666667  0.333333  0.645962  1
  Pt  Pt10  1  0.666667  0.333333  0.854038  1
  Pt  Pt11  1  0.333333  0.666667  0.125115  1
