# generated using pymatgen
data_Ba4LaRuO8
_symmetry_space_group_name_H-M   'P 1'
_cell_length_a   7.46085600
_cell_length_b   7.46085602
_cell_length_c   6.08354600
_cell_angle_alpha   90.00000000
_cell_angle_beta   90.00000000
_cell_angle_gamma   132.21091054
_symmetry_Int_Tables_number   1
_chemical_formula_structural   Ba4LaRuO8
_chemical_formula_sum   'Ba4 La1 Ru1 O8'
_cell_volume   250.82035555
_cell_formula_units_Z   1
loop_
 _symmetry_equiv_pos_site_id
 _symmetry_equiv_pos_as_xyz
  1  'x, y, z'
loop_
 _atom_site_type_symbol
 _atom_site_label
 _atom_site_symmetry_multiplicity
 _atom_site_fract_x
 _atom_site_fract_y
 _atom_site_fract_z
 _atom_site_occupancy
  Ba  Ba0  1  0.356160  0.643840  0.000000  1
  Ba  Ba1  1  0.852822  0.147178  0.500000  1
  Ba  Ba2  1  0.147178  0.852822  0.500000  1
  Ba  Ba3  1  0.643840  0.356160  0.000000  1
  La  La4  1  0.000000  0.000000  0.000000  1
  Ru  Ru5  1  0.500000  0.500000  0.500000  1
  O  O6  1  0.267638  0.267638  0.724846  1
  O  O7  1  0.732362  0.732362  0.275154  1
  O  O8  1  0.732362  0.732362  0.724846  1
  O  O9  1  0.267638  0.267638  0.275154  1
  O  O10  1  0.172594  0.827406  0.000000  1
  O  O11  1  0.649485  0.350515  0.500000  1
  O  O12  1  0.350515  0.649485  0.500000  1
  O  O13  1  0.827406  0.172594  0.000000  1
