# generated using pymatgen
data_Nd2DyHo(ReB6)2
_symmetry_space_group_name_H-M   'P 1'
_cell_length_a   3.73060700
_cell_length_b   9.25158701
_cell_length_c   11.70918401
_cell_angle_alpha   90.00464180
_cell_angle_beta   90.00000000
_cell_angle_gamma   90.00000000
_symmetry_Int_Tables_number   1
_chemical_formula_structural   Nd2DyHo(ReB6)2
_chemical_formula_sum   'Nd4 Dy2 Ho2 Re4 B24'
_cell_volume   404.13118835
_cell_formula_units_Z   2
loop_
 _symmetry_equiv_pos_site_id
 _symmetry_equiv_pos_as_xyz
  1  'x, y, z'
loop_
 _atom_site_type_symbol
 _atom_site_label
 _atom_site_symmetry_multiplicity
 _atom_site_fract_x
 _atom_site_fract_y
 _atom_site_fract_z
 _atom_site_occupancy
  Nd  Nd0  1  0.000000  0.322954  0.414158  1
  Nd  Nd1  1  0.000000  0.677046  0.585842  1
  Nd  Nd2  1  0.000000  0.822796  0.085767  1
  Nd  Nd3  1  0.000000  0.177204  0.914233  1
  Dy  Dy4  1  0.000000  0.942883  0.369312  1
  Dy  Dy5  1  0.000000  0.057117  0.630688  1
  Ho  Ho6  1  0.000000  0.442903  0.130571  1
  Ho  Ho7  1  0.000000  0.557097  0.869429  1
  Re  Re8  1  0.000000  0.639222  0.319293  1
  Re  Re9  1  0.000000  0.360778  0.680707  1
  Re  Re10  1  0.000000  0.139747  0.180425  1
  Re  Re11  1  0.000000  0.860253  0.819575  1
  B  B12  1  0.500000  0.555044  0.430542  1
  B  B13  1  0.500000  0.444956  0.569458  1
  B  B14  1  0.500000  0.055117  0.069406  1
  B  B15  1  0.500000  0.944883  0.930594  1
  B  B16  1  0.500000  0.749520  0.415932  1
  B  B17  1  0.500000  0.250480  0.584068  1
  B  B18  1  0.500000  0.249927  0.084005  1
  B  B19  1  0.500000  0.750073  0.915995  1
  B  B20  1  0.500000  0.791086  0.266179  1
  B  B21  1  0.500000  0.208914  0.733821  1
  B  B22  1  0.500000  0.291515  0.233726  1
  B  B23  1  0.500000  0.708485  0.766274  1
  B  B24  1  0.500000  0.629668  0.186468  1
  B  B25  1  0.500000  0.370332  0.813532  1
  B  B26  1  0.500000  0.129999  0.313276  1
  B  B27  1  0.500000  0.870001  0.686724  1
  B  B28  1  0.500000  0.984225  0.212909  1
  B  B29  1  0.500000  0.015775  0.787091  1
  B  B30  1  0.500000  0.483959  0.286861  1
  B  B31  1  0.500000  0.516041  0.713139  1
  B  B32  1  0.500000  0.596229  0.026666  1
  B  B33  1  0.500000  0.403771  0.973334  1
  B  B34  1  0.500000  0.096597  0.473258  1
  B  B35  1  0.500000  0.903403  0.526742  1
