# generated using pymatgen
data_Nd(CoO2)3
_symmetry_space_group_name_H-M   'P 1'
_cell_length_a   4.94583335
_cell_length_b   5.71787976
_cell_length_c   8.56765900
_cell_angle_alpha   89.99994087
_cell_angle_beta   89.99997051
_cell_angle_gamma   73.15697169
_symmetry_Int_Tables_number   1
_chemical_formula_structural   Nd(CoO2)3
_chemical_formula_sum   'Nd2 Co6 O12'
_cell_volume   231.89691490
_cell_formula_units_Z   2
loop_
 _symmetry_equiv_pos_site_id
 _symmetry_equiv_pos_as_xyz
  1  'x, y, z'
loop_
 _atom_site_type_symbol
 _atom_site_label
 _atom_site_symmetry_multiplicity
 _atom_site_fract_x
 _atom_site_fract_y
 _atom_site_fract_z
 _atom_site_occupancy
  Nd  Nd0  1  0.000001  0.500000  0.166552  1
  Nd  Nd1  1  0.500000  0.500000  0.666552  1
  Co  Co2  1  0.500000  0.000000  0.166690  1
  Co  Co3  1  0.500000  0.000000  0.834550  1
  Co  Co4  1  0.500000  0.000000  0.498803  1
  Co  Co5  1  0.000000  0.000000  0.666690  1
  Co  Co6  1  0.000000  0.000000  0.334547  1
  Co  Co7  1  0.000000  0.000000  0.998807  1
  O  O8  1  0.772116  0.184197  0.166689  1
  O  O9  1  0.272119  0.184195  0.666690  1
  O  O10  1  0.227884  0.815803  0.166690  1
  O  O11  1  0.727881  0.815805  0.666691  1
  O  O12  1  0.270804  0.185310  0.000152  1
  O  O13  1  0.770801  0.185311  0.500155  1
  O  O14  1  0.270785  0.185335  0.333193  1
  O  O15  1  0.770781  0.185335  0.833191  1
  O  O16  1  0.729215  0.814665  0.333193  1
  O  O17  1  0.229219  0.814665  0.833191  1
  O  O18  1  0.729196  0.814690  0.000152  1
  O  O19  1  0.229199  0.814689  0.500156  1
