# generated using pymatgen
data_Y7LuTa11Si16Mo
_symmetry_space_group_name_H-M   'P 1'
_cell_length_a   6.84638768
_cell_length_b   7.04181123
_cell_length_c   13.33713309
_cell_angle_alpha   89.99492685
_cell_angle_beta   89.96151290
_cell_angle_gamma   89.94604688
_symmetry_Int_Tables_number   1
_chemical_formula_structural   Y7LuTa11Si16Mo
_chemical_formula_sum   'Y7 Lu1 Ta11 Si16 Mo1'
_cell_volume   642.99568544
_cell_formula_units_Z   1
loop_
 _symmetry_equiv_pos_site_id
 _symmetry_equiv_pos_as_xyz
  1  'x, y, z'
loop_
 _atom_site_type_symbol
 _atom_site_label
 _atom_site_symmetry_multiplicity
 _atom_site_fract_x
 _atom_site_fract_y
 _atom_site_fract_z
 _atom_site_occupancy
  Y  Y0  1  0.503156  0.329017  0.095571  1
  Y  Y1  1  0.001614  0.171654  0.404558  1
  Y  Y2  1  0.496854  0.671761  0.595244  1
  Y  Y3  1  0.997657  0.829560  0.904791  1
  Y  Y4  1  0.497162  0.671009  0.904158  1
  Y  Y5  1  0.998106  0.828811  0.595603  1
  Y  Y6  1  0.502511  0.328824  0.405221  1
  Lu  Lu7  1  0.002220  0.172318  0.096411  1
  Ta  Ta8  1  0.838287  0.326046  0.625041  1
  Ta  Ta9  1  0.337147  0.174352  0.873543  1
  Ta  Ta10  1  0.163412  0.674409  0.125660  1
  Ta  Ta11  1  0.661934  0.827291  0.374458  1
  Ta  Ta12  1  0.165414  0.674324  0.375280  1
  Ta  Ta13  1  0.664324  0.826491  0.125523  1
  Ta  Ta14  1  0.837220  0.324855  0.873395  1
  Ta  Ta15  1  0.661318  0.010095  0.749205  1
  Ta  Ta16  1  0.160223  0.489696  0.749632  1
  Ta  Ta17  1  0.338604  0.991831  0.249951  1
  Ta  Ta18  1  0.839115  0.509379  0.249969  1
  Si  Si19  1  0.660497  0.038192  0.542348  1
  Si  Si20  1  0.162821  0.461731  0.959166  1
  Si  Si21  1  0.334268  0.964856  0.041787  1
  Si  Si22  1  0.837025  0.537897  0.458459  1
  Si  Si23  1  0.335172  0.963991  0.460356  1
  Si  Si24  1  0.837312  0.535121  0.041480  1
  Si  Si25  1  0.663865  0.037314  0.959433  1
  Si  Si26  1  0.164784  0.458623  0.542595  1
  Si  Si27  1  0.538158  0.376207  0.747717  1
  Si  Si28  1  0.042409  0.122115  0.748925  1
  Si  Si29  1  0.460580  0.621632  0.249985  1
  Si  Si30  1  0.960632  0.878524  0.249994  1
  Si  Si31  1  0.794296  0.628417  0.749935  1
  Si  Si32  1  0.296465  0.872326  0.749835  1
  Si  Si33  1  0.204085  0.370026  0.249591  1
  Si  Si34  1  0.705342  0.129850  0.249188  1
  Mo  Mo35  1  0.336011  0.171455  0.625992  1
