# generated using pymatgen
data_Dy4Ho2Al19Si5Ru8
_symmetry_space_group_name_H-M   'P 1'
_cell_length_a   8.68476600
_cell_length_b   8.67011603
_cell_length_c   9.58443200
_cell_angle_alpha   90.00000000
_cell_angle_beta   90.00000000
_cell_angle_gamma   120.05655586
_symmetry_Int_Tables_number   1
_chemical_formula_structural   Dy4Ho2Al19Si5Ru8
_chemical_formula_sum   'Dy4 Ho2 Al19 Si5 Ru8'
_cell_volume   624.64354844
_cell_formula_units_Z   1
loop_
 _symmetry_equiv_pos_site_id
 _symmetry_equiv_pos_as_xyz
  1  'x, y, z'
loop_
 _atom_site_type_symbol
 _atom_site_label
 _atom_site_symmetry_multiplicity
 _atom_site_fract_x
 _atom_site_fract_y
 _atom_site_fract_z
 _atom_site_occupancy
  Dy  Dy0  1  0.194057  0.388293  0.250000  1
  Dy  Dy1  1  0.806491  0.612818  0.750000  1
  Dy  Dy2  1  0.609426  0.807307  0.250000  1
  Dy  Dy3  1  0.388516  0.194249  0.750000  1
  Ho  Ho4  1  0.198278  0.806887  0.250000  1
  Ho  Ho5  1  0.805442  0.194777  0.750000  1
  Al  Al6  1  0.164710  0.329522  0.579044  1
  Al  Al7  1  0.834846  0.669589  0.420676  1
  Al  Al8  1  0.669884  0.835220  0.578204  1
  Al  Al9  1  0.834846  0.669589  0.079324  1
  Al  Al10  1  0.329536  0.165437  0.420816  1
  Al  Al11  1  0.164710  0.329522  0.920956  1
  Al  Al12  1  0.165314  0.835139  0.578085  1
  Al  Al13  1  0.329536  0.165437  0.079184  1
  Al  Al14  1  0.835937  0.165518  0.420911  1
  Al  Al15  1  0.669884  0.835220  0.921796  1
  Al  Al16  1  0.835937  0.165518  0.079089  1
  Al  Al17  1  0.165314  0.835139  0.921915  1
  Al  Al18  1  0.437387  0.874523  0.750000  1
  Al  Al19  1  0.873060  0.433931  0.250000  1
  Al  Al20  1  0.126988  0.563865  0.750000  1
  Al  Al21  1  0.560883  0.433692  0.250000  1
  Al  Al22  1  0.436875  0.564108  0.750000  1
  Al  Al23  1  0.999985  0.999694  0.250000  1
  Al  Al24  1  0.000250  0.000774  0.750000  1
  Si  Si25  1  0.332406  0.665213  0.036842  1
  Si  Si26  1  0.667501  0.334597  0.961118  1
  Si  Si27  1  0.667501  0.334597  0.538882  1
  Si  Si28  1  0.332406  0.665213  0.463158  1
  Si  Si29  1  0.563395  0.127066  0.250000  1
  Ru  Ru30  1  0.500801  0.001663  0.005916  1
  Ru  Ru31  1  0.998804  0.498866  0.000567  1
  Ru  Ru32  1  0.500801  0.001663  0.494084  1
  Ru  Ru33  1  0.500074  0.498889  0.000593  1
  Ru  Ru34  1  0.998804  0.498866  0.499433  1
  Ru  Ru35  1  0.500074  0.498889  0.499407  1
  Ru  Ru36  1  0.999670  0.999358  0.000091  1
  Ru  Ru37  1  0.999670  0.999358  0.499909  1
