# generated using pymatgen
data_MgNb4(Re3Tc5)3
_symmetry_space_group_name_H-M   'P 1'
_cell_length_a   8.42586435
_cell_length_b   8.45639263
_cell_length_c   8.45639100
_cell_angle_alpha   109.54424024
_cell_angle_beta   109.39809936
_cell_angle_gamma   109.39810733
_symmetry_Int_Tables_number   1
_chemical_formula_structural   MgNb4(Re3Tc5)3
_chemical_formula_sum   'Mg1 Nb4 Re9 Tc15'
_cell_volume   464.25207738
_cell_formula_units_Z   1
loop_
 _symmetry_equiv_pos_site_id
 _symmetry_equiv_pos_as_xyz
  1  'x, y, z'
loop_
 _atom_site_type_symbol
 _atom_site_label
 _atom_site_symmetry_multiplicity
 _atom_site_fract_x
 _atom_site_fract_y
 _atom_site_fract_z
 _atom_site_occupancy
  Mg  Mg0  1  0.000340  0.000000  0.000000  1
  Nb  Nb1  1  0.630733  0.000000  0.000000  1
  Nb  Nb2  1  0.999923  0.631689  0.000000  1
  Nb  Nb3  1  0.999923  0.000000  0.631689  1
  Nb  Nb4  1  0.368234  0.368311  0.368311  1
  Re  Re5  1  0.196893  0.374381  0.000000  1
  Re  Re6  1  0.999528  0.374781  0.193833  1
  Re  Re7  1  0.805695  0.180949  0.806167  1
  Re  Re8  1  0.805695  0.806167  0.180949  1
  Re  Re9  1  0.999528  0.193833  0.374781  1
  Re  Re10  1  0.196893  0.000000  0.374381  1
  Re  Re11  1  0.624746  0.625219  0.819051  1
  Re  Re12  1  0.822514  0.625619  0.625619  1
  Re  Re13  1  0.624746  0.819051  0.625219  1
  Tc  Tc14  1  0.397516  0.678175  0.000000  1
  Tc  Tc15  1  0.719340  0.321825  0.321825  1
  Tc  Tc16  1  0.397516  0.000000  0.678175  1
  Tc  Tc17  1  0.677094  0.396874  0.000000  1
  Tc  Tc18  1  0.999630  0.396280  0.679637  1
  Tc  Tc19  1  0.319993  0.716643  0.320363  1
  Tc  Tc20  1  0.319993  0.320363  0.716643  1
  Tc  Tc21  1  0.999630  0.679637  0.396280  1
  Tc  Tc22  1  0.677094  0.000000  0.396874  1
  Tc  Tc23  1  0.603350  0.603720  0.283357  1
  Tc  Tc24  1  0.280220  0.603126  0.603126  1
  Tc  Tc25  1  0.603350  0.283357  0.603720  1
  Tc  Tc26  1  0.374567  0.193815  0.000000  1
  Tc  Tc27  1  0.180751  0.806185  0.806185  1
  Tc  Tc28  1  0.374567  0.000000  0.193815  1
