# generated using pymatgen
data_Zr5GePb3
_symmetry_space_group_name_H-M   'P 1'
_cell_length_a   8.86193600
_cell_length_b   8.86193662
_cell_length_c   5.98882000
_cell_angle_alpha   90.00000000
_cell_angle_beta   90.00000000
_cell_angle_gamma   119.99999021
_symmetry_Int_Tables_number   1
_chemical_formula_structural   Zr5GePb3
_chemical_formula_sum   'Zr10 Ge2 Pb6'
_cell_volume   407.31385564
_cell_formula_units_Z   2
loop_
 _symmetry_equiv_pos_site_id
 _symmetry_equiv_pos_as_xyz
  1  'x, y, z'
loop_
 _atom_site_type_symbol
 _atom_site_label
 _atom_site_symmetry_multiplicity
 _atom_site_fract_x
 _atom_site_fract_y
 _atom_site_fract_z
 _atom_site_occupancy
  Zr  Zr0  1  0.666667  0.333333  0.500000  1
  Zr  Zr1  1  0.333333  0.666667  0.500000  1
  Zr  Zr2  1  0.333333  0.666667  0.000000  1
  Zr  Zr3  1  0.666667  0.333333  0.000000  1
  Zr  Zr4  1  0.739857  0.739857  0.250000  1
  Zr  Zr5  1  0.260143  0.000000  0.250000  1
  Zr  Zr6  1  0.000000  0.260143  0.250000  1
  Zr  Zr7  1  0.260143  0.260143  0.750000  1
  Zr  Zr8  1  0.739857  0.000000  0.750000  1
  Zr  Zr9  1  0.000000  0.739857  0.750000  1
  Ge  Ge10  1  0.000000  0.000000  0.500000  1
  Ge  Ge11  1  0.000000  0.000000  0.000000  1
  Pb  Pb12  1  0.391706  0.391706  0.250000  1
  Pb  Pb13  1  0.608294  0.000000  0.250000  1
  Pb  Pb14  1  0.000000  0.608294  0.250000  1
  Pb  Pb15  1  0.608294  0.608294  0.750000  1
  Pb  Pb16  1  0.391706  0.000000  0.750000  1
  Pb  Pb17  1  0.000000  0.391706  0.750000  1
