# generated using pymatgen
data_Hf16ReNi4MoRh2
_symmetry_space_group_name_H-M   'P 1'
_cell_length_a   8.63900614
_cell_length_b   8.67396181
_cell_length_c   8.63169500
_cell_angle_alpha   60.16107312
_cell_angle_beta   60.02800272
_cell_angle_gamma   60.17056043
_symmetry_Int_Tables_number   1
_chemical_formula_structural   Hf16ReNi4MoRh2
_chemical_formula_sum   'Hf16 Re1 Ni4 Mo1 Rh2'
_cell_volume   458.60480481
_cell_formula_units_Z   1
loop_
 _symmetry_equiv_pos_site_id
 _symmetry_equiv_pos_as_xyz
  1  'x, y, z'
loop_
 _atom_site_type_symbol
 _atom_site_label
 _atom_site_symmetry_multiplicity
 _atom_site_fract_x
 _atom_site_fract_y
 _atom_site_fract_z
 _atom_site_occupancy
  Hf  Hf0  1  0.683916  0.105571  0.105255  1
  Hf  Hf1  1  0.106661  0.679559  0.106889  1
  Hf  Hf2  1  0.103252  0.104014  0.689258  1
  Hf  Hf3  1  0.103252  0.104014  0.103476  1
  Hf  Hf4  1  0.316133  0.316510  0.683679  1
  Hf  Hf5  1  0.685874  0.686578  0.313774  1
  Hf  Hf6  1  0.315828  0.691140  0.314897  1
  Hf  Hf7  1  0.689599  0.316369  0.679137  1
  Hf  Hf8  1  0.689599  0.316369  0.314893  1
  Hf  Hf9  1  0.315828  0.691140  0.678133  1
  Hf  Hf10  1  0.952840  0.954188  0.546487  1
  Hf  Hf11  1  0.548528  0.548586  0.951443  1
  Hf  Hf12  1  0.948778  0.549063  0.952465  1
  Hf  Hf13  1  0.551048  0.946689  0.551533  1
  Hf  Hf14  1  0.551048  0.946689  0.950731  1
  Hf  Hf15  1  0.948778  0.549063  0.549695  1
  Re  Re16  1  0.995349  0.333131  0.335760  1
  Ni  Ni17  1  0.322658  0.887956  0.894692  1
  Ni  Ni18  1  0.888795  0.324329  0.893438  1
  Ni  Ni19  1  0.892698  0.890725  0.320851  1
  Ni  Ni20  1  0.892698  0.890725  0.895726  1
  Mo  Mo21  1  0.331567  0.000752  0.333840  1
  Rh  Rh22  1  0.332634  0.333417  0.996007  1
  Rh  Rh23  1  0.332634  0.333417  0.337938  1
