# generated using pymatgen
data_Ba2MoP4Ir3
_symmetry_space_group_name_H-M   'P 1'
_cell_length_a   5.77976100
_cell_length_b   6.89993544
_cell_length_c   5.77810654
_cell_angle_alpha   65.24239625
_cell_angle_beta   89.99990087
_cell_angle_gamma   89.99995005
_symmetry_Int_Tables_number   1
_chemical_formula_structural   Ba2MoP4Ir3
_chemical_formula_sum   'Ba2 Mo1 P4 Ir3'
_cell_volume   209.25131710
_cell_formula_units_Z   1
loop_
 _symmetry_equiv_pos_site_id
 _symmetry_equiv_pos_as_xyz
  1  'x, y, z'
loop_
 _atom_site_type_symbol
 _atom_site_label
 _atom_site_symmetry_multiplicity
 _atom_site_fract_x
 _atom_site_fract_y
 _atom_site_fract_z
 _atom_site_occupancy
  Ba  Ba0  1  0.991969  0.000001  0.999999  1
  Ba  Ba1  1  0.508320  0.999999  0.500001  1
  Mo  Mo2  1  0.250070  0.499999  0.499999  1
  P  P3  1  0.497159  0.695985  0.154154  1
  P  P4  1  0.002640  0.696341  0.649200  1
  P  P5  1  0.002643  0.303659  0.350799  1
  P  P6  1  0.497162  0.304017  0.845845  1
  Ir  Ir7  1  0.249931  0.500001  0.000001  1
  Ir  Ir8  1  0.750107  0.500001  0.000000  1
  Ir  Ir9  1  0.749999  0.499997  0.500000  1
