# generated using pymatgen
data_TaMn28
_symmetry_space_group_name_H-M   'P 1'
_cell_length_a   7.53082344
_cell_length_b   7.53083043
_cell_length_c   7.53132901
_cell_angle_alpha   109.46775633
_cell_angle_beta   109.47166401
_cell_angle_gamma   109.46817474
_symmetry_Int_Tables_number   1
_chemical_formula_structural   TaMn28
_chemical_formula_sum   'Ta1 Mn28'
_cell_volume   328.82708038
_cell_formula_units_Z   1
loop_
 _symmetry_equiv_pos_site_id
 _symmetry_equiv_pos_as_xyz
  1  'x, y, z'
loop_
 _atom_site_type_symbol
 _atom_site_label
 _atom_site_symmetry_multiplicity
 _atom_site_fract_x
 _atom_site_fract_y
 _atom_site_fract_z
 _atom_site_occupancy
  Ta  Ta0  1  0.000033  0.000031  0.000039  1
  Mn  Mn1  1  0.627843  0.000086  0.999975  1
  Mn  Mn2  1  0.999916  0.627767  0.999926  1
  Mn  Mn3  1  0.000112  0.000080  0.627878  1
  Mn  Mn4  1  0.372185  0.372145  0.372242  1
  Mn  Mn5  1  0.391437  0.679354  0.999855  1
  Mn  Mn6  1  0.712074  0.320542  0.320564  1
  Mn  Mn7  1  0.391520  0.000072  0.679456  1
  Mn  Mn8  1  0.679409  0.391423  0.999918  1
  Mn  Mn9  1  0.999958  0.391480  0.679410  1
  Mn  Mn10  1  0.320445  0.712075  0.320595  1
  Mn  Mn11  1  0.320561  0.320515  0.712011  1
  Mn  Mn12  1  0.000049  0.679427  0.391518  1
  Mn  Mn13  1  0.679524  0.000196  0.391623  1
  Mn  Mn14  1  0.608495  0.608349  0.287887  1
  Mn  Mn15  1  0.287892  0.608447  0.608476  1
  Mn  Mn16  1  0.608486  0.287926  0.608523  1
  Mn  Mn17  1  0.375343  0.196288  0.999944  1
  Mn  Mn18  1  0.179012  0.803699  0.803632  1
  Mn  Mn19  1  0.375278  0.000125  0.196365  1
  Mn  Mn20  1  0.196170  0.375143  0.999867  1
  Mn  Mn21  1  0.999914  0.375255  0.196297  1
  Mn  Mn22  1  0.803697  0.179138  0.803746  1
  Mn  Mn23  1  0.803801  0.803709  0.178954  1
  Mn  Mn24  1  0.000087  0.196438  0.375397  1
  Mn  Mn25  1  0.196399  0.000086  0.375425  1
  Mn  Mn26  1  0.624629  0.624555  0.820937  1
  Mn  Mn27  1  0.821014  0.624564  0.624697  1
  Mn  Mn28  1  0.624718  0.821081  0.624843  1
