# generated using pymatgen
data_Be8Cr2TcRu
_symmetry_space_group_name_H-M   'P 1'
_cell_length_a   4.27128900
_cell_length_b   4.27129031
_cell_length_c   6.98799400
_cell_angle_alpha   90.00000000
_cell_angle_beta   90.00000000
_cell_angle_gamma   119.99999763
_symmetry_Int_Tables_number   1
_chemical_formula_structural   Be8Cr2TcRu
_chemical_formula_sum   'Be8 Cr2 Tc1 Ru1'
_cell_volume   110.40817030
_cell_formula_units_Z   1
loop_
 _symmetry_equiv_pos_site_id
 _symmetry_equiv_pos_as_xyz
  1  'x, y, z'
loop_
 _atom_site_type_symbol
 _atom_site_label
 _atom_site_symmetry_multiplicity
 _atom_site_fract_x
 _atom_site_fract_y
 _atom_site_fract_z
 _atom_site_occupancy
  Be  Be0  1  0.169408  0.338814  0.750755  1
  Be  Be1  1  0.169408  0.830592  0.750755  1
  Be  Be2  1  0.338475  0.169239  0.249110  1
  Be  Be3  1  0.830761  0.661525  0.249110  1
  Be  Be4  1  0.000000  0.000000  0.000244  1
  Be  Be5  1  0.661186  0.830592  0.750755  1
  Be  Be6  1  0.830761  0.169239  0.249110  1
  Be  Be7  1  0.000000  0.000000  0.501866  1
  Cr  Cr8  1  0.333333  0.666667  0.063285  1
  Cr  Cr9  1  0.666667  0.333333  0.559125  1
  Tc  Tc10  1  0.333333  0.666667  0.438373  1
  Ru  Ru11  1  0.666667  0.333333  0.937508  1
