# generated using pymatgen
data_Er7Lu3(SiPb3)2
_symmetry_space_group_name_H-M   'P 1'
_cell_length_a   9.21054100
_cell_length_b   9.21054083
_cell_length_c   6.45287900
_cell_angle_alpha   90.00000000
_cell_angle_beta   90.00000000
_cell_angle_gamma   120.00000421
_symmetry_Int_Tables_number   1
_chemical_formula_structural   Er7Lu3(SiPb3)2
_chemical_formula_sum   'Er7 Lu3 Si2 Pb6'
_cell_volume   474.08302681
_cell_formula_units_Z   1
loop_
 _symmetry_equiv_pos_site_id
 _symmetry_equiv_pos_as_xyz
  1  'x, y, z'
loop_
 _atom_site_type_symbol
 _atom_site_label
 _atom_site_symmetry_multiplicity
 _atom_site_fract_x
 _atom_site_fract_y
 _atom_site_fract_z
 _atom_site_occupancy
  Er  Er0  1  0.249426  0.000117  0.749661  1
  Er  Er1  1  0.750691  0.000117  0.250339  1
  Er  Er2  1  0.999883  0.249309  0.749661  1
  Er  Er3  1  0.999883  0.750574  0.250339  1
  Er  Er4  1  0.750691  0.750574  0.749661  1
  Er  Er5  1  0.249426  0.249309  0.250339  1
  Er  Er6  1  0.333333  0.666667  0.500000  1
  Lu  Lu7  1  0.666667  0.333333  0.500000  1
  Lu  Lu8  1  0.666667  0.333333  0.000000  1
  Lu  Lu9  1  0.333333  0.666667  0.000000  1
  Si  Si10  1  0.000000  0.000000  0.500000  1
  Si  Si11  1  0.000000  0.000000  0.000000  1
  Pb  Pb12  1  0.606012  0.000773  0.750180  1
  Pb  Pb13  1  0.394761  0.000773  0.249820  1
  Pb  Pb14  1  0.999227  0.605239  0.750180  1
  Pb  Pb15  1  0.999227  0.393988  0.249820  1
  Pb  Pb16  1  0.394761  0.393988  0.750180  1
  Pb  Pb17  1  0.606012  0.605239  0.249820  1
