# generated using pymatgen
data_Ca2Ac2Bi6Rh7
_symmetry_space_group_name_H-M   'P 1'
_cell_length_a   7.98816700
_cell_length_b   8.04131650
_cell_length_c   8.04131500
_cell_angle_alpha   109.74658362
_cell_angle_beta   109.46752081
_cell_angle_gamma   109.46752363
_symmetry_Int_Tables_number   1
_chemical_formula_structural   Ca2Ac2Bi6Rh7
_chemical_formula_sum   'Ca2 Ac2 Bi6 Rh7'
_cell_volume   396.30751333
_cell_formula_units_Z   1
loop_
 _symmetry_equiv_pos_site_id
 _symmetry_equiv_pos_as_xyz
  1  'x, y, z'
loop_
 _atom_site_type_symbol
 _atom_site_label
 _atom_site_symmetry_multiplicity
 _atom_site_fract_x
 _atom_site_fract_y
 _atom_site_fract_z
 _atom_site_occupancy
  Ca  Ca0  1  0.500000  0.000000  0.000000  1
  Ca  Ca1  1  0.500000  0.500000  0.500000  1
  Ac  Ac2  1  0.000000  0.500000  0.000000  1
  Ac  Ac3  1  0.000000  0.000000  0.500000  1
  Bi  Bi4  1  0.000000  0.321376  0.321376  1
  Bi  Bi5  1  0.668098  0.988538  0.679561  1
  Bi  Bi6  1  0.668098  0.679561  0.988538  1
  Bi  Bi7  1  0.000000  0.678624  0.678624  1
  Bi  Bi8  1  0.331902  0.011462  0.320439  1
  Bi  Bi9  1  0.331902  0.320439  0.011462  1
  Rh  Rh10  1  0.000000  0.000000  0.000000  1
  Rh  Rh11  1  0.500000  0.750000  0.250000  1
  Rh  Rh12  1  0.753628  0.503637  0.249992  1
  Rh  Rh13  1  0.246372  0.750008  0.496363  1
  Rh  Rh14  1  0.246372  0.496363  0.750008  1
  Rh  Rh15  1  0.500000  0.250000  0.750000  1
  Rh  Rh16  1  0.753628  0.249992  0.503637  1
