# generated using pymatgen
data_Dy4Er3FeBr12
_symmetry_space_group_name_H-M   'P 1'
_cell_length_a   9.19156821
_cell_length_b   9.18374349
_cell_length_c   9.10550055
_cell_angle_alpha   106.61618358
_cell_angle_beta   106.92954945
_cell_angle_gamma   106.89885774
_symmetry_Int_Tables_number   1
_chemical_formula_structural   Dy4Er3FeBr12
_chemical_formula_sum   'Dy4 Er3 Fe1 Br12'
_cell_volume   643.31718715
_cell_formula_units_Z   1
loop_
 _symmetry_equiv_pos_site_id
 _symmetry_equiv_pos_as_xyz
  1  'x, y, z'
loop_
 _atom_site_type_symbol
 _atom_site_label
 _atom_site_symmetry_multiplicity
 _atom_site_fract_x
 _atom_site_fract_y
 _atom_site_fract_z
 _atom_site_occupancy
  Dy  Dy0  1  0.092885  0.020266  0.293627  1
  Dy  Dy1  1  0.305466  0.096938  0.020581  1
  Dy  Dy2  1  0.021446  0.305118  0.097107  1
  Dy  Dy3  1  0.905782  0.979513  0.705779  1
  Er  Er4  1  0.697121  0.902629  0.978909  1
  Er  Er5  1  0.978781  0.697939  0.903707  1
  Er  Er6  1  0.499840  0.499451  0.500290  1
  Fe  Fe7  1  0.999969  0.000234  0.999567  1
  Br  Br8  1  0.069327  0.678828  0.222560  1
  Br  Br9  1  0.221436  0.068293  0.677116  1
  Br  Br10  1  0.676922  0.220984  0.068925  1
  Br  Br11  1  0.930322  0.323220  0.775845  1
  Br  Br12  1  0.776290  0.930617  0.320170  1
  Br  Br13  1  0.322867  0.775626  0.930608  1
  Br  Br14  1  0.461584  0.168428  0.387771  1
  Br  Br15  1  0.387786  0.463552  0.167547  1
  Br  Br16  1  0.169151  0.385987  0.463393  1
  Br  Br17  1  0.537763  0.830565  0.613958  1
  Br  Br18  1  0.614064  0.537990  0.833765  1
  Br  Br19  1  0.831200  0.613821  0.538771  1
