# generated using pymatgen
data_Yb4Pr16(Ga3Pb)3
_symmetry_space_group_name_H-M   'P 1'
_cell_length_a   8.11598100
_cell_length_b   8.11598100
_cell_length_c   14.45724400
_cell_angle_alpha   90.00000000
_cell_angle_beta   90.00000000
_cell_angle_gamma   90.00000000
_symmetry_Int_Tables_number   1
_chemical_formula_structural   Yb4Pr16(Ga3Pb)3
_chemical_formula_sum   'Yb4 Pr16 Ga9 Pb3'
_cell_volume   952.28633881
_cell_formula_units_Z   1
loop_
 _symmetry_equiv_pos_site_id
 _symmetry_equiv_pos_as_xyz
  1  'x, y, z'
loop_
 _atom_site_type_symbol
 _atom_site_label
 _atom_site_symmetry_multiplicity
 _atom_site_fract_x
 _atom_site_fract_y
 _atom_site_fract_z
 _atom_site_occupancy
  Yb  Yb0  1  0.000000  0.500000  0.748559  1
  Yb  Yb1  1  0.000000  0.500000  0.242384  1
  Yb  Yb2  1  0.500000  0.000000  0.245999  1
  Yb  Yb3  1  0.500000  0.000000  0.758851  1
  Pr  Pr4  1  0.829188  0.832329  0.607698  1
  Pr  Pr5  1  0.167268  0.825690  0.104036  1
  Pr  Pr6  1  0.168959  0.829446  0.391982  1
  Pr  Pr7  1  0.831041  0.170554  0.391982  1
  Pr  Pr8  1  0.670554  0.668959  0.391982  1
  Pr  Pr9  1  0.667671  0.329188  0.607698  1
  Pr  Pr10  1  0.332329  0.670812  0.607698  1
  Pr  Pr11  1  0.674310  0.667268  0.104036  1
  Pr  Pr12  1  0.678110  0.334680  0.896633  1
  Pr  Pr13  1  0.834680  0.821890  0.896633  1
  Pr  Pr14  1  0.329446  0.331041  0.391982  1
  Pr  Pr15  1  0.170812  0.167671  0.607698  1
  Pr  Pr16  1  0.832732  0.174310  0.104036  1
  Pr  Pr17  1  0.321890  0.665320  0.896633  1
  Pr  Pr18  1  0.325690  0.332732  0.104036  1
  Pr  Pr19  1  0.165320  0.178110  0.896633  1
  Ga  Ga20  1  0.619029  0.379835  0.248763  1
  Ga  Ga21  1  0.119993  0.881173  0.751577  1
  Ga  Ga22  1  0.381173  0.380007  0.751577  1
  Ga  Ga23  1  0.380971  0.620165  0.248763  1
  Ga  Ga24  1  0.879835  0.880971  0.248763  1
  Ga  Ga25  1  0.618827  0.619993  0.751577  1
  Ga  Ga26  1  0.880007  0.118827  0.751577  1
  Ga  Ga27  1  0.120165  0.119029  0.248763  1
  Ga  Ga28  1  0.000000  0.500000  0.001918  1
  Pb  Pb29  1  0.000000  0.500000  0.500550  1
  Pb  Pb30  1  0.500000  0.000000  0.499014  1
  Pb  Pb31  1  0.500000  0.000000  0.999968  1
