# generated using pymatgen
data_Tb5Er5AlSb5
_symmetry_space_group_name_H-M   'P 1'
_cell_length_a   8.92696900
_cell_length_b   8.91680620
_cell_length_c   6.36189100
_cell_angle_alpha   90.00000000
_cell_angle_beta   90.00000000
_cell_angle_gamma   120.03770560
_symmetry_Int_Tables_number   1
_chemical_formula_structural   Tb5Er5AlSb5
_chemical_formula_sum   'Tb5 Er5 Al1 Sb5'
_cell_volume   438.39447860
_cell_formula_units_Z   1
loop_
 _symmetry_equiv_pos_site_id
 _symmetry_equiv_pos_as_xyz
  1  'x, y, z'
loop_
 _atom_site_type_symbol
 _atom_site_label
 _atom_site_symmetry_multiplicity
 _atom_site_fract_x
 _atom_site_fract_y
 _atom_site_fract_z
 _atom_site_occupancy
  Tb  Tb0  1  0.009382  0.762493  0.750000  1
  Tb  Tb1  1  0.998917  0.244006  0.250000  1
  Tb  Tb2  1  0.754912  0.755994  0.250000  1
  Tb  Tb3  1  0.752072  0.000000  0.750000  1
  Tb  Tb4  1  0.246887  0.237507  0.750000  1
  Er  Er5  1  0.243662  0.000000  0.250000  1
  Er  Er6  1  0.334467  0.673150  0.501006  1
  Er  Er7  1  0.661317  0.326850  0.998994  1
  Er  Er8  1  0.661317  0.326850  0.501006  1
  Er  Er9  1  0.334467  0.673150  0.998994  1
  Al  Al10  1  0.396722  0.000000  0.750000  1
  Sb  Sb11  1  0.389872  0.391696  0.250000  1
  Sb  Sb12  1  0.998176  0.608304  0.250000  1
  Sb  Sb13  1  0.001762  0.391121  0.750000  1
  Sb  Sb14  1  0.610642  0.608879  0.750000  1
  Sb  Sb15  1  0.605427  0.000000  0.250000  1
