# generated using pymatgen
data_Be(AlB14)2
_symmetry_space_group_name_H-M   'P 1'
_cell_length_a   7.13279267
_cell_length_b   7.13279205
_cell_length_c   5.87683562
_cell_angle_alpha   65.97577278
_cell_angle_beta   65.97578393
_cell_angle_gamma   91.84041146
_symmetry_Int_Tables_number   1
_chemical_formula_structural   Be(AlB14)2
_chemical_formula_sum   'Be1 Al2 B28'
_cell_volume   242.31891818
_cell_formula_units_Z   1
loop_
 _symmetry_equiv_pos_site_id
 _symmetry_equiv_pos_as_xyz
  1  'x, y, z'
loop_
 _atom_site_type_symbol
 _atom_site_label
 _atom_site_symmetry_multiplicity
 _atom_site_fract_x
 _atom_site_fract_y
 _atom_site_fract_z
 _atom_site_occupancy
  Be  Be0  1  0.794306  0.794306  0.291461  1
  Al  Al1  1  0.474900  0.474900  0.555264  1
  Al  Al2  1  0.151642  0.151642  0.462288  1
  B  B3  1  0.412757  0.736217  0.180241  1
  B  B4  1  0.597295  0.265488  0.830792  1
  B  B5  1  0.265488  0.597295  0.830792  1
  B  B6  1  0.736217  0.412757  0.180241  1
  B  B7  1  0.692607  0.859932  0.983002  1
  B  B8  1  0.314354  0.143018  0.030855  1
  B  B9  1  0.143018  0.314354  0.030855  1
  B  B10  1  0.859932  0.692607  0.983002  1
  B  B11  1  0.534539  0.879155  0.300172  1
  B  B12  1  0.477955  0.131135  0.202616  1
  B  B13  1  0.131135  0.477955  0.202616  1
  B  B14  1  0.879155  0.534539  0.300172  1
  B  B15  1  0.470173  0.121349  0.713909  1
  B  B16  1  0.537538  0.871033  0.805741  1
  B  B17  1  0.871033  0.537538  0.805741  1
  B  B18  1  0.121349  0.470173  0.713909  1
  B  B19  1  0.735506  0.104459  0.997784  1
  B  B20  1  0.277019  0.900598  0.324875  1
  B  B21  1  0.900598  0.277019  0.324875  1
  B  B22  1  0.104459  0.735506  0.997784  1
  B  B23  1  0.275746  0.900789  0.016081  1
  B  B24  1  0.734334  0.100831  0.689863  1
  B  B25  1  0.100831  0.734334  0.689863  1
  B  B26  1  0.900789  0.275746  0.016081  1
  B  B27  1  0.269476  0.467842  0.390665  1
  B  B28  1  0.729461  0.538547  0.628896  1
  B  B29  1  0.538547  0.729461  0.628896  1
  B  B30  1  0.467842  0.269476  0.390665  1
