# generated using pymatgen
data_CaU(NiP)2
_symmetry_space_group_name_H-M   'P 1'
_cell_length_a   3.97010100
_cell_length_b   3.97010011
_cell_length_c   15.36820600
_cell_angle_alpha   90.00000000
_cell_angle_beta   90.00000000
_cell_angle_gamma   120.00001579
_symmetry_Int_Tables_number   1
_chemical_formula_structural   CaU(NiP)2
_chemical_formula_sum   'Ca2 U2 Ni4 P4'
_cell_volume   209.77645833
_cell_formula_units_Z   2
loop_
 _symmetry_equiv_pos_site_id
 _symmetry_equiv_pos_as_xyz
  1  'x, y, z'
loop_
 _atom_site_type_symbol
 _atom_site_label
 _atom_site_symmetry_multiplicity
 _atom_site_fract_x
 _atom_site_fract_y
 _atom_site_fract_z
 _atom_site_occupancy
  Ca  Ca0  1  0.000000  0.000000  0.752800  1
  Ca  Ca1  1  0.000000  0.000000  0.497492  1
  U  U2  1  0.000000  0.000000  0.246846  1
  U  U3  1  0.000000  0.000000  0.004613  1
  Ni  Ni4  1  0.333333  0.666667  0.119757  1
  Ni  Ni5  1  0.666667  0.333333  0.897243  1
  Ni  Ni6  1  0.666667  0.333333  0.626389  1
  Ni  Ni7  1  0.333333  0.666667  0.352509  1
  P  P8  1  0.333333  0.666667  0.623261  1
  P  P9  1  0.666667  0.333333  0.362757  1
  P  P10  1  0.666667  0.333333  0.126449  1
  P  P11  1  0.333333  0.666667  0.889887  1
