# generated using pymatgen
data_Ba2PaBiS6
_symmetry_space_group_name_H-M   'P 1'
_cell_length_a   7.39010426
_cell_length_b   7.39010378
_cell_length_c   7.52333515
_cell_angle_alpha   120.02034591
_cell_angle_beta   120.02034206
_cell_angle_gamma   60.06612543
_symmetry_Int_Tables_number   1
_chemical_formula_structural   Ba2PaBiS6
_chemical_formula_sum   'Ba2 Pa1 Bi1 S6'
_cell_volume   290.58910835
_cell_formula_units_Z   1
loop_
 _symmetry_equiv_pos_site_id
 _symmetry_equiv_pos_as_xyz
  1  'x, y, z'
loop_
 _atom_site_type_symbol
 _atom_site_label
 _atom_site_symmetry_multiplicity
 _atom_site_fract_x
 _atom_site_fract_y
 _atom_site_fract_z
 _atom_site_occupancy
  Ba  Ba0  1  0.748593  0.748593  0.228694  1
  Ba  Ba1  1  0.251407  0.251407  0.771305  1
  Pa  Pa2  1  0.000000  0.000000  0.000000  1
  Bi  Bi3  1  0.500000  0.500000  0.500000  1
  S  S4  1  0.696812  0.187052  0.184266  1
  S  S5  1  0.187052  0.696812  0.184266  1
  S  S6  1  0.240491  0.240491  0.341274  1
  S  S7  1  0.759509  0.759509  0.658727  1
  S  S8  1  0.812947  0.303188  0.815733  1
  S  S9  1  0.303188  0.812947  0.815733  1
