# generated using pymatgen
data_Na10HfGeP6
_symmetry_space_group_name_H-M   'P 1'
_cell_length_a   7.41299000
_cell_length_b   8.20550688
_cell_length_c   15.55206118
_cell_angle_alpha   58.83709545
_cell_angle_beta   90.00000000
_cell_angle_gamma   90.00000000
_symmetry_Int_Tables_number   1
_chemical_formula_structural   Na10HfGeP6
_chemical_formula_sum   'Na20 Hf2 Ge2 P12'
_cell_volume   809.48358795
_cell_formula_units_Z   2
loop_
 _symmetry_equiv_pos_site_id
 _symmetry_equiv_pos_as_xyz
  1  'x, y, z'
loop_
 _atom_site_type_symbol
 _atom_site_label
 _atom_site_symmetry_multiplicity
 _atom_site_fract_x
 _atom_site_fract_y
 _atom_site_fract_z
 _atom_site_occupancy
  Na  Na0  1  0.850232  0.161725  0.759620  1
  Na  Na1  1  0.160985  0.153951  0.918684  1
  Na  Na2  1  0.660985  0.846049  0.581316  1
  Na  Na3  1  0.839169  0.839654  0.082556  1
  Na  Na4  1  0.510814  0.562974  0.255802  1
  Na  Na5  1  0.010814  0.437026  0.244198  1
  Na  Na6  1  0.490376  0.435854  0.739262  1
  Na  Na7  1  0.990376  0.564146  0.760738  1
  Na  Na8  1  0.977848  0.923118  0.410238  1
  Na  Na9  1  0.477848  0.076882  0.089762  1
  Na  Na10  1  0.014569  0.078374  0.588905  1
  Na  Na11  1  0.514569  0.921626  0.911095  1
  Na  Na12  1  0.536345  0.243165  0.584160  1
  Na  Na13  1  0.036345  0.756835  0.915840  1
  Na  Na14  1  0.473898  0.749489  0.416104  1
  Na  Na15  1  0.350232  0.838275  0.740380  1
  Na  Na16  1  0.149516  0.832884  0.240499  1
  Na  Na17  1  0.649516  0.167116  0.259501  1
  Na  Na18  1  0.973898  0.250511  0.083896  1
  Na  Na19  1  0.339169  0.160346  0.417444  1
  Hf  Hf20  1  0.636019  0.511264  0.919935  1
  Hf  Hf21  1  0.136019  0.488736  0.580065  1
  Ge  Ge22  1  0.361703  0.486513  0.083888  1
  Ge  Ge23  1  0.861703  0.513487  0.416112  1
  P  P24  1  0.761718  0.224995  0.921889  1
  P  P25  1  0.768840  0.810462  0.277298  1
  P  P26  1  0.268840  0.189538  0.222702  1
  P  P27  1  0.235768  0.181536  0.729950  1
  P  P28  1  0.194762  0.479635  0.423072  1
  P  P29  1  0.694762  0.520365  0.076928  1
  P  P30  1  0.795625  0.520967  0.568203  1
  P  P31  1  0.295625  0.479033  0.931797  1
  P  P32  1  0.735768  0.818464  0.770050  1
  P  P33  1  0.241813  0.760206  0.079932  1
  P  P34  1  0.261718  0.775005  0.578111  1
  P  P35  1  0.741813  0.239794  0.420068  1
