# generated using pymatgen
data_Hf6Co12Ge4C
_symmetry_space_group_name_H-M   'P 1'
_cell_length_a   7.34949890
_cell_length_b   7.34949995
_cell_length_c   7.34949900
_cell_angle_alpha   109.47121802
_cell_angle_beta   109.47122092
_cell_angle_gamma   109.47121745
_symmetry_Int_Tables_number   1
_chemical_formula_structural   Hf6Co12Ge4C
_chemical_formula_sum   'Hf6 Co12 Ge4 C1'
_cell_volume   305.59862396
_cell_formula_units_Z   1
loop_
 _symmetry_equiv_pos_site_id
 _symmetry_equiv_pos_as_xyz
  1  'x, y, z'
loop_
 _atom_site_type_symbol
 _atom_site_label
 _atom_site_symmetry_multiplicity
 _atom_site_fract_x
 _atom_site_fract_y
 _atom_site_fract_z
 _atom_site_occupancy
  Hf  Hf0  1  0.275393  0.275393  0.000000  1
  Hf  Hf1  1  0.724608  0.724608  0.000000  1
  Hf  Hf2  1  0.275393  0.000000  0.275393  1
  Hf  Hf3  1  0.000000  0.275393  0.275393  1
  Hf  Hf4  1  0.724608  0.000000  0.724608  1
  Hf  Hf5  1  0.000000  0.724608  0.724608  1
  Co  Co6  1  0.652166  0.347835  0.000000  1
  Co  Co7  1  0.347835  0.652166  0.000000  1
  Co  Co8  1  0.652166  0.652166  0.304331  1
  Co  Co9  1  0.695667  0.347833  0.347833  1
  Co  Co10  1  0.347833  0.695667  0.347833  1
  Co  Co11  1  0.652166  0.000000  0.347835  1
  Co  Co12  1  0.000000  0.652166  0.347835  1
  Co  Co13  1  0.347835  0.000000  0.652166  1
  Co  Co14  1  0.652166  0.304331  0.652166  1
  Co  Co15  1  0.000000  0.347835  0.652166  1
  Co  Co16  1  0.304331  0.652166  0.652166  1
  Co  Co17  1  0.347833  0.347833  0.695667  1
  Ge  Ge18  1  0.500000  0.000000  0.000000  1
  Ge  Ge19  1  0.000000  0.500000  0.000000  1
  Ge  Ge20  1  0.000000  0.000000  0.500000  1
  Ge  Ge21  1  0.500000  0.500000  0.500000  1
  C  C22  1  0.000000  0.000000  0.000000  1
