# generated using pymatgen
data_Nb16FeNi3Te16
_symmetry_space_group_name_H-M   'P 1'
_cell_length_a   4.82420200
_cell_length_b   11.03316928
_cell_length_c   19.33881500
_cell_angle_alpha   89.98591251
_cell_angle_beta   90.00000000
_cell_angle_gamma   90.00000000
_symmetry_Int_Tables_number   1
_chemical_formula_structural   Nb16FeNi3Te16
_chemical_formula_sum   'Nb16 Fe1 Ni3 Te16'
_cell_volume   1029.33232527
_cell_formula_units_Z   1
loop_
 _symmetry_equiv_pos_site_id
 _symmetry_equiv_pos_as_xyz
  1  'x, y, z'
loop_
 _atom_site_type_symbol
 _atom_site_label
 _atom_site_symmetry_multiplicity
 _atom_site_fract_x
 _atom_site_fract_y
 _atom_site_fract_z
 _atom_site_occupancy
  Nb  Nb0  1  0.501463  0.563622  0.384805  1
  Nb  Nb1  1  0.501463  0.436378  0.615195  1
  Nb  Nb2  1  0.500119  0.064285  0.115926  1
  Nb  Nb3  1  0.500119  0.935715  0.884074  1
  Nb  Nb4  1  0.501217  0.702295  0.536538  1
  Nb  Nb5  1  0.501217  0.297705  0.463462  1
  Nb  Nb6  1  0.499929  0.204063  0.963513  1
  Nb  Nb7  1  0.499929  0.795937  0.036487  1
  Nb  Nb8  1  0.998916  0.688204  0.444009  1
  Nb  Nb9  1  0.998916  0.311796  0.555991  1
  Nb  Nb10  1  0.000131  0.189744  0.056344  1
  Nb  Nb11  1  0.000131  0.810256  0.943656  1
  Nb  Nb12  1  0.998354  0.402021  0.392833  1
  Nb  Nb13  1  0.998354  0.597979  0.607167  1
  Nb  Nb14  1  0.999865  0.901111  0.107746  1
  Nb  Nb15  1  0.999865  0.098889  0.892254  1
  Fe  Fe16  1  0.249833  0.500000  0.500000  1
  Ni  Ni17  1  0.750057  0.000000  0.000000  1
  Ni  Ni18  1  0.749665  0.500000  0.500000  1
  Ni  Ni19  1  0.249936  0.000000  0.000000  1
  Te  Te20  1  0.999394  0.845142  0.561868  1
  Te  Te21  1  0.999394  0.154858  0.438132  1
  Te  Te22  1  0.999973  0.345550  0.938041  1
  Te  Te23  1  0.999973  0.654450  0.061959  1
  Te  Te24  1  0.500143  0.333156  0.317036  1
  Te  Te25  1  0.500143  0.666844  0.682964  1
  Te  Te26  1  0.499798  0.833170  0.182642  1
  Te  Te27  1  0.499798  0.166830  0.817358  1
  Te  Te28  1  0.500849  0.820709  0.404831  1
  Te  Te29  1  0.500849  0.179291  0.595169  1
  Te  Te30  1  0.500125  0.321219  0.095380  1
  Te  Te31  1  0.500125  0.678781  0.904620  1
  Te  Te32  1  0.999828  0.609145  0.303477  1
  Te  Te33  1  0.999828  0.390855  0.696523  1
  Te  Te34  1  0.000151  0.108447  0.196496  1
  Te  Te35  1  0.000151  0.891553  0.803504  1
