# generated using pymatgen
data_YbEr3(SiPd2)4
_symmetry_space_group_name_H-M   'P 1'
_cell_length_a   5.54376607
_cell_length_b   6.99158900
_cell_length_c   7.28268709
_cell_angle_alpha   90.00000000
_cell_angle_beta   90.01799730
_cell_angle_gamma   90.00000000
_symmetry_Int_Tables_number   1
_chemical_formula_structural   YbEr3(SiPd2)4
_chemical_formula_sum   'Yb1 Er3 Si4 Pd8'
_cell_volume   282.27499948
_cell_formula_units_Z   1
loop_
 _symmetry_equiv_pos_site_id
 _symmetry_equiv_pos_as_xyz
  1  'x, y, z'
loop_
 _atom_site_type_symbol
 _atom_site_label
 _atom_site_symmetry_multiplicity
 _atom_site_fract_x
 _atom_site_fract_y
 _atom_site_fract_z
 _atom_site_occupancy
  Yb  Yb0  1  0.140031  0.750000  0.526316  1
  Er  Er1  1  0.640246  0.250000  0.973468  1
  Er  Er2  1  0.859915  0.250000  0.472962  1
  Er  Er3  1  0.359466  0.750000  0.026851  1
  Si  Si4  1  0.858847  0.750000  0.879553  1
  Si  Si5  1  0.361075  0.250000  0.620953  1
  Si  Si6  1  0.140024  0.250000  0.121252  1
  Si  Si7  1  0.639551  0.750000  0.378641  1
  Pd  Pd8  1  0.903682  0.948571  0.178868  1
  Pd  Pd9  1  0.406666  0.051267  0.320769  1
  Pd  Pd10  1  0.094918  0.447820  0.821886  1
  Pd  Pd11  1  0.595156  0.551059  0.678478  1
  Pd  Pd12  1  0.094918  0.052180  0.821886  1
  Pd  Pd13  1  0.595156  0.948941  0.678478  1
  Pd  Pd14  1  0.903682  0.551429  0.178868  1
  Pd  Pd15  1  0.406666  0.448733  0.320769  1
