# generated using pymatgen
data_YSc3Sb4(P2O7)8
_symmetry_space_group_name_H-M   'P 1'
_cell_length_a   8.10213517
_cell_length_b   8.14146937
_cell_length_c   16.39226000
_cell_angle_alpha   89.99686126
_cell_angle_beta   89.94185656
_cell_angle_gamma   90.05205335
_symmetry_Int_Tables_number   1
_chemical_formula_structural   YSc3Sb4(P2O7)8
_chemical_formula_sum   'Y1 Sc3 Sb4 P16 O56'
_cell_volume   1081.28631930
_cell_formula_units_Z   1
loop_
 _symmetry_equiv_pos_site_id
 _symmetry_equiv_pos_as_xyz
  1  'x, y, z'
loop_
 _atom_site_type_symbol
 _atom_site_label
 _atom_site_symmetry_multiplicity
 _atom_site_fract_x
 _atom_site_fract_y
 _atom_site_fract_z
 _atom_site_occupancy
  Y  Y0  1  0.984277  0.243699  0.374106  1
  Sc  Sc1  1  0.015896  0.745662  0.627839  1
  Sc  Sc2  1  0.514590  0.745088  0.873763  1
  Sc  Sc3  1  0.484596  0.243901  0.124773  1
  Sb  Sb4  1  0.983416  0.747229  0.121646  1
  Sb  Sb5  1  0.015596  0.248045  0.877291  1
  Sb  Sb6  1  0.517497  0.248187  0.623242  1
  Sb  Sb7  1  0.484635  0.746612  0.377332  1
  P  P8  1  0.091501  0.367530  0.066616  1
  P  P9  1  0.908054  0.867957  0.931607  1
  P  P10  1  0.409290  0.869432  0.568143  1
  P  P11  1  0.582333  0.371859  0.432077  1
  P  P12  1  0.888548  0.132481  0.165956  1
  P  P13  1  0.108352  0.633300  0.828386  1
  P  P14  1  0.608238  0.634008  0.672326  1
  P  P15  1  0.400713  0.127922  0.326686  1
  P  P16  1  0.102414  0.650660  0.313511  1
  P  P17  1  0.902922  0.142047  0.687003  1
  P  P18  1  0.402419  0.140860  0.814510  1
  P  P19  1  0.596910  0.640021  0.185281  1
  P  P20  1  0.875267  0.833268  0.428491  1
  P  P21  1  0.123591  0.346957  0.580545  1
  P  P22  1  0.621130  0.344820  0.925425  1
  P  P23  1  0.378198  0.843399  0.073868  1
  O  O24  1  0.132911  0.526703  0.601832  1
  O  O25  1  0.860603  0.014743  0.413572  1
  O  O26  1  0.371873  0.024107  0.093740  1
  O  O27  1  0.625686  0.525353  0.905239  1
  O  O28  1  0.024201  0.296383  0.507736  1
  O  O29  1  0.972779  0.775979  0.501048  1
  O  O30  1  0.472489  0.789098  0.999678  1
  O  O31  1  0.526371  0.290126  0.999412  1
  O  O32  1  0.916425  0.135823  0.781353  1
  O  O33  1  0.079339  0.641949  0.219836  1
  O  O34  1  0.573723  0.633220  0.279066  1
  O  O35  1  0.426540  0.134412  0.720718  1
  O  O36  1  0.052950  0.255738  0.661371  1
  O  O37  1  0.953181  0.759478  0.344584  1
  O  O38  1  0.452061  0.755742  0.154978  1
  O  O39  1  0.548085  0.255608  0.844600  1
  O  O40  1  0.239881  0.233226  0.830393  1
  O  O41  1  0.759651  0.732172  0.168991  1
  O  O42  1  0.261560  0.749238  0.329261  1
  O  O43  1  0.744704  0.237482  0.665993  1
  O  O44  1  0.460885  0.520523  0.423871  1
  O  O45  1  0.527266  0.021203  0.576365  1
  O  O46  1  0.024903  0.020693  0.924246  1
  O  O47  1  0.973986  0.518783  0.076575  1
  O  O48  1  0.200041  0.769045  0.067689  1
  O  O49  1  0.799792  0.272501  0.931748  1
  O  O50  1  0.299966  0.270688  0.570985  1
  O  O51  1  0.700875  0.750484  0.432336  1
  O  O52  1  0.020365  0.716851  0.907118  1
  O  O53  1  0.979091  0.214195  0.087583  1
  O  O54  1  0.475460  0.217187  0.407296  1
  O  O55  1  0.519380  0.717423  0.593784  1
  O  O56  1  0.105334  0.484460  0.351547  1
  O  O57  1  0.908805  0.975357  0.649139  1
  O  O58  1  0.406420  0.973924  0.852129  1
  O  O59  1  0.591478  0.473329  0.147344  1
  O  O60  1  0.512784  0.464949  0.678509  1
  O  O61  1  0.505815  0.964313  0.323923  1
  O  O62  1  0.986632  0.965692  0.174955  1
  O  O63  1  0.011383  0.465084  0.821992  1
  O  O64  1  0.068300  0.730661  0.752800  1
  O  O65  1  0.924891  0.232883  0.240749  1
  O  O66  1  0.441984  0.224967  0.251123  1
  O  O67  1  0.567866  0.729476  0.748508  1
  O  O68  1  0.376459  0.841823  0.475522  1
  O  O69  1  0.620743  0.343810  0.524100  1
  O  O70  1  0.128233  0.343457  0.973950  1
  O  O71  1  0.872063  0.837921  0.023860  1
  O  O72  1  0.249093  0.371544  0.114133  1
  O  O73  1  0.749220  0.874186  0.885230  1
  O  O74  1  0.249209  0.876846  0.613683  1
  O  O75  1  0.739408  0.383799  0.384610  1
  O  O76  1  0.287919  0.618899  0.851593  1
  O  O77  1  0.709885  0.114996  0.141632  1
  O  O78  1  0.220724  0.105109  0.346601  1
  O  O79  1  0.787942  0.621010  0.648948  1
