# generated using pymatgen
data_CaCo3B4Os
_symmetry_space_group_name_H-M   'P 1'
_cell_length_a   7.21017708
_cell_length_b   7.01525123
_cell_length_c   3.86500300
_cell_angle_alpha   90.00000000
_cell_angle_beta   90.00000000
_cell_angle_gamma   91.39468741
_symmetry_Int_Tables_number   1
_chemical_formula_structural   CaCo3B4Os
_chemical_formula_sum   'Ca2 Co6 B8 Os2'
_cell_volume   195.43858802
_cell_formula_units_Z   2
loop_
 _symmetry_equiv_pos_site_id
 _symmetry_equiv_pos_as_xyz
  1  'x, y, z'
loop_
 _atom_site_type_symbol
 _atom_site_label
 _atom_site_symmetry_multiplicity
 _atom_site_fract_x
 _atom_site_fract_y
 _atom_site_fract_z
 _atom_site_occupancy
  Ca  Ca0  1  0.000000  0.000000  0.943243  1
  Ca  Ca1  1  0.500000  0.500000  0.416841  1
  Co  Co2  1  0.344537  0.884855  0.397621  1
  Co  Co3  1  0.655463  0.115145  0.397621  1
  Co  Co4  1  0.115428  0.376331  0.622428  1
  Co  Co5  1  0.884572  0.623669  0.622428  1
  Co  Co6  1  0.125167  0.624003  0.120909  1
  Co  Co7  1  0.874833  0.375997  0.120909  1
  B  B8  1  0.818781  0.658320  0.118015  1
  B  B9  1  0.181219  0.341680  0.118015  1
  B  B10  1  0.834015  0.313376  0.617011  1
  B  B11  1  0.165985  0.686624  0.617011  1
  B  B12  1  0.724308  0.826054  0.400109  1
  B  B13  1  0.275692  0.173946  0.400109  1
  B  B14  1  0.669410  0.202155  0.899069  1
  B  B15  1  0.330590  0.797845  0.899069  1
  Os  Os16  1  0.381610  0.144091  0.894796  1
  Os  Os17  1  0.618390  0.855909  0.894796  1
