# generated using pymatgen
data_Cs16HfTi3S16
_symmetry_space_group_name_H-M   'P 1'
_cell_length_a   8.72578705
_cell_length_b   10.34589100
_cell_length_c   15.19722400
_cell_angle_alpha   90.00000000
_cell_angle_beta   90.03923340
_cell_angle_gamma   90.00000000
_symmetry_Int_Tables_number   1
_chemical_formula_structural   Cs16HfTi3S16
_chemical_formula_sum   'Cs16 Hf1 Ti3 S16'
_cell_volume   1371.94490536
_cell_formula_units_Z   1
loop_
 _symmetry_equiv_pos_site_id
 _symmetry_equiv_pos_as_xyz
  1  'x, y, z'
loop_
 _atom_site_type_symbol
 _atom_site_label
 _atom_site_symmetry_multiplicity
 _atom_site_fract_x
 _atom_site_fract_y
 _atom_site_fract_z
 _atom_site_occupancy
  Cs  Cs0  1  0.998235  0.996625  0.001544  1
  Cs  Cs1  1  0.499939  0.000752  0.499602  1
  Cs  Cs2  1  0.998235  0.503375  0.001544  1
  Cs  Cs3  1  0.499939  0.499248  0.499602  1
  Cs  Cs4  1  0.995131  0.750000  0.422517  1
  Cs  Cs5  1  0.498113  0.250000  0.079362  1
  Cs  Cs6  1  0.002376  0.250000  0.574439  1
  Cs  Cs7  1  0.509136  0.750000  0.924077  1
  Cs  Cs8  1  0.830313  0.057741  0.283153  1
  Cs  Cs9  1  0.329640  0.942138  0.216846  1
  Cs  Cs10  1  0.170195  0.560686  0.715738  1
  Cs  Cs11  1  0.670146  0.444774  0.781682  1
  Cs  Cs12  1  0.170195  0.939314  0.715738  1
  Cs  Cs13  1  0.670146  0.055226  0.781682  1
  Cs  Cs14  1  0.830313  0.442259  0.283153  1
  Cs  Cs15  1  0.329640  0.557862  0.216846  1
  Hf  Hf16  1  0.260645  0.250000  0.835385  1
  Ti  Ti17  1  0.761741  0.750000  0.664104  1
  Ti  Ti18  1  0.238816  0.250000  0.334496  1
  Ti  Ti19  1  0.738398  0.750000  0.166730  1
  S  S20  1  0.985918  0.250000  0.826900  1
  S  S21  1  0.500992  0.250000  0.326377  1
  S  S22  1  0.499448  0.750000  0.672476  1
  S  S23  1  0.000947  0.750000  0.174531  1
  S  S24  1  0.657785  0.570147  0.094769  1
  S  S25  1  0.157918  0.429925  0.406283  1
  S  S26  1  0.344712  0.060516  0.910764  1
  S  S27  1  0.842936  0.929651  0.592167  1
  S  S28  1  0.344712  0.439484  0.910764  1
  S  S29  1  0.842936  0.570349  0.592167  1
  S  S30  1  0.657785  0.929853  0.094769  1
  S  S31  1  0.157918  0.070075  0.406283  1
  S  S32  1  0.635915  0.750000  0.306105  1
  S  S33  1  0.136413  0.250000  0.195112  1
  S  S34  1  0.367185  0.250000  0.688669  1
  S  S35  1  0.865182  0.750000  0.803623  1
