# generated using pymatgen
data_Li4Nd2DyErSi6
_symmetry_space_group_name_H-M   'P 1'
_cell_length_a   9.35976304
_cell_length_b   9.35976367
_cell_length_c   6.83425700
_cell_angle_alpha   90.00000000
_cell_angle_beta   90.00000000
_cell_angle_gamma   153.51466402
_symmetry_Int_Tables_number   1
_chemical_formula_structural   Li4Nd2DyErSi6
_chemical_formula_sum   'Li4 Nd2 Dy1 Er1 Si6'
_cell_volume   267.00873775
_cell_formula_units_Z   1
loop_
 _symmetry_equiv_pos_site_id
 _symmetry_equiv_pos_as_xyz
  1  'x, y, z'
loop_
 _atom_site_type_symbol
 _atom_site_label
 _atom_site_symmetry_multiplicity
 _atom_site_fract_x
 _atom_site_fract_y
 _atom_site_fract_z
 _atom_site_occupancy
  Li  Li0  1  0.191484  0.808516  0.059570  1
  Li  Li1  1  0.191484  0.808516  0.440430  1
  Li  Li2  1  0.808839  0.191161  0.941639  1
  Li  Li3  1  0.808839  0.191161  0.558361  1
  Nd  Nd4  1  0.554194  0.445806  0.250000  1
  Nd  Nd5  1  0.445271  0.554729  0.750000  1
  Dy  Dy6  1  0.654751  0.345249  0.750000  1
  Er  Er7  1  0.345684  0.654316  0.250000  1
  Si  Si8  1  0.724015  0.275985  0.250000  1
  Si  Si9  1  0.276621  0.723379  0.750000  1
  Si  Si10  1  0.058909  0.941091  0.924792  1
  Si  Si11  1  0.940501  0.059499  0.075667  1
  Si  Si12  1  0.940501  0.059499  0.424333  1
  Si  Si13  1  0.058909  0.941091  0.575208  1
