# generated using pymatgen
data_CsDy2TmSe5
_symmetry_space_group_name_H-M   'P 1'
_cell_length_a   4.12757500
_cell_length_b   12.43406400
_cell_length_c   22.14554300
_cell_angle_alpha   90.00000000
_cell_angle_beta   90.00000000
_cell_angle_gamma   90.00000000
_symmetry_Int_Tables_number   1
_chemical_formula_structural   CsDy2TmSe5
_chemical_formula_sum   'Cs4 Dy8 Tm4 Se20'
_cell_volume   1136.56533296
_cell_formula_units_Z   4
loop_
 _symmetry_equiv_pos_site_id
 _symmetry_equiv_pos_as_xyz
  1  'x, y, z'
loop_
 _atom_site_type_symbol
 _atom_site_label
 _atom_site_symmetry_multiplicity
 _atom_site_fract_x
 _atom_site_fract_y
 _atom_site_fract_z
 _atom_site_occupancy
  Cs  Cs0  1  0.249999  0.853536  0.092047  1
  Cs  Cs1  1  0.750001  0.146464  0.907953  1
  Cs  Cs2  1  0.750001  0.353536  0.407953  1
  Cs  Cs3  1  0.249999  0.646464  0.592047  1
  Dy  Dy4  1  0.749997  0.796943  0.825610  1
  Dy  Dy5  1  0.250003  0.203057  0.174390  1
  Dy  Dy6  1  0.250003  0.296943  0.674390  1
  Dy  Dy7  1  0.749997  0.703057  0.325610  1
  Dy  Dy8  1  0.250003  0.957440  0.697677  1
  Dy  Dy9  1  0.749997  0.042560  0.302323  1
  Dy  Dy10  1  0.749997  0.457440  0.802323  1
  Dy  Dy11  1  0.250003  0.542560  0.197677  1
  Tm  Tm12  1  0.749996  0.392158  0.053885  1
  Tm  Tm13  1  0.250004  0.607842  0.946115  1
  Tm  Tm14  1  0.250004  0.892158  0.446115  1
  Tm  Tm15  1  0.749996  0.107842  0.553885  1
  Se  Se16  1  0.250000  0.949214  0.568209  1
  Se  Se17  1  0.750000  0.050786  0.431791  1
  Se  Se18  1  0.750000  0.449214  0.931791  1
  Se  Se19  1  0.250000  0.550786  0.068209  1
  Se  Se20  1  0.750000  0.762710  0.952890  1
  Se  Se21  1  0.250000  0.237290  0.047110  1
  Se  Se22  1  0.250000  0.262710  0.547110  1
  Se  Se23  1  0.750000  0.737290  0.452890  1
  Se  Se24  1  0.249999  0.950316  0.825791  1
  Se  Se25  1  0.750001  0.049684  0.174209  1
  Se  Se26  1  0.750001  0.450316  0.674209  1
  Se  Se27  1  0.249999  0.549684  0.325791  1
  Se  Se28  1  0.750001  0.126093  0.684054  1
  Se  Se29  1  0.249999  0.873907  0.315946  1
  Se  Se30  1  0.249999  0.626093  0.815946  1
  Se  Se31  1  0.750001  0.373907  0.184054  1
  Se  Se32  1  0.750001  0.694606  0.197387  1
  Se  Se33  1  0.249999  0.305394  0.802613  1
  Se  Se34  1  0.249999  0.194606  0.302613  1
  Se  Se35  1  0.750001  0.805394  0.697387  1
