# generated using pymatgen
data_Dy5Ho(TcB7)2
_symmetry_space_group_name_H-M   'P 1'
_cell_length_a   8.09664033
_cell_length_b   8.09663945
_cell_length_c   9.35267000
_cell_angle_alpha   90.00000000
_cell_angle_beta   90.00000000
_cell_angle_gamma   154.74677279
_symmetry_Int_Tables_number   1
_chemical_formula_structural   Dy5Ho(TcB7)2
_chemical_formula_sum   'Dy5 Ho1 Tc2 B14'
_cell_volume   261.56892480
_cell_formula_units_Z   1
loop_
 _symmetry_equiv_pos_site_id
 _symmetry_equiv_pos_as_xyz
  1  'x, y, z'
loop_
 _atom_site_type_symbol
 _atom_site_label
 _atom_site_symmetry_multiplicity
 _atom_site_fract_x
 _atom_site_fract_y
 _atom_site_fract_z
 _atom_site_occupancy
  Dy  Dy0  1  0.895234  0.104766  0.439747  1
  Dy  Dy1  1  0.104849  0.895151  0.560610  1
  Dy  Dy2  1  0.895234  0.104766  0.060253  1
  Dy  Dy3  1  0.104849  0.895151  0.939390  1
  Dy  Dy4  1  0.241486  0.758514  0.250000  1
  Ho  Ho5  1  0.758966  0.241034  0.750000  1
  Tc  Tc6  1  0.052906  0.947094  0.250000  1
  Tc  Tc7  1  0.946975  0.053025  0.750000  1
  B  B8  1  0.727078  0.272922  0.467530  1
  B  B9  1  0.272849  0.727151  0.533556  1
  B  B10  1  0.727078  0.272922  0.032470  1
  B  B11  1  0.272849  0.727151  0.966444  1
  B  B12  1  0.631778  0.368222  0.150960  1
  B  B13  1  0.368150  0.631850  0.848827  1
  B  B14  1  0.631778  0.368222  0.349040  1
  B  B15  1  0.368150  0.631850  0.651173  1
  B  B16  1  0.520973  0.479027  0.095738  1
  B  B17  1  0.478981  0.521019  0.904262  1
  B  B18  1  0.520973  0.479027  0.404262  1
  B  B19  1  0.478981  0.521019  0.595738  1
  B  B20  1  0.457820  0.542180  0.250000  1
  B  B21  1  0.542065  0.457935  0.750000  1
