# generated using pymatgen
data_TbMn2P6IN12
_symmetry_space_group_name_H-M   'P 1'
_cell_length_a   7.41814731
_cell_length_b   7.39945804
_cell_length_c   7.41814548
_cell_angle_alpha   109.50989565
_cell_angle_beta   109.85819491
_cell_angle_gamma   109.50987165
_symmetry_Int_Tables_number   1
_chemical_formula_structural   TbMn2P6IN12
_chemical_formula_sum   'Tb1 Mn2 P6 I1 N12'
_cell_volume   311.63848205
_cell_formula_units_Z   1
loop_
 _symmetry_equiv_pos_site_id
 _symmetry_equiv_pos_as_xyz
  1  'x, y, z'
loop_
 _atom_site_type_symbol
 _atom_site_label
 _atom_site_symmetry_multiplicity
 _atom_site_fract_x
 _atom_site_fract_y
 _atom_site_fract_z
 _atom_site_occupancy
  Tb  Tb0  1  0.019975  0.365823  0.019975  1
  Mn  Mn1  1  0.004225  0.006349  0.392412  1
  Mn  Mn2  1  0.392412  0.006349  0.004225  1
  P  P3  1  0.501435  0.260224  0.748332  1
  P  P4  1  0.251597  0.754413  0.499937  1
  P  P5  1  0.743511  0.505056  0.259807  1
  P  P6  1  0.748332  0.260224  0.501435  1
  P  P7  1  0.499937  0.754413  0.251597  1
  P  P8  1  0.259807  0.505056  0.743511  1
  I  I9  1  0.973691  0.928449  0.973691  1
  N  N10  1  0.382798  0.680293  0.382798  1
  N  N11  1  0.701492  0.422926  0.422068  1
  N  N12  1  0.422068  0.422926  0.701492  1
  N  N13  1  0.718650  0.290237  0.718650  1
  N  N14  1  0.993252  0.581012  0.294842  1
  N  N15  1  0.294842  0.581012  0.993252  1
  N  N16  1  0.287970  0.004296  0.571999  1
  N  N17  1  0.000255  0.288170  0.578390  1
  N  N18  1  0.717910  0.725149  0.295445  1
  N  N19  1  0.571999  0.004296  0.287970  1
  N  N20  1  0.295445  0.725149  0.717910  1
  N  N21  1  0.578390  0.288170  0.000255  1
