# generated using pymatgen
data_Ho8MgInIr2
_symmetry_space_group_name_H-M   'P 1'
_cell_length_a   9.64016568
_cell_length_b   9.64016595
_cell_length_c   9.64929700
_cell_angle_alpha   59.96866575
_cell_angle_beta   59.96866483
_cell_angle_gamma   59.73241565
_symmetry_Int_Tables_number   1
_chemical_formula_structural   Ho8MgInIr2
_chemical_formula_sum   'Ho16 Mg2 In2 Ir4'
_cell_volume   632.49732803
_cell_formula_units_Z   2
loop_
 _symmetry_equiv_pos_site_id
 _symmetry_equiv_pos_as_xyz
  1  'x, y, z'
loop_
 _atom_site_type_symbol
 _atom_site_label
 _atom_site_symmetry_multiplicity
 _atom_site_fract_x
 _atom_site_fract_y
 _atom_site_fract_z
 _atom_site_occupancy
  Ho  Ho0  1  0.437088  0.437088  0.062912  1
  Ho  Ho1  1  0.651557  0.651557  0.045349  1
  Ho  Ho2  1  0.190284  0.811049  0.189800  1
  Ho  Ho3  1  0.061171  0.438849  0.062048  1
  Ho  Ho4  1  0.190284  0.811049  0.808867  1
  Ho  Ho5  1  0.061171  0.438849  0.437932  1
  Ho  Ho6  1  0.811049  0.190284  0.189800  1
  Ho  Ho7  1  0.651557  0.651557  0.651539  1
  Ho  Ho8  1  0.811049  0.190284  0.808867  1
  Ho  Ho9  1  0.187038  0.187038  0.812962  1
  Ho  Ho10  1  0.043103  0.651836  0.652531  1
  Ho  Ho11  1  0.438849  0.061171  0.062048  1
  Ho  Ho12  1  0.060832  0.060832  0.439168  1
  Ho  Ho13  1  0.651836  0.043103  0.652531  1
  Ho  Ho14  1  0.807757  0.807757  0.192243  1
  Ho  Ho15  1  0.438849  0.061171  0.437932  1
  Mg  Mg16  1  0.422968  0.422968  0.419907  1
  Mg  Mg17  1  0.422968  0.422968  0.734157  1
  In  In18  1  0.417193  0.746450  0.418179  1
  In  In19  1  0.746450  0.417193  0.418179  1
  Ir  Ir20  1  0.424240  0.856917  0.859421  1
  Ir  Ir21  1  0.857896  0.857896  0.859743  1
  Ir  Ir22  1  0.856917  0.424240  0.859421  1
  Ir  Ir23  1  0.857896  0.857896  0.424464  1
