# generated using pymatgen
data_LaPr4P12Ru15Rh4
_symmetry_space_group_name_H-M   'P 1'
_cell_length_a   12.69128556
_cell_length_b   12.68174627
_cell_length_c   4.02674600
_cell_angle_alpha   90.00000000
_cell_angle_beta   90.00000000
_cell_angle_gamma   119.79743715
_symmetry_Int_Tables_number   1
_chemical_formula_structural   LaPr4P12Ru15Rh4
_chemical_formula_sum   'La1 Pr4 P12 Ru15 Rh4'
_cell_volume   562.40916999
_cell_formula_units_Z   1
loop_
 _symmetry_equiv_pos_site_id
 _symmetry_equiv_pos_as_xyz
  1  'x, y, z'
loop_
 _atom_site_type_symbol
 _atom_site_label
 _atom_site_symmetry_multiplicity
 _atom_site_fract_x
 _atom_site_fract_y
 _atom_site_fract_z
 _atom_site_occupancy
  La  La0  1  0.818571  0.000927  0.500000  1
  Pr  Pr1  1  0.001639  0.816916  0.500000  1
  Pr  Pr2  1  0.183639  0.183102  0.500000  1
  Pr  Pr3  1  0.332712  0.666608  0.000000  1
  Pr  Pr4  1  0.666660  0.333654  0.000000  1
  P  P5  1  0.189284  0.000427  0.000000  1
  P  P6  1  0.001013  0.189907  0.000000  1
  P  P7  1  0.814586  0.811080  0.000000  1
  P  P8  1  0.520485  0.693090  0.500000  1
  P  P9  1  0.301623  0.824322  0.500000  1
  P  P10  1  0.174492  0.476610  0.500000  1
  P  P11  1  0.476883  0.175723  0.500000  1
  P  P12  1  0.698167  0.523241  0.500000  1
  P  P13  1  0.824535  0.301751  0.500000  1
  P  P14  1  0.627301  0.004012  0.000000  1
  P  P15  1  0.999750  0.627138  0.000000  1
  P  P16  1  0.372754  0.372816  0.000000  1
  Ru  Ru17  1  0.288482  0.000267  0.500000  1
  Ru  Ru18  1  0.000137  0.288410  0.500000  1
  Ru  Ru19  1  0.711703  0.713021  0.500000  1
  Ru  Ru20  1  0.194278  0.814970  0.000000  1
  Ru  Ru21  1  0.184759  0.379061  0.000000  1
  Ru  Ru22  1  0.379772  0.185123  0.000000  1
  Ru  Ru23  1  0.804681  0.620888  0.000000  1
  Ru  Ru24  1  0.815501  0.195123  0.000000  1
  Ru  Ru25  1  0.508457  0.874238  0.500000  1
  Ru  Ru26  1  0.123197  0.631315  0.500000  1
  Ru  Ru27  1  0.366702  0.490027  0.500000  1
  Ru  Ru28  1  0.492174  0.369163  0.500000  1
  Ru  Ru29  1  0.876401  0.508319  0.500000  1
  Ru  Ru30  1  0.630718  0.122473  0.500000  1
  Ru  Ru31  1  0.999803  0.999726  0.000000  1
  Rh  Rh32  1  0.445568  0.997799  0.000000  1
  Rh  Rh33  1  0.999947  0.447036  0.000000  1
  Rh  Rh34  1  0.551368  0.553968  0.000000  1
  Rh  Rh35  1  0.622259  0.807750  0.000000  1
