# generated using pymatgen
data_Pr2Nd6Sc11Si16W
_symmetry_space_group_name_H-M   'P 1'
_cell_length_a   7.22165248
_cell_length_b   7.46317216
_cell_length_c   14.09469319
_cell_angle_alpha   90.19179450
_cell_angle_beta   89.73260329
_cell_angle_gamma   89.58264170
_symmetry_Int_Tables_number   1
_chemical_formula_structural   Pr2Nd6Sc11Si16W
_chemical_formula_sum   'Pr2 Nd6 Sc11 Si16 W1'
_cell_volume   759.62095670
_cell_formula_units_Z   1
loop_
 _symmetry_equiv_pos_site_id
 _symmetry_equiv_pos_as_xyz
  1  'x, y, z'
loop_
 _atom_site_type_symbol
 _atom_site_label
 _atom_site_symmetry_multiplicity
 _atom_site_fract_x
 _atom_site_fract_y
 _atom_site_fract_z
 _atom_site_occupancy
  Pr  Pr0  1  0.513782  0.327375  0.096997  1
  Pr  Pr1  1  0.011791  0.170412  0.096918  1
  Nd  Nd2  1  0.011543  0.172748  0.403465  1
  Nd  Nd3  1  0.507933  0.328102  0.408763  1
  Nd  Nd4  1  0.486769  0.673728  0.897664  1
  Nd  Nd5  1  0.486419  0.673326  0.597649  1
  Nd  Nd6  1  0.992820  0.831755  0.596059  1
  Nd  Nd7  1  0.989375  0.828678  0.897855  1
  Sc  Sc8  1  0.666348  0.826463  0.379260  1
  Sc  Sc9  1  0.656427  0.003794  0.747380  1
  Sc  Sc10  1  0.168844  0.676163  0.378155  1
  Sc  Sc11  1  0.828585  0.323758  0.870621  1
  Sc  Sc12  1  0.831745  0.325188  0.624062  1
  Sc  Sc13  1  0.838818  0.500555  0.252388  1
  Sc  Sc14  1  0.338699  0.999871  0.251907  1
  Sc  Sc15  1  0.332288  0.177139  0.875232  1
  Sc  Sc16  1  0.170901  0.675769  0.125802  1
  Sc  Sc17  1  0.669876  0.824234  0.124614  1
  Sc  Sc18  1  0.162731  0.489086  0.744492  1
  Si  Si19  1  0.289427  0.892130  0.745932  1
  Si  Si20  1  0.466100  0.626532  0.251653  1
  Si  Si21  1  0.044216  0.126678  0.744410  1
  Si  Si22  1  0.528923  0.366223  0.744704  1
  Si  Si23  1  0.170525  0.448521  0.543285  1
  Si  Si24  1  0.963141  0.876229  0.252179  1
  Si  Si25  1  0.710144  0.117605  0.251748  1
  Si  Si26  1  0.849938  0.538278  0.038428  1
  Si  Si27  1  0.347925  0.960502  0.038667  1
  Si  Si28  1  0.148928  0.465645  0.958163  1
  Si  Si29  1  0.640651  0.038980  0.546548  1
  Si  Si30  1  0.340004  0.969887  0.470543  1
  Si  Si31  1  0.847746  0.534271  0.460085  1
  Si  Si32  1  0.786890  0.617807  0.746799  1
  Si  Si33  1  0.212883  0.381669  0.251605  1
  Si  Si34  1  0.655251  0.036324  0.957252  1
  W  W35  1  0.331615  0.174574  0.628709  1
