# generated using pymatgen
data_Zr10Be2(InBi)3
_symmetry_space_group_name_H-M   'P 1'
_cell_length_a   8.74433100
_cell_length_b   8.74433144
_cell_length_c   5.87566200
_cell_angle_alpha   90.00000000
_cell_angle_beta   90.00000000
_cell_angle_gamma   120.00000213
_symmetry_Int_Tables_number   1
_chemical_formula_structural   Zr10Be2(InBi)3
_chemical_formula_sum   'Zr10 Be2 In3 Bi3'
_cell_volume   389.08154000
_cell_formula_units_Z   1
loop_
 _symmetry_equiv_pos_site_id
 _symmetry_equiv_pos_as_xyz
  1  'x, y, z'
loop_
 _atom_site_type_symbol
 _atom_site_label
 _atom_site_symmetry_multiplicity
 _atom_site_fract_x
 _atom_site_fract_y
 _atom_site_fract_z
 _atom_site_occupancy
  Zr  Zr0  1  0.742968  0.000000  0.250000  1
  Zr  Zr1  1  0.000000  0.742968  0.250000  1
  Zr  Zr2  1  0.257032  0.257032  0.250000  1
  Zr  Zr3  1  0.237198  0.000000  0.750000  1
  Zr  Zr4  1  0.000000  0.237198  0.750000  1
  Zr  Zr5  1  0.762802  0.762802  0.750000  1
  Zr  Zr6  1  0.333333  0.666667  0.493755  1
  Zr  Zr7  1  0.666667  0.333333  0.493755  1
  Zr  Zr8  1  0.666667  0.333333  0.006245  1
  Zr  Zr9  1  0.333333  0.666667  0.006245  1
  Be  Be10  1  0.000000  0.000000  0.469569  1
  Be  Be11  1  0.000000  0.000000  0.030431  1
  In  In12  1  0.383774  0.000000  0.250000  1
  In  In13  1  0.000000  0.383774  0.250000  1
  In  In14  1  0.616226  0.616226  0.250000  1
  Bi  Bi15  1  0.604005  0.000000  0.750000  1
  Bi  Bi16  1  0.000000  0.604005  0.750000  1
  Bi  Bi17  1  0.395995  0.395995  0.750000  1
