# generated using pymatgen
data_Hf4Si4Rh
_symmetry_space_group_name_H-M   'P 1'
_cell_length_a   5.25165470
_cell_length_b   5.25165496
_cell_length_c   8.67137360
_cell_angle_alpha   72.02250686
_cell_angle_beta   72.02250424
_cell_angle_gamma   42.11784967
_symmetry_Int_Tables_number   1
_chemical_formula_structural   Hf4Si4Rh
_chemical_formula_sum   'Hf4 Si4 Rh1'
_cell_volume   151.36533395
_cell_formula_units_Z   1
loop_
 _symmetry_equiv_pos_site_id
 _symmetry_equiv_pos_as_xyz
  1  'x, y, z'
loop_
 _atom_site_type_symbol
 _atom_site_label
 _atom_site_symmetry_multiplicity
 _atom_site_fract_x
 _atom_site_fract_y
 _atom_site_fract_z
 _atom_site_occupancy
  Hf  Hf0  1  0.108971  0.108971  0.617404  1
  Hf  Hf1  1  0.891029  0.891029  0.382596  1
  Hf  Hf2  1  0.753712  0.753712  0.842972  1
  Hf  Hf3  1  0.246288  0.246288  0.157028  1
  Si  Si4  1  0.385628  0.385628  0.613768  1
  Si  Si5  1  0.614372  0.614372  0.386232  1
  Si  Si6  1  0.462280  0.462280  0.849569  1
  Si  Si7  1  0.537720  0.537720  0.150431  1
  Rh  Rh8  1  0.000000  0.000000  0.000000  1
