# generated using pymatgen
data_Rb2MnFeS4
_symmetry_space_group_name_H-M   'P 1'
_cell_length_a   6.96682341
_cell_length_b   6.96682324
_cell_length_c   5.44649183
_cell_angle_alpha   78.87332442
_cell_angle_beta   78.87333039
_cell_angle_gamma   117.55086965
_symmetry_Int_Tables_number   1
_chemical_formula_structural   Rb2MnFeS4
_chemical_formula_sum   'Rb2 Mn1 Fe1 S4'
_cell_volume   217.53141564
_cell_formula_units_Z   1
loop_
 _symmetry_equiv_pos_site_id
 _symmetry_equiv_pos_as_xyz
  1  'x, y, z'
loop_
 _atom_site_type_symbol
 _atom_site_label
 _atom_site_symmetry_multiplicity
 _atom_site_fract_x
 _atom_site_fract_y
 _atom_site_fract_z
 _atom_site_occupancy
  Rb  Rb0  1  0.145194  0.854806  0.000000  1
  Rb  Rb1  1  0.854770  0.145230  0.500000  1
  Mn  Mn2  1  0.502288  0.497712  0.000000  1
  Fe  Fe3  1  0.497430  0.502570  0.500000  1
  S  S4  1  0.217684  0.418872  0.851536  1
  S  S5  1  0.581128  0.782316  0.148464  1
  S  S6  1  0.782621  0.581116  0.663878  1
  S  S7  1  0.418884  0.217379  0.336122  1
