# generated using pymatgen
data_Zr5AlInBi2
_symmetry_space_group_name_H-M   'P 1'
_cell_length_a   8.84660113
_cell_length_b   8.84660172
_cell_length_c   5.95215000
_cell_angle_alpha   90.00000000
_cell_angle_beta   90.00000000
_cell_angle_gamma   119.59203649
_symmetry_Int_Tables_number   1
_chemical_formula_structural   Zr5AlInBi2
_chemical_formula_sum   'Zr10 Al2 In2 Bi4'
_cell_volume   405.06817942
_cell_formula_units_Z   2
loop_
 _symmetry_equiv_pos_site_id
 _symmetry_equiv_pos_as_xyz
  1  'x, y, z'
loop_
 _atom_site_type_symbol
 _atom_site_label
 _atom_site_symmetry_multiplicity
 _atom_site_fract_x
 _atom_site_fract_y
 _atom_site_fract_z
 _atom_site_occupancy
  Zr  Zr0  1  0.724948  0.004573  0.250000  1
  Zr  Zr1  1  0.004573  0.724948  0.250000  1
  Zr  Zr2  1  0.274379  0.274379  0.250000  1
  Zr  Zr3  1  0.260340  0.999823  0.750000  1
  Zr  Zr4  1  0.999823  0.260340  0.750000  1
  Zr  Zr5  1  0.738636  0.738636  0.750000  1
  Zr  Zr6  1  0.332093  0.667285  0.495161  1
  Zr  Zr7  1  0.667285  0.332093  0.495161  1
  Zr  Zr8  1  0.667285  0.332093  0.004839  1
  Zr  Zr9  1  0.332093  0.667285  0.004839  1
  Al  Al10  1  0.000914  0.000914  0.484180  1
  Al  Al11  1  0.000914  0.000914  0.015820  1
  In  In12  1  0.379559  0.000467  0.250000  1
  In  In13  1  0.000467  0.379559  0.250000  1
  Bi  Bi14  1  0.619230  0.619230  0.250000  1
  Bi  Bi15  1  0.606341  0.000343  0.750000  1
  Bi  Bi16  1  0.000343  0.606341  0.750000  1
  Bi  Bi17  1  0.390774  0.390774  0.750000  1
