# generated using pymatgen
data_Sr2AgClO2
_symmetry_space_group_name_H-M   'P 1'
_cell_length_a   10.10334193
_cell_length_b   10.10334217
_cell_length_c   10.10334258
_cell_angle_alpha   22.95229265
_cell_angle_beta   22.95229037
_cell_angle_gamma   22.95229109
_symmetry_Int_Tables_number   1
_chemical_formula_structural   Sr2AgClO2
_chemical_formula_sum   'Sr2 Ag1 Cl1 O2'
_cell_volume   137.63931566
_cell_formula_units_Z   1
loop_
 _symmetry_equiv_pos_site_id
 _symmetry_equiv_pos_as_xyz
  1  'x, y, z'
loop_
 _atom_site_type_symbol
 _atom_site_label
 _atom_site_symmetry_multiplicity
 _atom_site_fract_x
 _atom_site_fract_y
 _atom_site_fract_z
 _atom_site_occupancy
  Sr  Sr0  1  0.259956  0.259956  0.259956  1
  Sr  Sr1  1  0.740044  0.740044  0.740044  1
  Ag  Ag2  1  0.500000  0.500000  0.500000  1
  Cl  Cl3  1  0.000000  0.000000  0.000000  1
  O  O4  1  0.429817  0.429817  0.429817  1
  O  O5  1  0.570184  0.570184  0.570184  1
