# generated using pymatgen
data_Ho8Ti8Si16MoW3
_symmetry_space_group_name_H-M   'P 1'
_cell_length_a   6.97729526
_cell_length_b   6.97729530
_cell_length_c   12.83901600
_cell_angle_alpha   90.01571750
_cell_angle_beta   89.98428254
_cell_angle_gamma   89.95671201
_symmetry_Int_Tables_number   1
_chemical_formula_structural   Ho8Ti8Si16MoW3
_chemical_formula_sum   'Ho8 Ti8 Si16 Mo1 W3'
_cell_volume   625.03709016
_cell_formula_units_Z   1
loop_
 _symmetry_equiv_pos_site_id
 _symmetry_equiv_pos_as_xyz
  1  'x, y, z'
loop_
 _atom_site_type_symbol
 _atom_site_label
 _atom_site_symmetry_multiplicity
 _atom_site_fract_x
 _atom_site_fract_y
 _atom_site_fract_z
 _atom_site_occupancy
  Ho  Ho0  1  0.341306  0.000943  0.467110  1
  Ho  Ho1  1  0.498931  0.841280  0.717566  1
  Ho  Ho2  1  0.500606  0.158399  0.217012  1
  Ho  Ho3  1  0.841280  0.498931  0.282434  1
  Ho  Ho4  1  0.158399  0.500606  0.782988  1
  Ho  Ho5  1  0.658970  0.999347  0.967242  1
  Ho  Ho6  1  0.000943  0.341306  0.532890  1
  Ho  Ho7  1  0.999347  0.658970  0.032758  1
  Ti  Ti8  1  0.152527  0.008504  0.875935  1
  Ti  Ti9  1  0.491416  0.652805  0.125652  1
  Ti  Ti10  1  0.508004  0.347211  0.626441  1
  Ti  Ti11  1  0.652805  0.491416  0.874348  1
  Ti  Ti12  1  0.347211  0.508004  0.373559  1
  Ti  Ti13  1  0.847883  0.991711  0.375470  1
  Ti  Ti14  1  0.008504  0.152527  0.124065  1
  Ti  Ti15  1  0.991711  0.847883  0.624530  1
  Si  Si16  1  0.201301  0.131022  0.684399  1
  Si  Si17  1  0.368896  0.700948  0.934237  1
  Si  Si18  1  0.631179  0.298408  0.434320  1
  Si  Si19  1  0.700948  0.368896  0.065763  1
  Si  Si20  1  0.298408  0.631179  0.565680  1
  Si  Si21  1  0.799005  0.868885  0.184266  1
  Si  Si22  1  0.131022  0.201301  0.315601  1
  Si  Si23  1  0.868885  0.799005  0.815734  1
  Si  Si24  1  0.291875  0.953060  0.065048  1
  Si  Si25  1  0.546807  0.791403  0.315082  1
  Si  Si26  1  0.452852  0.208412  0.815635  1
  Si  Si27  1  0.791403  0.546807  0.684918  1
  Si  Si28  1  0.208412  0.452852  0.184365  1
  Si  Si29  1  0.708232  0.047606  0.565543  1
  Si  Si30  1  0.953060  0.291875  0.934952  1
  Si  Si31  1  0.047606  0.708232  0.434457  1
  Mo  Mo32  1  0.673221  0.673221  0.500000  1
  W  W33  1  0.326607  0.326607  0.000000  1
  W  W34  1  0.173592  0.826846  0.249621  1
  W  W35  1  0.826846  0.173592  0.750379  1
