# generated using pymatgen
data_Er3Zr(Al3Rh)6
_symmetry_space_group_name_H-M   'P 1'
_cell_length_a   7.52612802
_cell_length_b   7.51446478
_cell_length_c   9.38417200
_cell_angle_alpha   90.00000000
_cell_angle_beta   90.00000000
_cell_angle_gamma   119.46976488
_symmetry_Int_Tables_number   1
_chemical_formula_structural   Er3Zr(Al3Rh)6
_chemical_formula_sum   'Er3 Zr1 Al18 Rh6'
_cell_volume   462.05318985
_cell_formula_units_Z   1
loop_
 _symmetry_equiv_pos_site_id
 _symmetry_equiv_pos_as_xyz
  1  'x, y, z'
loop_
 _atom_site_type_symbol
 _atom_site_label
 _atom_site_symmetry_multiplicity
 _atom_site_fract_x
 _atom_site_fract_y
 _atom_site_fract_z
 _atom_site_occupancy
  Er  Er0  1  0.006412  0.326309  0.250000  1
  Er  Er1  1  0.672404  0.995818  0.750000  1
  Er  Er2  1  0.327530  0.006869  0.250000  1
  Zr  Zr3  1  0.996437  0.672318  0.750000  1
  Al  Al4  1  0.124433  0.122160  0.750000  1
  Al  Al5  1  0.870867  0.869631  0.250000  1
  Al  Al6  1  0.999810  0.338505  0.579714  1
  Al  Al7  1  0.999956  0.664431  0.427180  1
  Al  Al8  1  0.999956  0.664431  0.072820  1
  Al  Al9  1  0.332777  0.997654  0.920210  1
  Al  Al10  1  0.999810  0.338505  0.920286  1
  Al  Al11  1  0.663919  0.998815  0.076165  1
  Al  Al12  1  0.663919  0.998815  0.423835  1
  Al  Al13  1  0.332777  0.997654  0.579790  1
  Al  Al14  1  0.333524  0.333598  0.048071  1
  Al  Al15  1  0.669987  0.667985  0.944156  1
  Al  Al16  1  0.669987  0.667985  0.555844  1
  Al  Al17  1  0.333524  0.333598  0.451929  1
  Al  Al18  1  0.336685  0.552177  0.750000  1
  Al  Al19  1  0.660102  0.449557  0.250000  1
  Al  Al20  1  0.557153  0.344404  0.750000  1
  Al  Al21  1  0.448050  0.658310  0.250000  1
  Rh  Rh22  1  0.672819  0.327933  0.501052  1
  Rh  Rh23  1  0.327838  0.672875  0.501678  1
  Rh  Rh24  1  0.327838  0.672875  0.998322  1
  Rh  Rh25  1  0.672819  0.327933  0.998948  1
  Rh  Rh26  1  0.999334  0.999427  0.500952  1
  Rh  Rh27  1  0.999334  0.999427  0.999048  1
