# generated using pymatgen
data_Zn22FeCo2
_symmetry_space_group_name_H-M   'P 1'
_cell_length_a   7.67622055
_cell_length_b   7.67622028
_cell_length_c   7.69004296
_cell_angle_alpha   72.00690043
_cell_angle_beta   72.00689879
_cell_angle_gamma   57.96803651
_symmetry_Int_Tables_number   1
_chemical_formula_structural   Zn22FeCo2
_chemical_formula_sum   'Zn22 Fe1 Co2'
_cell_volume   359.39402218
_cell_formula_units_Z   1
loop_
 _symmetry_equiv_pos_site_id
 _symmetry_equiv_pos_as_xyz
  1  'x, y, z'
loop_
 _atom_site_type_symbol
 _atom_site_label
 _atom_site_symmetry_multiplicity
 _atom_site_fract_x
 _atom_site_fract_y
 _atom_site_fract_z
 _atom_site_occupancy
  Zn  Zn0  1  0.344709  0.742324  0.310665  1
  Zn  Zn1  1  0.655291  0.257676  0.689335  1
  Zn  Zn2  1  0.257676  0.655291  0.689335  1
  Zn  Zn3  1  0.742324  0.344709  0.310665  1
  Zn  Zn4  1  0.674850  0.325150  0.000000  1
  Zn  Zn5  1  0.325150  0.674850  0.000000  1
  Zn  Zn6  1  0.830102  0.830102  0.784531  1
  Zn  Zn7  1  0.169898  0.169898  0.215469  1
  Zn  Zn8  1  0.977544  0.977544  0.176004  1
  Zn  Zn9  1  0.022456  0.022456  0.823996  1
  Zn  Zn10  1  0.351439  0.351439  0.271745  1
  Zn  Zn11  1  0.648561  0.648561  0.728255  1
  Zn  Zn12  1  0.686094  0.686094  0.374476  1
  Zn  Zn13  1  0.313906  0.313906  0.625524  1
  Zn  Zn14  1  0.662653  0.023595  0.463812  1
  Zn  Zn15  1  0.337347  0.976405  0.536188  1
  Zn  Zn16  1  0.976405  0.337347  0.536188  1
  Zn  Zn17  1  0.023595  0.662653  0.463812  1
  Zn  Zn18  1  0.616036  0.998570  0.097916  1
  Zn  Zn19  1  0.383964  0.001430  0.902084  1
  Zn  Zn20  1  0.001430  0.383964  0.902084  1
  Zn  Zn21  1  0.998570  0.616036  0.097916  1
  Fe  Fe22  1  0.000000  0.000000  0.500000  1
  Co  Co23  1  0.657435  0.657435  0.055296  1
  Co  Co24  1  0.342565  0.342565  0.944704  1
