# generated using pymatgen
data_Dy2Sc3Tc3(P3Ir4)4
_symmetry_space_group_name_H-M   'P 1'
_cell_length_a   12.60075600
_cell_length_b   12.60075617
_cell_length_c   3.95186400
_cell_angle_alpha   90.00000000
_cell_angle_beta   90.00000000
_cell_angle_gamma   119.99999955
_symmetry_Int_Tables_number   1
_chemical_formula_structural   Dy2Sc3Tc3(P3Ir4)4
_chemical_formula_sum   'Dy2 Sc3 Tc3 P12 Ir16'
_cell_volume   543.40775736
_cell_formula_units_Z   1
loop_
 _symmetry_equiv_pos_site_id
 _symmetry_equiv_pos_as_xyz
  1  'x, y, z'
loop_
 _atom_site_type_symbol
 _atom_site_label
 _atom_site_symmetry_multiplicity
 _atom_site_fract_x
 _atom_site_fract_y
 _atom_site_fract_z
 _atom_site_occupancy
  Dy  Dy0  1  0.333333  0.666667  0.000000  1
  Dy  Dy1  1  0.666667  0.333333  0.000000  1
  Sc  Sc2  1  0.821505  0.000000  0.500000  1
  Sc  Sc3  1  0.000000  0.821505  0.500000  1
  Sc  Sc4  1  0.178495  0.178495  0.500000  1
  Tc  Tc5  1  0.455650  0.000000  0.000000  1
  Tc  Tc6  1  0.000000  0.455650  0.000000  1
  Tc  Tc7  1  0.544350  0.544350  0.000000  1
  P  P8  1  0.174203  0.000000  0.000000  1
  P  P9  1  0.000000  0.174203  0.000000  1
  P  P10  1  0.825797  0.825797  0.000000  1
  P  P11  1  0.168199  0.483868  0.500000  1
  P  P12  1  0.516132  0.684329  0.500000  1
  P  P13  1  0.315671  0.831801  0.500000  1
  P  P14  1  0.684329  0.516132  0.500000  1
  P  P15  1  0.831801  0.315671  0.500000  1
  P  P16  1  0.483868  0.168199  0.500000  1
  P  P17  1  0.641271  0.000000  0.000000  1
  P  P18  1  0.000000  0.641271  0.000000  1
  P  P19  1  0.358729  0.358729  0.000000  1
  Ir  Ir20  1  0.356937  0.488895  0.500000  1
  Ir  Ir21  1  0.511105  0.868041  0.500000  1
  Ir  Ir22  1  0.131959  0.643063  0.500000  1
  Ir  Ir23  1  0.868041  0.511105  0.500000  1
  Ir  Ir24  1  0.643063  0.131959  0.500000  1
  Ir  Ir25  1  0.488895  0.356937  0.500000  1
  Ir  Ir26  1  0.178576  0.368533  0.000000  1
  Ir  Ir27  1  0.631467  0.810045  0.000000  1
  Ir  Ir28  1  0.189955  0.821424  0.000000  1
  Ir  Ir29  1  0.810045  0.631467  0.000000  1
  Ir  Ir30  1  0.821424  0.189955  0.000000  1
  Ir  Ir31  1  0.368533  0.178576  0.000000  1
  Ir  Ir32  1  0.289432  0.000000  0.500000  1
  Ir  Ir33  1  0.000000  0.289432  0.500000  1
  Ir  Ir34  1  0.710568  0.710568  0.500000  1
  Ir  Ir35  1  0.000000  0.000000  0.000000  1
