# generated using pymatgen
data_SrCeCu2BiSb3
_symmetry_space_group_name_H-M   'P 1'
_cell_length_a   4.46361700
_cell_length_b   4.47409500
_cell_length_c   10.24943100
_cell_angle_alpha   90.00000000
_cell_angle_beta   90.00000000
_cell_angle_gamma   90.00000000
_symmetry_Int_Tables_number   1
_chemical_formula_structural   SrCeCu2BiSb3
_chemical_formula_sum   'Sr1 Ce1 Cu2 Bi1 Sb3'
_cell_volume   204.68776334
_cell_formula_units_Z   1
loop_
 _symmetry_equiv_pos_site_id
 _symmetry_equiv_pos_as_xyz
  1  'x, y, z'
loop_
 _atom_site_type_symbol
 _atom_site_label
 _atom_site_symmetry_multiplicity
 _atom_site_fract_x
 _atom_site_fract_y
 _atom_site_fract_z
 _atom_site_occupancy
  Sr  Sr0  1  0.500000  0.000000  0.245392  1
  Ce  Ce1  1  0.000000  0.500000  0.768248  1
  Cu  Cu2  1  0.000000  0.000000  0.990905  1
  Cu  Cu3  1  0.500000  0.500000  0.990804  1
  Bi  Bi4  1  0.000000  0.000000  0.515751  1
  Sb  Sb5  1  0.500000  0.000000  0.837429  1
  Sb  Sb6  1  0.000000  0.500000  0.127636  1
  Sb  Sb7  1  0.500000  0.500000  0.523835  1
