# generated using pymatgen
data_Ho16CdIn(AgRh2)2
_symmetry_space_group_name_H-M   'P 1'
_cell_length_a   9.55901540
_cell_length_b   9.54999822
_cell_length_c   9.54068302
_cell_angle_alpha   59.97104984
_cell_angle_beta   59.93641908
_cell_angle_gamma   59.96876626
_symmetry_Int_Tables_number   1
_chemical_formula_structural   Ho16CdIn(AgRh2)2
_chemical_formula_sum   'Ho16 Cd1 In1 Ag2 Rh4'
_cell_volume   615.28213888
_cell_formula_units_Z   1
loop_
 _symmetry_equiv_pos_site_id
 _symmetry_equiv_pos_as_xyz
  1  'x, y, z'
loop_
 _atom_site_type_symbol
 _atom_site_label
 _atom_site_symmetry_multiplicity
 _atom_site_fract_x
 _atom_site_fract_y
 _atom_site_fract_z
 _atom_site_occupancy
  Ho  Ho0  1  0.935386  0.936637  0.567401  1
  Ho  Ho1  1  0.561127  0.565300  0.937785  1
  Ho  Ho2  1  0.689632  0.690417  0.310768  1
  Ho  Ho3  1  0.149018  0.552898  0.149065  1
  Ho  Ho4  1  0.688214  0.312727  0.688181  1
  Ho  Ho5  1  0.150247  0.149015  0.149777  1
  Ho  Ho6  1  0.550961  0.149015  0.149777  1
  Ho  Ho7  1  0.689854  0.309717  0.310574  1
  Ho  Ho8  1  0.149765  0.148662  0.551808  1
  Ho  Ho9  1  0.309183  0.690417  0.310768  1
  Ho  Ho10  1  0.311821  0.688630  0.687728  1
  Ho  Ho11  1  0.935277  0.563072  0.566375  1
  Ho  Ho12  1  0.935788  0.565300  0.937785  1
  Ho  Ho13  1  0.560576  0.936637  0.567401  1
  Ho  Ho14  1  0.562463  0.937124  0.937951  1
  Ho  Ho15  1  0.310879  0.312727  0.688181  1
  Cd  Cd16  1  0.920626  0.241330  0.917418  1
  In  In17  1  0.919525  0.918820  0.242129  1
  Ag  Ag18  1  0.249465  0.916540  0.916096  1
  Ag  Ag19  1  0.917899  0.916540  0.916096  1
  Rh  Rh20  1  0.357508  0.356886  0.928099  1
  Rh  Rh21  1  0.358054  0.927481  0.356411  1
  Rh  Rh22  1  0.927888  0.357053  0.356212  1
  Rh  Rh23  1  0.358846  0.357053  0.356212  1
