# generated using pymatgen
data_Tb4Y4Hf11Si16Mo
_symmetry_space_group_name_H-M   'P 1'
_cell_length_a   7.26063339
_cell_length_b   7.26012057
_cell_length_c   13.32602200
_cell_angle_alpha   89.94281739
_cell_angle_beta   90.05390848
_cell_angle_gamma   90.06028563
_symmetry_Int_Tables_number   1
_chemical_formula_structural   Tb4Y4Hf11Si16Mo
_chemical_formula_sum   'Tb4 Y4 Hf11 Si16 Mo1'
_cell_volume   702.45453310
_cell_formula_units_Z   1
loop_
 _symmetry_equiv_pos_site_id
 _symmetry_equiv_pos_as_xyz
  1  'x, y, z'
loop_
 _atom_site_type_symbol
 _atom_site_label
 _atom_site_symmetry_multiplicity
 _atom_site_fract_x
 _atom_site_fract_y
 _atom_site_fract_z
 _atom_site_occupancy
  Tb  Tb0  1  0.845539  0.501181  0.965735  1
  Tb  Tb1  1  0.495486  0.156743  0.534495  1
  Tb  Tb2  1  0.342893  0.998563  0.787379  1
  Tb  Tb3  1  0.656739  0.004074  0.283617  1
  Y  Y4  1  0.998589  0.342916  0.212621  1
  Y  Y5  1  0.004094  0.656718  0.716379  1
  Y  Y6  1  0.156710  0.495526  0.465511  1
  Y  Y7  1  0.501162  0.845562  0.034241  1
  Hf  Hf8  1  0.825623  0.825642  0.499987  1
  Hf  Hf9  1  0.324447  0.674291  0.249048  1
  Hf  Hf10  1  0.674297  0.324457  0.750951  1
  Hf  Hf11  1  0.148720  0.996885  0.373754  1
  Hf  Hf12  1  0.853179  0.005148  0.877360  1
  Hf  Hf13  1  0.504074  0.648732  0.624658  1
  Hf  Hf14  1  0.348967  0.493012  0.877227  1
  Hf  Hf15  1  0.492983  0.349023  0.122778  1
  Hf  Hf16  1  0.648740  0.504085  0.375373  1
  Hf  Hf17  1  0.996961  0.148661  0.626267  1
  Hf  Hf18  1  0.005139  0.853188  0.122650  1
  Si  Si19  1  0.362826  0.295135  0.316393  1
  Si  Si20  1  0.636311  0.704946  0.817422  1
  Si  Si21  1  0.205001  0.863102  0.567186  1
  Si  Si22  1  0.137325  0.796508  0.933195  1
  Si  Si23  1  0.796550  0.137300  0.066839  1
  Si  Si24  1  0.863114  0.205022  0.432836  1
  Si  Si25  1  0.295081  0.362865  0.683616  1
  Si  Si26  1  0.704928  0.636273  0.182536  1
  Si  Si27  1  0.294094  0.051139  0.182955  1
  Si  Si28  1  0.704315  0.951984  0.685851  1
  Si  Si29  1  0.450835  0.795538  0.435149  1
  Si  Si30  1  0.204287  0.547074  0.064217  1
  Si  Si31  1  0.547080  0.204244  0.935803  1
  Si  Si32  1  0.795584  0.450877  0.564832  1
  Si  Si33  1  0.051157  0.294122  0.817009  1
  Si  Si34  1  0.952009  0.704296  0.314135  1
  Mo  Mo35  1  0.175161  0.175167  0.999996  1
