# generated using pymatgen
data_Ta6Mn2Re3Si6W
_symmetry_space_group_name_H-M   'P 1'
_cell_length_a   7.57202406
_cell_length_b   7.57885427
_cell_length_c   7.56238776
_cell_angle_alpha   127.35805591
_cell_angle_beta   127.40367396
_cell_angle_gamma   77.62752802
_symmetry_Int_Tables_number   1
_chemical_formula_structural   Ta6Mn2Re3Si6W
_chemical_formula_sum   'Ta6 Mn2 Re3 Si6 W1'
_cell_volume   265.71541370
_cell_formula_units_Z   1
loop_
 _symmetry_equiv_pos_site_id
 _symmetry_equiv_pos_as_xyz
  1  'x, y, z'
loop_
 _atom_site_type_symbol
 _atom_site_label
 _atom_site_symmetry_multiplicity
 _atom_site_fract_x
 _atom_site_fract_y
 _atom_site_fract_z
 _atom_site_occupancy
  Ta  Ta0  1  0.547090  0.093173  0.043829  1
  Ta  Ta1  1  0.450411  0.498935  0.548280  1
  Ta  Ta2  1  0.950667  0.498849  0.048364  1
  Ta  Ta3  1  0.049381  0.093295  0.546138  1
  Ta  Ta4  1  0.752514  0.905708  0.655027  1
  Ta  Ta5  1  0.250572  0.905692  0.152989  1
  Mn  Mn6  1  0.500846  0.239523  0.738737  1
  Mn  Mn7  1  0.998494  0.238462  0.240363  1
  Re  Re8  1  0.872737  0.498994  0.625856  1
  Re  Re9  1  0.626735  0.752749  0.125955  1
  Re  Re10  1  0.373205  0.500020  0.127101  1
  Si  Si11  1  0.747192  0.474743  0.224349  1
  Si  Si12  1  0.250353  0.474790  0.727782  1
  Si  Si13  1  0.337381  0.838989  0.501574  1
  Si  Si14  1  0.665147  0.168023  0.502806  1
  Si  Si15  1  0.836082  0.838626  0.002526  1
  Si  Si16  1  0.164840  0.170173  0.005350  1
  W  W17  1  0.126353  0.751454  0.625172  1
