# generated using pymatgen
data_CaMnSb12Os2Pd
_symmetry_space_group_name_H-M   'P 1'
_cell_length_a   8.16423175
_cell_length_b   8.15361989
_cell_length_c   8.15888860
_cell_angle_alpha   109.49220769
_cell_angle_beta   109.57751350
_cell_angle_gamma   109.37782540
_symmetry_Int_Tables_number   1
_chemical_formula_structural   CaMnSb12Os2Pd
_chemical_formula_sum   'Ca1 Mn1 Sb12 Os2 Pd1'
_cell_volume   417.91903717
_cell_formula_units_Z   1
loop_
 _symmetry_equiv_pos_site_id
 _symmetry_equiv_pos_as_xyz
  1  'x, y, z'
loop_
 _atom_site_type_symbol
 _atom_site_label
 _atom_site_symmetry_multiplicity
 _atom_site_fract_x
 _atom_site_fract_y
 _atom_site_fract_z
 _atom_site_occupancy
  Ca  Ca0  1  0.000000  0.000000  0.000000  1
  Mn  Mn1  1  0.500000  0.500000  0.500000  1
  Sb  Sb2  1  0.837305  0.660045  0.503589  1
  Sb  Sb3  1  0.162695  0.339955  0.496411  1
  Sb  Sb4  1  0.150477  0.653721  0.811857  1
  Sb  Sb5  1  0.849523  0.346279  0.188143  1
  Sb  Sb6  1  0.660229  0.503966  0.838077  1
  Sb  Sb7  1  0.339771  0.496034  0.161923  1
  Sb  Sb8  1  0.660793  0.811644  0.157832  1
  Sb  Sb9  1  0.339207  0.188356  0.842168  1
  Sb  Sb10  1  0.503600  0.836693  0.651341  1
  Sb  Sb11  1  0.496400  0.163307  0.348659  1
  Sb  Sb12  1  0.180828  0.843207  0.338377  1
  Sb  Sb13  1  0.819172  0.156793  0.661623  1
  Os  Os14  1  0.000000  0.500000  0.000000  1
  Os  Os15  1  0.000000  0.000000  0.500000  1
  Pd  Pd16  1  0.500000  0.000000  0.000000  1
