# generated using pymatgen
data_Ho14Tm6CoBi8Ru3
_symmetry_space_group_name_H-M   'P 1'
_cell_length_a   7.92228263
_cell_length_b   8.95777639
_cell_length_c   12.37097540
_cell_angle_alpha   89.97735739
_cell_angle_beta   89.81737313
_cell_angle_gamma   90.02480034
_symmetry_Int_Tables_number   1
_chemical_formula_structural   Ho14Tm6CoBi8Ru3
_chemical_formula_sum   'Ho14 Tm6 Co1 Bi8 Ru3'
_cell_volume   877.91447864
_cell_formula_units_Z   1
loop_
 _symmetry_equiv_pos_site_id
 _symmetry_equiv_pos_as_xyz
  1  'x, y, z'
loop_
 _atom_site_type_symbol
 _atom_site_label
 _atom_site_symmetry_multiplicity
 _atom_site_fract_x
 _atom_site_fract_y
 _atom_site_fract_z
 _atom_site_occupancy
  Ho  Ho0  1  0.345402  0.749878  0.701209  1
  Ho  Ho1  1  0.656382  0.250110  0.293624  1
  Ho  Ho2  1  0.843440  0.250171  0.792306  1
  Ho  Ho3  1  0.155302  0.749823  0.205990  1
  Ho  Ho4  1  0.879808  0.749621  0.806857  1
  Ho  Ho5  1  0.119679  0.250379  0.192526  1
  Ho  Ho6  1  0.379822  0.250109  0.691536  1
  Ho  Ho7  1  0.615901  0.749910  0.312911  1
  Ho  Ho8  1  0.823537  0.957231  0.064611  1
  Ho  Ho9  1  0.175984  0.042104  0.935599  1
  Ho  Ho10  1  0.055001  0.749947  0.496909  1
  Ho  Ho11  1  0.946977  0.250034  0.503336  1
  Ho  Ho12  1  0.554714  0.250427  0.003475  1
  Ho  Ho13  1  0.445562  0.749572  0.995852  1
  Tm  Tm14  1  0.674250  0.543774  0.563591  1
  Tm  Tm15  1  0.326457  0.461895  0.437218  1
  Tm  Tm16  1  0.174431  0.457827  0.935897  1
  Tm  Tm17  1  0.326448  0.038154  0.437257  1
  Tm  Tm18  1  0.825118  0.542925  0.064297  1
  Tm  Tm19  1  0.674261  0.956107  0.563543  1
  Co  Co20  1  0.430044  0.750033  0.491350  1
  Bi  Bi21  1  0.570498  0.508455  0.826975  1
  Bi  Bi22  1  0.429166  0.492280  0.173058  1
  Bi  Bi23  1  0.071479  0.491882  0.672161  1
  Bi  Bi24  1  0.428701  0.007790  0.173120  1
  Bi  Bi25  1  0.929144  0.508664  0.328251  1
  Bi  Bi26  1  0.570930  0.991480  0.826877  1
  Bi  Bi27  1  0.929245  0.991330  0.328309  1
  Bi  Bi28  1  0.071404  0.008120  0.672088  1
  Ru  Ru29  1  0.073301  0.749055  0.989296  1
  Ru  Ru30  1  0.925870  0.250973  0.010283  1
  Ru  Ru31  1  0.571741  0.249944  0.509688  1
