# generated using pymatgen
data_YErTm4(Co3P2)6
_symmetry_space_group_name_H-M   'P 1'
_cell_length_a   3.67641200
_cell_length_b   10.47880200
_cell_length_c   12.12150300
_cell_angle_alpha   90.00000000
_cell_angle_beta   90.00000000
_cell_angle_gamma   90.00000000
_symmetry_Int_Tables_number   1
_chemical_formula_structural   YErTm4(Co3P2)6
_chemical_formula_sum   'Y1 Er1 Tm4 Co18 P12'
_cell_volume   466.97355039
_cell_formula_units_Z   1
loop_
 _symmetry_equiv_pos_site_id
 _symmetry_equiv_pos_as_xyz
  1  'x, y, z'
loop_
 _atom_site_type_symbol
 _atom_site_label
 _atom_site_symmetry_multiplicity
 _atom_site_fract_x
 _atom_site_fract_y
 _atom_site_fract_z
 _atom_site_occupancy
  Y  Y0  1  0.750000  0.250000  0.477673  1
  Er  Er1  1  0.250000  0.750000  0.522244  1
  Tm  Tm2  1  0.250000  0.932398  0.794069  1
  Tm  Tm3  1  0.250000  0.567602  0.794069  1
  Tm  Tm4  1  0.750000  0.067567  0.205900  1
  Tm  Tm5  1  0.750000  0.432433  0.205900  1
  Co  Co6  1  0.250000  0.250000  0.841150  1
  Co  Co7  1  0.750000  0.750000  0.158865  1
  Co  Co8  1  0.250000  0.250000  0.296302  1
  Co  Co9  1  0.750000  0.750000  0.703053  1
  Co  Co10  1  0.750000  0.250000  0.014459  1
  Co  Co11  1  0.250000  0.750000  0.985570  1
  Co  Co12  1  0.250000  0.416765  0.005827  1
  Co  Co13  1  0.250000  0.083235  0.005827  1
  Co  Co14  1  0.750000  0.583278  0.994192  1
  Co  Co15  1  0.750000  0.916722  0.994192  1
  Co  Co16  1  0.250000  0.453095  0.569603  1
  Co  Co17  1  0.250000  0.046905  0.569603  1
  Co  Co18  1  0.750000  0.547504  0.430534  1
  Co  Co19  1  0.750000  0.952496  0.430534  1
  Co  Co20  1  0.250000  0.871435  0.290274  1
  Co  Co21  1  0.250000  0.628565  0.290274  1
  Co  Co22  1  0.750000  0.128451  0.709893  1
  Co  Co23  1  0.750000  0.371549  0.709893  1
  P  P24  1  0.250000  0.250000  0.118432  1
  P  P25  1  0.750000  0.750000  0.881546  1
  P  P26  1  0.250000  0.250000  0.656178  1
  P  P27  1  0.750000  0.750000  0.344452  1
  P  P28  1  0.250000  0.438970  0.383180  1
  P  P29  1  0.250000  0.061030  0.383180  1
  P  P30  1  0.750000  0.561505  0.616572  1
  P  P31  1  0.750000  0.938495  0.616572  1
  P  P32  1  0.250000  0.902973  0.107394  1
  P  P33  1  0.250000  0.597027  0.107394  1
  P  P34  1  0.750000  0.097025  0.892601  1
  P  P35  1  0.750000  0.402975  0.892601  1
