# generated using pymatgen
data_Sr4ScAl2VO10
_symmetry_space_group_name_H-M   'P 1'
_cell_length_a   5.63131759
_cell_length_b   5.88104100
_cell_length_c   8.55561613
_cell_angle_alpha   109.95062816
_cell_angle_beta   109.21417518
_cell_angle_gamma   90.00001016
_symmetry_Int_Tables_number   1
_chemical_formula_structural   Sr4ScAl2VO10
_chemical_formula_sum   'Sr4 Sc1 Al2 V1 O10'
_cell_volume   249.48336360
_cell_formula_units_Z   1
loop_
 _symmetry_equiv_pos_site_id
 _symmetry_equiv_pos_as_xyz
  1  'x, y, z'
loop_
 _atom_site_type_symbol
 _atom_site_label
 _atom_site_symmetry_multiplicity
 _atom_site_fract_x
 _atom_site_fract_y
 _atom_site_fract_z
 _atom_site_occupancy
  Sr  Sr0  1  0.118894  0.638476  0.227573  1
  Sr  Sr1  1  0.391756  0.907175  0.772980  1
  Sr  Sr2  1  0.891320  0.361524  0.772427  1
  Sr  Sr3  1  0.618776  0.092825  0.227020  1
  Sc  Sc4  1  0.500696  0.500000  0.000000  1
  Al  Al5  1  0.280559  0.327059  0.498842  1
  Al  Al6  1  0.781718  0.672941  0.501158  1
  V  V7  1  0.000692  0.000000  0.000000  1
  O  O8  1  0.585491  0.428663  0.500263  1
  O  O9  1  0.085229  0.571337  0.499737  1
  O  O10  1  0.636192  0.708638  0.295125  1
  O  O11  1  0.341068  0.291362  0.704876  1
  O  O12  1  0.135639  0.084708  0.294610  1
  O  O13  1  0.841028  0.915292  0.705390  1
  O  O14  1  0.238965  0.746038  0.978944  1
  O  O15  1  0.260021  0.253962  0.021056  1
  O  O16  1  0.766551  0.258297  0.020948  1
  O  O17  1  0.745604  0.741703  0.979052  1
