# generated using pymatgen
data_BaInCuAu5
_symmetry_space_group_name_H-M   'P 1'
_cell_length_a   7.40287500
_cell_length_b   9.20576000
_cell_length_c   10.46908400
_cell_angle_alpha   90.00000000
_cell_angle_beta   90.00000000
_cell_angle_gamma   90.00000000
_symmetry_Int_Tables_number   1
_chemical_formula_structural   BaInCuAu5
_chemical_formula_sum   'Ba4 In4 Cu4 Au20'
_cell_volume   713.45855360
_cell_formula_units_Z   4
loop_
 _symmetry_equiv_pos_site_id
 _symmetry_equiv_pos_as_xyz
  1  'x, y, z'
loop_
 _atom_site_type_symbol
 _atom_site_label
 _atom_site_symmetry_multiplicity
 _atom_site_fract_x
 _atom_site_fract_y
 _atom_site_fract_z
 _atom_site_occupancy
  Ba  Ba0  1  0.250000  0.242869  0.113761  1
  Ba  Ba1  1  0.250000  0.742869  0.386239  1
  Ba  Ba2  1  0.750000  0.757131  0.886239  1
  Ba  Ba3  1  0.750000  0.257131  0.613761  1
  In  In4  1  0.250000  0.349806  0.481278  1
  In  In5  1  0.250000  0.849806  0.018722  1
  In  In6  1  0.750000  0.650194  0.518722  1
  In  In7  1  0.750000  0.150194  0.981278  1
  Cu  Cu8  1  0.250000  0.074636  0.612342  1
  Cu  Cu9  1  0.250000  0.574636  0.887658  1
  Cu  Cu10  1  0.750000  0.925364  0.387658  1
  Cu  Cu11  1  0.750000  0.425364  0.112342  1
  Au  Au12  1  0.056687  0.089852  0.394022  1
  Au  Au13  1  0.443313  0.589852  0.105978  1
  Au  Au14  1  0.556687  0.910148  0.605978  1
  Au  Au15  1  0.943313  0.410148  0.894022  1
  Au  Au16  1  0.943313  0.910148  0.605978  1
  Au  Au17  1  0.556687  0.410148  0.894022  1
  Au  Au18  1  0.443313  0.089852  0.394022  1
  Au  Au19  1  0.056687  0.589852  0.105978  1
  Au  Au20  1  0.043845  0.072937  0.833983  1
  Au  Au21  1  0.456155  0.572937  0.666017  1
  Au  Au22  1  0.543845  0.927063  0.166017  1
  Au  Au23  1  0.956155  0.427063  0.333983  1
  Au  Au24  1  0.956155  0.927063  0.166017  1
  Au  Au25  1  0.543845  0.427063  0.333983  1
  Au  Au26  1  0.456155  0.072937  0.833983  1
  Au  Au27  1  0.043845  0.572937  0.666017  1
  Au  Au28  1  0.250000  0.320588  0.747349  1
  Au  Au29  1  0.250000  0.820588  0.752651  1
  Au  Au30  1  0.750000  0.679412  0.252651  1
  Au  Au31  1  0.750000  0.179412  0.247349  1
