# generated using pymatgen
data_Ho7Lu(SiPd)8
_symmetry_space_group_name_H-M   'P 1'
_cell_length_a   4.32663300
_cell_length_b   7.48920300
_cell_length_c   13.87180400
_cell_angle_alpha   89.99934206
_cell_angle_beta   90.00000000
_cell_angle_gamma   90.00000000
_symmetry_Int_Tables_number   1
_chemical_formula_structural   Ho7Lu(SiPd)8
_chemical_formula_sum   'Ho7 Lu1 Si8 Pd8'
_cell_volume   449.48852061
_cell_formula_units_Z   1
loop_
 _symmetry_equiv_pos_site_id
 _symmetry_equiv_pos_as_xyz
  1  'x, y, z'
loop_
 _atom_site_type_symbol
 _atom_site_label
 _atom_site_symmetry_multiplicity
 _atom_site_fract_x
 _atom_site_fract_y
 _atom_site_fract_z
 _atom_site_occupancy
  Ho  Ho0  1  0.999993  0.299071  0.999624  1
  Ho  Ho1  1  0.499998  0.701301  0.500521  1
  Ho  Ho2  1  0.000015  0.290282  0.500147  1
  Ho  Ho3  1  0.499981  0.710103  0.999638  1
  Ho  Ho4  1  0.000008  0.210275  0.249083  1
  Ho  Ho5  1  0.499998  0.789632  0.250932  1
  Ho  Ho6  1  0.000008  0.209266  0.750901  1
  Lu  Lu7  1  0.500003  0.787832  0.749064  1
  Si  Si8  1  0.999983  0.908798  0.594732  1
  Si  Si9  1  0.500012  0.090756  0.905500  1
  Si  Si10  1  0.999988  0.908911  0.406661  1
  Si  Si11  1  0.500012  0.090981  0.093509  1
  Si  Si12  1  0.999994  0.591229  0.143807  1
  Si  Si13  1  0.500006  0.408838  0.356220  1
  Si  Si14  1  0.999994  0.592571  0.855540  1
  Si  Si15  1  0.500008  0.408907  0.643865  1
  Pd  Pd16  1  0.499978  0.074846  0.609323  1
  Pd  Pd17  1  0.000017  0.923087  0.890518  1
  Pd  Pd18  1  0.499982  0.076365  0.391562  1
  Pd  Pd19  1  0.000021  0.923815  0.108480  1
  Pd  Pd20  1  0.500008  0.420422  0.156617  1
  Pd  Pd21  1  0.999993  0.579619  0.343390  1
  Pd  Pd22  1  0.499990  0.421717  0.843124  1
  Pd  Pd23  1  0.000011  0.581372  0.657242  1
