# generated using pymatgen
data_Y7ErGaPd24
_symmetry_space_group_name_H-M   'P 1'
_cell_length_a   8.36898904
_cell_length_b   8.36898904
_cell_length_c   8.36898904
_cell_angle_alpha   89.99168841
_cell_angle_beta   89.99168841
_cell_angle_gamma   89.99168841
_symmetry_Int_Tables_number   1
_chemical_formula_structural   Y7ErGaPd24
_chemical_formula_sum   'Y7 Er1 Ga1 Pd24'
_cell_volume   586.16378684
_cell_formula_units_Z   1
loop_
 _symmetry_equiv_pos_site_id
 _symmetry_equiv_pos_as_xyz
  1  'x, y, z'
loop_
 _atom_site_type_symbol
 _atom_site_label
 _atom_site_symmetry_multiplicity
 _atom_site_fract_x
 _atom_site_fract_y
 _atom_site_fract_z
 _atom_site_occupancy
  Y  Y0  1  0.251343  0.251343  0.748673  1
  Y  Y1  1  0.251343  0.748673  0.251343  1
  Y  Y2  1  0.748673  0.251343  0.251343  1
  Y  Y3  1  0.748667  0.748667  0.748667  1
  Y  Y4  1  0.748641  0.748641  0.251339  1
  Y  Y5  1  0.748641  0.251339  0.748641  1
  Y  Y6  1  0.251339  0.748641  0.748641  1
  Er  Er7  1  0.251426  0.251426  0.251426  1
  Ga  Ga8  1  0.000040  0.000040  0.000040  1
  Pd  Pd9  1  0.499985  0.499985  0.746996  1
  Pd  Pd10  1  0.499456  0.253011  0.499456  1
  Pd  Pd11  1  0.253011  0.499456  0.499456  1
  Pd  Pd12  1  0.499456  0.499456  0.253011  1
  Pd  Pd13  1  0.499985  0.746996  0.499985  1
  Pd  Pd14  1  0.746996  0.499985  0.499985  1
  Pd  Pd15  1  0.999998  0.999998  0.708057  1
  Pd  Pd16  1  0.000477  0.291875  0.000477  1
  Pd  Pd17  1  0.291875  0.000477  0.000477  1
  Pd  Pd18  1  0.000477  0.000477  0.291875  1
  Pd  Pd19  1  0.999998  0.708057  0.999998  1
  Pd  Pd20  1  0.708057  0.999998  0.999998  1
  Pd  Pd21  1  0.000000  0.499998  0.739730  1
  Pd  Pd22  1  0.499483  0.260306  0.000542  1
  Pd  Pd23  1  0.260306  0.000542  0.499483  1
  Pd  Pd24  1  0.000542  0.260306  0.499483  1
  Pd  Pd25  1  0.499998  0.000000  0.739730  1
  Pd  Pd26  1  0.260306  0.499483  0.000542  1
  Pd  Pd27  1  0.000542  0.499483  0.260306  1
  Pd  Pd28  1  0.499998  0.739730  0.000000  1
  Pd  Pd29  1  0.000000  0.739730  0.499998  1
  Pd  Pd30  1  0.499483  0.000542  0.260306  1
  Pd  Pd31  1  0.739730  0.000000  0.499998  1
  Pd  Pd32  1  0.739730  0.499998  0.000000  1
