# generated using pymatgen
data_YEr2ThNi4
_symmetry_space_group_name_H-M   'P 1'
_cell_length_a   4.35585200
_cell_length_b   5.37343491
_cell_length_c   6.94060030
_cell_angle_alpha   91.08761828
_cell_angle_beta   90.00000000
_cell_angle_gamma   90.00000000
_symmetry_Int_Tables_number   1
_chemical_formula_structural   YEr2ThNi4
_chemical_formula_sum   'Y1 Er2 Th1 Ni4'
_cell_volume   162.42164009
_cell_formula_units_Z   1
loop_
 _symmetry_equiv_pos_site_id
 _symmetry_equiv_pos_as_xyz
  1  'x, y, z'
loop_
 _atom_site_type_symbol
 _atom_site_label
 _atom_site_symmetry_multiplicity
 _atom_site_fract_x
 _atom_site_fract_y
 _atom_site_fract_z
 _atom_site_occupancy
  Y  Y0  1  0.500000  0.615910  0.816259  1
  Er  Er1  1  0.000000  0.111835  0.685143  1
  Er  Er2  1  0.000000  0.884342  0.179234  1
  Th  Th3  1  0.500000  0.383603  0.320991  1
  Ni  Ni4  1  0.000000  0.616844  0.532327  1
  Ni  Ni5  1  0.000000  0.377811  0.041310  1
  Ni  Ni6  1  0.500000  0.887676  0.456458  1
  Ni  Ni7  1  0.500000  0.121979  0.968280  1
