# generated using pymatgen
data_Tb7Dy10Er3Pb16
_symmetry_space_group_name_H-M   'P 1'
_cell_length_a   8.22453737
_cell_length_b   8.30499837
_cell_length_c   15.67668857
_cell_angle_alpha   90.01229454
_cell_angle_beta   90.02832005
_cell_angle_gamma   90.00616175
_symmetry_Int_Tables_number   1
_chemical_formula_structural   Tb7Dy10Er3Pb16
_chemical_formula_sum   'Tb7 Dy10 Er3 Pb16'
_cell_volume   1070.79243628
_cell_formula_units_Z   1
loop_
 _symmetry_equiv_pos_site_id
 _symmetry_equiv_pos_as_xyz
  1  'x, y, z'
loop_
 _atom_site_type_symbol
 _atom_site_label
 _atom_site_symmetry_multiplicity
 _atom_site_fract_x
 _atom_site_fract_y
 _atom_site_fract_z
 _atom_site_occupancy
  Tb  Tb0  1  0.034729  0.176344  0.599995  1
  Tb  Tb1  1  0.465123  0.676552  0.399893  1
  Tb  Tb2  1  0.965075  0.823518  0.099970  1
  Tb  Tb3  1  0.465064  0.676507  0.100062  1
  Tb  Tb4  1  0.965117  0.823462  0.400031  1
  Tb  Tb5  1  0.534970  0.323305  0.599920  1
  Tb  Tb6  1  0.034766  0.176363  0.900050  1
  Dy  Dy7  1  0.377507  0.841178  0.879268  1
  Dy  Dy8  1  0.877063  0.659055  0.620727  1
  Dy  Dy9  1  0.622769  0.158852  0.379188  1
  Dy  Dy10  1  0.122645  0.341024  0.120967  1
  Dy  Dy11  1  0.622687  0.158945  0.120700  1
  Dy  Dy12  1  0.122730  0.341093  0.379019  1
  Dy  Dy13  1  0.377455  0.841132  0.620777  1
  Dy  Dy14  1  0.877018  0.658951  0.879290  1
  Dy  Dy15  1  0.535177  0.323404  0.899931  1
  Dy  Dy16  1  0.209162  0.504130  0.750114  1
  Er  Er17  1  0.709030  0.995616  0.749980  1
  Er  Er18  1  0.790776  0.495592  0.250015  1
  Er  Er19  1  0.290910  0.004268  0.250018  1
  Pb  Pb20  1  0.281467  0.033640  0.043221  1
  Pb  Pb21  1  0.781603  0.466532  0.456774  1
  Pb  Pb22  1  0.718379  0.966431  0.543100  1
  Pb  Pb23  1  0.218944  0.533467  0.957195  1
  Pb  Pb24  1  0.718182  0.966750  0.956875  1
  Pb  Pb25  1  0.218504  0.533827  0.542739  1
  Pb  Pb26  1  0.281550  0.033675  0.456824  1
  Pb  Pb27  1  0.781263  0.466202  0.042985  1
  Pb  Pb28  1  0.573281  0.626537  0.750011  1
  Pb  Pb29  1  0.072547  0.874125  0.750030  1
  Pb  Pb30  1  0.427372  0.373574  0.249985  1
  Pb  Pb31  1  0.927322  0.126323  0.250016  1
  Pb  Pb32  1  0.347117  0.152504  0.750276  1
  Pb  Pb33  1  0.846009  0.346753  0.750069  1
  Pb  Pb34  1  0.653437  0.847053  0.249987  1
  Pb  Pb35  1  0.153250  0.653313  0.249998  1
