# generated using pymatgen
data_La6UO11F
_symmetry_space_group_name_H-M   'P 1'
_cell_length_a   6.94913091
_cell_length_b   6.92035891
_cell_length_c   6.95863765
_cell_angle_alpha   99.04487349
_cell_angle_beta   99.00279458
_cell_angle_gamma   98.81918001
_symmetry_Int_Tables_number   1
_chemical_formula_structural   La6UO11F
_chemical_formula_sum   'La6 U1 O11 F1'
_cell_volume   320.93577534
_cell_formula_units_Z   1
loop_
 _symmetry_equiv_pos_site_id
 _symmetry_equiv_pos_as_xyz
  1  'x, y, z'
loop_
 _atom_site_type_symbol
 _atom_site_label
 _atom_site_symmetry_multiplicity
 _atom_site_fract_x
 _atom_site_fract_y
 _atom_site_fract_z
 _atom_site_occupancy
  La  La0  1  0.306627  0.605620  0.145226  1
  La  La1  1  0.613417  0.136103  0.287090  1
  La  La2  1  0.392788  0.844529  0.697019  1
  La  La3  1  0.705223  0.403497  0.869726  1
  La  La4  1  0.857298  0.696660  0.396813  1
  La  La5  1  0.126044  0.309215  0.606636  1
  U  U6  1  0.002422  0.000708  0.998336  1
  O  O7  1  0.930456  0.698153  0.049810  1
  O  O8  1  0.175059  0.588686  0.438888  1
  O  O9  1  0.817507  0.404724  0.564741  1
  O  O10  1  0.562037  0.828758  0.412930  1
  O  O11  1  0.593002  0.437720  0.178277  1
  O  O12  1  0.408608  0.557605  0.820088  1
  O  O13  1  0.953436  0.071668  0.300861  1
  O  O14  1  0.053769  0.931609  0.697606  1
  O  O15  1  0.696567  0.052171  0.931242  1
  O  O16  1  0.067205  0.304510  0.949607  1
  O  O17  1  0.303845  0.949800  0.069344  1
  F  F18  1  0.434689  0.178265  0.585761  1
