# generated using pymatgen
data_Yb7PrCd(Si4Pd)3
_symmetry_space_group_name_H-M   'P 1'
_cell_length_a   8.29488700
_cell_length_b   8.29488873
_cell_length_c   8.40047700
_cell_angle_alpha   90.00000000
_cell_angle_beta   90.00000000
_cell_angle_gamma   120.00000505
_symmetry_Int_Tables_number   1
_chemical_formula_structural   Yb7PrCd(Si4Pd)3
_chemical_formula_sum   'Yb7 Pr1 Cd1 Si12 Pd3'
_cell_volume   500.55937030
_cell_formula_units_Z   1
loop_
 _symmetry_equiv_pos_site_id
 _symmetry_equiv_pos_as_xyz
  1  'x, y, z'
loop_
 _atom_site_type_symbol
 _atom_site_label
 _atom_site_symmetry_multiplicity
 _atom_site_fract_x
 _atom_site_fract_y
 _atom_site_fract_z
 _atom_site_occupancy
  Yb  Yb0  1  0.495069  0.504931  0.740893  1
  Yb  Yb1  1  0.496758  0.503242  0.258655  1
  Yb  Yb2  1  0.009862  0.504931  0.740893  1
  Yb  Yb3  1  0.006484  0.503242  0.258655  1
  Yb  Yb4  1  0.495069  0.990138  0.740893  1
  Yb  Yb5  1  0.496758  0.993516  0.258655  1
  Yb  Yb6  1  0.000000  0.000000  0.746458  1
  Pr  Pr7  1  0.000000  0.000000  0.253946  1
  Cd  Cd8  1  0.666667  0.333333  0.995086  1
  Si  Si9  1  0.843226  0.156774  0.999264  1
  Si  Si10  1  0.167404  0.832596  0.998672  1
  Si  Si11  1  0.313547  0.156774  0.999264  1
  Si  Si12  1  0.163785  0.836215  0.501489  1
  Si  Si13  1  0.665190  0.832596  0.998672  1
  Si  Si14  1  0.834585  0.165415  0.500941  1
  Si  Si15  1  0.843226  0.686453  0.999264  1
  Si  Si16  1  0.672430  0.836215  0.501489  1
  Si  Si17  1  0.167404  0.334810  0.998672  1
  Si  Si18  1  0.330829  0.165415  0.500941  1
  Si  Si19  1  0.163785  0.327570  0.501489  1
  Si  Si20  1  0.834585  0.669171  0.500941  1
  Pd  Pd21  1  0.333333  0.666667  0.001091  1
  Pd  Pd22  1  0.333333  0.666667  0.498948  1
  Pd  Pd23  1  0.666667  0.333333  0.504734  1
