# generated using pymatgen
data_Cd3Hg(Sb2O7)2
_symmetry_space_group_name_H-M   'P 1'
_cell_length_a   7.44474673
_cell_length_b   7.44474627
_cell_length_c   7.35930743
_cell_angle_alpha   59.61520986
_cell_angle_beta   59.61521200
_cell_angle_gamma   60.00000267
_symmetry_Int_Tables_number   1
_chemical_formula_structural   Cd3Hg(Sb2O7)2
_chemical_formula_sum   'Cd3 Hg1 Sb4 O14'
_cell_volume   286.72875767
_cell_formula_units_Z   1
loop_
 _symmetry_equiv_pos_site_id
 _symmetry_equiv_pos_as_xyz
  1  'x, y, z'
loop_
 _atom_site_type_symbol
 _atom_site_label
 _atom_site_symmetry_multiplicity
 _atom_site_fract_x
 _atom_site_fract_y
 _atom_site_fract_z
 _atom_site_occupancy
  Cd  Cd0  1  0.625000  0.625000  0.625000  1
  Cd  Cd1  1  0.625000  0.125000  0.625000  1
  Cd  Cd2  1  0.125000  0.625000  0.625000  1
  Hg  Hg3  1  0.625000  0.625000  0.125000  1
  Sb  Sb4  1  0.125000  0.625000  0.125000  1
  Sb  Sb5  1  0.125000  0.125000  0.125000  1
  Sb  Sb6  1  0.125000  0.125000  0.625000  1
  Sb  Sb7  1  0.625000  0.125000  0.125000  1
  O  O8  1  0.803258  0.803258  0.203146  1
  O  O9  1  0.801871  0.199441  0.799247  1
  O  O10  1  0.050559  0.050559  0.450753  1
  O  O11  1  0.803258  0.190338  0.203146  1
  O  O12  1  0.446742  0.446742  0.046854  1
  O  O13  1  0.059662  0.446742  0.046854  1
  O  O14  1  0.199441  0.801871  0.799247  1
  O  O15  1  0.448129  0.050559  0.450753  1
  O  O16  1  0.500615  0.500615  0.498155  1
  O  O17  1  0.190338  0.803258  0.203146  1
  O  O18  1  0.199441  0.199441  0.799247  1
  O  O19  1  0.749385  0.749385  0.751845  1
  O  O20  1  0.446742  0.059662  0.046854  1
  O  O21  1  0.050559  0.448129  0.450753  1
