# generated using pymatgen
data_Tm12Co3Cu2Sn
_symmetry_space_group_name_H-M   'P 1'
_cell_length_a   8.23227748
_cell_length_b   8.23227689
_cell_length_c   8.23227693
_cell_angle_alpha   109.64610649
_cell_angle_beta   111.64243029
_cell_angle_gamma   107.15618469
_symmetry_Int_Tables_number   1
_chemical_formula_structural   Tm12Co3Cu2Sn
_chemical_formula_sum   'Tm12 Co3 Cu2 Sn1'
_cell_volume   428.81599006
_cell_formula_units_Z   1
loop_
 _symmetry_equiv_pos_site_id
 _symmetry_equiv_pos_as_xyz
  1  'x, y, z'
loop_
 _atom_site_type_symbol
 _atom_site_label
 _atom_site_symmetry_multiplicity
 _atom_site_fract_x
 _atom_site_fract_y
 _atom_site_fract_z
 _atom_site_occupancy
  Tm  Tm0  1  0.290512  0.179607  0.470119  1
  Tm  Tm1  1  0.714478  0.815806  0.530284  1
  Tm  Tm2  1  0.285522  0.815806  0.101329  1
  Tm  Tm3  1  0.709488  0.179607  0.889096  1
  Tm  Tm4  1  0.624189  0.321078  0.311604  1
  Tm  Tm5  1  0.375811  0.687413  0.696887  1
  Tm  Tm6  1  0.009474  0.321078  0.696887  1
  Tm  Tm7  1  0.990526  0.687413  0.311604  1
  Tm  Tm8  1  0.226075  0.421665  0.195592  1
  Tm  Tm9  1  0.780898  0.584784  0.803884  1
  Tm  Tm10  1  0.219102  0.022986  0.803884  1
  Tm  Tm11  1  0.773925  0.969517  0.195592  1
  Co  Co12  1  0.000000  0.638718  0.638718  1
  Co  Co13  1  0.384714  0.881213  0.496499  1
  Co  Co14  1  0.615286  0.111785  0.496499  1
  Cu  Cu15  1  0.000000  0.362841  0.362841  1
  Cu  Cu16  1  0.000000  0.001236  0.001236  1
  Sn  Sn17  1  0.500000  0.497446  0.997446  1
