# generated using pymatgen
data_Y2MgSi2(PPd5)4
_symmetry_space_group_name_H-M   'P 1'
_cell_length_a   8.66367242
_cell_length_b   8.65874645
_cell_length_c   8.65871405
_cell_angle_alpha   60.03773573
_cell_angle_beta   59.98138106
_cell_angle_gamma   59.98120399
_symmetry_Int_Tables_number   1
_chemical_formula_structural   Y2MgSi2(PPd5)4
_chemical_formula_sum   'Y2 Mg1 Si2 P4 Pd20'
_cell_volume   459.29975851
_cell_formula_units_Z   1
loop_
 _symmetry_equiv_pos_site_id
 _symmetry_equiv_pos_as_xyz
  1  'x, y, z'
loop_
 _atom_site_type_symbol
 _atom_site_label
 _atom_site_symmetry_multiplicity
 _atom_site_fract_x
 _atom_site_fract_y
 _atom_site_fract_z
 _atom_site_occupancy
  Y  Y0  1  0.250002  0.250003  0.249997  1
  Y  Y1  1  0.749998  0.749997  0.750003  1
  Mg  Mg2  1  0.000000  0.000000  0.000000  1
  Si  Si3  1  0.736632  0.263368  0.263370  1
  Si  Si4  1  0.263368  0.736632  0.736630  1
  P  P5  1  0.263546  0.736454  0.263547  1
  P  P6  1  0.736454  0.263546  0.736453  1
  P  P7  1  0.263552  0.263552  0.736448  1
  P  P8  1  0.736448  0.736448  0.263552  1
  Pd  Pd9  1  0.383821  0.385294  0.385295  1
  Pd  Pd10  1  0.616179  0.614706  0.614705  1
  Pd  Pd11  1  0.385293  0.383821  0.845591  1
  Pd  Pd12  1  0.385293  0.845596  0.383819  1
  Pd  Pd13  1  0.614707  0.616179  0.154409  1
  Pd  Pd14  1  0.614707  0.154404  0.616181  1
  Pd  Pd15  1  0.845597  0.385293  0.385292  1
  Pd  Pd16  1  0.154403  0.614707  0.614708  1
  Pd  Pd17  1  0.343141  0.999997  0.000002  1
  Pd  Pd18  1  0.656859  0.000003  0.999998  1
  Pd  Pd19  1  0.999996  0.343143  0.656860  1
  Pd  Pd20  1  0.000004  0.656857  0.343140  1
  Pd  Pd21  1  0.001930  0.344879  0.998068  1
  Pd  Pd22  1  0.655122  0.998069  0.344878  1
  Pd  Pd23  1  0.998070  0.655121  0.001932  1
  Pd  Pd24  1  0.344878  0.001931  0.655122  1
  Pd  Pd25  1  0.001931  0.998069  0.344881  1
  Pd  Pd26  1  0.998069  0.001931  0.655119  1
  Pd  Pd27  1  0.655119  0.344883  0.998069  1
  Pd  Pd28  1  0.344881  0.655117  0.001931  1
