# generated using pymatgen
data_HfVFe4P3
_symmetry_space_group_name_H-M   'P 1'
_cell_length_a   3.60535500
_cell_length_b   10.21467500
_cell_length_c   11.73275000
_cell_angle_alpha   90.00000000
_cell_angle_beta   90.00000000
_cell_angle_gamma   90.00000000
_symmetry_Int_Tables_number   1
_chemical_formula_structural   HfVFe4P3
_chemical_formula_sum   'Hf4 V4 Fe16 P12'
_cell_volume   432.08819773
_cell_formula_units_Z   4
loop_
 _symmetry_equiv_pos_site_id
 _symmetry_equiv_pos_as_xyz
  1  'x, y, z'
loop_
 _atom_site_type_symbol
 _atom_site_label
 _atom_site_symmetry_multiplicity
 _atom_site_fract_x
 _atom_site_fract_y
 _atom_site_fract_z
 _atom_site_occupancy
  Hf  Hf0  1  0.250000  0.578752  0.705465  1
  Hf  Hf1  1  0.250000  0.921248  0.205465  1
  Hf  Hf2  1  0.750000  0.421248  0.294535  1
  Hf  Hf3  1  0.750000  0.078752  0.794535  1
  V  V4  1  0.250000  0.700556  0.990555  1
  V  V5  1  0.250000  0.799444  0.490555  1
  V  V6  1  0.750000  0.299444  0.009445  1
  V  V7  1  0.750000  0.200556  0.509445  1
  Fe  Fe8  1  0.250000  0.406641  0.487474  1
  Fe  Fe9  1  0.250000  0.093359  0.987474  1
  Fe  Fe10  1  0.750000  0.593359  0.512526  1
  Fe  Fe11  1  0.750000  0.906641  0.012526  1
  Fe  Fe12  1  0.250000  0.219986  0.176194  1
  Fe  Fe13  1  0.250000  0.280014  0.676194  1
  Fe  Fe14  1  0.750000  0.780014  0.823806  1
  Fe  Fe15  1  0.750000  0.719986  0.323806  1
  Fe  Fe16  1  0.250000  0.876951  0.702111  1
  Fe  Fe17  1  0.250000  0.623049  0.202111  1
  Fe  Fe18  1  0.750000  0.123049  0.297889  1
  Fe  Fe19  1  0.750000  0.376951  0.797889  1
  Fe  Fe20  1  0.250000  0.463014  0.931181  1
  Fe  Fe21  1  0.250000  0.036986  0.431181  1
  Fe  Fe22  1  0.750000  0.536986  0.068819  1
  Fe  Fe23  1  0.750000  0.963014  0.568819  1
  P  P24  1  0.250000  0.424075  0.116933  1
  P  P25  1  0.250000  0.075925  0.616933  1
  P  P26  1  0.750000  0.575925  0.883067  1
  P  P27  1  0.750000  0.924075  0.383067  1
  P  P28  1  0.250000  0.260629  0.866081  1
  P  P29  1  0.250000  0.239371  0.366081  1
  P  P30  1  0.750000  0.739371  0.133919  1
  P  P31  1  0.750000  0.760629  0.633919  1
  P  P32  1  0.250000  0.594140  0.391296  1
  P  P33  1  0.250000  0.905860  0.891296  1
  P  P34  1  0.750000  0.405860  0.608704  1
  P  P35  1  0.750000  0.094140  0.108704  1
