# generated using pymatgen
data_Zr4Zn(B7Ir6)2
_symmetry_space_group_name_H-M   'P 1'
_cell_length_a   3.48637018
_cell_length_b   7.77670519
_cell_length_c   13.43597203
_cell_angle_alpha   90.02028722
_cell_angle_beta   90.04207929
_cell_angle_gamma   90.05141312
_symmetry_Int_Tables_number   1
_chemical_formula_structural   Zr4Zn(B7Ir6)2
_chemical_formula_sum   'Zr4 Zn1 B14 Ir12'
_cell_volume   364.28216253
_cell_formula_units_Z   1
loop_
 _symmetry_equiv_pos_site_id
 _symmetry_equiv_pos_as_xyz
  1  'x, y, z'
loop_
 _atom_site_type_symbol
 _atom_site_label
 _atom_site_symmetry_multiplicity
 _atom_site_fract_x
 _atom_site_fract_y
 _atom_site_fract_z
 _atom_site_occupancy
  Zr  Zr0  1  0.250994  0.497565  0.834312  1
  Zr  Zr1  1  0.251940  0.001179  0.332219  1
  Zr  Zr2  1  0.748060  0.998821  0.667781  1
  Zr  Zr3  1  0.749006  0.502435  0.165688  1
  Zn  Zn4  1  0.500000  0.500000  0.500000  1
  B  B5  1  0.500000  0.000000  0.000000  1
  B  B6  1  0.000000  0.000000  0.000000  1
  B  B7  1  0.751830  0.327097  0.726974  1
  B  B8  1  0.752673  0.829771  0.220416  1
  B  B9  1  0.751147  0.753475  0.804214  1
  B  B10  1  0.751638  0.248252  0.300450  1
  B  B11  1  0.749854  0.424093  0.974600  1
  B  B12  1  0.755087  0.917867  0.474018  1
  B  B13  1  0.247327  0.170229  0.779584  1
  B  B14  1  0.248170  0.672903  0.273026  1
  B  B15  1  0.248362  0.751748  0.699550  1
  B  B16  1  0.248853  0.246525  0.195786  1
  B  B17  1  0.244913  0.082133  0.525982  1
  B  B18  1  0.250146  0.575907  0.025400  1
  Ir  Ir19  1  0.749219  0.595185  0.676411  1
  Ir  Ir20  1  0.749429  0.089996  0.161089  1
  Ir  Ir21  1  0.750578  0.704224  0.963141  1
  Ir  Ir22  1  0.747353  0.195142  0.460365  1
  Ir  Ir23  1  0.748629  0.201270  0.875587  1
  Ir  Ir24  1  0.749453  0.711691  0.363016  1
  Ir  Ir25  1  0.250571  0.910004  0.838911  1
  Ir  Ir26  1  0.250781  0.404815  0.323589  1
  Ir  Ir27  1  0.252647  0.804858  0.539635  1
  Ir  Ir28  1  0.249422  0.295776  0.036859  1
  Ir  Ir29  1  0.250547  0.288309  0.636984  1
  Ir  Ir30  1  0.251371  0.798730  0.124413  1
