# generated using pymatgen
data_Y5In2(HgPd)2
_symmetry_space_group_name_H-M   'P 1'
_cell_length_a   3.64879700
_cell_length_b   8.03694200
_cell_length_c   18.34586400
_cell_angle_alpha   90.00000000
_cell_angle_beta   90.00000000
_cell_angle_gamma   90.00000000
_symmetry_Int_Tables_number   1
_chemical_formula_structural   Y5In2(HgPd)2
_chemical_formula_sum   'Y10 In4 Hg4 Pd4'
_cell_volume   537.99557801
_cell_formula_units_Z   2
loop_
 _symmetry_equiv_pos_site_id
 _symmetry_equiv_pos_as_xyz
  1  'x, y, z'
loop_
 _atom_site_type_symbol
 _atom_site_label
 _atom_site_symmetry_multiplicity
 _atom_site_fract_x
 _atom_site_fract_y
 _atom_site_fract_z
 _atom_site_occupancy
  Y  Y0  1  0.000000  0.500000  0.500000  1
  Y  Y1  1  0.000000  0.000000  0.000000  1
  Y  Y2  1  0.000000  0.742646  0.284727  1
  Y  Y3  1  0.000000  0.257354  0.715273  1
  Y  Y4  1  0.000000  0.757354  0.784727  1
  Y  Y5  1  0.000000  0.242646  0.215273  1
  Y  Y6  1  0.000000  0.609187  0.083368  1
  Y  Y7  1  0.000000  0.390813  0.916632  1
  Y  Y8  1  0.000000  0.890813  0.583368  1
  Y  Y9  1  0.000000  0.109187  0.416632  1
  In  In10  1  0.500000  0.582064  0.649527  1
  In  In11  1  0.500000  0.417936  0.350473  1
  In  In12  1  0.500000  0.917936  0.149527  1
  In  In13  1  0.500000  0.082064  0.850473  1
  Hg  Hg14  1  0.500000  0.712559  0.932795  1
  Hg  Hg15  1  0.500000  0.287441  0.067205  1
  Hg  Hg16  1  0.500000  0.787441  0.432795  1
  Hg  Hg17  1  0.500000  0.212559  0.567205  1
  Pd  Pd18  1  0.500000  0.530050  0.198406  1
  Pd  Pd19  1  0.500000  0.469950  0.801594  1
  Pd  Pd20  1  0.500000  0.969950  0.698406  1
  Pd  Pd21  1  0.500000  0.030050  0.301594  1
