# generated using pymatgen
data_Ti20Si13P3
_symmetry_space_group_name_H-M   'P 1'
_cell_length_a   6.67030265
_cell_length_b   6.66281406
_cell_length_c   12.14006793
_cell_angle_alpha   89.90998734
_cell_angle_beta   90.05077325
_cell_angle_gamma   89.99869634
_symmetry_Int_Tables_number   1
_chemical_formula_structural   Ti20Si13P3
_chemical_formula_sum   'Ti20 Si13 P3'
_cell_volume   539.53999505
_cell_formula_units_Z   1
loop_
 _symmetry_equiv_pos_site_id
 _symmetry_equiv_pos_as_xyz
  1  'x, y, z'
loop_
 _atom_site_type_symbol
 _atom_site_label
 _atom_site_symmetry_multiplicity
 _atom_site_fract_x
 _atom_site_fract_y
 _atom_site_fract_z
 _atom_site_occupancy
  Ti  Ti0  1  0.994369  0.153996  0.623384  1
  Ti  Ti1  1  0.345740  0.494207  0.872897  1
  Ti  Ti2  1  0.649722  0.503307  0.374341  1
  Ti  Ti3  1  0.492331  0.353750  0.126515  1
  Ti  Ti4  1  0.507798  0.646641  0.627464  1
  Ti  Ti5  1  0.006497  0.845999  0.120300  1
  Ti  Ti6  1  0.149554  0.996095  0.378902  1
  Ti  Ti7  1  0.853258  0.007985  0.877134  1
  Ti  Ti8  1  0.003190  0.346612  0.218108  1
  Ti  Ti9  1  0.151274  0.501512  0.470488  1
  Ti  Ti10  1  0.849722  0.497379  0.968699  1
  Ti  Ti11  1  0.502528  0.155056  0.531226  1
  Ti  Ti12  1  0.496839  0.843864  0.031119  1
  Ti  Ti13  1  0.997529  0.650828  0.719815  1
  Ti  Ti14  1  0.344719  0.003232  0.780693  1
  Ti  Ti15  1  0.654281  0.997351  0.281555  1
  Ti  Ti16  1  0.169947  0.174905  0.998799  1
  Ti  Ti17  1  0.327709  0.669904  0.248057  1
  Ti  Ti18  1  0.674963  0.330455  0.749032  1
  Ti  Ti19  1  0.829063  0.826522  0.500950  1
  Si  Si20  1  0.545906  0.199119  0.936211  1
  Si  Si21  1  0.453676  0.800424  0.436229  1
  Si  Si22  1  0.954852  0.699701  0.313294  1
  Si  Si23  1  0.300482  0.045608  0.186483  1
  Si  Si24  1  0.698831  0.953881  0.686849  1
  Si  Si25  1  0.297299  0.357337  0.672586  1
  Si  Si26  1  0.143303  0.797362  0.921683  1
  Si  Si27  1  0.857415  0.202717  0.422099  1
  Si  Si28  1  0.794045  0.141448  0.077927  1
  Si  Si29  1  0.204877  0.858215  0.578245  1
  Si  Si30  1  0.704781  0.642786  0.174051  1
  Si  Si31  1  0.357138  0.295801  0.327092  1
  Si  Si32  1  0.641140  0.705116  0.828294  1
  P  P33  1  0.045543  0.300474  0.813082  1
  P  P34  1  0.199168  0.544986  0.063185  1
  P  P35  1  0.800513  0.455426  0.563212  1
