# generated using pymatgen
data_Yb2MoIr3
_symmetry_space_group_name_H-M   'P 1'
_cell_length_a   5.54291200
_cell_length_b   5.54291061
_cell_length_c   8.16043600
_cell_angle_alpha   90.00000000
_cell_angle_beta   90.00000000
_cell_angle_gamma   120.00000828
_symmetry_Int_Tables_number   1
_chemical_formula_structural   Yb2MoIr3
_chemical_formula_sum   'Yb4 Mo2 Ir6'
_cell_volume   217.12999243
_cell_formula_units_Z   2
loop_
 _symmetry_equiv_pos_site_id
 _symmetry_equiv_pos_as_xyz
  1  'x, y, z'
loop_
 _atom_site_type_symbol
 _atom_site_label
 _atom_site_symmetry_multiplicity
 _atom_site_fract_x
 _atom_site_fract_y
 _atom_site_fract_z
 _atom_site_occupancy
  Yb  Yb0  1  0.333334  0.666667  0.069953  1
  Yb  Yb1  1  0.333334  0.666667  0.430046  1
  Yb  Yb2  1  0.666666  0.333334  0.569953  1
  Yb  Yb3  1  0.666666  0.333334  0.930047  1
  Mo  Mo4  1  0.000000  0.000000  0.000000  1
  Mo  Mo5  1  0.000000  0.000000  0.500000  1
  Ir  Ir6  1  0.345525  0.172763  0.250000  1
  Ir  Ir7  1  0.827238  0.172763  0.250000  1
  Ir  Ir8  1  0.827236  0.654474  0.250000  1
  Ir  Ir9  1  0.172763  0.345525  0.749999  1
  Ir  Ir10  1  0.172763  0.827236  0.749999  1
  Ir  Ir11  1  0.654474  0.827236  0.749999  1
