# generated using pymatgen
data_Ta8Ga41
_symmetry_space_group_name_H-M   'P 1'
_cell_length_a   9.96649952
_cell_length_b   9.96650024
_cell_length_c   9.96649900
_cell_angle_alpha   94.98275287
_cell_angle_beta   94.98275323
_cell_angle_gamma   94.98275454
_symmetry_Int_Tables_number   1
_chemical_formula_structural   Ta8Ga41
_chemical_formula_sum   'Ta8 Ga41'
_cell_volume   978.06046601
_cell_formula_units_Z   1
loop_
 _symmetry_equiv_pos_site_id
 _symmetry_equiv_pos_as_xyz
  1  'x, y, z'
loop_
 _atom_site_type_symbol
 _atom_site_label
 _atom_site_symmetry_multiplicity
 _atom_site_fract_x
 _atom_site_fract_y
 _atom_site_fract_z
 _atom_site_occupancy
  Ta  Ta0  1  0.613082  0.290762  0.893125  1
  Ta  Ta1  1  0.893125  0.613082  0.290762  1
  Ta  Ta2  1  0.290762  0.893125  0.613082  1
  Ta  Ta3  1  0.386918  0.709238  0.106875  1
  Ta  Ta4  1  0.106875  0.386918  0.709238  1
  Ta  Ta5  1  0.709238  0.106875  0.386918  1
  Ta  Ta6  1  0.813521  0.813521  0.813521  1
  Ta  Ta7  1  0.186479  0.186479  0.186479  1
  Ga  Ga8  1  0.673548  0.178867  0.129359  1
  Ga  Ga9  1  0.129359  0.673548  0.178867  1
  Ga  Ga10  1  0.178867  0.129359  0.673548  1
  Ga  Ga11  1  0.326452  0.821133  0.870641  1
  Ga  Ga12  1  0.870641  0.326452  0.821133  1
  Ga  Ga13  1  0.821133  0.870641  0.326452  1
  Ga  Ga14  1  0.775497  0.447381  0.078990  1
  Ga  Ga15  1  0.078990  0.775497  0.447381  1
  Ga  Ga16  1  0.447381  0.078990  0.775497  1
  Ga  Ga17  1  0.224503  0.552619  0.921010  1
  Ga  Ga18  1  0.921010  0.224503  0.552619  1
  Ga  Ga19  1  0.552619  0.921010  0.224503  1
  Ga  Ga20  1  0.399098  0.216202  0.034323  1
  Ga  Ga21  1  0.034323  0.399098  0.216202  1
  Ga  Ga22  1  0.216202  0.034323  0.399098  1
  Ga  Ga23  1  0.600902  0.783798  0.965677  1
  Ga  Ga24  1  0.965677  0.600902  0.783798  1
  Ga  Ga25  1  0.783798  0.965677  0.600902  1
  Ga  Ga26  1  0.500000  0.500000  0.000000  1
  Ga  Ga27  1  0.000000  0.500000  0.500000  1
  Ga  Ga28  1  0.500000  0.000000  0.500000  1
  Ga  Ga29  1  0.727820  0.055684  0.873094  1
  Ga  Ga30  1  0.873094  0.727820  0.055684  1
  Ga  Ga31  1  0.055684  0.873094  0.727820  1
  Ga  Ga32  1  0.272180  0.944316  0.126906  1
  Ga  Ga33  1  0.126906  0.272180  0.944316  1
  Ga  Ga34  1  0.944316  0.126906  0.272180  1
  Ga  Ga35  1  0.740593  0.385349  0.364561  1
  Ga  Ga36  1  0.364561  0.740593  0.385349  1
  Ga  Ga37  1  0.385349  0.364561  0.740593  1
  Ga  Ga38  1  0.259407  0.614651  0.635439  1
  Ga  Ga39  1  0.635439  0.259407  0.614651  1
  Ga  Ga40  1  0.614651  0.635439  0.259407  1
  Ga  Ga41  1  0.457159  0.218939  0.326566  1
  Ga  Ga42  1  0.326566  0.457159  0.218939  1
  Ga  Ga43  1  0.218939  0.326566  0.457159  1
  Ga  Ga44  1  0.542841  0.781061  0.673434  1
  Ga  Ga45  1  0.673434  0.542841  0.781061  1
  Ga  Ga46  1  0.781061  0.673434  0.542841  1
  Ga  Ga47  1  0.000000  0.000000  0.000000  1
  Ga  Ga48  1  0.500000  0.500000  0.500000  1
