# generated using pymatgen
data_Er3LuZn4(RhAu)2
_symmetry_space_group_name_H-M   'P 1'
_cell_length_a   3.87044800
_cell_length_b   7.23443828
_cell_length_c   8.41790009
_cell_angle_alpha   89.36071245
_cell_angle_beta   90.00000000
_cell_angle_gamma   90.00000000
_symmetry_Int_Tables_number   1
_chemical_formula_structural   Er3LuZn4(RhAu)2
_chemical_formula_sum   'Er3 Lu1 Zn4 Rh2 Au2'
_cell_volume   235.69088423
_cell_formula_units_Z   1
loop_
 _symmetry_equiv_pos_site_id
 _symmetry_equiv_pos_as_xyz
  1  'x, y, z'
loop_
 _atom_site_type_symbol
 _atom_site_label
 _atom_site_symmetry_multiplicity
 _atom_site_fract_x
 _atom_site_fract_y
 _atom_site_fract_z
 _atom_site_occupancy
  Er  Er0  1  0.250000  0.569645  0.201649  1
  Er  Er1  1  0.750000  0.430478  0.798634  1
  Er  Er2  1  0.750000  0.949920  0.676295  1
  Lu  Lu3  1  0.250000  0.049794  0.324129  1
  Zn  Zn4  1  0.250000  0.623514  0.560555  1
  Zn  Zn5  1  0.750000  0.376187  0.438487  1
  Zn  Zn6  1  0.750000  0.876101  0.074400  1
  Zn  Zn7  1  0.250000  0.124785  0.925857  1
  Rh  Rh8  1  0.750000  0.765791  0.378281  1
  Rh  Rh9  1  0.250000  0.236578  0.619783  1
  Au  Au10  1  0.250000  0.734647  0.877167  1
  Au  Au11  1  0.750000  0.262562  0.124763  1
