# generated using pymatgen
data_Tb9Pr2In9Ir4
_symmetry_space_group_name_H-M   'P 1'
_cell_length_a   13.17446043
_cell_length_b   13.17446107
_cell_length_c   3.78027300
_cell_angle_alpha   90.00000000
_cell_angle_beta   90.00000000
_cell_angle_gamma   111.58249089
_symmetry_Int_Tables_number   1
_chemical_formula_structural   Tb9Pr2In9Ir4
_chemical_formula_sum   'Tb9 Pr2 In9 Ir4'
_cell_volume   610.12657498
_cell_formula_units_Z   1
loop_
 _symmetry_equiv_pos_site_id
 _symmetry_equiv_pos_as_xyz
  1  'x, y, z'
loop_
 _atom_site_type_symbol
 _atom_site_label
 _atom_site_symmetry_multiplicity
 _atom_site_fract_x
 _atom_site_fract_y
 _atom_site_fract_z
 _atom_site_occupancy
  Tb  Tb0  1  0.500000  0.500000  0.500000  1
  Tb  Tb1  1  0.816681  0.816681  0.500000  1
  Tb  Tb2  1  0.183319  0.183319  0.500000  1
  Tb  Tb3  1  0.581315  0.917731  0.500000  1
  Tb  Tb4  1  0.418685  0.082269  0.500000  1
  Tb  Tb5  1  0.917731  0.581315  0.500000  1
  Tb  Tb6  1  0.082269  0.418685  0.500000  1
  Tb  Tb7  1  0.125030  0.874970  0.500000  1
  Tb  Tb8  1  0.874970  0.125030  0.500000  1
  Pr  Pr9  1  0.339326  0.660674  0.500000  1
  Pr  Pr10  1  0.660674  0.339326  0.500000  1
  In  In11  1  0.337873  0.869708  0.000000  1
  In  In12  1  0.662127  0.130292  0.000000  1
  In  In13  1  0.869708  0.337873  0.000000  1
  In  In14  1  0.130292  0.662127  0.000000  1
  In  In15  1  0.580511  0.719962  0.000000  1
  In  In16  1  0.419489  0.280038  0.000000  1
  In  In17  1  0.719962  0.580511  0.000000  1
  In  In18  1  0.280038  0.419489  0.000000  1
  In  In19  1  0.000000  0.000000  0.000000  1
  Ir  Ir20  1  0.746850  0.951299  0.000000  1
  Ir  Ir21  1  0.253150  0.048701  0.000000  1
  Ir  Ir22  1  0.951299  0.746850  0.000000  1
  Ir  Ir23  1  0.048701  0.253150  0.000000  1
