# generated using pymatgen
data_Ti3Mn4NbP4
_symmetry_space_group_name_H-M   'P 1'
_cell_length_a   3.49368800
_cell_length_b   6.18077265
_cell_length_c   7.20371146
_cell_angle_alpha   89.84579507
_cell_angle_beta   90.00000000
_cell_angle_gamma   90.00000000
_symmetry_Int_Tables_number   1
_chemical_formula_structural   Ti3Mn4NbP4
_chemical_formula_sum   'Ti3 Mn4 Nb1 P4'
_cell_volume   155.55415766
_cell_formula_units_Z   1
loop_
 _symmetry_equiv_pos_site_id
 _symmetry_equiv_pos_as_xyz
  1  'x, y, z'
loop_
 _atom_site_type_symbol
 _atom_site_label
 _atom_site_symmetry_multiplicity
 _atom_site_fract_x
 _atom_site_fract_y
 _atom_site_fract_z
 _atom_site_occupancy
  Ti  Ti0  1  0.250000  0.531431  0.672601  1
  Ti  Ti1  1  0.750000  0.465961  0.328119  1
  Ti  Ti2  1  0.250000  0.033164  0.826255  1
  Mn  Mn3  1  0.750000  0.862395  0.560540  1
  Mn  Mn4  1  0.250000  0.139234  0.442330  1
  Mn  Mn5  1  0.750000  0.362469  0.939043  1
  Mn  Mn6  1  0.250000  0.637339  0.058596  1
  Nb  Nb7  1  0.750000  0.967080  0.170927  1
  P  P8  1  0.250000  0.268559  0.132164  1
  P  P9  1  0.750000  0.735474  0.863909  1
  P  P10  1  0.250000  0.759038  0.372271  1
  P  P11  1  0.750000  0.237855  0.633245  1
