# generated using pymatgen
data_NaLaB4Ir2Rh3
_symmetry_space_group_name_H-M   'P 1'
_cell_length_a   7.52758663
_cell_length_b   6.28146944
_cell_length_c   5.69379794
_cell_angle_alpha   77.72180062
_cell_angle_beta   54.62426649
_cell_angle_gamma   47.73922771
_symmetry_Int_Tables_number   1
_chemical_formula_structural   NaLaB4Ir2Rh3
_chemical_formula_sum   'Na1 La1 B4 Ir2 Rh3'
_cell_volume   155.34609283
_cell_formula_units_Z   1
loop_
 _symmetry_equiv_pos_site_id
 _symmetry_equiv_pos_as_xyz
  1  'x, y, z'
loop_
 _atom_site_type_symbol
 _atom_site_label
 _atom_site_symmetry_multiplicity
 _atom_site_fract_x
 _atom_site_fract_y
 _atom_site_fract_z
 _atom_site_occupancy
  Na  Na0  1  0.850127  0.850127  0.149873  1
  La  La1  1  0.134227  0.134227  0.865773  1
  B  B2  1  0.788366  0.479944  0.528422  1
  B  B3  1  0.208225  0.533500  0.474579  1
  B  B4  1  0.533500  0.208225  0.783695  1
  B  B5  1  0.479944  0.788366  0.203268  1
  Ir  Ir6  1  0.753059  0.753059  0.746941  1
  Ir  Ir7  1  0.499448  0.499448  0.500552  1
  Rh  Rh8  1  0.499075  0.499075  0.000925  1
  Rh  Rh9  1  0.001161  0.001161  0.498839  1
  Rh  Rh10  1  0.252868  0.252868  0.247132  1
