# generated using pymatgen
data_La2Nd7HoC4I15
_symmetry_space_group_name_H-M   'P 1'
_cell_length_a   9.80603398
_cell_length_b   10.67930322
_cell_length_c   11.78039567
_cell_angle_alpha   93.74278626
_cell_angle_beta   114.13227587
_cell_angle_gamma   109.48930663
_symmetry_Int_Tables_number   1
_chemical_formula_structural   La2Nd7HoC4I15
_chemical_formula_sum   'La2 Nd7 Ho1 C4 I15'
_cell_volume   1031.76281443
_cell_formula_units_Z   1
loop_
 _symmetry_equiv_pos_site_id
 _symmetry_equiv_pos_as_xyz
  1  'x, y, z'
loop_
 _atom_site_type_symbol
 _atom_site_label
 _atom_site_symmetry_multiplicity
 _atom_site_fract_x
 _atom_site_fract_y
 _atom_site_fract_z
 _atom_site_occupancy
  La  La0  1  0.292488  0.432160  0.955588  1
  La  La1  1  0.658666  0.254115  0.831761  1
  Nd  Nd2  1  0.347051  0.746500  0.164607  1
  Nd  Nd3  1  0.776384  0.882777  0.257329  1
  Nd  Nd4  1  0.528298  0.185826  0.102409  1
  Nd  Nd5  1  0.225513  0.116442  0.744475  1
  Nd  Nd6  1  0.402718  0.458604  0.657947  1
  Nd  Nd7  1  0.473337  0.814563  0.898689  1
  Nd  Nd8  1  0.702375  0.567895  0.044699  1
  Ho  Ho9  1  0.593720  0.545700  0.334956  1
  C  C10  1  0.484010  0.300776  0.938204  1
  C  C11  1  0.519327  0.699508  0.062448  1
  C  C12  1  0.453864  0.362761  0.834332  1
  C  C13  1  0.547336  0.636734  0.166155  1
  I  I14  1  0.208043  0.906705  0.938320  1
  I  I15  1  0.104182  0.186817  0.469702  1
  I  I16  1  0.152881  0.557475  0.701427  1
  I  I17  1  0.399871  0.964452  0.645013  1
  I  I18  1  0.714029  0.733773  0.821870  1
  I  I19  1  0.298195  0.272307  0.188990  1
  I  I20  1  0.838729  0.447432  0.301328  1
  I  I21  1  0.884077  0.800780  0.526512  1
  I  I22  1  0.368068  0.628448  0.411907  1
  I  I23  1  0.052208  0.831413  0.221261  1
  I  I24  1  0.793818  0.094485  0.064792  1
  I  I25  1  0.640928  0.376736  0.581019  1
  I  I26  1  0.943545  0.161757  0.777396  1
  I  I27  1  0.594574  0.029963  0.352112  1
  I  I28  1  0.001762  0.503095  0.004749  1
