# generated using pymatgen
data_RbCu2F5
_symmetry_space_group_name_H-M   'P 1'
_cell_length_a   6.68246316
_cell_length_b   6.47845684
_cell_length_c   7.05985137
_cell_angle_alpha   63.75933351
_cell_angle_beta   65.41475634
_cell_angle_gamma   69.10710154
_symmetry_Int_Tables_number   1
_chemical_formula_structural   RbCu2F5
_chemical_formula_sum   'Rb2 Cu4 F10'
_cell_volume   243.63542833
_cell_formula_units_Z   2
loop_
 _symmetry_equiv_pos_site_id
 _symmetry_equiv_pos_as_xyz
  1  'x, y, z'
loop_
 _atom_site_type_symbol
 _atom_site_label
 _atom_site_symmetry_multiplicity
 _atom_site_fract_x
 _atom_site_fract_y
 _atom_site_fract_z
 _atom_site_occupancy
  Rb  Rb0  1  0.617359  0.622190  0.632679  1
  Rb  Rb1  1  0.382641  0.377810  0.367321  1
  Cu  Cu2  1  0.000000  0.000000  0.000000  1
  Cu  Cu3  1  0.000000  0.500000  0.000000  1
  Cu  Cu4  1  0.500000  0.000000  0.000000  1
  Cu  Cu5  1  0.000000  0.000000  0.500000  1
  F  F6  1  0.267211  0.271148  0.921845  1
  F  F7  1  0.732789  0.728852  0.078155  1
  F  F8  1  0.069309  0.094164  0.685001  1
  F  F9  1  0.930691  0.905836  0.314999  1
  F  F10  1  0.047650  0.665866  0.686622  1
  F  F11  1  0.368907  0.952313  0.304776  1
  F  F12  1  0.952350  0.334134  0.313378  1
  F  F13  1  0.631093  0.047687  0.695224  1
  F  F14  1  0.767009  0.271580  0.000495  1
  F  F15  1  0.232991  0.728420  0.999505  1
