# generated using pymatgen
data_Ta3Ga2(MoS4)3
_symmetry_space_group_name_H-M   'P 1'
_cell_length_a   5.69196400
_cell_length_b   5.69196414
_cell_length_c   14.84538600
_cell_angle_alpha   90.00000000
_cell_angle_beta   90.00000000
_cell_angle_gamma   120.00001084
_symmetry_Int_Tables_number   1
_chemical_formula_structural   Ta3Ga2(MoS4)3
_chemical_formula_sum   'Ta3 Ga2 Mo3 S12'
_cell_volume   416.53008807
_cell_formula_units_Z   1
loop_
 _symmetry_equiv_pos_site_id
 _symmetry_equiv_pos_as_xyz
  1  'x, y, z'
loop_
 _atom_site_type_symbol
 _atom_site_label
 _atom_site_symmetry_multiplicity
 _atom_site_fract_x
 _atom_site_fract_y
 _atom_site_fract_z
 _atom_site_occupancy
  Ta  Ta0  1  0.333333  0.666667  0.750000  1
  Ta  Ta1  1  0.000000  0.000000  0.250000  1
  Ta  Ta2  1  0.000000  0.000000  0.750000  1
  Ga  Ga3  1  0.000000  0.000000  0.504371  1
  Ga  Ga4  1  0.000000  0.000000  0.995629  1
  Mo  Mo5  1  0.333333  0.666667  0.250000  1
  Mo  Mo6  1  0.666667  0.333333  0.750000  1
  Mo  Mo7  1  0.666667  0.333333  0.250000  1
  S  S8  1  0.337906  0.999873  0.145639  1
  S  S9  1  0.000127  0.338033  0.145639  1
  S  S10  1  0.661967  0.662094  0.145639  1
  S  S11  1  0.337202  0.333878  0.644569  1
  S  S12  1  0.661967  0.662094  0.354361  1
  S  S13  1  0.666122  0.003324  0.644569  1
  S  S14  1  0.996676  0.662798  0.644569  1
  S  S15  1  0.996676  0.662798  0.855431  1
  S  S16  1  0.337202  0.333878  0.855431  1
  S  S17  1  0.000127  0.338033  0.354361  1
  S  S18  1  0.337906  0.999873  0.354361  1
  S  S19  1  0.666122  0.003324  0.855431  1
