# generated using pymatgen
data_Dy4Tm8Tc3Ir
_symmetry_space_group_name_H-M   'P 1'
_cell_length_a   6.25575606
_cell_length_b   7.35966683
_cell_length_c   9.03617200
_cell_angle_alpha   90.00000000
_cell_angle_beta   90.00000000
_cell_angle_gamma   89.96471978
_symmetry_Int_Tables_number   1
_chemical_formula_structural   Dy4Tm8Tc3Ir
_chemical_formula_sum   'Dy4 Tm8 Tc3 Ir1'
_cell_volume   416.02781372
_cell_formula_units_Z   1
loop_
 _symmetry_equiv_pos_site_id
 _symmetry_equiv_pos_as_xyz
  1  'x, y, z'
loop_
 _atom_site_type_symbol
 _atom_site_label
 _atom_site_symmetry_multiplicity
 _atom_site_fract_x
 _atom_site_fract_y
 _atom_site_fract_z
 _atom_site_occupancy
  Dy  Dy0  1  0.875057  0.541114  0.250000  1
  Dy  Dy1  1  0.624468  0.038736  0.250000  1
  Dy  Dy2  1  0.129964  0.457725  0.750000  1
  Dy  Dy3  1  0.372151  0.959887  0.750000  1
  Tm  Tm4  1  0.333452  0.676090  0.064523  1
  Tm  Tm5  1  0.162646  0.175810  0.436500  1
  Tm  Tm6  1  0.664114  0.322906  0.561762  1
  Tm  Tm7  1  0.836096  0.825149  0.937883  1
  Tm  Tm8  1  0.664114  0.322906  0.938238  1
  Tm  Tm9  1  0.836096  0.825149  0.562117  1
  Tm  Tm10  1  0.333452  0.676090  0.435477  1
  Tm  Tm11  1  0.162646  0.175810  0.063500  1
  Tc  Tc12  1  0.040031  0.884417  0.250000  1
  Tc  Tc13  1  0.462166  0.386699  0.250000  1
  Tc  Tc14  1  0.959026  0.115935  0.750000  1
  Ir  Ir15  1  0.544522  0.615574  0.750000  1
