# generated using pymatgen
data_TcBrO3
_symmetry_space_group_name_H-M   'P 1'
_cell_length_a   9.88788100
_cell_length_b   6.05441001
_cell_length_c   9.93745592
_cell_angle_alpha   57.43038553
_cell_angle_beta   90.00000000
_cell_angle_gamma   90.00000000
_symmetry_Int_Tables_number   1
_chemical_formula_structural   TcBrO3
_chemical_formula_sum   'Tc4 Br4 O12'
_cell_volume   501.35211736
_cell_formula_units_Z   4
loop_
 _symmetry_equiv_pos_site_id
 _symmetry_equiv_pos_as_xyz
  1  'x, y, z'
loop_
 _atom_site_type_symbol
 _atom_site_label
 _atom_site_symmetry_multiplicity
 _atom_site_fract_x
 _atom_site_fract_y
 _atom_site_fract_z
 _atom_site_occupancy
  Tc  Tc0  1  0.274239  0.420986  0.775263  1
  Tc  Tc1  1  0.774239  0.579014  0.724737  1
  Tc  Tc2  1  0.725761  0.579014  0.224737  1
  Tc  Tc3  1  0.225761  0.420986  0.275263  1
  Br  Br4  1  0.420832  0.151221  0.734768  1
  Br  Br5  1  0.920832  0.848779  0.765232  1
  Br  Br6  1  0.579168  0.848779  0.265232  1
  Br  Br7  1  0.079168  0.151221  0.234768  1
  O  O8  1  0.328717  0.426434  0.936851  1
  O  O9  1  0.828717  0.573566  0.563149  1
  O  O10  1  0.671283  0.573566  0.063149  1
  O  O11  1  0.171283  0.426434  0.436851  1
  O  O12  1  0.113050  0.299094  0.811085  1
  O  O13  1  0.613050  0.700906  0.688915  1
  O  O14  1  0.886950  0.700906  0.188915  1
  O  O15  1  0.386950  0.299094  0.311085  1
  O  O16  1  0.273457  0.734374  0.611493  1
  O  O17  1  0.773457  0.265626  0.888507  1
  O  O18  1  0.726543  0.265626  0.388507  1
  O  O19  1  0.226543  0.734374  0.111493  1
