# generated using pymatgen
data_Nd2Ni2As4IrRu
_symmetry_space_group_name_H-M   'P 1'
_cell_length_a   4.24712100
_cell_length_b   4.24712100
_cell_length_c   9.78843700
_cell_angle_alpha   90.00000000
_cell_angle_beta   90.00000000
_cell_angle_gamma   90.00000000
_symmetry_Int_Tables_number   1
_chemical_formula_structural   Nd2Ni2As4IrRu
_chemical_formula_sum   'Nd2 Ni2 As4 Ir1 Ru1'
_cell_volume   176.56418671
_cell_formula_units_Z   1
loop_
 _symmetry_equiv_pos_site_id
 _symmetry_equiv_pos_as_xyz
  1  'x, y, z'
loop_
 _atom_site_type_symbol
 _atom_site_label
 _atom_site_symmetry_multiplicity
 _atom_site_fract_x
 _atom_site_fract_y
 _atom_site_fract_z
 _atom_site_occupancy
  Nd  Nd0  1  0.500000  0.000000  0.742666  1
  Nd  Nd1  1  0.000000  0.500000  0.257334  1
  Ni  Ni2  1  0.500000  0.000000  0.382983  1
  Ni  Ni3  1  0.000000  0.500000  0.617017  1
  As  As4  1  0.500000  0.000000  0.139750  1
  As  As5  1  0.000000  0.500000  0.860250  1
  As  As6  1  0.500000  0.500000  0.500000  1
  As  As7  1  0.000000  0.000000  0.500000  1
  Ir  Ir8  1  0.500000  0.500000  0.000000  1
  Ru  Ru9  1  0.000000  0.000000  0.000000  1
