# generated using pymatgen
data_La4NdCdAu4
_symmetry_space_group_name_H-M   'P 1'
_cell_length_a   8.39917800
_cell_length_b   8.39917800
_cell_length_c   4.02189300
_cell_angle_alpha   90.00000000
_cell_angle_beta   90.00000000
_cell_angle_gamma   90.00000000
_symmetry_Int_Tables_number   1
_chemical_formula_structural   La4NdCdAu4
_chemical_formula_sum   'La4 Nd1 Cd1 Au4'
_cell_volume   283.72923206
_cell_formula_units_Z   1
loop_
 _symmetry_equiv_pos_site_id
 _symmetry_equiv_pos_as_xyz
  1  'x, y, z'
loop_
 _atom_site_type_symbol
 _atom_site_label
 _atom_site_symmetry_multiplicity
 _atom_site_fract_x
 _atom_site_fract_y
 _atom_site_fract_z
 _atom_site_occupancy
  La  La0  1  0.644018  0.190800  0.500000  1
  La  La1  1  0.355982  0.809200  0.500000  1
  La  La2  1  0.190800  0.355982  0.500000  1
  La  La3  1  0.809200  0.644018  0.500000  1
  Nd  Nd4  1  0.000000  0.000000  0.000000  1
  Cd  Cd5  1  0.500000  0.500000  0.000000  1
  Au  Au6  1  0.119452  0.641081  0.000000  1
  Au  Au7  1  0.880548  0.358919  0.000000  1
  Au  Au8  1  0.641081  0.880548  0.000000  1
  Au  Au9  1  0.358919  0.119452  0.000000  1
