# generated using pymatgen
data_PrDy7(Sc3Sn4)4
_symmetry_space_group_name_H-M   'P 1'
_cell_length_a   7.70230539
_cell_length_b   7.96940355
_cell_length_c   14.85317800
_cell_angle_alpha   90.01307045
_cell_angle_beta   89.98186425
_cell_angle_gamma   90.01676998
_symmetry_Int_Tables_number   1
_chemical_formula_structural   PrDy7(Sc3Sn4)4
_chemical_formula_sum   'Pr1 Dy7 Sc12 Sn16'
_cell_volume   911.72924717
_cell_formula_units_Z   1
loop_
 _symmetry_equiv_pos_site_id
 _symmetry_equiv_pos_as_xyz
  1  'x, y, z'
loop_
 _atom_site_type_symbol
 _atom_site_label
 _atom_site_symmetry_multiplicity
 _atom_site_fract_x
 _atom_site_fract_y
 _atom_site_fract_z
 _atom_site_occupancy
  Pr  Pr0  1  0.995848  0.175267  0.093307  1
  Dy  Dy1  1  0.004737  0.822742  0.905005  1
  Dy  Dy2  1  0.506005  0.676684  0.904896  1
  Dy  Dy3  1  0.005324  0.823107  0.594321  1
  Dy  Dy4  1  0.494836  0.323859  0.094220  1
  Dy  Dy5  1  0.994308  0.176827  0.405333  1
  Dy  Dy6  1  0.494887  0.323376  0.406874  1
  Dy  Dy7  1  0.505069  0.677030  0.594293  1
  Sc  Sc8  1  0.165052  0.496410  0.749823  1
  Sc  Sc9  1  0.834695  0.503822  0.250441  1
  Sc  Sc10  1  0.334937  0.995664  0.250454  1
  Sc  Sc11  1  0.664893  0.003631  0.749782  1
  Sc  Sc12  1  0.336487  0.161338  0.627475  1
  Sc  Sc13  1  0.663342  0.838462  0.372988  1
  Sc  Sc14  1  0.163777  0.661772  0.373322  1
  Sc  Sc15  1  0.663341  0.837818  0.127772  1
  Sc  Sc16  1  0.836402  0.338293  0.627437  1
  Sc  Sc17  1  0.336311  0.161723  0.872086  1
  Sc  Sc18  1  0.835625  0.339284  0.872383  1
  Sc  Sc19  1  0.163883  0.661482  0.127312  1
  Sn  Sn20  1  0.027339  0.124540  0.750019  1
  Sn  Sn21  1  0.972157  0.873364  0.250716  1
  Sn  Sn22  1  0.472395  0.624588  0.250256  1
  Sn  Sn23  1  0.527488  0.375627  0.749665  1
  Sn  Sn24  1  0.307218  0.850059  0.749768  1
  Sn  Sn25  1  0.689979  0.149775  0.251475  1
  Sn  Sn26  1  0.195007  0.352457  0.251982  1
  Sn  Sn27  1  0.807403  0.650034  0.749780  1
  Sn  Sn28  1  0.180496  0.457391  0.542639  1
  Sn  Sn29  1  0.819684  0.542270  0.457676  1
  Sn  Sn30  1  0.319035  0.958034  0.457585  1
  Sn  Sn31  1  0.818141  0.545132  0.041766  1
  Sn  Sn32  1  0.680579  0.042146  0.542601  1
  Sn  Sn33  1  0.181958  0.459740  0.956689  1
  Sn  Sn34  1  0.676918  0.041182  0.956188  1
  Sn  Sn35  1  0.324445  0.955070  0.041669  1
