# generated using pymatgen
data_CaLa2Zn(AsPd4)5
_symmetry_space_group_name_H-M   'P 1'
_cell_length_a   8.93595073
_cell_length_b   8.94238625
_cell_length_c   8.94238666
_cell_angle_alpha   59.95238874
_cell_angle_beta   60.02380285
_cell_angle_gamma   60.02380663
_symmetry_Int_Tables_number   1
_chemical_formula_structural   CaLa2Zn(AsPd4)5
_chemical_formula_sum   'Ca1 La2 Zn1 As5 Pd20'
_cell_volume   505.28008479
_cell_formula_units_Z   1
loop_
 _symmetry_equiv_pos_site_id
 _symmetry_equiv_pos_as_xyz
  1  'x, y, z'
loop_
 _atom_site_type_symbol
 _atom_site_label
 _atom_site_symmetry_multiplicity
 _atom_site_fract_x
 _atom_site_fract_y
 _atom_site_fract_z
 _atom_site_occupancy
  Ca  Ca0  1  0.997446  0.002554  0.002554  1
  La  La1  1  0.749746  0.750254  0.750254  1
  La  La2  1  0.249746  0.250254  0.250254  1
  Zn  Zn3  1  0.732842  0.267158  0.267158  1
  As  As4  1  0.737142  0.734619  0.262858  1
  As  As5  1  0.265381  0.262858  0.734619  1
  As  As6  1  0.737142  0.262858  0.734619  1
  As  As7  1  0.265381  0.734619  0.262858  1
  As  As8  1  0.262553  0.737447  0.737447  1
  Pd  Pd9  1  0.615617  0.615534  0.615534  1
  Pd  Pd10  1  0.379705  0.384878  0.384878  1
  Pd  Pd11  1  0.153314  0.615534  0.615534  1
  Pd  Pd12  1  0.615122  0.149460  0.620295  1
  Pd  Pd13  1  0.850540  0.384878  0.384878  1
  Pd  Pd14  1  0.384466  0.846686  0.384383  1
  Pd  Pd15  1  0.615122  0.620295  0.149460  1
  Pd  Pd16  1  0.384466  0.384383  0.846686  1
  Pd  Pd17  1  0.999887  0.000113  0.649949  1
  Pd  Pd18  1  0.003582  0.996418  0.348753  1
  Pd  Pd19  1  0.350051  0.649949  0.000113  1
  Pd  Pd20  1  0.651247  0.348753  0.996418  1
  Pd  Pd21  1  0.999887  0.649949  0.000113  1
  Pd  Pd22  1  0.651247  0.996418  0.348753  1
  Pd  Pd23  1  0.003582  0.348753  0.996418  1
  Pd  Pd24  1  0.350051  0.000113  0.649949  1
  Pd  Pd25  1  0.650011  0.001315  0.001315  1
  Pd  Pd26  1  0.347357  0.001315  0.001315  1
  Pd  Pd27  1  0.998685  0.652643  0.349989  1
  Pd  Pd28  1  0.998685  0.349989  0.652643  1
