# generated using pymatgen
data_Mn(Be6Fe)4
_symmetry_space_group_name_H-M   'P 1'
_cell_length_a   6.75522047
_cell_length_b   6.75566855
_cell_length_c   6.75503100
_cell_angle_alpha   109.47177525
_cell_angle_beta   109.46942067
_cell_angle_gamma   109.47322282
_symmetry_Int_Tables_number   1
_chemical_formula_structural   Mn(Be6Fe)4
_chemical_formula_sum   'Mn1 Be24 Fe4'
_cell_volume   237.30629608
_cell_formula_units_Z   1
loop_
 _symmetry_equiv_pos_site_id
 _symmetry_equiv_pos_as_xyz
  1  'x, y, z'
loop_
 _atom_site_type_symbol
 _atom_site_label
 _atom_site_symmetry_multiplicity
 _atom_site_fract_x
 _atom_site_fract_y
 _atom_site_fract_z
 _atom_site_occupancy
  Mn  Mn0  1  0.000020  0.999967  0.999971  1
  Be  Be1  1  0.370031  0.187425  0.999996  1
  Be  Be2  1  0.187455  0.370040  0.999998  1
  Be  Be3  1  0.684217  0.390670  0.000000  1
  Be  Be4  1  0.390721  0.684271  0.000001  1
  Be  Be5  1  0.812551  0.812593  0.182618  1
  Be  Be6  1  0.370091  0.000039  0.187462  1
  Be  Be7  1  0.000002  0.370052  0.187464  1
  Be  Be8  1  0.609274  0.609281  0.293564  1
  Be  Be9  1  0.706435  0.315733  0.315733  1
  Be  Be10  1  0.315767  0.706431  0.315770  1
  Be  Be11  1  0.187449  0.000041  0.370067  1
  Be  Be12  1  0.000000  0.187423  0.370017  1
  Be  Be13  1  0.684272  0.000001  0.390733  1
  Be  Be14  1  0.999996  0.684287  0.390737  1
  Be  Be15  1  0.609266  0.293562  0.609270  1
  Be  Be16  1  0.293553  0.609277  0.609278  1
  Be  Be17  1  0.817388  0.629976  0.629933  1
  Be  Be18  1  0.629988  0.817414  0.629986  1
  Be  Be19  1  0.390713  0.000001  0.684264  1
  Be  Be20  1  0.999997  0.390669  0.684227  1
  Be  Be21  1  0.315712  0.315717  0.706439  1
  Be  Be22  1  0.812547  0.182588  0.812544  1
  Be  Be23  1  0.182629  0.812587  0.812543  1
  Be  Be24  1  0.629927  0.629967  0.817390  1
  Fe  Fe25  1  0.621434  0.000005  0.999999  1
  Fe  Fe26  1  0.999997  0.621405  0.999998  1
  Fe  Fe27  1  0.378574  0.378576  0.378573  1
  Fe  Fe28  1  0.999997  0.000000  0.621425  1
