# generated using pymatgen
data_K4Sr2TiBi4
_symmetry_space_group_name_H-M   'P 1'
_cell_length_a   11.12862271
_cell_length_b   11.12862177
_cell_length_c   8.39183495
_cell_angle_alpha   88.40924016
_cell_angle_beta   88.40923915
_cell_angle_gamma   60.46140421
_symmetry_Int_Tables_number   1
_chemical_formula_structural   K4Sr2TiBi4
_chemical_formula_sum   'K8 Sr4 Ti2 Bi8'
_cell_volume   903.74639694
_cell_formula_units_Z   2
loop_
 _symmetry_equiv_pos_site_id
 _symmetry_equiv_pos_as_xyz
  1  'x, y, z'
loop_
 _atom_site_type_symbol
 _atom_site_label
 _atom_site_symmetry_multiplicity
 _atom_site_fract_x
 _atom_site_fract_y
 _atom_site_fract_z
 _atom_site_occupancy
  K  K0  1  0.946864  0.525702  0.372988  1
  K  K1  1  0.525702  0.946864  0.372988  1
  K  K2  1  0.720167  0.133663  0.186821  1
  K  K3  1  0.133663  0.720167  0.186821  1
  K  K4  1  0.142652  0.142652  0.207188  1
  K  K5  1  0.276461  0.865343  0.690254  1
  K  K6  1  0.865343  0.276461  0.690254  1
  K  K7  1  0.854612  0.854612  0.651717  1
  Sr  Sr8  1  0.525763  0.525763  0.371251  1
  Sr  Sr9  1  0.049601  0.478943  0.877774  1
  Sr  Sr10  1  0.478943  0.049601  0.877774  1
  Sr  Sr11  1  0.479581  0.479581  0.869977  1
  Ti  Ti12  1  0.335362  0.335362  0.490536  1
  Ti  Ti13  1  0.664678  0.664678  0.982688  1
  Bi  Bi14  1  0.392748  0.799933  0.093136  1
  Bi  Bi15  1  0.799933  0.392748  0.093136  1
  Bi  Bi16  1  0.803340  0.803340  0.061090  1
  Bi  Bi17  1  0.603660  0.206886  0.599334  1
  Bi  Bi18  1  0.206886  0.603660  0.599334  1
  Bi  Bi19  1  0.202565  0.202565  0.619955  1
  Bi  Bi20  1  0.336485  0.336485  0.152535  1
  Bi  Bi21  1  0.655604  0.655604  0.655266  1
