# generated using pymatgen
data_LiY3ThOs
_symmetry_space_group_name_H-M   'P 1'
_cell_length_a   9.76759303
_cell_length_b   9.76759245
_cell_length_c   9.76759300
_cell_angle_alpha   60.00000152
_cell_angle_beta   60.00000350
_cell_angle_gamma   60.00000231
_symmetry_Int_Tables_number   1
_chemical_formula_structural   LiY3ThOs
_chemical_formula_sum   'Li4 Y12 Th4 Os4'
_cell_volume   658.94272595
_cell_formula_units_Z   4
loop_
 _symmetry_equiv_pos_site_id
 _symmetry_equiv_pos_as_xyz
  1  'x, y, z'
loop_
 _atom_site_type_symbol
 _atom_site_label
 _atom_site_symmetry_multiplicity
 _atom_site_fract_x
 _atom_site_fract_y
 _atom_site_fract_z
 _atom_site_occupancy
  Li  Li0  1  0.579795  0.579795  0.579795  1
  Li  Li1  1  0.579795  0.579795  0.260615  1
  Li  Li2  1  0.579795  0.260615  0.579795  1
  Li  Li3  1  0.260615  0.579795  0.579795  1
  Y  Y4  1  0.813449  0.186551  0.186551  1
  Y  Y5  1  0.186551  0.813449  0.813449  1
  Y  Y6  1  0.186551  0.813449  0.186551  1
  Y  Y7  1  0.813449  0.186551  0.813449  1
  Y  Y8  1  0.186551  0.186551  0.813449  1
  Y  Y9  1  0.813449  0.813449  0.186551  1
  Y  Y10  1  0.939162  0.560838  0.560838  1
  Y  Y11  1  0.560838  0.939162  0.939162  1
  Y  Y12  1  0.560838  0.939162  0.560838  1
  Y  Y13  1  0.939162  0.560838  0.939162  1
  Y  Y14  1  0.560838  0.560838  0.939162  1
  Y  Y15  1  0.939162  0.939162  0.560838  1
  Th  Th16  1  0.346745  0.346745  0.346745  1
  Th  Th17  1  0.346745  0.346745  0.959765  1
  Th  Th18  1  0.346745  0.959765  0.346745  1
  Th  Th19  1  0.959765  0.346745  0.346745  1
  Os  Os20  1  0.143337  0.143337  0.143337  1
  Os  Os21  1  0.143337  0.143337  0.569988  1
  Os  Os22  1  0.143337  0.569988  0.143337  1
  Os  Os23  1  0.569988  0.143337  0.143337  1
