# generated using pymatgen
data_Er6Sc4Si5As
_symmetry_space_group_name_H-M   'P 1'
_cell_length_a   8.22501200
_cell_length_b   8.23574446
_cell_length_c   5.97703000
_cell_angle_alpha   90.00000000
_cell_angle_beta   90.00000000
_cell_angle_gamma   119.95689328
_symmetry_Int_Tables_number   1
_chemical_formula_structural   Er6Sc4Si5As
_chemical_formula_sum   'Er6 Sc4 Si5 As1'
_cell_volume   350.78737282
_cell_formula_units_Z   1
loop_
 _symmetry_equiv_pos_site_id
 _symmetry_equiv_pos_as_xyz
  1  'x, y, z'
loop_
 _atom_site_type_symbol
 _atom_site_label
 _atom_site_symmetry_multiplicity
 _atom_site_fract_x
 _atom_site_fract_y
 _atom_site_fract_z
 _atom_site_occupancy
  Er  Er0  1  0.996605  0.751834  0.750000  1
  Er  Er1  1  0.000315  0.245713  0.250000  1
  Er  Er2  1  0.754602  0.754287  0.250000  1
  Er  Er3  1  0.755781  0.000000  0.750000  1
  Er  Er4  1  0.244771  0.248166  0.750000  1
  Er  Er5  1  0.245631  0.000000  0.250000  1
  Sc  Sc6  1  0.332810  0.664228  0.498143  1
  Sc  Sc7  1  0.668583  0.335772  0.001857  1
  Sc  Sc8  1  0.668583  0.335772  0.498143  1
  Sc  Sc9  1  0.332810  0.664228  0.001857  1
  Si  Si10  1  0.398197  0.397258  0.250000  1
  Si  Si11  1  0.000940  0.602742  0.250000  1
  Si  Si12  1  0.999817  0.398065  0.750000  1
  Si  Si13  1  0.601753  0.601935  0.750000  1
  Si  Si14  1  0.603579  0.000000  0.250000  1
  As  As15  1  0.395221  0.000000  0.750000  1
