# generated using pymatgen
data_Ta8Mo3
_symmetry_space_group_name_H-M   'P 1'
_cell_length_a   5.44012287
_cell_length_b   5.44012195
_cell_length_c   11.85359183
_cell_angle_alpha   104.89286835
_cell_angle_beta   104.89286643
_cell_angle_gamma   34.78583128
_symmetry_Int_Tables_number   1
_chemical_formula_structural   Ta8Mo3
_chemical_formula_sum   'Ta8 Mo3'
_cell_volume   192.74328373
_cell_formula_units_Z   1
loop_
 _symmetry_equiv_pos_site_id
 _symmetry_equiv_pos_as_xyz
  1  'x, y, z'
loop_
 _atom_site_type_symbol
 _atom_site_label
 _atom_site_symmetry_multiplicity
 _atom_site_fract_x
 _atom_site_fract_y
 _atom_site_fract_z
 _atom_site_occupancy
  Ta  Ta0  1  0.719259  0.719259  0.087521  1
  Ta  Ta1  1  0.456510  0.456510  0.183076  1
  Ta  Ta2  1  0.192365  0.192365  0.277576  1
  Ta  Ta3  1  0.630198  0.630198  0.456634  1
  Ta  Ta4  1  0.369803  0.369803  0.543365  1
  Ta  Ta5  1  0.807635  0.807635  0.722424  1
  Ta  Ta6  1  0.543490  0.543490  0.816924  1
  Ta  Ta7  1  0.280742  0.280742  0.912480  1
  Mo  Mo8  1  0.000000  0.000000  0.000000  1
  Mo  Mo9  1  0.910262  0.910262  0.362729  1
  Mo  Mo10  1  0.089738  0.089738  0.637272  1
