# generated using pymatgen
data_Li3Ac4LuPt4
_symmetry_space_group_name_H-M   'P 1'
_cell_length_a   4.30782700
_cell_length_b   7.58895587
_cell_length_c   9.07403300
_cell_angle_alpha   89.06945029
_cell_angle_beta   90.00000000
_cell_angle_gamma   90.00000000
_symmetry_Int_Tables_number   1
_chemical_formula_structural   Li3Ac4LuPt4
_chemical_formula_sum   'Li3 Ac4 Lu1 Pt4'
_cell_volume   296.60833771
_cell_formula_units_Z   1
loop_
 _symmetry_equiv_pos_site_id
 _symmetry_equiv_pos_as_xyz
  1  'x, y, z'
loop_
 _atom_site_type_symbol
 _atom_site_label
 _atom_site_symmetry_multiplicity
 _atom_site_fract_x
 _atom_site_fract_y
 _atom_site_fract_z
 _atom_site_occupancy
  Li  Li0  1  0.250000  0.141586  0.063760  1
  Li  Li1  1  0.750000  0.377277  0.549000  1
  Li  Li2  1  0.250000  0.626876  0.448667  1
  Ac  Ac3  1  0.250000  0.520044  0.803660  1
  Ac  Ac4  1  0.250000  0.048903  0.668773  1
  Ac  Ac5  1  0.750000  0.962098  0.320833  1
  Ac  Ac6  1  0.750000  0.458663  0.190906  1
  Lu  Lu7  1  0.750000  0.874170  0.943586  1
  Pt  Pt8  1  0.250000  0.746816  0.107270  1
  Pt  Pt9  1  0.250000  0.258453  0.383122  1
  Pt  Pt10  1  0.750000  0.750852  0.633924  1
  Pt  Pt11  1  0.750000  0.234262  0.886501  1
