# generated using pymatgen
data_PrAg(WO4)2
_symmetry_space_group_name_H-M   'P 1'
_cell_length_a   7.62616203
_cell_length_b   7.62616181
_cell_length_c   7.44810474
_cell_angle_alpha   65.32900620
_cell_angle_beta   65.32900608
_cell_angle_gamma   94.49377643
_symmetry_Int_Tables_number   1
_chemical_formula_structural   PrAg(WO4)2
_chemical_formula_sum   'Pr2 Ag2 W4 O16'
_cell_volume   340.55546477
_cell_formula_units_Z   2
loop_
 _symmetry_equiv_pos_site_id
 _symmetry_equiv_pos_as_xyz
  1  'x, y, z'
loop_
 _atom_site_type_symbol
 _atom_site_label
 _atom_site_symmetry_multiplicity
 _atom_site_fract_x
 _atom_site_fract_y
 _atom_site_fract_z
 _atom_site_occupancy
  Pr  Pr0  1  0.700851  0.299149  0.000000  1
  Pr  Pr1  1  0.299149  0.700851  0.000000  1
  Ag  Ag2  1  0.690499  0.690499  0.480203  1
  Ag  Ag3  1  0.309501  0.309501  0.519797  1
  W  W4  1  0.213927  0.213927  0.027682  1
  W  W5  1  0.786073  0.786073  0.972318  1
  W  W6  1  0.841132  0.158868  0.500000  1
  W  W7  1  0.158868  0.841132  0.500000  1
  O  O8  1  0.346286  0.101964  0.239254  1
  O  O9  1  0.653714  0.898036  0.760746  1
  O  O10  1  0.898036  0.653714  0.760746  1
  O  O11  1  0.101964  0.346286  0.239254  1
  O  O12  1  0.690534  0.206441  0.360691  1
  O  O13  1  0.309466  0.793559  0.639309  1
  O  O14  1  0.793559  0.309466  0.639309  1
  O  O15  1  0.206441  0.690534  0.360691  1
  O  O16  1  0.698807  0.948317  0.092180  1
  O  O17  1  0.301193  0.051683  0.907820  1
  O  O18  1  0.051683  0.301193  0.907820  1
  O  O19  1  0.948317  0.698807  0.092180  1
  O  O20  1  0.980317  0.980317  0.340788  1
  O  O21  1  0.019683  0.019683  0.659212  1
  O  O22  1  0.556155  0.556155  0.144115  1
  O  O23  1  0.443845  0.443845  0.855885  1
