# generated using pymatgen
data_Zr24BeGe3S8
_symmetry_space_group_name_H-M   'P 1'
_cell_length_a   3.63127500
_cell_length_b   12.44137107
_cell_length_c   15.33725500
_cell_angle_alpha   90.02378158
_cell_angle_beta   90.00000000
_cell_angle_gamma   90.00000000
_symmetry_Int_Tables_number   1
_chemical_formula_structural   Zr24BeGe3S8
_chemical_formula_sum   'Zr24 Be1 Ge3 S8'
_cell_volume   692.90705618
_cell_formula_units_Z   1
loop_
 _symmetry_equiv_pos_site_id
 _symmetry_equiv_pos_as_xyz
  1  'x, y, z'
loop_
 _atom_site_type_symbol
 _atom_site_label
 _atom_site_symmetry_multiplicity
 _atom_site_fract_x
 _atom_site_fract_y
 _atom_site_fract_z
 _atom_site_occupancy
  Zr  Zr0  1  0.000000  0.344982  0.474095  1
  Zr  Zr1  1  0.000000  0.661223  0.519960  1
  Zr  Zr2  1  0.500000  0.153490  0.975420  1
  Zr  Zr3  1  0.500000  0.847600  0.025248  1
  Zr  Zr4  1  0.000000  0.081635  0.576319  1
  Zr  Zr5  1  0.000000  0.905840  0.423219  1
  Zr  Zr6  1  0.500000  0.418085  0.078129  1
  Zr  Zr7  1  0.500000  0.582383  0.923175  1
  Zr  Zr8  1  0.000000  0.692187  0.292410  1
  Zr  Zr9  1  0.000000  0.311659  0.711256  1
  Zr  Zr10  1  0.500000  0.811288  0.787897  1
  Zr  Zr11  1  0.500000  0.188408  0.212506  1
  Zr  Zr12  1  0.000000  0.026935  0.109791  1
  Zr  Zr13  1  0.000000  0.973272  0.890264  1
  Zr  Zr14  1  0.500000  0.475183  0.606579  1
  Zr  Zr15  1  0.500000  0.527992  0.392408  1
  Zr  Zr16  1  0.000000  0.622084  0.084588  1
  Zr  Zr17  1  0.000000  0.378768  0.917147  1
  Zr  Zr18  1  0.500000  0.880070  0.583058  1
  Zr  Zr19  1  0.500000  0.116748  0.416711  1
  Zr  Zr20  1  0.000000  0.410793  0.248118  1
  Zr  Zr21  1  0.000000  0.591107  0.752153  1
  Zr  Zr22  1  0.500000  0.090365  0.746324  1
  Zr  Zr23  1  0.500000  0.909978  0.252770  1
  Be  Be24  1  0.500000  0.752690  0.411002  1
  Ge  Ge25  1  0.000000  0.255609  0.088195  1
  Ge  Ge26  1  0.000000  0.744658  0.912701  1
  Ge  Ge27  1  0.500000  0.244031  0.587034  1
  S  S28  1  0.000000  0.815302  0.150946  1
  S  S29  1  0.000000  0.185637  0.849198  1
  S  S30  1  0.500000  0.685467  0.649303  1
  S  S31  1  0.500000  0.313402  0.349564  1
  S  S32  1  0.000000  0.059726  0.291403  1
  S  S33  1  0.000000  0.938008  0.709699  1
  S  S34  1  0.500000  0.439249  0.788721  1
  S  S35  1  0.500000  0.564146  0.212686  1
