# generated using pymatgen
data_Sm2V3Si7Pt9
_symmetry_space_group_name_H-M   'P 1'
_cell_length_a   9.82183300
_cell_length_b   9.82183335
_cell_length_c   3.99019800
_cell_angle_alpha   90.00000000
_cell_angle_beta   90.00000000
_cell_angle_gamma   120.00000220
_symmetry_Int_Tables_number   1
_chemical_formula_structural   Sm2V3Si7Pt9
_chemical_formula_sum   'Sm2 V3 Si7 Pt9'
_cell_volume   333.35745747
_cell_formula_units_Z   1
loop_
 _symmetry_equiv_pos_site_id
 _symmetry_equiv_pos_as_xyz
  1  'x, y, z'
loop_
 _atom_site_type_symbol
 _atom_site_label
 _atom_site_symmetry_multiplicity
 _atom_site_fract_x
 _atom_site_fract_y
 _atom_site_fract_z
 _atom_site_occupancy
  Sm  Sm0  1  0.000000  0.000000  0.000000  1
  Sm  Sm1  1  0.333333  0.666667  0.500000  1
  V  V2  1  0.875927  0.451872  0.500000  1
  V  V3  1  0.575945  0.124073  0.500000  1
  V  V4  1  0.548128  0.424055  0.500000  1
  Si  Si5  1  0.265687  0.222991  0.500000  1
  Si  Si6  1  0.777009  0.042698  0.500000  1
  Si  Si7  1  0.957302  0.734313  0.500000  1
  Si  Si8  1  0.553249  0.628584  0.000000  1
  Si  Si9  1  0.371416  0.924663  0.000000  1
  Si  Si10  1  0.075337  0.446751  0.000000  1
  Si  Si11  1  0.666667  0.333333  0.000000  1
  Pt  Pt12  1  0.229541  0.947817  0.500000  1
  Pt  Pt13  1  0.052183  0.281724  0.500000  1
  Pt  Pt14  1  0.718276  0.770459  0.500000  1
  Pt  Pt15  1  0.300985  0.404364  0.000000  1
  Pt  Pt16  1  0.595636  0.896621  0.000000  1
  Pt  Pt17  1  0.103379  0.699015  0.000000  1
  Pt  Pt18  1  0.392199  0.177818  0.000000  1
  Pt  Pt19  1  0.822182  0.214380  0.000000  1
  Pt  Pt20  1  0.785620  0.607801  0.000000  1
