# generated using pymatgen
data_Sm2FeB2RuN2
_symmetry_space_group_name_H-M   'P 1'
_cell_length_a   3.60835400
_cell_length_b   3.60835400
_cell_length_c   7.88138300
_cell_angle_alpha   90.00000000
_cell_angle_beta   90.00000000
_cell_angle_gamma   90.00000000
_symmetry_Int_Tables_number   1
_chemical_formula_structural   Sm2FeB2RuN2
_chemical_formula_sum   'Sm2 Fe1 B2 Ru1 N2'
_cell_volume   102.61732945
_cell_formula_units_Z   1
loop_
 _symmetry_equiv_pos_site_id
 _symmetry_equiv_pos_as_xyz
  1  'x, y, z'
loop_
 _atom_site_type_symbol
 _atom_site_label
 _atom_site_symmetry_multiplicity
 _atom_site_fract_x
 _atom_site_fract_y
 _atom_site_fract_z
 _atom_site_occupancy
  Sm  Sm0  1  0.500001  0.000000  0.165569  1
  Sm  Sm1  1  0.000000  0.500001  0.834431  1
  Fe  Fe2  1  0.000000  0.000000  0.500000  1
  B  B3  1  0.000000  0.500001  0.332701  1
  B  B4  1  0.500001  0.000000  0.667299  1
  Ru  Ru5  1  0.500001  0.500001  0.500000  1
  N  N6  1  0.000000  0.500001  0.145026  1
  N  N7  1  0.500001  0.000000  0.854974  1
