# generated using pymatgen
data_HoEr2(Ga2Ni3)3
_symmetry_space_group_name_H-M   'P 1'
_cell_length_a   8.74619200
_cell_length_b   8.74619197
_cell_length_c   4.07424900
_cell_angle_alpha   90.00000000
_cell_angle_beta   90.00000000
_cell_angle_gamma   119.99999255
_symmetry_Int_Tables_number   1
_chemical_formula_structural   HoEr2(Ga2Ni3)3
_chemical_formula_sum   'Ho1 Er2 Ga6 Ni9'
_cell_volume   269.90830273
_cell_formula_units_Z   1
loop_
 _symmetry_equiv_pos_site_id
 _symmetry_equiv_pos_as_xyz
  1  'x, y, z'
loop_
 _atom_site_type_symbol
 _atom_site_label
 _atom_site_symmetry_multiplicity
 _atom_site_fract_x
 _atom_site_fract_y
 _atom_site_fract_z
 _atom_site_occupancy
  Ho  Ho0  1  0.666667  0.333333  0.500000  1
  Er  Er1  1  0.333333  0.666667  0.500000  1
  Er  Er2  1  0.000000  0.000000  0.000000  1
  Ga  Ga3  1  0.478130  0.477846  0.000000  1
  Ga  Ga4  1  0.522154  0.000284  0.000000  1
  Ga  Ga5  1  0.999716  0.521870  0.000000  1
  Ga  Ga6  1  0.729125  0.729013  0.500000  1
  Ga  Ga7  1  0.270987  0.000112  0.500000  1
  Ga  Ga8  1  0.999888  0.270875  0.500000  1
  Ni  Ni9  1  0.827840  0.203255  0.000000  1
  Ni  Ni10  1  0.796745  0.624585  0.000000  1
  Ni  Ni11  1  0.375415  0.172160  0.000000  1
  Ni  Ni12  1  0.201736  0.826452  0.000000  1
  Ni  Ni13  1  0.624716  0.798264  0.000000  1
  Ni  Ni14  1  0.173548  0.375284  0.000000  1
  Ni  Ni15  1  0.292234  0.293018  0.500000  1
  Ni  Ni16  1  0.706982  0.999216  0.500000  1
  Ni  Ni17  1  0.000784  0.707766  0.500000  1
