# generated using pymatgen
data_Tb2Y10Ru7
_symmetry_space_group_name_H-M   'P 1'
_cell_length_a   11.38816100
_cell_length_b   8.42358215
_cell_length_c   11.30792994
_cell_angle_alpha   56.38335472
_cell_angle_beta   90.00000000
_cell_angle_gamma   90.00000000
_symmetry_Int_Tables_number   1
_chemical_formula_structural   Tb2Y10Ru7
_chemical_formula_sum   'Tb4 Y20 Ru14'
_cell_volume   903.34492204
_cell_formula_units_Z   2
loop_
 _symmetry_equiv_pos_site_id
 _symmetry_equiv_pos_as_xyz
  1  'x, y, z'
loop_
 _atom_site_type_symbol
 _atom_site_label
 _atom_site_symmetry_multiplicity
 _atom_site_fract_x
 _atom_site_fract_y
 _atom_site_fract_z
 _atom_site_occupancy
  Tb  Tb0  1  0.925576  0.281692  0.292654  1
  Tb  Tb1  1  0.425576  0.718308  0.207346  1
  Tb  Tb2  1  0.074424  0.718308  0.707346  1
  Tb  Tb3  1  0.574424  0.281692  0.792654  1
  Y  Y4  1  0.705250  0.244103  0.531089  1
  Y  Y5  1  0.205250  0.755897  0.968911  1
  Y  Y6  1  0.845075  0.508609  0.655244  1
  Y  Y7  1  0.345075  0.491391  0.844756  1
  Y  Y8  1  0.154925  0.491391  0.344756  1
  Y  Y9  1  0.654925  0.508609  0.155244  1
  Y  Y10  1  0.006535  0.853786  0.359732  1
  Y  Y11  1  0.506535  0.146214  0.140268  1
  Y  Y12  1  0.993465  0.146214  0.640268  1
  Y  Y13  1  0.493465  0.853786  0.859732  1
  Y  Y14  1  0.794750  0.244103  0.031089  1
  Y  Y15  1  0.294750  0.755897  0.468911  1
  Y  Y16  1  0.931674  0.777955  0.089378  1
  Y  Y17  1  0.431674  0.222045  0.410622  1
  Y  Y18  1  0.068326  0.222045  0.910622  1
  Y  Y19  1  0.568326  0.777955  0.589378  1
  Y  Y20  1  0.300572  0.240297  0.676104  1
  Y  Y21  1  0.800572  0.759703  0.823896  1
  Y  Y22  1  0.699428  0.759703  0.323896  1
  Y  Y23  1  0.199428  0.240297  0.176104  1
  Ru  Ru24  1  0.500000  0.500000  0.500000  1
  Ru  Ru25  1  0.000000  0.500000  0.000000  1
  Ru  Ru26  1  0.647516  0.926704  0.031439  1
  Ru  Ru27  1  0.147516  0.073296  0.468561  1
  Ru  Ru28  1  0.352484  0.073296  0.968561  1
  Ru  Ru29  1  0.852484  0.926704  0.531439  1
  Ru  Ru30  1  0.398806  0.484677  0.103154  1
  Ru  Ru31  1  0.898806  0.515323  0.396846  1
  Ru  Ru32  1  0.601194  0.515323  0.896846  1
  Ru  Ru33  1  0.101194  0.484677  0.603154  1
  Ru  Ru34  1  0.817026  0.096705  0.851579  1
  Ru  Ru35  1  0.317026  0.903295  0.648421  1
  Ru  Ru36  1  0.182974  0.903295  0.148421  1
  Ru  Ru37  1  0.682974  0.096705  0.351579  1
