# generated using pymatgen
data_Yb6HoTmBi6
_symmetry_space_group_name_H-M   'P 1'
_cell_length_a   8.15859906
_cell_length_b   8.36223427
_cell_length_c   8.36223306
_cell_angle_alpha   109.95925728
_cell_angle_beta   108.97866843
_cell_angle_gamma   108.97866331
_symmetry_Int_Tables_number   1
_chemical_formula_structural   Yb6HoTmBi6
_chemical_formula_sum   'Yb6 Ho1 Tm1 Bi6'
_cell_volume   441.81679389
_cell_formula_units_Z   1
loop_
 _symmetry_equiv_pos_site_id
 _symmetry_equiv_pos_as_xyz
  1  'x, y, z'
loop_
 _atom_site_type_symbol
 _atom_site_label
 _atom_site_symmetry_multiplicity
 _atom_site_fract_x
 _atom_site_fract_y
 _atom_site_fract_z
 _atom_site_occupancy
  Yb  Yb0  1  0.500994  0.999272  0.646830  1
  Yb  Yb1  1  0.354292  0.352420  0.353336  1
  Yb  Yb2  1  0.501872  0.000915  0.147580  1
  Yb  Yb3  1  0.001722  0.647558  0.500728  1
  Yb  Yb4  1  0.854164  0.853170  0.852442  1
  Yb  Yb5  1  0.000957  0.146664  0.499085  1
  Ho  Ho6  1  0.142299  0.500000  0.000000  1
  Tm  Tm7  1  0.642101  0.500000  0.000000  1
  Bi  Bi8  1  0.377277  0.622269  0.757543  1
  Bi  Bi9  1  0.876420  0.257212  0.122470  1
  Bi  Bi10  1  0.619734  0.742457  0.364726  1
  Bi  Bi11  1  0.119209  0.865259  0.242788  1
  Bi  Bi12  1  0.255008  0.135274  0.877731  1
  Bi  Bi13  1  0.753950  0.377530  0.634741  1
