# generated using pymatgen
data_Li3Ac2ScPb3
_symmetry_space_group_name_H-M   'P 1'
_cell_length_a   4.82645000
_cell_length_b   4.82645010
_cell_length_c   12.18802700
_cell_angle_alpha   90.00000000
_cell_angle_beta   90.00000000
_cell_angle_gamma   119.99998562
_symmetry_Int_Tables_number   1
_chemical_formula_structural   Li3Ac2ScPb3
_chemical_formula_sum   'Li3 Ac2 Sc1 Pb3'
_cell_volume   245.87803512
_cell_formula_units_Z   1
loop_
 _symmetry_equiv_pos_site_id
 _symmetry_equiv_pos_as_xyz
  1  'x, y, z'
loop_
 _atom_site_type_symbol
 _atom_site_label
 _atom_site_symmetry_multiplicity
 _atom_site_fract_x
 _atom_site_fract_y
 _atom_site_fract_z
 _atom_site_occupancy
  Li  Li0  1  0.000000  0.000000  0.774395  1
  Li  Li1  1  0.333333  0.666667  0.553702  1
  Li  Li2  1  0.000000  0.000000  0.177889  1
  Ac  Ac3  1  0.666667  0.333333  0.347073  1
  Ac  Ac4  1  0.666667  0.333333  0.987572  1
  Sc  Sc5  1  0.666667  0.333333  0.664956  1
  Pb  Pb6  1  0.333333  0.666667  0.168491  1
  Pb  Pb7  1  0.333333  0.666667  0.800007  1
  Pb  Pb8  1  0.000000  0.000000  0.525916  1
