# generated using pymatgen
data_La2Sn4PtRh
_symmetry_space_group_name_H-M   'P 1'
_cell_length_a   9.04290942
_cell_length_b   9.04290888
_cell_length_c   9.69790900
_cell_angle_alpha   90.00000000
_cell_angle_beta   90.00000000
_cell_angle_gamma   149.78252161
_symmetry_Int_Tables_number   1
_chemical_formula_structural   La2Sn4PtRh
_chemical_formula_sum   'La4 Sn8 Pt2 Rh2'
_cell_volume   399.12340600
_cell_formula_units_Z   2
loop_
 _symmetry_equiv_pos_site_id
 _symmetry_equiv_pos_as_xyz
  1  'x, y, z'
loop_
 _atom_site_type_symbol
 _atom_site_label
 _atom_site_symmetry_multiplicity
 _atom_site_fract_x
 _atom_site_fract_y
 _atom_site_fract_z
 _atom_site_occupancy
  La  La0  1  0.500058  0.499942  0.498951  1
  La  La1  1  0.499942  0.500058  0.998951  1
  La  La2  1  0.296667  0.703333  0.248243  1
  La  La3  1  0.703333  0.296667  0.748243  1
  Sn  Sn4  1  0.910155  0.089845  0.746395  1
  Sn  Sn5  1  0.927210  0.072790  0.255822  1
  Sn  Sn6  1  0.089845  0.910155  0.246395  1
  Sn  Sn7  1  0.072790  0.927210  0.755822  1
  Sn  Sn8  1  0.699466  0.300534  0.407462  1
  Sn  Sn9  1  0.303943  0.696057  0.590051  1
  Sn  Sn10  1  0.300534  0.699466  0.907462  1
  Sn  Sn11  1  0.696057  0.303943  0.090051  1
  Pt  Pt12  1  0.146034  0.853966  0.507611  1
  Pt  Pt13  1  0.853966  0.146034  0.007611  1
  Rh  Rh14  1  0.149645  0.850355  0.995465  1
  Rh  Rh15  1  0.850355  0.149645  0.495465  1
