# generated using pymatgen
data_ErTm3Ga5Tc3
_symmetry_space_group_name_H-M   'P 1'
_cell_length_a   5.44698003
_cell_length_b   5.49540483
_cell_length_c   8.66585501
_cell_angle_alpha   90.00000156
_cell_angle_beta   89.99533078
_cell_angle_gamma   120.29450579
_symmetry_Int_Tables_number   1
_chemical_formula_structural   ErTm3Ga5Tc3
_chemical_formula_sum   'Er1 Tm3 Ga5 Tc3'
_cell_volume   223.97576538
_cell_formula_units_Z   1
loop_
 _symmetry_equiv_pos_site_id
 _symmetry_equiv_pos_as_xyz
  1  'x, y, z'
loop_
 _atom_site_type_symbol
 _atom_site_label
 _atom_site_symmetry_multiplicity
 _atom_site_fract_x
 _atom_site_fract_y
 _atom_site_fract_z
 _atom_site_occupancy
  Er  Er0  1  0.335308  0.667654  0.443380  1
  Tm  Tm1  1  0.661955  0.330978  0.552533  1
  Tm  Tm2  1  0.661972  0.330986  0.947518  1
  Tm  Tm3  1  0.335532  0.667766  0.056436  1
  Ga  Ga4  1  0.836218  0.165620  0.249943  1
  Ga  Ga5  1  0.836218  0.670598  0.249943  1
  Ga  Ga6  1  0.328264  0.164132  0.249986  1
  Ga  Ga7  1  0.187612  0.839488  0.750079  1
  Ga  Ga8  1  0.187612  0.348124  0.750079  1
  Tc  Tc9  1  0.975712  0.987856  0.509966  1
  Tc  Tc10  1  0.975558  0.987779  0.990117  1
  Tc  Tc11  1  0.678040  0.839020  0.750020  1
