# generated using pymatgen
data_DyHo(Co3P2)2
_symmetry_space_group_name_H-M   'P 1'
_cell_length_a   3.68915000
_cell_length_b   10.49720700
_cell_length_c   12.15042900
_cell_angle_alpha   90.00134568
_cell_angle_beta   90.00000000
_cell_angle_gamma   90.00000000
_symmetry_Int_Tables_number   1
_chemical_formula_structural   DyHo(Co3P2)2
_chemical_formula_sum   'Dy3 Ho3 Co18 P12'
_cell_volume   470.53473342
_cell_formula_units_Z   3
loop_
 _symmetry_equiv_pos_site_id
 _symmetry_equiv_pos_as_xyz
  1  'x, y, z'
loop_
 _atom_site_type_symbol
 _atom_site_label
 _atom_site_symmetry_multiplicity
 _atom_site_fract_x
 _atom_site_fract_y
 _atom_site_fract_z
 _atom_site_occupancy
  Dy  Dy0  1  0.000000  0.499964  0.522089  1
  Dy  Dy1  1  0.500000  0.000060  0.478018  1
  Dy  Dy2  1  0.500000  0.817330  0.205872  1
  Ho  Ho3  1  0.500000  0.182824  0.205820  1
  Ho  Ho4  1  0.000000  0.682747  0.794244  1
  Ho  Ho5  1  0.000000  0.317235  0.794135  1
  Co  Co6  1  0.000000  0.499821  0.985929  1
  Co  Co7  1  0.500000  0.000189  0.013849  1
  Co  Co8  1  0.500000  0.297390  0.430464  1
  Co  Co9  1  0.500000  0.702551  0.430706  1
  Co  Co10  1  0.000000  0.202686  0.569565  1
  Co  Co11  1  0.000000  0.797349  0.569727  1
  Co  Co12  1  0.500000  0.879174  0.709943  1
  Co  Co13  1  0.500000  0.120834  0.709871  1
  Co  Co14  1  0.000000  0.620487  0.290293  1
  Co  Co15  1  0.000000  0.379155  0.290087  1
  Co  Co16  1  0.500000  0.333243  0.994645  1
  Co  Co17  1  0.500000  0.666603  0.994500  1
  Co  Co18  1  0.000000  0.166836  0.005201  1
  Co  Co19  1  0.000000  0.833327  0.005070  1
  Co  Co20  1  0.500000  0.499936  0.158689  1
  Co  Co21  1  0.000000  0.000067  0.841190  1
  Co  Co22  1  0.500000  0.499944  0.703541  1
  Co  Co23  1  0.000000  0.000305  0.296557  1
  P  P24  1  0.500000  0.310548  0.616230  1
  P  P25  1  0.500000  0.689396  0.616368  1
  P  P26  1  0.000000  0.189548  0.383809  1
  P  P27  1  0.000000  0.810475  0.384196  1
  P  P28  1  0.500000  0.499912  0.882384  1
  P  P29  1  0.000000  0.000308  0.117348  1
  P  P30  1  0.500000  0.847326  0.893083  1
  P  P31  1  0.500000  0.152736  0.892986  1
  P  P32  1  0.000000  0.652435  0.106682  1
  P  P33  1  0.000000  0.347260  0.106882  1
  P  P34  1  0.500000  0.499999  0.343868  1
  P  P35  1  0.000000  0.000000  0.656161  1
