# generated using pymatgen
data_Dy4Ho4Sc12Ga14SiGe
_symmetry_space_group_name_H-M   'P 1'
_cell_length_a   7.26885507
_cell_length_b   7.48572767
_cell_length_c   14.50907810
_cell_angle_alpha   90.00278337
_cell_angle_beta   89.98681153
_cell_angle_gamma   90.21342316
_symmetry_Int_Tables_number   1
_chemical_formula_structural   Dy4Ho4Sc12Ga14SiGe
_chemical_formula_sum   'Dy4 Ho4 Sc12 Ga14 Si1 Ge1'
_cell_volume   789.47217361
_cell_formula_units_Z   1
loop_
 _symmetry_equiv_pos_site_id
 _symmetry_equiv_pos_as_xyz
  1  'x, y, z'
loop_
 _atom_site_type_symbol
 _atom_site_label
 _atom_site_symmetry_multiplicity
 _atom_site_fract_x
 _atom_site_fract_y
 _atom_site_fract_z
 _atom_site_occupancy
  Dy  Dy0  1  0.511640  0.322726  0.095582  1
  Dy  Dy1  1  0.012301  0.177272  0.403921  1
  Dy  Dy2  1  0.511637  0.322737  0.404401  1
  Dy  Dy3  1  0.489313  0.677298  0.596061  1
  Ho  Ho4  1  0.012304  0.177356  0.096168  1
  Ho  Ho5  1  0.986933  0.821801  0.903145  1
  Ho  Ho6  1  0.489323  0.677345  0.903881  1
  Ho  Ho7  1  0.986933  0.821792  0.596846  1
  Sc  Sc8  1  0.160592  0.503447  0.750051  1
  Sc  Sc9  1  0.837887  0.497255  0.249926  1
  Sc  Sc10  1  0.337184  0.004106  0.249916  1
  Sc  Sc11  1  0.663330  0.994328  0.750048  1
  Sc  Sc12  1  0.330989  0.173967  0.622847  1
  Sc  Sc13  1  0.669136  0.826142  0.377344  1
  Sc  Sc14  1  0.170480  0.672300  0.376637  1
  Sc  Sc15  1  0.669144  0.826152  0.122605  1
  Sc  Sc16  1  0.829460  0.328766  0.623792  1
  Sc  Sc17  1  0.330962  0.173975  0.877208  1
  Sc  Sc18  1  0.829432  0.328808  0.876296  1
  Sc  Sc19  1  0.170516  0.672295  0.123317  1
  Ga  Ga20  1  0.032578  0.118860  0.750095  1
  Ga  Ga21  1  0.967363  0.880984  0.249905  1
  Ga  Ga22  1  0.468997  0.616740  0.249951  1
  Ga  Ga23  1  0.532997  0.385863  0.750126  1
  Ga  Ga24  1  0.285476  0.872523  0.750169  1
  Ga  Ga25  1  0.714426  0.127182  0.249875  1
  Ga  Ga26  1  0.158440  0.464905  0.540519  1
  Ga  Ga27  1  0.841663  0.535537  0.459524  1
  Ga  Ga28  1  0.339568  0.964469  0.459425  1
  Ga  Ga29  1  0.841651  0.535296  0.040456  1
  Ga  Ga30  1  0.660647  0.035532  0.540643  1
  Ga  Ga31  1  0.158613  0.464900  0.959517  1
  Ga  Ga32  1  0.660654  0.035310  0.959387  1
  Ga  Ga33  1  0.339387  0.964547  0.040546  1
  Si  Si34  1  0.784886  0.624774  0.750046  1
  Ge  Ge35  1  0.213157  0.372712  0.249826  1
