# generated using pymatgen
data_Ca6Yb2PrPd6
_symmetry_space_group_name_H-M   'P 1'
_cell_length_a   7.66760522
_cell_length_b   7.65923288
_cell_length_c   7.74185186
_cell_angle_alpha   70.80034480
_cell_angle_beta   70.91957816
_cell_angle_gamma   70.97376934
_symmetry_Int_Tables_number   1
_chemical_formula_structural   Ca6Yb2PrPd6
_chemical_formula_sum   'Ca6 Yb2 Pr1 Pd6'
_cell_volume   393.43630648
_cell_formula_units_Z   1
loop_
 _symmetry_equiv_pos_site_id
 _symmetry_equiv_pos_as_xyz
  1  'x, y, z'
loop_
 _atom_site_type_symbol
 _atom_site_label
 _atom_site_symmetry_multiplicity
 _atom_site_fract_x
 _atom_site_fract_y
 _atom_site_fract_z
 _atom_site_occupancy
  Ca  Ca0  1  0.996007  0.004665  0.001930  1
  Ca  Ca1  1  0.842476  0.333592  0.603121  1
  Ca  Ca2  1  0.604221  0.842274  0.334066  1
  Ca  Ca3  1  0.665432  0.395981  0.160720  1
  Ca  Ca4  1  0.156120  0.666180  0.394805  1
  Ca  Ca5  1  0.397509  0.156022  0.665358  1
  Yb  Yb6  1  0.799959  0.800034  0.799668  1
  Yb  Yb7  1  0.199339  0.197007  0.202798  1
  Pr  Pr8  1  0.332654  0.602578  0.845949  1
  Pd  Pd9  1  0.158560  0.951487  0.586995  1
  Pd  Pd10  1  0.579232  0.163431  0.955436  1
  Pd  Pd11  1  0.962579  0.586637  0.150196  1
  Pd  Pd12  1  0.844764  0.043278  0.415971  1
  Pd  Pd13  1  0.416042  0.840827  0.040420  1
  Pd  Pd14  1  0.045103  0.416005  0.842566  1
