# generated using pymatgen
data_Eu2GaRhI
_symmetry_space_group_name_H-M   'P 1'
_cell_length_a   4.37309700
_cell_length_b   4.37309667
_cell_length_c   17.70061600
_cell_angle_alpha   90.00000000
_cell_angle_beta   90.00000000
_cell_angle_gamma   119.99999495
_symmetry_Int_Tables_number   1
_chemical_formula_structural   Eu2GaRhI
_chemical_formula_sum   'Eu4 Ga2 Rh2 I2'
_cell_volume   293.15494371
_cell_formula_units_Z   2
loop_
 _symmetry_equiv_pos_site_id
 _symmetry_equiv_pos_as_xyz
  1  'x, y, z'
loop_
 _atom_site_type_symbol
 _atom_site_label
 _atom_site_symmetry_multiplicity
 _atom_site_fract_x
 _atom_site_fract_y
 _atom_site_fract_z
 _atom_site_occupancy
  Eu  Eu0  1  0.000000  0.000000  0.109798  1
  Eu  Eu1  1  0.000000  0.000000  0.390202  1
  Eu  Eu2  1  0.000000  0.000000  0.610205  1
  Eu  Eu3  1  0.000000  0.000000  0.889795  1
  Ga  Ga4  1  0.666666  0.333332  0.500743  1
  Ga  Ga5  1  0.666666  0.333332  0.999257  1
  Rh  Rh6  1  0.333334  0.666668  0.000562  1
  Rh  Rh7  1  0.333334  0.666668  0.499438  1
  I  I8  1  0.666666  0.333332  0.250000  1
  I  I9  1  0.333334  0.666668  0.750000  1
