# generated using pymatgen
data_Sc11Ta(Si3Os)4
_symmetry_space_group_name_H-M   'P 1'
_cell_length_a   4.01783200
_cell_length_b   10.25840222
_cell_length_c   11.58829689
_cell_angle_alpha   90.25965698
_cell_angle_beta   90.00000000
_cell_angle_gamma   90.00000000
_symmetry_Int_Tables_number   1
_chemical_formula_structural   Sc11Ta(Si3Os)4
_chemical_formula_sum   'Sc11 Ta1 Si12 Os4'
_cell_volume   477.62455904
_cell_formula_units_Z   1
loop_
 _symmetry_equiv_pos_site_id
 _symmetry_equiv_pos_as_xyz
  1  'x, y, z'
loop_
 _atom_site_type_symbol
 _atom_site_label
 _atom_site_symmetry_multiplicity
 _atom_site_fract_x
 _atom_site_fract_y
 _atom_site_fract_z
 _atom_site_occupancy
  Sc  Sc0  1  0.250000  0.623444  0.519163  1
  Sc  Sc1  1  0.750000  0.124869  0.981943  1
  Sc  Sc2  1  0.750000  0.377099  0.480723  1
  Sc  Sc3  1  0.250000  0.921272  0.605238  1
  Sc  Sc4  1  0.250000  0.581952  0.103466  1
  Sc  Sc5  1  0.750000  0.078321  0.393346  1
  Sc  Sc6  1  0.750000  0.421630  0.896294  1
  Sc  Sc7  1  0.250000  0.660021  0.799085  1
  Sc  Sc8  1  0.250000  0.840404  0.298411  1
  Sc  Sc9  1  0.750000  0.339678  0.201580  1
  Sc  Sc10  1  0.750000  0.157590  0.702338  1
  Ta  Ta11  1  0.250000  0.874985  0.019116  1
  Si  Si12  1  0.250000  0.013732  0.826748  1
  Si  Si13  1  0.250000  0.485475  0.321035  1
  Si  Si14  1  0.750000  0.982201  0.173969  1
  Si  Si15  1  0.750000  0.515251  0.678493  1
  Si  Si16  1  0.250000  0.251954  0.841706  1
  Si  Si17  1  0.250000  0.246695  0.339633  1
  Si  Si18  1  0.750000  0.751135  0.157567  1
  Si  Si19  1  0.750000  0.753199  0.659220  1
  Si  Si20  1  0.250000  0.193863  0.545605  1
  Si  Si21  1  0.250000  0.307579  0.046530  1
  Si  Si22  1  0.750000  0.805457  0.454374  1
  Si  Si23  1  0.750000  0.696717  0.956235  1
  Os  Os24  1  0.250000  0.390734  0.675793  1
  Os  Os25  1  0.250000  0.105023  0.171273  1
  Os  Os26  1  0.750000  0.610175  0.321837  1
  Os  Os27  1  0.750000  0.889545  0.829280  1
