# generated using pymatgen
data_Y4Ir3RuF28
_symmetry_space_group_name_H-M   'P 1'
_cell_length_a   5.57675082
_cell_length_b   8.93878956
_cell_length_c   11.98283507
_cell_angle_alpha   62.56019207
_cell_angle_beta   89.96290066
_cell_angle_gamma   90.06217588
_symmetry_Int_Tables_number   1
_chemical_formula_structural   Y4Ir3RuF28
_chemical_formula_sum   'Y4 Ir3 Ru1 F28'
_cell_volume   530.13324878
_cell_formula_units_Z   1
loop_
 _symmetry_equiv_pos_site_id
 _symmetry_equiv_pos_as_xyz
  1  'x, y, z'
loop_
 _atom_site_type_symbol
 _atom_site_label
 _atom_site_symmetry_multiplicity
 _atom_site_fract_x
 _atom_site_fract_y
 _atom_site_fract_z
 _atom_site_occupancy
  Y  Y0  1  0.259131  0.812698  0.267081  1
  Y  Y1  1  0.739413  0.188640  0.732776  1
  Y  Y2  1  0.760272  0.184791  0.235208  1
  Y  Y3  1  0.238931  0.813882  0.763505  1
  Ir  Ir4  1  0.242930  0.273069  0.956454  1
  Ir  Ir5  1  0.257039  0.274110  0.455350  1
  Ir  Ir6  1  0.742346  0.726807  0.543983  1
  Ru  Ru7  1  0.756815  0.725871  0.044345  1
  F  F8  1  0.938878  0.705495  0.415356  1
  F  F9  1  0.057451  0.296187  0.582148  1
  F  F10  1  0.443807  0.294413  0.083211  1
  F  F11  1  0.555521  0.706211  0.919948  1
  F  F12  1  0.472836  0.729572  0.137590  1
  F  F13  1  0.531782  0.269095  0.862029  1
  F  F14  1  0.967955  0.271854  0.361139  1
  F  F15  1  0.033405  0.729053  0.636760  1
  F  F16  1  0.954299  0.745070  0.171529  1
  F  F17  1  0.045937  0.252842  0.827370  1
  F  F18  1  0.453018  0.254401  0.325830  1
  F  F19  1  0.550701  0.746683  0.675211  1
  F  F20  1  0.768491  0.484644  0.139533  1
  F  F21  1  0.232859  0.519369  0.858609  1
  F  F22  1  0.268273  0.520181  0.357269  1
  F  F23  1  0.731828  0.481907  0.641078  1
  F  F24  1  0.947168  0.281607  0.045671  1
  F  F25  1  0.048326  0.719122  0.955302  1
  F  F26  1  0.443966  0.719686  0.456719  1
  F  F27  1  0.553500  0.282190  0.543460  1
  F  F28  1  0.741851  0.971705  0.450302  1
  F  F29  1  0.257333  0.028101  0.549720  1
  F  F30  1  0.242376  0.027014  0.051619  1
  F  F31  1  0.756997  0.966533  0.951595  1
  F  F32  1  0.584650  0.969014  0.232055  1
  F  F33  1  0.418645  0.027932  0.768516  1
  F  F34  1  0.084155  0.028651  0.269686  1
  F  F35  1  0.917116  0.971603  0.732037  1
