# generated using pymatgen
data_Lu5CdIn4Co
_symmetry_space_group_name_H-M   'P 1'
_cell_length_a   3.54092000
_cell_length_b   8.12852207
_cell_length_c   18.11904849
_cell_angle_alpha   90.66626958
_cell_angle_beta   90.00000000
_cell_angle_gamma   90.00000000
_symmetry_Int_Tables_number   1
_chemical_formula_structural   Lu5CdIn4Co
_chemical_formula_sum   'Lu10 Cd2 In8 Co2'
_cell_volume   521.47528140
_cell_formula_units_Z   2
loop_
 _symmetry_equiv_pos_site_id
 _symmetry_equiv_pos_as_xyz
  1  'x, y, z'
loop_
 _atom_site_type_symbol
 _atom_site_label
 _atom_site_symmetry_multiplicity
 _atom_site_fract_x
 _atom_site_fract_y
 _atom_site_fract_z
 _atom_site_occupancy
  Lu  Lu0  1  0.000000  0.111602  0.414334  1
  Lu  Lu1  1  0.000000  0.888398  0.585666  1
  Lu  Lu2  1  0.000000  0.376357  0.925663  1
  Lu  Lu3  1  0.000000  0.623643  0.074337  1
  Lu  Lu4  1  0.000000  0.198987  0.229809  1
  Lu  Lu5  1  0.000000  0.801013  0.770191  1
  Lu  Lu6  1  0.000000  0.224053  0.712068  1
  Lu  Lu7  1  0.000000  0.775947  0.287932  1
  Lu  Lu8  1  0.000000  0.000000  0.000000  1
  Lu  Lu9  1  0.000000  0.500000  0.500000  1
  Cd  Cd10  1  0.500000  0.480681  0.798221  1
  Cd  Cd11  1  0.500000  0.519319  0.201779  1
  In  In12  1  0.500000  0.413854  0.354654  1
  In  In13  1  0.500000  0.586146  0.645346  1
  In  In14  1  0.500000  0.084051  0.849472  1
  In  In15  1  0.500000  0.915949  0.150528  1
  In  In16  1  0.500000  0.285451  0.072714  1
  In  In17  1  0.500000  0.714549  0.927286  1
  In  In18  1  0.500000  0.205822  0.564943  1
  In  In19  1  0.500000  0.794178  0.435057  1
  Co  Co20  1  0.500000  0.018702  0.308701  1
  Co  Co21  1  0.500000  0.981298  0.691299  1
