# generated using pymatgen
data_TbTh3(Ga3Ir)6
_symmetry_space_group_name_H-M   'P 1'
_cell_length_a   7.70079339
_cell_length_b   7.70470143
_cell_length_c   9.48598100
_cell_angle_alpha   90.00000000
_cell_angle_beta   90.00000000
_cell_angle_gamma   119.72585209
_symmetry_Int_Tables_number   1
_chemical_formula_structural   TbTh3(Ga3Ir)6
_chemical_formula_sum   'Tb1 Th3 Ga18 Ir6'
_cell_volume   488.76183653
_cell_formula_units_Z   1
loop_
 _symmetry_equiv_pos_site_id
 _symmetry_equiv_pos_as_xyz
  1  'x, y, z'
loop_
 _atom_site_type_symbol
 _atom_site_label
 _atom_site_symmetry_multiplicity
 _atom_site_fract_x
 _atom_site_fract_y
 _atom_site_fract_z
 _atom_site_occupancy
  Tb  Tb0  1  0.328826  0.004400  0.750000  1
  Th  Th1  1  0.996610  0.670555  0.250000  1
  Th  Th2  1  0.002197  0.329729  0.750000  1
  Th  Th3  1  0.669894  0.995860  0.250000  1
  Ga  Ga4  1  0.136053  0.133014  0.250000  1
  Ga  Ga5  1  0.869607  0.868176  0.750000  1
  Ga  Ga6  1  0.004773  0.335673  0.080150  1
  Ga  Ga7  1  0.001914  0.670050  0.917563  1
  Ga  Ga8  1  0.001914  0.670050  0.582437  1
  Ga  Ga9  1  0.335426  0.003529  0.425522  1
  Ga  Ga10  1  0.004773  0.335673  0.419850  1
  Ga  Ga11  1  0.658971  0.996709  0.582406  1
  Ga  Ga12  1  0.658971  0.996709  0.917594  1
  Ga  Ga13  1  0.335426  0.003529  0.074478  1
  Ga  Ga14  1  0.335116  0.330688  0.564045  1
  Ga  Ga15  1  0.663869  0.663826  0.441778  1
  Ga  Ga16  1  0.663869  0.663826  0.058222  1
  Ga  Ga17  1  0.335116  0.330688  0.935955  1
  Ga  Ga18  1  0.342829  0.544285  0.250000  1
  Ga  Ga19  1  0.655783  0.450458  0.750000  1
  Ga  Ga20  1  0.544351  0.339557  0.250000  1
  Ga  Ga21  1  0.454077  0.661615  0.750000  1
  Ir  Ir22  1  0.675390  0.329935  0.000729  1
  Ir  Ir23  1  0.327264  0.670707  0.000739  1
  Ir  Ir24  1  0.327264  0.670707  0.499261  1
  Ir  Ir25  1  0.675390  0.329935  0.499271  1
  Ir  Ir26  1  0.997164  0.000057  0.001019  1
  Ir  Ir27  1  0.997164  0.000057  0.498981  1
