# generated using pymatgen
data_Ba12SiAs3I8
_symmetry_space_group_name_H-M   'P 1'
_cell_length_a   16.32812494
_cell_length_b   15.58021344
_cell_length_c   8.66526642
_cell_angle_alpha   79.06457909
_cell_angle_beta   69.53210530
_cell_angle_gamma   31.10603588
_symmetry_Int_Tables_number   1
_chemical_formula_structural   Ba12SiAs3I8
_chemical_formula_sum   'Ba12 Si1 As3 I8'
_cell_volume   1039.18485699
_cell_formula_units_Z   1
loop_
 _symmetry_equiv_pos_site_id
 _symmetry_equiv_pos_as_xyz
  1  'x, y, z'
loop_
 _atom_site_type_symbol
 _atom_site_label
 _atom_site_symmetry_multiplicity
 _atom_site_fract_x
 _atom_site_fract_y
 _atom_site_fract_z
 _atom_site_occupancy
  Ba  Ba0  1  0.378366  0.941538  0.587150  1
  Ba  Ba1  1  0.586430  0.093963  0.376503  1
  Ba  Ba2  1  0.309192  0.871108  0.157308  1
  Ba  Ba3  1  0.941538  0.378366  0.092947  1
  Ba  Ba4  1  0.462005  0.039364  0.038511  1
  Ba  Ba5  1  0.871108  0.309192  0.662391  1
  Ba  Ba6  1  0.093963  0.586430  0.943105  1
  Ba  Ba7  1  0.658772  0.159478  0.873934  1
  Ba  Ba8  1  0.787522  0.212288  0.211603  1
  Ba  Ba9  1  0.212288  0.787522  0.788587  1
  Ba  Ba10  1  0.159478  0.658772  0.307816  1
  Ba  Ba11  1  0.039364  0.462005  0.460120  1
  Si  Si12  1  0.333818  0.333818  0.166182  1
  As  As13  1  0.084114  0.084114  0.915886  1
  As  As14  1  0.916953  0.916953  0.083047  1
  As  As15  1  0.164983  0.164983  0.335017  1
  I  I16  1  0.671780  0.671780  0.828220  1
  I  I17  1  0.746055  0.746055  0.253945  1
  I  I18  1  0.252948  0.252948  0.747052  1
  I  I19  1  0.577986  0.577986  0.422014  1
  I  I20  1  0.996881  0.996881  0.503119  1
  I  I21  1  0.827957  0.827957  0.672043  1
  I  I22  1  0.422422  0.422422  0.577578  1
  I  I23  1  0.504077  0.504077  0.995923  1
