# generated using pymatgen
data_Ba2Ca3Si7
_symmetry_space_group_name_H-M   'P 1'
_cell_length_a   9.18187000
_cell_length_b   9.18187009
_cell_length_c   4.09006300
_cell_angle_alpha   90.00000000
_cell_angle_beta   90.00000000
_cell_angle_gamma   119.99985966
_symmetry_Int_Tables_number   1
_chemical_formula_structural   Ba2Ca3Si7
_chemical_formula_sum   'Ba2 Ca3 Si7'
_cell_volume   298.62318766
_cell_formula_units_Z   1
loop_
 _symmetry_equiv_pos_site_id
 _symmetry_equiv_pos_as_xyz
  1  'x, y, z'
loop_
 _atom_site_type_symbol
 _atom_site_label
 _atom_site_symmetry_multiplicity
 _atom_site_fract_x
 _atom_site_fract_y
 _atom_site_fract_z
 _atom_site_occupancy
  Ba  Ba0  1  0.666677  0.333345  0.000000  1
  Ba  Ba1  1  0.333346  0.666678  0.000000  1
  Ca  Ca2  1  0.250216  0.000007  0.499999  1
  Ca  Ca3  1  0.000006  0.250215  0.499999  1
  Ca  Ca4  1  0.749799  0.749799  0.499999  1
  Si  Si5  1  0.000010  0.000010  0.000000  1
  Si  Si6  1  0.739747  0.000005  0.000000  1
  Si  Si7  1  0.260258  0.260258  0.000000  1
  Si  Si8  1  0.000005  0.739747  0.000000  1
  Si  Si9  1  0.595688  0.000019  0.499999  1
  Si  Si10  1  0.404327  0.404327  0.499999  1
  Si  Si11  1  0.000020  0.595689  0.499999  1
