# generated using pymatgen
data_Y10RuRh5
_symmetry_space_group_name_H-M   'P 1'
_cell_length_a   10.92068600
_cell_length_b   10.92068600
_cell_length_c   6.43135300
_cell_angle_alpha   90.00000000
_cell_angle_beta   90.00000000
_cell_angle_gamma   90.00000000
_symmetry_Int_Tables_number   1
_chemical_formula_structural   Y10RuRh5
_chemical_formula_sum   'Y20 Ru2 Rh10'
_cell_volume   767.01205148
_cell_formula_units_Z   2
loop_
 _symmetry_equiv_pos_site_id
 _symmetry_equiv_pos_as_xyz
  1  'x, y, z'
loop_
 _atom_site_type_symbol
 _atom_site_label
 _atom_site_symmetry_multiplicity
 _atom_site_fract_x
 _atom_site_fract_y
 _atom_site_fract_z
 _atom_site_occupancy
  Y  Y0  1  0.294509  0.086625  0.378066  1
  Y  Y1  1  0.294509  0.913375  0.878066  1
  Y  Y2  1  0.705491  0.086625  0.878066  1
  Y  Y3  1  0.705491  0.913375  0.378066  1
  Y  Y4  1  0.586625  0.794509  0.878066  1
  Y  Y5  1  0.586625  0.205491  0.378066  1
  Y  Y6  1  0.413375  0.794509  0.378066  1
  Y  Y7  1  0.413375  0.205491  0.878066  1
  Y  Y8  1  0.209196  0.411565  0.621411  1
  Y  Y9  1  0.209196  0.588435  0.121411  1
  Y  Y10  1  0.790804  0.411565  0.121411  1
  Y  Y11  1  0.790804  0.588435  0.621411  1
  Y  Y12  1  0.911565  0.709196  0.121411  1
  Y  Y13  1  0.911565  0.290804  0.621411  1
  Y  Y14  1  0.088435  0.709196  0.621411  1
  Y  Y15  1  0.088435  0.290804  0.121411  1
  Y  Y16  1  0.000000  0.000000  0.499263  1
  Y  Y17  1  0.000000  0.000000  0.999263  1
  Y  Y18  1  0.500000  0.500000  0.999263  1
  Y  Y19  1  0.500000  0.500000  0.499263  1
  Ru  Ru20  1  0.500000  0.000000  0.125157  1
  Ru  Ru21  1  0.500000  0.000000  0.625157  1
  Rh  Rh22  1  0.847934  0.153981  0.250340  1
  Rh  Rh23  1  0.847934  0.846019  0.750340  1
  Rh  Rh24  1  0.152066  0.153981  0.750340  1
  Rh  Rh25  1  0.152066  0.846019  0.250340  1
  Rh  Rh26  1  0.653981  0.347934  0.750340  1
  Rh  Rh27  1  0.653981  0.652066  0.250340  1
  Rh  Rh28  1  0.346019  0.347934  0.250340  1
  Rh  Rh29  1  0.346019  0.652066  0.750340  1
  Rh  Rh30  1  0.000000  0.500000  0.877048  1
  Rh  Rh31  1  0.000000  0.500000  0.377048  1
