# generated using pymatgen
data_CaPa3(Pd3Rh)3
_symmetry_space_group_name_H-M   'P 1'
_cell_length_a   5.81119000
_cell_length_b   5.81118986
_cell_length_c   9.51794300
_cell_angle_alpha   90.00000000
_cell_angle_beta   90.00000000
_cell_angle_gamma   120.00000082
_symmetry_Int_Tables_number   1
_chemical_formula_structural   CaPa3(Pd3Rh)3
_chemical_formula_sum   'Ca1 Pa3 Pd9 Rh3'
_cell_volume   278.35810246
_cell_formula_units_Z   1
loop_
 _symmetry_equiv_pos_site_id
 _symmetry_equiv_pos_as_xyz
  1  'x, y, z'
loop_
 _atom_site_type_symbol
 _atom_site_label
 _atom_site_symmetry_multiplicity
 _atom_site_fract_x
 _atom_site_fract_y
 _atom_site_fract_z
 _atom_site_occupancy
  Ca  Ca0  1  0.333333  0.666667  0.000000  1
  Pa  Pa1  1  0.666667  0.333333  0.500000  1
  Pa  Pa2  1  0.000000  0.000000  0.743577  1
  Pa  Pa3  1  0.000000  0.000000  0.256423  1
  Pd  Pd4  1  0.830025  0.169975  0.000000  1
  Pd  Pd5  1  0.830025  0.660049  0.000000  1
  Pd  Pd6  1  0.339951  0.169975  0.000000  1
  Pd  Pd7  1  0.997488  0.498745  0.748023  1
  Pd  Pd8  1  0.501255  0.498745  0.748023  1
  Pd  Pd9  1  0.501255  0.002512  0.748023  1
  Pd  Pd10  1  0.997488  0.498745  0.251977  1
  Pd  Pd11  1  0.501255  0.498745  0.251977  1
  Pd  Pd12  1  0.501255  0.002512  0.251977  1
  Rh  Rh13  1  0.167302  0.832698  0.500000  1
  Rh  Rh14  1  0.167302  0.334604  0.500000  1
  Rh  Rh15  1  0.665396  0.832698  0.500000  1
