# generated using pymatgen
data_La16Yb4GaGe11
_symmetry_space_group_name_H-M   'P 1'
_cell_length_a   8.08919435
_cell_length_b   8.08919457
_cell_length_c   14.26780900
_cell_angle_alpha   89.98305746
_cell_angle_beta   90.01694254
_cell_angle_gamma   90.31107071
_symmetry_Int_Tables_number   1
_chemical_formula_structural   La16Yb4GaGe11
_chemical_formula_sum   'La16 Yb4 Ga1 Ge11'
_cell_volume   933.60119745
_cell_formula_units_Z   1
loop_
 _symmetry_equiv_pos_site_id
 _symmetry_equiv_pos_as_xyz
  1  'x, y, z'
loop_
 _atom_site_type_symbol
 _atom_site_label
 _atom_site_symmetry_multiplicity
 _atom_site_fract_x
 _atom_site_fract_y
 _atom_site_fract_z
 _atom_site_occupancy
  La  La0  1  0.825678  0.827846  0.604258  1
  La  La1  1  0.174606  0.827715  0.102649  1
  La  La2  1  0.172580  0.825628  0.397291  1
  La  La3  1  0.827715  0.174606  0.397351  1
  La  La4  1  0.673867  0.671696  0.396051  1
  La  La5  1  0.670790  0.326097  0.603244  1
  La  La6  1  0.328011  0.672945  0.603291  1
  La  La7  1  0.671696  0.673867  0.103949  1
  La  La8  1  0.672945  0.328011  0.896709  1
  La  La9  1  0.827846  0.825678  0.895742  1
  La  La10  1  0.326029  0.328293  0.395750  1
  La  La11  1  0.174159  0.172148  0.603487  1
  La  La12  1  0.825628  0.172580  0.102709  1
  La  La13  1  0.326097  0.670790  0.896756  1
  La  La14  1  0.328293  0.326029  0.104250  1
  La  La15  1  0.172148  0.174159  0.896513  1
  Yb  Yb16  1  0.999836  0.499793  0.746520  1
  Yb  Yb17  1  0.999009  0.501951  0.246365  1
  Yb  Yb18  1  0.501951  0.999009  0.253635  1
  Yb  Yb19  1  0.499793  0.999836  0.753480  1
  Ga  Ga20  1  0.120684  0.120684  0.250000  1
  Ge  Ge21  1  0.624703  0.376375  0.250026  1
  Ge  Ge22  1  0.125049  0.875259  0.750031  1
  Ge  Ge23  1  0.376083  0.376083  0.750000  1
  Ge  Ge24  1  0.376375  0.624703  0.249974  1
  Ge  Ge25  1  0.879919  0.879919  0.250000  1
  Ge  Ge26  1  0.623768  0.623768  0.750000  1
  Ge  Ge27  1  0.999173  0.500541  0.501582  1
  Ge  Ge28  1  0.875259  0.125049  0.749969  1
  Ge  Ge29  1  0.500537  0.999231  0.498923  1
  Ge  Ge30  1  0.500541  0.999173  0.998418  1
  Ge  Ge31  1  0.999231  0.500537  0.001077  1
