# generated using pymatgen
data_Hf4Cu3Si4Ru
_symmetry_space_group_name_H-M   'P 1'
_cell_length_a   3.84090500
_cell_length_b   6.52637557
_cell_length_c   7.39790208
_cell_angle_alpha   89.32092293
_cell_angle_beta   90.00000000
_cell_angle_gamma   90.00000000
_symmetry_Int_Tables_number   1
_chemical_formula_structural   Hf4Cu3Si4Ru
_chemical_formula_sum   'Hf4 Cu3 Si4 Ru1'
_cell_volume   185.43158130
_cell_formula_units_Z   1
loop_
 _symmetry_equiv_pos_site_id
 _symmetry_equiv_pos_as_xyz
  1  'x, y, z'
loop_
 _atom_site_type_symbol
 _atom_site_label
 _atom_site_symmetry_multiplicity
 _atom_site_fract_x
 _atom_site_fract_y
 _atom_site_fract_z
 _atom_site_occupancy
  Hf  Hf0  1  0.250000  0.523418  0.680649  1
  Hf  Hf1  1  0.750000  0.475233  0.318957  1
  Hf  Hf2  1  0.250000  0.012573  0.816659  1
  Hf  Hf3  1  0.750000  0.980987  0.184502  1
  Cu  Cu4  1  0.250000  0.149993  0.436250  1
  Cu  Cu5  1  0.750000  0.346138  0.932951  1
  Cu  Cu6  1  0.250000  0.655914  0.068190  1
  Si  Si7  1  0.250000  0.272035  0.115580  1
  Si  Si8  1  0.750000  0.726360  0.882501  1
  Si  Si9  1  0.250000  0.763675  0.383697  1
  Si  Si10  1  0.750000  0.230946  0.621227  1
  Ru  Ru11  1  0.750000  0.862728  0.558837  1
