# generated using pymatgen
data_Er6TiAl23Ru8
_symmetry_space_group_name_H-M   'P 1'
_cell_length_a   8.81309900
_cell_length_b   8.81309771
_cell_length_c   9.54053800
_cell_angle_alpha   90.00000000
_cell_angle_beta   90.00000000
_cell_angle_gamma   119.99999357
_symmetry_Int_Tables_number   1
_chemical_formula_structural   Er6TiAl23Ru8
_chemical_formula_sum   'Er6 Ti1 Al23 Ru8'
_cell_volume   641.74243747
_cell_formula_units_Z   1
loop_
 _symmetry_equiv_pos_site_id
 _symmetry_equiv_pos_as_xyz
  1  'x, y, z'
loop_
 _atom_site_type_symbol
 _atom_site_label
 _atom_site_symmetry_multiplicity
 _atom_site_fract_x
 _atom_site_fract_y
 _atom_site_fract_z
 _atom_site_occupancy
  Er  Er0  1  0.194383  0.388765  0.250203  1
  Er  Er1  1  0.806222  0.612445  0.749038  1
  Er  Er2  1  0.611235  0.805617  0.250203  1
  Er  Er3  1  0.387555  0.193778  0.749038  1
  Er  Er4  1  0.194383  0.805617  0.250203  1
  Er  Er5  1  0.806222  0.193778  0.749038  1
  Ti  Ti6  1  0.333333  0.666667  0.997176  1
  Al  Al7  1  0.666667  0.333333  0.982651  1
  Al  Al8  1  0.666667  0.333333  0.515505  1
  Al  Al9  1  0.333333  0.666667  0.482684  1
  Al  Al10  1  0.161487  0.322974  0.577588  1
  Al  Al11  1  0.838119  0.676239  0.422177  1
  Al  Al12  1  0.677026  0.838513  0.577588  1
  Al  Al13  1  0.837701  0.675403  0.078325  1
  Al  Al14  1  0.323761  0.161881  0.422177  1
  Al  Al15  1  0.158811  0.317622  0.923152  1
  Al  Al16  1  0.161487  0.838513  0.577588  1
  Al  Al17  1  0.324597  0.162299  0.078325  1
  Al  Al18  1  0.838119  0.161881  0.422177  1
  Al  Al19  1  0.682378  0.841189  0.923152  1
  Al  Al20  1  0.837701  0.162299  0.078325  1
  Al  Al21  1  0.158811  0.841189  0.923152  1
  Al  Al22  1  0.561603  0.123207  0.252068  1
  Al  Al23  1  0.440077  0.880154  0.750378  1
  Al  Al24  1  0.876793  0.438397  0.252068  1
  Al  Al25  1  0.119846  0.559923  0.750378  1
  Al  Al26  1  0.561603  0.438397  0.252068  1
  Al  Al27  1  0.440077  0.559923  0.750378  1
  Al  Al28  1  0.000000  0.000000  0.249199  1
  Al  Al29  1  0.000000  0.000000  0.748895  1
  Ru  Ru30  1  0.498493  0.996985  0.002605  1
  Ru  Ru31  1  0.003015  0.501507  0.002605  1
  Ru  Ru32  1  0.499736  0.999472  0.502956  1
  Ru  Ru33  1  0.498493  0.501507  0.002605  1
  Ru  Ru34  1  0.000528  0.500264  0.502956  1
  Ru  Ru35  1  0.499736  0.500264  0.502956  1
  Ru  Ru36  1  0.000000  0.000000  0.999736  1
  Ru  Ru37  1  0.000000  0.000000  0.498687  1
