# generated using pymatgen
data_Y2MnCrF14
_symmetry_space_group_name_H-M   'P 1'
_cell_length_a   5.46513661
_cell_length_b   8.76294377
_cell_length_c   11.74857804
_cell_angle_alpha   62.60019584
_cell_angle_beta   89.97978354
_cell_angle_gamma   90.03604297
_symmetry_Int_Tables_number   1
_chemical_formula_structural   Y2MnCrF14
_chemical_formula_sum   'Y4 Mn2 Cr2 F28'
_cell_volume   499.52771634
_cell_formula_units_Z   2
loop_
 _symmetry_equiv_pos_site_id
 _symmetry_equiv_pos_as_xyz
  1  'x, y, z'
loop_
 _atom_site_type_symbol
 _atom_site_label
 _atom_site_symmetry_multiplicity
 _atom_site_fract_x
 _atom_site_fract_y
 _atom_site_fract_z
 _atom_site_occupancy
  Y  Y0  1  0.261945  0.807998  0.265910  1
  Y  Y1  1  0.738055  0.192002  0.734090  1
  Y  Y2  1  0.763250  0.187793  0.236301  1
  Y  Y3  1  0.236750  0.812207  0.763699  1
  Mn  Mn4  1  0.259013  0.274088  0.456480  1
  Mn  Mn5  1  0.740987  0.725912  0.543520  1
  Cr  Cr6  1  0.757369  0.726292  0.042681  1
  Cr  Cr7  1  0.242631  0.273708  0.957319  1
  F  F8  1  0.930772  0.705852  0.422420  1
  F  F9  1  0.069228  0.294148  0.577580  1
  F  F10  1  0.436003  0.293420  0.078783  1
  F  F11  1  0.563997  0.706580  0.921217  1
  F  F12  1  0.476910  0.729283  0.133906  1
  F  F13  1  0.523090  0.270717  0.866094  1
  F  F14  1  0.982600  0.271885  0.367378  1
  F  F15  1  0.017400  0.728115  0.632622  1
  F  F16  1  0.949276  0.743678  0.169216  1
  F  F17  1  0.050724  0.256322  0.830784  1
  F  F18  1  0.448583  0.258386  0.330846  1
  F  F19  1  0.551417  0.741614  0.669154  1
  F  F20  1  0.772161  0.489138  0.138162  1
  F  F21  1  0.227839  0.510862  0.861838  1
  F  F22  1  0.270822  0.510873  0.362932  1
  F  F23  1  0.729178  0.489127  0.637068  1
  F  F24  1  0.954645  0.280327  0.043324  1
  F  F25  1  0.045355  0.719673  0.956676  1
  F  F26  1  0.456890  0.718078  0.460075  1
  F  F27  1  0.543110  0.281922  0.539925  1
  F  F28  1  0.740611  0.960693  0.453848  1
  F  F29  1  0.259389  0.039307  0.546152  1
  F  F30  1  0.240204  0.039216  0.046520  1
  F  F31  1  0.759796  0.960784  0.953480  1
  F  F32  1  0.591653  0.969777  0.227347  1
  F  F33  1  0.408347  0.030223  0.772653  1
  F  F34  1  0.094247  0.029389  0.272611  1
  F  F35  1  0.905753  0.970611  0.727389  1
