# generated using pymatgen
data_Sm3Y5(GeBr6)2
_symmetry_space_group_name_H-M   'P 1'
_cell_length_a   4.11817300
_cell_length_b   13.42025993
_cell_length_c   14.20843850
_cell_angle_alpha   89.86063635
_cell_angle_beta   90.00000000
_cell_angle_gamma   90.00000000
_symmetry_Int_Tables_number   1
_chemical_formula_structural   Sm3Y5(GeBr6)2
_chemical_formula_sum   'Sm3 Y5 Ge2 Br12'
_cell_volume   785.25476715
_cell_formula_units_Z   1
loop_
 _symmetry_equiv_pos_site_id
 _symmetry_equiv_pos_as_xyz
  1  'x, y, z'
loop_
 _atom_site_type_symbol
 _atom_site_label
 _atom_site_symmetry_multiplicity
 _atom_site_fract_x
 _atom_site_fract_y
 _atom_site_fract_z
 _atom_site_occupancy
  Sm  Sm0  1  0.000000  0.120553  0.580097  1
  Sm  Sm1  1  0.000000  0.879504  0.419782  1
  Sm  Sm2  1  0.000000  0.619366  0.920535  1
  Y  Y3  1  0.500000  0.118631  0.340506  1
  Y  Y4  1  0.500000  0.881654  0.659207  1
  Y  Y5  1  0.500000  0.617928  0.159244  1
  Y  Y6  1  0.500000  0.381560  0.841057  1
  Y  Y7  1  0.000000  0.380476  0.079533  1
  Ge  Ge8  1  0.500000  0.000079  0.499874  1
  Ge  Ge9  1  0.500000  0.498053  0.001267  1
  Br  Br10  1  0.500000  0.245682  0.163188  1
  Br  Br11  1  0.500000  0.758160  0.834914  1
  Br  Br12  1  0.500000  0.740693  0.334179  1
  Br  Br13  1  0.500000  0.259054  0.665981  1
  Br  Br14  1  0.000000  0.254064  0.407887  1
  Br  Br15  1  0.000000  0.746029  0.591833  1
  Br  Br16  1  0.000000  0.753576  0.091452  1
  Br  Br17  1  0.000000  0.247225  0.911443  1
  Br  Br18  1  0.000000  0.005725  0.242968  1
  Br  Br19  1  0.000000  0.994750  0.756779  1
  Br  Br20  1  0.000000  0.502349  0.254699  1
  Br  Br21  1  0.000000  0.494887  0.743573  1
