# generated using pymatgen
data_Ti10V9Si16Mo
_symmetry_space_group_name_H-M   'P 1'
_cell_length_a   6.51655845
_cell_length_b   6.51655737
_cell_length_c   12.03586311
_cell_angle_alpha   90.04833808
_cell_angle_beta   89.95166418
_cell_angle_gamma   89.92008557
_symmetry_Int_Tables_number   1
_chemical_formula_structural   Ti10V9Si16Mo
_chemical_formula_sum   'Ti10 V9 Si16 Mo1'
_cell_volume   511.10840816
_cell_formula_units_Z   1
loop_
 _symmetry_equiv_pos_site_id
 _symmetry_equiv_pos_as_xyz
  1  'x, y, z'
loop_
 _atom_site_type_symbol
 _atom_site_label
 _atom_site_symmetry_multiplicity
 _atom_site_fract_x
 _atom_site_fract_y
 _atom_site_fract_z
 _atom_site_occupancy
  Ti  Ti0  1  0.004671  0.340031  0.221456  1
  Ti  Ti1  1  0.160290  0.503972  0.470225  1
  Ti  Ti2  1  0.838924  0.496617  0.970126  1
  Ti  Ti3  1  0.503972  0.160290  0.529775  1
  Ti  Ti4  1  0.496617  0.838924  0.029874  1
  Ti  Ti5  1  0.996300  0.661098  0.720196  1
  Ti  Ti6  1  0.340031  0.004671  0.778544  1
  Ti  Ti7  1  0.661098  0.996300  0.279804  1
  Ti  Ti8  1  0.332703  0.665859  0.250479  1
  Ti  Ti9  1  0.665859  0.332703  0.749521  1
  V  V10  1  0.993880  0.155726  0.620778  1
  V  V11  1  0.345222  0.495737  0.870667  1
  V  V12  1  0.655155  0.505769  0.372407  1
  V  V13  1  0.495737  0.345222  0.129333  1
  V  V14  1  0.505769  0.655155  0.627593  1
  V  V15  1  0.005100  0.841494  0.122578  1
  V  V16  1  0.155726  0.993880  0.379222  1
  V  V17  1  0.841494  0.005100  0.877422  1
  V  V18  1  0.834944  0.834944  0.500000  1
  Si  Si19  1  0.041651  0.297634  0.812705  1
  Si  Si20  1  0.203170  0.540829  0.062374  1
  Si  Si21  1  0.798426  0.462149  0.562075  1
  Si  Si22  1  0.540829  0.203170  0.937626  1
  Si  Si23  1  0.462149  0.798426  0.437925  1
  Si  Si24  1  0.956028  0.703848  0.315508  1
  Si  Si25  1  0.297634  0.041651  0.187295  1
  Si  Si26  1  0.703848  0.956028  0.684492  1
  Si  Si27  1  0.290764  0.367337  0.672092  1
  Si  Si28  1  0.131607  0.791406  0.922132  1
  Si  Si29  1  0.866865  0.207035  0.423361  1
  Si  Si30  1  0.791406  0.131607  0.077868  1
  Si  Si31  1  0.207035  0.866865  0.576639  1
  Si  Si32  1  0.709526  0.632139  0.173604  1
  Si  Si33  1  0.367337  0.290764  0.327908  1
  Si  Si34  1  0.632139  0.709526  0.826396  1
  Mo  Mo35  1  0.166093  0.166093  0.000000  1
