# generated using pymatgen
data_TcRuPb2F12
_symmetry_space_group_name_H-M   'P 1'
_cell_length_a   5.58656017
_cell_length_b   5.62794524
_cell_length_c   10.81449300
_cell_angle_alpha   75.16742570
_cell_angle_beta   75.33619614
_cell_angle_gamma   59.76952048
_symmetry_Int_Tables_number   1
_chemical_formula_structural   TcRuPb2F12
_chemical_formula_sum   'Tc1 Ru1 Pb2 F12'
_cell_volume   280.82734971
_cell_formula_units_Z   1
loop_
 _symmetry_equiv_pos_site_id
 _symmetry_equiv_pos_as_xyz
  1  'x, y, z'
loop_
 _atom_site_type_symbol
 _atom_site_label
 _atom_site_symmetry_multiplicity
 _atom_site_fract_x
 _atom_site_fract_y
 _atom_site_fract_z
 _atom_site_occupancy
  Tc  Tc0  1  0.255773  0.246435  0.249995  1
  Ru  Ru1  1  0.744103  0.753559  0.750054  1
  Pb  Pb2  1  0.498106  0.503657  0.500615  1
  Pb  Pb3  1  0.002356  0.995749  0.999602  1
  F  F4  1  0.492757  0.792372  0.638456  1
  F  F5  1  0.507640  0.206909  0.360798  1
  F  F6  1  0.780874  0.068518  0.642157  1
  F  F7  1  0.218683  0.924731  0.359671  1
  F  F8  1  0.708024  0.439489  0.859018  1
  F  F9  1  0.291979  0.567822  0.139105  1
  F  F10  1  0.994258  0.715826  0.861931  1
  F  F11  1  0.005843  0.284912  0.138522  1
  F  F12  1  0.578107  0.995244  0.139977  1
  F  F13  1  0.421662  0.000368  0.860893  1
  F  F14  1  0.933276  0.493088  0.361622  1
  F  F15  1  0.066556  0.511322  0.637586  1
