# generated using pymatgen
data_La3CeB24
_symmetry_space_group_name_H-M   'P 1'
_cell_length_a   4.14258300
_cell_length_b   5.86033900
_cell_length_c   11.71805200
_cell_angle_alpha   90.00000000
_cell_angle_beta   90.00000000
_cell_angle_gamma   90.00000000
_symmetry_Int_Tables_number   1
_chemical_formula_structural   La3CeB24
_chemical_formula_sum   'La3 Ce1 B24'
_cell_volume   284.47845371
_cell_formula_units_Z   1
loop_
 _symmetry_equiv_pos_site_id
 _symmetry_equiv_pos_as_xyz
  1  'x, y, z'
loop_
 _atom_site_type_symbol
 _atom_site_label
 _atom_site_symmetry_multiplicity
 _atom_site_fract_x
 _atom_site_fract_y
 _atom_site_fract_z
 _atom_site_occupancy
  La  La0  1  0.000000  0.500000  0.250884  1
  La  La1  1  0.000000  0.500000  0.749116  1
  La  La2  1  0.000000  0.000000  0.000000  1
  Ce  Ce3  1  0.000000  0.000000  0.500000  1
  B  B4  1  0.198927  0.500000  0.500000  1
  B  B5  1  0.199165  0.000000  0.749129  1
  B  B6  1  0.199412  0.500000  0.000000  1
  B  B7  1  0.199165  0.000000  0.250871  1
  B  B8  1  0.500000  0.650682  0.574848  1
  B  B9  1  0.500000  0.150108  0.824589  1
  B  B10  1  0.500000  0.650142  0.075243  1
  B  B11  1  0.500000  0.149977  0.325851  1
  B  B12  1  0.500000  0.349318  0.574848  1
  B  B13  1  0.500000  0.849892  0.824589  1
  B  B14  1  0.500000  0.349858  0.075243  1
  B  B15  1  0.500000  0.850023  0.325851  1
  B  B16  1  0.500000  0.349318  0.425152  1
  B  B17  1  0.500000  0.850023  0.674149  1
  B  B18  1  0.500000  0.349858  0.924757  1
  B  B19  1  0.500000  0.849892  0.175411  1
  B  B20  1  0.500000  0.650682  0.425152  1
  B  B21  1  0.500000  0.149977  0.674149  1
  B  B22  1  0.500000  0.650142  0.924757  1
  B  B23  1  0.500000  0.150108  0.175411  1
  B  B24  1  0.801073  0.500000  0.500000  1
  B  B25  1  0.800835  0.000000  0.749129  1
  B  B26  1  0.800588  0.500000  0.000000  1
  B  B27  1  0.800835  0.000000  0.250871  1
