# generated using pymatgen
data_NaCu3Sb2
_symmetry_space_group_name_H-M   'P 1'
_cell_length_a   8.85517411
_cell_length_b   8.85517415
_cell_length_c   8.85517436
_cell_angle_alpha   26.85572528
_cell_angle_beta   26.85572521
_cell_angle_gamma   26.85572033
_symmetry_Int_Tables_number   1
_chemical_formula_structural   NaCu3Sb2
_chemical_formula_sum   'Na1 Cu3 Sb2'
_cell_volume   124.96302413
_cell_formula_units_Z   1
loop_
 _symmetry_equiv_pos_site_id
 _symmetry_equiv_pos_as_xyz
  1  'x, y, z'
loop_
 _atom_site_type_symbol
 _atom_site_label
 _atom_site_symmetry_multiplicity
 _atom_site_fract_x
 _atom_site_fract_y
 _atom_site_fract_z
 _atom_site_occupancy
  Na  Na0  1  0.500000  0.500000  0.500000  1
  Cu  Cu1  1  0.000000  0.000000  0.000000  1
  Cu  Cu2  1  0.635994  0.635994  0.635994  1
  Cu  Cu3  1  0.364006  0.364006  0.364006  1
  Sb  Sb4  1  0.256163  0.256163  0.256163  1
  Sb  Sb5  1  0.743837  0.743837  0.743837  1
