# generated using pymatgen
data_Dy2TmLuMnRu7
_symmetry_space_group_name_H-M   'P 1'
_cell_length_a   5.31848865
_cell_length_b   5.32182070
_cell_length_c   8.63364806
_cell_angle_alpha   89.99999941
_cell_angle_beta   89.97860790
_cell_angle_gamma   59.97925515
_symmetry_Int_Tables_number   1
_chemical_formula_structural   Dy2TmLuMnRu7
_chemical_formula_sum   'Dy2 Tm1 Lu1 Mn1 Ru7'
_cell_volume   211.58388382
_cell_formula_units_Z   1
loop_
 _symmetry_equiv_pos_site_id
 _symmetry_equiv_pos_as_xyz
  1  'x, y, z'
loop_
 _atom_site_type_symbol
 _atom_site_label
 _atom_site_symmetry_multiplicity
 _atom_site_fract_x
 _atom_site_fract_y
 _atom_site_fract_z
 _atom_site_occupancy
  Dy  Dy0  1  0.333395  0.333302  0.565154  1
  Dy  Dy1  1  0.666609  0.666696  0.434699  1
  Tm  Tm2  1  0.333452  0.333274  0.933049  1
  Lu  Lu3  1  0.666559  0.666720  0.067136  1
  Mn  Mn4  1  0.000002  0.999999  0.000181  1
  Ru  Ru5  1  0.999975  0.000013  0.500081  1
  Ru  Ru6  1  0.828652  0.342828  0.755614  1
  Ru  Ru7  1  0.342877  0.828561  0.755586  1
  Ru  Ru8  1  0.828652  0.828518  0.755614  1
  Ru  Ru9  1  0.171254  0.657377  0.244284  1
  Ru  Ru10  1  0.657318  0.171342  0.244317  1
  Ru  Ru11  1  0.171254  0.171370  0.244284  1
