# generated using pymatgen
data_Nd3InNi(SnPd)2
_symmetry_space_group_name_H-M   'P 1'
_cell_length_a   7.62495324
_cell_length_b   7.62495241
_cell_length_c   4.10980200
_cell_angle_alpha   90.00000000
_cell_angle_beta   90.00000000
_cell_angle_gamma   119.89136185
_symmetry_Int_Tables_number   1
_chemical_formula_structural   Nd3InNi(SnPd)2
_chemical_formula_sum   'Nd3 In1 Ni1 Sn2 Pd2'
_cell_volume   207.15729881
_cell_formula_units_Z   1
loop_
 _symmetry_equiv_pos_site_id
 _symmetry_equiv_pos_as_xyz
  1  'x, y, z'
loop_
 _atom_site_type_symbol
 _atom_site_label
 _atom_site_symmetry_multiplicity
 _atom_site_fract_x
 _atom_site_fract_y
 _atom_site_fract_z
 _atom_site_occupancy
  Nd  Nd0  1  0.000440  0.591247  0.000000  1
  Nd  Nd1  1  0.408599  0.408599  0.000000  1
  Nd  Nd2  1  0.591247  0.000440  0.000000  1
  In  In3  1  0.755953  0.755953  0.500000  1
  Ni  Ni4  1  0.009310  0.009310  0.000000  1
  Sn  Sn5  1  0.997619  0.239571  0.500000  1
  Sn  Sn6  1  0.239571  0.997619  0.500000  1
  Pd  Pd7  1  0.665657  0.331605  0.500000  1
  Pd  Pd8  1  0.331605  0.665657  0.500000  1
