# generated using pymatgen
data_Nd8Gd12Si15As
_symmetry_space_group_name_H-M   'P 1'
_cell_length_a   7.55486079
_cell_length_b   7.76914278
_cell_length_c   14.77780400
_cell_angle_alpha   90.07375527
_cell_angle_beta   87.96497709
_cell_angle_gamma   90.31598415
_symmetry_Int_Tables_number   1
_chemical_formula_structural   Nd8Gd12Si15As
_chemical_formula_sum   'Nd8 Gd12 Si15 As1'
_cell_volume   866.81938565
_cell_formula_units_Z   1
loop_
 _symmetry_equiv_pos_site_id
 _symmetry_equiv_pos_as_xyz
  1  'x, y, z'
loop_
 _atom_site_type_symbol
 _atom_site_label
 _atom_site_symmetry_multiplicity
 _atom_site_fract_x
 _atom_site_fract_y
 _atom_site_fract_z
 _atom_site_occupancy
  Nd  Nd0  1  0.986245  0.816708  0.096562  1
  Nd  Nd1  1  0.474014  0.681058  0.399515  1
  Nd  Nd2  1  0.505549  0.320639  0.901710  1
  Nd  Nd3  1  0.026289  0.183036  0.599998  1
  Nd  Nd4  1  0.014976  0.183599  0.904351  1
  Nd  Nd5  1  0.525659  0.317768  0.600070  1
  Nd  Nd6  1  0.489290  0.681607  0.099402  1
  Nd  Nd7  1  0.973505  0.815915  0.400131  1
  Gd  Gd8  1  0.658844  0.991377  0.246591  1
  Gd  Gd9  1  0.160162  0.506836  0.245876  1
  Gd  Gd10  1  0.842286  0.492465  0.750614  1
  Gd  Gd11  1  0.342430  0.009189  0.752374  1
  Gd  Gd12  1  0.663024  0.827289  0.875465  1
  Gd  Gd13  1  0.176542  0.679293  0.622830  1
  Gd  Gd14  1  0.838508  0.328683  0.117941  1
  Gd  Gd15  1  0.320423  0.177454  0.377487  1
  Gd  Gd16  1  0.335477  0.172573  0.125046  1
  Gd  Gd17  1  0.822771  0.319827  0.378033  1
  Gd  Gd18  1  0.161756  0.672693  0.881391  1
  Gd  Gd19  1  0.679259  0.821969  0.622760  1
  Si  Si20  1  0.774465  0.620042  0.249985  1
  Si  Si21  1  0.270901  0.875379  0.251037  1
  Si  Si22  1  0.729251  0.123175  0.749859  1
  Si  Si23  1  0.226909  0.379726  0.750228  1
  Si  Si24  1  0.032662  0.106015  0.251239  1
  Si  Si25  1  0.539599  0.390697  0.251730  1
  Si  Si26  1  0.461838  0.608430  0.748844  1
  Si  Si27  1  0.965773  0.896944  0.750371  1
  Si  Si28  1  0.358226  0.970812  0.541087  1
  Si  Si29  1  0.661955  0.035073  0.037680  1
  Si  Si30  1  0.142614  0.470939  0.459525  1
  Si  Si31  1  0.192405  0.462451  0.042440  1
  Si  Si32  1  0.640267  0.028673  0.459104  1
  Si  Si33  1  0.337417  0.965975  0.961077  1
  Si  Si34  1  0.857288  0.528745  0.540970  1
  As  As35  1  0.811419  0.536944  0.956680  1
