# generated using pymatgen
data_SrTb(Si2Ni9)2
_symmetry_space_group_name_H-M   'P 1'
_cell_length_a   7.60242497
_cell_length_b   7.60239403
_cell_length_c   7.60397008
_cell_angle_alpha   99.60209975
_cell_angle_beta   99.59327456
_cell_angle_gamma   131.80263407
_symmetry_Int_Tables_number   1
_chemical_formula_structural   SrTb(Si2Ni9)2
_chemical_formula_sum   'Sr1 Tb1 Si4 Ni18'
_cell_volume   299.05334694
_cell_formula_units_Z   1
loop_
 _symmetry_equiv_pos_site_id
 _symmetry_equiv_pos_as_xyz
  1  'x, y, z'
loop_
 _atom_site_type_symbol
 _atom_site_label
 _atom_site_symmetry_multiplicity
 _atom_site_fract_x
 _atom_site_fract_y
 _atom_site_fract_z
 _atom_site_occupancy
  Sr  Sr0  1  0.249958  0.750064  0.499965  1
  Tb  Tb1  1  0.000072  0.999970  0.000054  1
  Si  Si2  1  0.125807  0.375366  0.750488  1
  Si  Si3  1  0.624628  0.874168  0.249509  1
  Si  Si4  1  0.624690  0.375133  0.750494  1
  Si  Si5  1  0.624854  0.375321  0.249507  1
  Ni  Ni6  1  0.750008  0.249999  0.499998  1
  Ni  Ni7  1  0.499993  0.499991  0.000001  1
  Ni  Ni8  1  0.187405  0.513229  0.077741  1
  Ni  Ni9  1  0.187498  0.109722  0.674181  1
  Ni  Ni10  1  0.768108  0.938333  0.580413  1
  Ni  Ni11  1  0.768055  0.187645  0.829799  1
  Ni  Ni12  1  0.435514  0.513277  0.325817  1
  Ni  Ni13  1  0.435461  0.109681  0.922269  1
  Ni  Ni14  1  0.357889  0.938311  0.170236  1
  Ni  Ni15  1  0.357917  0.187666  0.419603  1
  Ni  Ni16  1  0.061647  0.231916  0.419588  1
  Ni  Ni17  1  0.061690  0.642103  0.829754  1
  Ni  Ni18  1  0.486772  0.812598  0.922248  1
  Ni  Ni19  1  0.486698  0.564452  0.674132  1
  Ni  Ni20  1  0.812346  0.231930  0.170207  1
  Ni  Ni21  1  0.812359  0.642075  0.580401  1
  Ni  Ni22  1  0.890295  0.812529  0.325857  1
  Ni  Ni23  1  0.890336  0.564523  0.077740  1
