# generated using pymatgen
data_Tb11Dy8ErPb16
_symmetry_space_group_name_H-M   'P 1'
_cell_length_a   8.23272209
_cell_length_b   8.31737503
_cell_length_c   15.70482201
_cell_angle_alpha   90.00365382
_cell_angle_beta   89.99786963
_cell_angle_gamma   90.03676040
_symmetry_Int_Tables_number   1
_chemical_formula_structural   Tb11Dy8ErPb16
_chemical_formula_sum   'Tb11 Dy8 Er1 Pb16'
_cell_volume   1075.38176369
_cell_formula_units_Z   1
loop_
 _symmetry_equiv_pos_site_id
 _symmetry_equiv_pos_as_xyz
  1  'x, y, z'
loop_
 _atom_site_type_symbol
 _atom_site_label
 _atom_site_symmetry_multiplicity
 _atom_site_fract_x
 _atom_site_fract_y
 _atom_site_fract_z
 _atom_site_occupancy
  Tb  Tb0  1  0.122698  0.340556  0.379385  1
  Tb  Tb1  1  0.377494  0.840641  0.620394  1
  Tb  Tb2  1  0.877492  0.659396  0.879538  1
  Tb  Tb3  1  0.534618  0.323246  0.899884  1
  Tb  Tb4  1  0.034573  0.176693  0.600113  1
  Tb  Tb5  1  0.465321  0.676921  0.399752  1
  Tb  Tb6  1  0.965481  0.823499  0.100234  1
  Tb  Tb7  1  0.465260  0.676870  0.100145  1
  Tb  Tb8  1  0.965472  0.823568  0.399827  1
  Tb  Tb9  1  0.534640  0.323404  0.600146  1
  Tb  Tb10  1  0.034662  0.176643  0.899947  1
  Dy  Dy11  1  0.377317  0.840710  0.879587  1
  Dy  Dy12  1  0.877374  0.659270  0.620509  1
  Dy  Dy13  1  0.622426  0.159080  0.379359  1
  Dy  Dy14  1  0.122795  0.340721  0.120565  1
  Dy  Dy15  1  0.622340  0.159134  0.120681  1
  Dy  Dy16  1  0.209052  0.503879  0.750032  1
  Dy  Dy17  1  0.709036  0.996222  0.749985  1
  Dy  Dy18  1  0.790926  0.496097  0.249960  1
  Er  Er19  1  0.290861  0.004016  0.249948  1
  Pb  Pb20  1  0.281166  0.033119  0.043183  1
  Pb  Pb21  1  0.780714  0.466823  0.457234  1
  Pb  Pb22  1  0.719268  0.966737  0.542534  1
  Pb  Pb23  1  0.219226  0.533163  0.957467  1
  Pb  Pb24  1  0.718657  0.966984  0.957452  1
  Pb  Pb25  1  0.218736  0.533129  0.542770  1
  Pb  Pb26  1  0.281269  0.032975  0.456639  1
  Pb  Pb27  1  0.781001  0.466458  0.043042  1
  Pb  Pb28  1  0.572980  0.626218  0.750016  1
  Pb  Pb29  1  0.073014  0.873858  0.749989  1
  Pb  Pb30  1  0.427019  0.373244  0.249904  1
  Pb  Pb31  1  0.927493  0.125655  0.249880  1
  Pb  Pb32  1  0.345974  0.152090  0.750068  1
  Pb  Pb33  1  0.846093  0.347660  0.749929  1
  Pb  Pb34  1  0.653533  0.848130  0.249983  1
  Pb  Pb35  1  0.154023  0.653190  0.249917  1
