# generated using pymatgen
data_La14Ir2Pd3Au
_symmetry_space_group_name_H-M   'P 1'
_cell_length_a   6.61815779
_cell_length_b   10.38081631
_cell_length_c   10.38081671
_cell_angle_alpha   119.90130052
_cell_angle_beta   90.12338107
_cell_angle_gamma   89.87662165
_symmetry_Int_Tables_number   1
_chemical_formula_structural   La14Ir2Pd3Au
_chemical_formula_sum   'La14 Ir2 Pd3 Au1'
_cell_volume   618.24485123
_cell_formula_units_Z   1
loop_
 _symmetry_equiv_pos_site_id
 _symmetry_equiv_pos_as_xyz
  1  'x, y, z'
loop_
 _atom_site_type_symbol
 _atom_site_label
 _atom_site_symmetry_multiplicity
 _atom_site_fract_x
 _atom_site_fract_y
 _atom_site_fract_z
 _atom_site_occupancy
  La  La0  1  0.470664  0.336643  0.663357  1
  La  La1  1  0.953647  0.664164  0.335836  1
  La  La2  1  0.246448  0.126652  0.873348  1
  La  La3  1  0.254554  0.740707  0.864903  1
  La  La4  1  0.254554  0.135097  0.259293  1
  La  La5  1  0.734556  0.875834  0.124166  1
  La  La6  1  0.743891  0.250230  0.133281  1
  La  La7  1  0.743891  0.866719  0.749770  1
  La  La8  1  0.442550  0.539327  0.460673  1
  La  La9  1  0.446397  0.929939  0.468818  1
  La  La10  1  0.446397  0.531182  0.070061  1
  La  La11  1  0.934270  0.458565  0.541435  1
  La  La12  1  0.940255  0.078062  0.534187  1
  La  La13  1  0.940255  0.465813  0.921938  1
  Ir  Ir14  1  0.691585  0.624726  0.813026  1
  Ir  Ir15  1  0.691585  0.186974  0.375274  1
  Pd  Pd16  1  0.192884  0.376799  0.186262  1
  Pd  Pd17  1  0.192884  0.813738  0.623201  1
  Pd  Pd18  1  0.689951  0.186934  0.813066  1
  Au  Au19  1  0.190782  0.811895  0.188105  1
