# generated using pymatgen
data_Rb(TiS2)2
_symmetry_space_group_name_H-M   'P 1'
_cell_length_a   5.98681600
_cell_length_b   6.92126300
_cell_length_c   16.28990900
_cell_angle_alpha   90.00000000
_cell_angle_beta   90.00000000
_cell_angle_gamma   90.00000000
_symmetry_Int_Tables_number   1
_chemical_formula_structural   Rb(TiS2)2
_chemical_formula_sum   'Rb4 Ti8 S16'
_cell_volume   674.99401353
_cell_formula_units_Z   4
loop_
 _symmetry_equiv_pos_site_id
 _symmetry_equiv_pos_as_xyz
  1  'x, y, z'
loop_
 _atom_site_type_symbol
 _atom_site_label
 _atom_site_symmetry_multiplicity
 _atom_site_fract_x
 _atom_site_fract_y
 _atom_site_fract_z
 _atom_site_occupancy
  Rb  Rb0  1  0.349898  0.000000  0.000000  1
  Rb  Rb1  1  0.650102  0.500000  0.500000  1
  Rb  Rb2  1  0.037682  0.000000  0.500000  1
  Rb  Rb3  1  0.962318  0.500000  0.000000  1
  Ti  Ti4  1  0.000324  0.000000  0.248942  1
  Ti  Ti5  1  0.000324  0.000000  0.751058  1
  Ti  Ti6  1  0.999676  0.500000  0.251058  1
  Ti  Ti7  1  0.999676  0.500000  0.748942  1
  Ti  Ti8  1  0.500000  0.250000  0.250000  1
  Ti  Ti9  1  0.500000  0.750000  0.750000  1
  Ti  Ti10  1  0.500000  0.750000  0.250000  1
  Ti  Ti11  1  0.500000  0.250000  0.750000  1
  S  S12  1  0.833481  0.248650  0.338266  1
  S  S13  1  0.833481  0.751350  0.661734  1
  S  S14  1  0.166519  0.748650  0.161734  1
  S  S15  1  0.166519  0.251350  0.838266  1
  S  S16  1  0.166519  0.251350  0.161734  1
  S  S17  1  0.166519  0.748650  0.838266  1
  S  S18  1  0.833481  0.751350  0.338266  1
  S  S19  1  0.833481  0.248650  0.661734  1
  S  S20  1  0.670161  0.000000  0.161979  1
  S  S21  1  0.670161  0.000000  0.838021  1
  S  S22  1  0.329839  0.500000  0.338021  1
  S  S23  1  0.329839  0.500000  0.661979  1
  S  S24  1  0.335991  0.000000  0.336641  1
  S  S25  1  0.335991  0.000000  0.663359  1
  S  S26  1  0.664009  0.500000  0.163359  1
  S  S27  1  0.664009  0.500000  0.836641  1
