# generated using pymatgen
data_TbTh3(SiPd14)2
_symmetry_space_group_name_H-M   'P 1'
_cell_length_a   9.02911100
_cell_length_b   9.02911100
_cell_length_c   7.06632300
_cell_angle_alpha   90.00000000
_cell_angle_beta   90.00000000
_cell_angle_gamma   90.00000000
_symmetry_Int_Tables_number   1
_chemical_formula_structural   TbTh3(SiPd14)2
_chemical_formula_sum   'Tb1 Th3 Si2 Pd28'
_cell_volume   576.08089048
_cell_formula_units_Z   1
loop_
 _symmetry_equiv_pos_site_id
 _symmetry_equiv_pos_as_xyz
  1  'x, y, z'
loop_
 _atom_site_type_symbol
 _atom_site_label
 _atom_site_symmetry_multiplicity
 _atom_site_fract_x
 _atom_site_fract_y
 _atom_site_fract_z
 _atom_site_occupancy
  Tb  Tb0  1  0.000000  0.500000  0.068358  1
  Th  Th1  1  0.500000  0.000000  0.932850  1
  Th  Th2  1  0.000000  0.000000  0.500279  1
  Th  Th3  1  0.500000  0.500000  0.500279  1
  Si  Si4  1  0.500000  0.000000  0.447859  1
  Si  Si5  1  0.000000  0.500000  0.552226  1
  Pd  Pd6  1  0.335100  0.835100  0.614338  1
  Pd  Pd7  1  0.335100  0.164900  0.614338  1
  Pd  Pd8  1  0.664900  0.835100  0.614338  1
  Pd  Pd9  1  0.664900  0.164900  0.614338  1
  Pd  Pd10  1  0.164097  0.664097  0.384500  1
  Pd  Pd11  1  0.164097  0.335903  0.384500  1
  Pd  Pd12  1  0.835903  0.664097  0.384500  1
  Pd  Pd13  1  0.835903  0.335903  0.384500  1
  Pd  Pd14  1  0.500000  0.770670  0.256660  1
  Pd  Pd15  1  0.500000  0.229330  0.256660  1
  Pd  Pd16  1  0.270670  0.000000  0.256660  1
  Pd  Pd17  1  0.729330  0.000000  0.256660  1
  Pd  Pd18  1  0.000000  0.729015  0.743634  1
  Pd  Pd19  1  0.000000  0.270985  0.743634  1
  Pd  Pd20  1  0.229015  0.500000  0.743634  1
  Pd  Pd21  1  0.770985  0.500000  0.743634  1
  Pd  Pd22  1  0.500000  0.349051  0.852521  1
  Pd  Pd23  1  0.500000  0.650949  0.852521  1
  Pd  Pd24  1  0.849051  0.000000  0.852521  1
  Pd  Pd25  1  0.150949  0.000000  0.852521  1
  Pd  Pd26  1  0.000000  0.151076  0.147634  1
  Pd  Pd27  1  0.000000  0.848924  0.147634  1
  Pd  Pd28  1  0.651076  0.500000  0.147634  1
  Pd  Pd29  1  0.348924  0.500000  0.147634  1
  Pd  Pd30  1  0.249969  0.749969  0.000252  1
  Pd  Pd31  1  0.249969  0.250031  0.000252  1
  Pd  Pd32  1  0.750031  0.749969  0.000252  1
  Pd  Pd33  1  0.750031  0.250031  0.000252  1
