# generated using pymatgen
data_Ho3Lu2Bi2Ru
_symmetry_space_group_name_H-M   'P 1'
_cell_length_a   7.88525000
_cell_length_b   8.95896100
_cell_length_c   12.39552900
_cell_angle_alpha   90.00000000
_cell_angle_beta   90.00000000
_cell_angle_gamma   90.00000000
_symmetry_Int_Tables_number   1
_chemical_formula_structural   Ho3Lu2Bi2Ru
_chemical_formula_sum   'Ho12 Lu8 Bi8 Ru4'
_cell_volume   875.66537785
_cell_formula_units_Z   4
loop_
 _symmetry_equiv_pos_site_id
 _symmetry_equiv_pos_as_xyz
  1  'x, y, z'
loop_
 _atom_site_type_symbol
 _atom_site_label
 _atom_site_symmetry_multiplicity
 _atom_site_fract_x
 _atom_site_fract_y
 _atom_site_fract_z
 _atom_site_occupancy
  Ho  Ho0  1  0.840962  0.750000  0.792613  1
  Ho  Ho1  1  0.159038  0.250000  0.207387  1
  Ho  Ho2  1  0.340962  0.250000  0.707387  1
  Ho  Ho3  1  0.659038  0.750000  0.292613  1
  Ho  Ho4  1  0.376088  0.750000  0.689513  1
  Ho  Ho5  1  0.623912  0.250000  0.310487  1
  Ho  Ho6  1  0.876088  0.250000  0.810487  1
  Ho  Ho7  1  0.123912  0.750000  0.189513  1
  Ho  Ho8  1  0.945514  0.750000  0.504461  1
  Ho  Ho9  1  0.054486  0.250000  0.495539  1
  Ho  Ho10  1  0.445514  0.250000  0.995539  1
  Ho  Ho11  1  0.554486  0.750000  0.004461  1
  Lu  Lu12  1  0.672186  0.042236  0.564424  1
  Lu  Lu13  1  0.327814  0.957764  0.435576  1
  Lu  Lu14  1  0.172186  0.957764  0.935576  1
  Lu  Lu15  1  0.327814  0.542236  0.435576  1
  Lu  Lu16  1  0.827814  0.042236  0.064424  1
  Lu  Lu17  1  0.672186  0.457764  0.564424  1
  Lu  Lu18  1  0.827814  0.457764  0.064424  1
  Lu  Lu19  1  0.172186  0.542236  0.935576  1
  Bi  Bi20  1  0.566467  0.493438  0.827371  1
  Bi  Bi21  1  0.433533  0.506562  0.172629  1
  Bi  Bi22  1  0.066467  0.506562  0.672629  1
  Bi  Bi23  1  0.433533  0.993438  0.172629  1
  Bi  Bi24  1  0.933533  0.493438  0.327371  1
  Bi  Bi25  1  0.566467  0.006562  0.827371  1
  Bi  Bi26  1  0.933533  0.006562  0.327371  1
  Bi  Bi27  1  0.066467  0.993438  0.672629  1
  Ru  Ru28  1  0.572369  0.750000  0.509468  1
  Ru  Ru29  1  0.427631  0.250000  0.490532  1
  Ru  Ru30  1  0.072369  0.250000  0.990532  1
  Ru  Ru31  1  0.927631  0.750000  0.009468  1
