# generated using pymatgen
data_Er19TmIr5Rh7
_symmetry_space_group_name_H-M   'P 1'
_cell_length_a   10.77957920
_cell_length_b   10.77922506
_cell_length_c   6.31810704
_cell_angle_alpha   89.99619157
_cell_angle_beta   89.99481242
_cell_angle_gamma   90.07186903
_symmetry_Int_Tables_number   1
_chemical_formula_structural   Er19TmIr5Rh7
_chemical_formula_sum   'Er19 Tm1 Ir5 Rh7'
_cell_volume   734.13508896
_cell_formula_units_Z   1
loop_
 _symmetry_equiv_pos_site_id
 _symmetry_equiv_pos_as_xyz
  1  'x, y, z'
loop_
 _atom_site_type_symbol
 _atom_site_label
 _atom_site_symmetry_multiplicity
 _atom_site_fract_x
 _atom_site_fract_y
 _atom_site_fract_z
 _atom_site_occupancy
  Er  Er0  1  0.290783  0.087904  0.376927  1
  Er  Er1  1  0.290705  0.910234  0.878315  1
  Er  Er2  1  0.708669  0.089434  0.877867  1
  Er  Er3  1  0.708466  0.910454  0.377218  1
  Er  Er4  1  0.587113  0.789958  0.878186  1
  Er  Er5  1  0.586930  0.210096  0.378063  1
  Er  Er6  1  0.411487  0.790137  0.378123  1
  Er  Er7  1  0.412789  0.209906  0.877934  1
  Er  Er8  1  0.210129  0.412915  0.621782  1
  Er  Er9  1  0.209784  0.588547  0.121943  1
  Er  Er10  1  0.789986  0.413032  0.122005  1
  Er  Er11  1  0.790002  0.587195  0.622018  1
  Er  Er12  1  0.912122  0.709187  0.123042  1
  Er  Er13  1  0.910550  0.291329  0.622154  1
  Er  Er14  1  0.089774  0.709289  0.621693  1
  Er  Er15  1  0.089533  0.291538  0.122774  1
  Er  Er16  1  0.000172  0.999773  0.500092  1
  Er  Er17  1  0.000224  0.999840  0.999904  1
  Er  Er18  1  0.499908  0.499797  0.000144  1
  Tm  Tm19  1  0.500198  0.500083  0.499857  1
  Ir  Ir20  1  0.153365  0.846617  0.250002  1
  Ir  Ir21  1  0.654550  0.345459  0.749731  1
  Ir  Ir22  1  0.654661  0.654460  0.250138  1
  Ir  Ir23  1  0.345537  0.345334  0.250379  1
  Ir  Ir24  1  0.346141  0.653867  0.749750  1
  Rh  Rh25  1  0.846612  0.153396  0.249983  1
  Rh  Rh26  1  0.845866  0.846633  0.749898  1
  Rh  Rh27  1  0.153386  0.154126  0.750115  1
  Rh  Rh28  1  0.500545  0.000229  0.122756  1
  Rh  Rh29  1  0.500466  0.000231  0.623258  1
  Rh  Rh30  1  0.999767  0.499553  0.876726  1
  Rh  Rh31  1  0.999781  0.499446  0.377223  1
