# generated using pymatgen
data_Hf5In(B2Ru5)2
_symmetry_space_group_name_H-M   'P 1'
_cell_length_a   9.52433300
_cell_length_b   9.52433300
_cell_length_c   3.12193500
_cell_angle_alpha   90.00000000
_cell_angle_beta   90.00000000
_cell_angle_gamma   90.00000000
_symmetry_Int_Tables_number   1
_chemical_formula_structural   Hf5In(B2Ru5)2
_chemical_formula_sum   'Hf5 In1 B4 Ru10'
_cell_volume   283.19983707
_cell_formula_units_Z   1
loop_
 _symmetry_equiv_pos_site_id
 _symmetry_equiv_pos_as_xyz
  1  'x, y, z'
loop_
 _atom_site_type_symbol
 _atom_site_label
 _atom_site_symmetry_multiplicity
 _atom_site_fract_x
 _atom_site_fract_y
 _atom_site_fract_z
 _atom_site_occupancy
  Hf  Hf0  1  0.825305  0.675700  0.000000  1
  Hf  Hf1  1  0.174695  0.324300  0.000000  1
  Hf  Hf2  1  0.324300  0.825305  0.000000  1
  Hf  Hf3  1  0.675700  0.174695  0.000000  1
  Hf  Hf4  1  0.000000  0.000000  0.000000  1
  In  In5  1  0.500000  0.500000  0.000000  1
  B  B6  1  0.622080  0.878119  0.000000  1
  B  B7  1  0.377920  0.121881  0.000000  1
  B  B8  1  0.121881  0.622080  0.000000  1
  B  B9  1  0.878119  0.377920  0.000000  1
  Ru  Ru10  1  0.572502  0.722047  0.500000  1
  Ru  Ru11  1  0.427498  0.277953  0.500000  1
  Ru  Ru12  1  0.070797  0.778788  0.500000  1
  Ru  Ru13  1  0.929203  0.221212  0.500000  1
  Ru  Ru14  1  0.277953  0.572502  0.500000  1
  Ru  Ru15  1  0.722047  0.427498  0.500000  1
  Ru  Ru16  1  0.221212  0.070797  0.500000  1
  Ru  Ru17  1  0.778788  0.929203  0.500000  1
  Ru  Ru18  1  0.500000  0.000000  0.500000  1
  Ru  Ru19  1  0.000000  0.500000  0.500000  1
