# generated using pymatgen
data_Dy3Ho5Al3Si8Ge
_symmetry_space_group_name_H-M   'P 1'
_cell_length_a   5.58274801
_cell_length_b   5.58274864
_cell_length_c   19.45490309
_cell_angle_alpha   82.26002594
_cell_angle_beta   82.26002440
_cell_angle_gamma   42.49954628
_symmetry_Int_Tables_number   1
_chemical_formula_structural   Dy3Ho5Al3Si8Ge
_chemical_formula_sum   'Dy3 Ho5 Al3 Si8 Ge1'
_cell_volume   405.34285116
_cell_formula_units_Z   1
loop_
 _symmetry_equiv_pos_site_id
 _symmetry_equiv_pos_as_xyz
  1  'x, y, z'
loop_
 _atom_site_type_symbol
 _atom_site_label
 _atom_site_symmetry_multiplicity
 _atom_site_fract_x
 _atom_site_fract_y
 _atom_site_fract_z
 _atom_site_occupancy
  Dy  Dy0  1  0.462525  0.462525  0.676517  1
  Dy  Dy1  1  0.703149  0.703149  0.928712  1
  Dy  Dy2  1  0.973900  0.973900  0.179189  1
  Ho  Ho3  1  0.216859  0.216859  0.428042  1
  Ho  Ho4  1  0.783111  0.783111  0.571929  1
  Ho  Ho5  1  0.026095  0.026095  0.820796  1
  Ho  Ho6  1  0.296752  0.296752  0.071297  1
  Ho  Ho7  1  0.537402  0.537402  0.323586  1
  Al  Al8  1  0.254704  0.254704  0.252385  1
  Al  Al9  1  0.500033  0.500033  0.499980  1
  Al  Al10  1  0.745175  0.745175  0.747661  1
  Si  Si11  1  0.172620  0.172620  0.676258  1
  Si  Si12  1  0.415775  0.415775  0.923068  1
  Si  Si13  1  0.687213  0.687213  0.180055  1
  Si  Si14  1  0.928125  0.928125  0.427901  1
  Si  Si15  1  0.071992  0.071992  0.571997  1
  Si  Si16  1  0.312864  0.312864  0.819921  1
  Si  Si17  1  0.584382  0.584382  0.076888  1
  Si  Si18  1  0.827385  0.827385  0.323807  1
  Ge  Ge19  1  0.999940  0.999940  0.000011  1
