# generated using pymatgen
data_Al12OsRu
_symmetry_space_group_name_H-M   'P 1'
_cell_length_a   4.99118210
_cell_length_b   4.99118130
_cell_length_c   9.05048500
_cell_angle_alpha   90.00000000
_cell_angle_beta   90.00000000
_cell_angle_gamma   82.67229104
_symmetry_Int_Tables_number   1
_chemical_formula_structural   Al12OsRu
_chemical_formula_sum   'Al12 Os1 Ru1'
_cell_volume   223.62333164
_cell_formula_units_Z   1
loop_
 _symmetry_equiv_pos_site_id
 _symmetry_equiv_pos_as_xyz
  1  'x, y, z'
loop_
 _atom_site_type_symbol
 _atom_site_label
 _atom_site_symmetry_multiplicity
 _atom_site_fract_x
 _atom_site_fract_y
 _atom_site_fract_z
 _atom_site_occupancy
  Al  Al0  1  0.319583  0.319693  0.999355  1
  Al  Al1  1  0.680307  0.680417  0.999355  1
  Al  Al2  1  0.139692  0.860308  0.098409  1
  Al  Al3  1  0.620280  0.021751  0.250001  1
  Al  Al4  1  0.978249  0.379720  0.250001  1
  Al  Al5  1  0.139692  0.860308  0.401591  1
  Al  Al6  1  0.319583  0.319693  0.500645  1
  Al  Al7  1  0.680307  0.680417  0.500645  1
  Al  Al8  1  0.858914  0.141086  0.599605  1
  Al  Al9  1  0.022961  0.618235  0.750000  1
  Al  Al10  1  0.381765  0.977039  0.750000  1
  Al  Al11  1  0.858914  0.141086  0.900395  1
  Os  Os12  1  0.463524  0.536476  0.250001  1
  Ru  Ru13  1  0.536229  0.463771  0.750000  1
