# generated using pymatgen
data_Ba12Sn3AsI8
_symmetry_space_group_name_H-M   'P 1'
_cell_length_a   16.80178210
_cell_length_b   16.02878310
_cell_length_c   8.77295169
_cell_angle_alpha   79.43062088
_cell_angle_beta   69.68648891
_cell_angle_gamma   31.19012348
_symmetry_Int_Tables_number   1
_chemical_formula_structural   Ba12Sn3AsI8
_chemical_formula_sum   'Ba12 Sn3 As1 I8'
_cell_volume   1115.67382240
_cell_formula_units_Z   1
loop_
 _symmetry_equiv_pos_site_id
 _symmetry_equiv_pos_as_xyz
  1  'x, y, z'
loop_
 _atom_site_type_symbol
 _atom_site_label
 _atom_site_symmetry_multiplicity
 _atom_site_fract_x
 _atom_site_fract_y
 _atom_site_fract_z
 _atom_site_occupancy
  Ba  Ba0  1  0.378290  0.939425  0.594017  1
  Ba  Ba1  1  0.587059  0.091831  0.386183  1
  Ba  Ba2  1  0.307613  0.869377  0.152405  1
  Ba  Ba3  1  0.939425  0.378290  0.088269  1
  Ba  Ba4  1  0.470855  0.029088  0.030254  1
  Ba  Ba5  1  0.869377  0.307613  0.670604  1
  Ba  Ba6  1  0.091831  0.587059  0.934927  1
  Ba  Ba7  1  0.663014  0.158427  0.862090  1
  Ba  Ba8  1  0.787549  0.217465  0.213210  1
  Ba  Ba9  1  0.217465  0.787549  0.781775  1
  Ba  Ba10  1  0.158427  0.663014  0.316468  1
  Ba  Ba11  1  0.029088  0.470855  0.469803  1
  Sn  Sn12  1  0.918062  0.918062  0.081938  1
  Sn  Sn13  1  0.164631  0.164631  0.335369  1
  Sn  Sn14  1  0.333709  0.333709  0.166291  1
  As  As15  1  0.084118  0.084118  0.915882  1
  I  I16  1  0.669999  0.669999  0.830001  1
  I  I17  1  0.745763  0.745763  0.254237  1
  I  I18  1  0.251701  0.251701  0.748299  1
  I  I19  1  0.578961  0.578961  0.421039  1
  I  I20  1  0.997832  0.997832  0.502168  1
  I  I21  1  0.828008  0.828008  0.671992  1
  I  I22  1  0.422950  0.422950  0.577050  1
  I  I23  1  0.504272  0.504272  0.995728  1
