# generated using pymatgen
data_HfS23
_symmetry_space_group_name_H-M   'P 1'
_cell_length_a   5.45556065
_cell_length_b   9.35382023
_cell_length_c   15.89152000
_cell_angle_alpha   82.42591985
_cell_angle_beta   85.98404661
_cell_angle_gamma   91.36398717
_symmetry_Int_Tables_number   1
_chemical_formula_structural   HfS23
_chemical_formula_sum   'Hf1 S23'
_cell_volume   801.45279356
_cell_formula_units_Z   1
loop_
 _symmetry_equiv_pos_site_id
 _symmetry_equiv_pos_as_xyz
  1  'x, y, z'
loop_
 _atom_site_type_symbol
 _atom_site_label
 _atom_site_symmetry_multiplicity
 _atom_site_fract_x
 _atom_site_fract_y
 _atom_site_fract_z
 _atom_site_occupancy
  Hf  Hf0  1  0.597555  0.175514  0.431221  1
  S  S1  1  0.724233  0.936095  0.397105  1
  S  S2  1  0.020768  0.308688  0.100812  1
  S  S3  1  0.788951  0.222797  0.559728  1
  S  S4  1  0.451317  0.894484  0.494057  1
  S  S5  1  0.176547  0.286413  0.981392  1
  S  S6  1  0.811569  0.735434  0.026092  1
  S  S7  1  0.144204  0.190009  0.381350  1
  S  S8  1  0.628114  0.393651  0.327000  1
  S  S9  1  0.853921  0.113865  0.153383  1
  S  S10  1  0.276245  0.870186  0.119913  1
  S  S11  1  0.706163  0.647724  0.631289  1
  S  S12  1  0.299219  0.440632  0.561699  1
  S  S13  1  0.155120  0.899225  0.856874  1
  S  S14  1  0.725907  0.142697  0.882834  1
  S  S15  1  0.063503  0.685957  0.115669  1
  S  S16  1  0.609053  0.857467  0.612753  1
  S  S17  1  0.413434  0.224769  0.584319  1
  S  S18  1  0.969405  0.708784  0.907452  1
  S  S19  1  0.921663  0.331066  0.892108  1
  S  S20  1  0.252205  0.389309  0.310356  1
  S  S21  1  0.116419  0.986072  0.210076  1
  S  S22  1  0.382855  0.525564  0.668145  1
  S  S23  1  0.911628  0.033598  0.794373  1
