# generated using pymatgen
data_Ho2Tm3Fe12Co7P12
_symmetry_space_group_name_H-M   'P 1'
_cell_length_a   11.90194601
_cell_length_b   11.90194763
_cell_length_c   3.66647600
_cell_angle_alpha   90.00000000
_cell_angle_beta   90.00000000
_cell_angle_gamma   119.99495006
_symmetry_Int_Tables_number   1
_chemical_formula_structural   Ho2Tm3Fe12Co7P12
_chemical_formula_sum   'Ho2 Tm3 Fe12 Co7 P12'
_cell_volume   449.81878345
_cell_formula_units_Z   1
loop_
 _symmetry_equiv_pos_site_id
 _symmetry_equiv_pos_as_xyz
  1  'x, y, z'
loop_
 _atom_site_type_symbol
 _atom_site_label
 _atom_site_symmetry_multiplicity
 _atom_site_fract_x
 _atom_site_fract_y
 _atom_site_fract_z
 _atom_site_occupancy
  Ho  Ho0  1  0.185261  0.999889  0.500000  1
  Ho  Ho1  1  0.999889  0.185261  0.500000  1
  Tm  Tm2  1  0.666833  0.333385  0.000000  1
  Tm  Tm3  1  0.333385  0.666833  0.000000  1
  Tm  Tm4  1  0.814420  0.814420  0.500000  1
  Fe  Fe5  1  0.876268  0.358341  0.500000  1
  Fe  Fe6  1  0.641826  0.518222  0.500000  1
  Fe  Fe7  1  0.482126  0.123679  0.500000  1
  Fe  Fe8  1  0.358341  0.876268  0.500000  1
  Fe  Fe9  1  0.518222  0.641826  0.500000  1
  Fe  Fe10  1  0.123679  0.482126  0.500000  1
  Fe  Fe11  1  0.444381  0.444381  0.000000  1
  Fe  Fe12  1  0.555887  0.999791  0.000000  1
  Fe  Fe13  1  0.999791  0.555887  0.000000  1
  Fe  Fe14  1  0.285271  0.285271  0.500000  1
  Fe  Fe15  1  0.714926  0.999675  0.500000  1
  Fe  Fe16  1  0.999675  0.714926  0.500000  1
  Co  Co17  1  0.801427  0.179242  0.000000  1
  Co  Co18  1  0.820349  0.622376  0.000000  1
  Co  Co19  1  0.378076  0.198668  0.000000  1
  Co  Co20  1  0.179242  0.801427  0.000000  1
  Co  Co21  1  0.622376  0.820349  0.000000  1
  Co  Co22  1  0.198668  0.378076  0.000000  1
  Co  Co23  1  0.999558  0.999558  0.000000  1
  P  P24  1  0.684294  0.165083  0.500000  1
  P  P25  1  0.834793  0.518929  0.500000  1
  P  P26  1  0.481202  0.316005  0.500000  1
  P  P27  1  0.165083  0.684294  0.500000  1
  P  P28  1  0.518929  0.834793  0.500000  1
  P  P29  1  0.316005  0.481202  0.500000  1
  P  P30  1  0.183089  0.183089  0.000000  1
  P  P31  1  0.816829  0.999330  0.000000  1
  P  P32  1  0.999330  0.816829  0.000000  1
  P  P33  1  0.629132  0.629132  0.000000  1
  P  P34  1  0.371474  0.999963  0.000000  1
  P  P35  1  0.999963  0.371474  0.000000  1
