# generated using pymatgen
data_Tb2LuMg3Ga2Ag
_symmetry_space_group_name_H-M   'P 1'
_cell_length_a   7.40668700
_cell_length_b   7.36338462
_cell_length_c   4.33787100
_cell_angle_alpha   90.00000000
_cell_angle_beta   90.00000000
_cell_angle_gamma   120.19472128
_symmetry_Int_Tables_number   1
_chemical_formula_structural   Tb2LuMg3Ga2Ag
_chemical_formula_sum   'Tb2 Lu1 Mg3 Ga2 Ag1'
_cell_volume   204.48113498
_cell_formula_units_Z   1
loop_
 _symmetry_equiv_pos_site_id
 _symmetry_equiv_pos_as_xyz
  1  'x, y, z'
loop_
 _atom_site_type_symbol
 _atom_site_label
 _atom_site_symmetry_multiplicity
 _atom_site_fract_x
 _atom_site_fract_y
 _atom_site_fract_z
 _atom_site_occupancy
  Tb  Tb0  1  0.000454  0.576488  0.000000  1
  Tb  Tb1  1  0.423966  0.423512  0.000000  1
  Lu  Lu2  1  0.577517  0.000000  0.000000  1
  Mg  Mg3  1  0.247378  0.000000  0.500000  1
  Mg  Mg4  1  0.999422  0.246157  0.500000  1
  Mg  Mg5  1  0.753265  0.753843  0.500000  1
  Ga  Ga6  1  0.335511  0.669415  0.500000  1
  Ga  Ga7  1  0.666097  0.330585  0.500000  1
  Ag  Ag8  1  0.996390  0.000000  0.000000  1
