# generated using pymatgen
data_Y3Co(P3Rh4)2
_symmetry_space_group_name_H-M   'P 1'
_cell_length_a   3.87022300
_cell_length_b   11.14983200
_cell_length_c   12.80283400
_cell_angle_alpha   90.00000000
_cell_angle_beta   90.00000000
_cell_angle_gamma   90.00000000
_symmetry_Int_Tables_number   1
_chemical_formula_structural   Y3Co(P3Rh4)2
_chemical_formula_sum   'Y6 Co2 P12 Rh16'
_cell_volume   552.47219775
_cell_formula_units_Z   2
loop_
 _symmetry_equiv_pos_site_id
 _symmetry_equiv_pos_as_xyz
  1  'x, y, z'
loop_
 _atom_site_type_symbol
 _atom_site_label
 _atom_site_symmetry_multiplicity
 _atom_site_fract_x
 _atom_site_fract_y
 _atom_site_fract_z
 _atom_site_occupancy
  Y  Y0  1  0.000000  0.500000  0.521256  1
  Y  Y1  1  0.500000  0.000000  0.478744  1
  Y  Y2  1  0.500000  0.815423  0.201892  1
  Y  Y3  1  0.500000  0.184577  0.201892  1
  Y  Y4  1  0.000000  0.684577  0.798108  1
  Y  Y5  1  0.000000  0.315423  0.798108  1
  Co  Co6  1  0.000000  0.500000  0.980481  1
  Co  Co7  1  0.500000  0.000000  0.019519  1
  P  P8  1  0.500000  0.500000  0.881666  1
  P  P9  1  0.000000  0.000000  0.118334  1
  P  P10  1  0.500000  0.500000  0.350491  1
  P  P11  1  0.000000  0.000000  0.649509  1
  P  P12  1  0.500000  0.315548  0.619522  1
  P  P13  1  0.500000  0.684452  0.619522  1
  P  P14  1  0.000000  0.184452  0.380478  1
  P  P15  1  0.000000  0.815548  0.380478  1
  P  P16  1  0.500000  0.853180  0.895768  1
  P  P17  1  0.500000  0.146820  0.895768  1
  P  P18  1  0.000000  0.646820  0.104232  1
  P  P19  1  0.000000  0.353180  0.104232  1
  Rh  Rh20  1  0.500000  0.500000  0.167573  1
  Rh  Rh21  1  0.000000  0.000000  0.832427  1
  Rh  Rh22  1  0.500000  0.500000  0.703261  1
  Rh  Rh23  1  0.000000  0.000000  0.296739  1
  Rh  Rh24  1  0.500000  0.336588  0.993794  1
  Rh  Rh25  1  0.500000  0.663412  0.993794  1
  Rh  Rh26  1  0.000000  0.163412  0.006206  1
  Rh  Rh27  1  0.000000  0.836588  0.006206  1
  Rh  Rh28  1  0.500000  0.294229  0.430533  1
  Rh  Rh29  1  0.500000  0.705771  0.430533  1
  Rh  Rh30  1  0.000000  0.205771  0.569467  1
  Rh  Rh31  1  0.000000  0.794229  0.569467  1
  Rh  Rh32  1  0.500000  0.873341  0.712223  1
  Rh  Rh33  1  0.500000  0.126659  0.712223  1
  Rh  Rh34  1  0.000000  0.626659  0.287777  1
  Rh  Rh35  1  0.000000  0.373341  0.287777  1
