# generated using pymatgen
data_BaSrDy2(Ge4N7)2
_symmetry_space_group_name_H-M   'P 1'
_cell_length_a   6.33507000
_cell_length_b   6.33506952
_cell_length_c   10.35019900
_cell_angle_alpha   90.00000000
_cell_angle_beta   90.00000000
_cell_angle_gamma   120.00000251
_symmetry_Int_Tables_number   1
_chemical_formula_structural   BaSrDy2(Ge4N7)2
_chemical_formula_sum   'Ba1 Sr1 Dy2 Ge8 N14'
_cell_volume   359.73452761
_cell_formula_units_Z   1
loop_
 _symmetry_equiv_pos_site_id
 _symmetry_equiv_pos_as_xyz
  1  'x, y, z'
loop_
 _atom_site_type_symbol
 _atom_site_label
 _atom_site_symmetry_multiplicity
 _atom_site_fract_x
 _atom_site_fract_y
 _atom_site_fract_z
 _atom_site_occupancy
  Ba  Ba0  1  0.666667  0.333333  0.864552  1
  Sr  Sr1  1  0.333333  0.666667  0.366644  1
  Dy  Dy2  1  0.333333  0.666667  0.735650  1
  Dy  Dy3  1  0.666667  0.333333  0.237257  1
  Ge  Ge4  1  0.826543  0.653083  0.545956  1
  Ge  Ge5  1  0.173834  0.826166  0.047519  1
  Ge  Ge6  1  0.652331  0.826166  0.047519  1
  Ge  Ge7  1  0.346917  0.173457  0.545956  1
  Ge  Ge8  1  0.826543  0.173457  0.545956  1
  Ge  Ge9  1  0.173834  0.347669  0.047519  1
  Ge  Ge10  1  0.000000  0.000000  0.813028  1
  Ge  Ge11  1  0.000000  0.000000  0.312062  1
  N  N12  1  0.000000  0.000000  0.620560  1
  N  N13  1  0.000000  0.000000  0.120513  1
  N  N14  1  0.158968  0.317936  0.869236  1
  N  N15  1  0.841450  0.158550  0.368430  1
  N  N16  1  0.317100  0.158550  0.368430  1
  N  N17  1  0.682064  0.841032  0.869236  1
  N  N18  1  0.158968  0.841032  0.869236  1
  N  N19  1  0.841450  0.682900  0.368430  1
  N  N20  1  0.989459  0.494730  0.602168  1
  N  N21  1  0.493346  0.986691  0.105870  1
  N  N22  1  0.493346  0.506654  0.105870  1
  N  N23  1  0.505270  0.494730  0.602168  1
  N  N24  1  0.013309  0.506654  0.105870  1
  N  N25  1  0.505270  0.010541  0.602168  1
