# generated using pymatgen
data_Li2Ac3UBr3
_symmetry_space_group_name_H-M   'P 1'
_cell_length_a   8.02873066
_cell_length_b   7.93284016
_cell_length_c   14.15342759
_cell_angle_alpha   89.81542666
_cell_angle_beta   90.07488545
_cell_angle_gamma   119.64694816
_symmetry_Int_Tables_number   1
_chemical_formula_structural   Li2Ac3UBr3
_chemical_formula_sum   'Li4 Ac6 U2 Br6'
_cell_volume   783.42900496
_cell_formula_units_Z   2
loop_
 _symmetry_equiv_pos_site_id
 _symmetry_equiv_pos_as_xyz
  1  'x, y, z'
loop_
 _atom_site_type_symbol
 _atom_site_label
 _atom_site_symmetry_multiplicity
 _atom_site_fract_x
 _atom_site_fract_y
 _atom_site_fract_z
 _atom_site_occupancy
  Li  Li0  1  0.000019  0.000017  0.749997  1
  Li  Li1  1  0.666632  0.333318  0.750000  1
  Li  Li2  1  0.333388  0.666681  0.250005  1
  Li  Li3  1  0.999943  0.999995  0.249995  1
  Ac  Ac4  1  0.995004  0.328229  0.611793  1
  Ac  Ac5  1  0.333377  0.004962  0.611847  1
  Ac  Ac6  1  0.671785  0.666688  0.611727  1
  Ac  Ac7  1  0.671647  0.005075  0.888200  1
  Ac  Ac8  1  0.333226  0.328311  0.888146  1
  Ac  Ac9  1  0.994966  0.666742  0.888271  1
  U  U10  1  0.333357  0.666629  0.750016  1
  U  U11  1  0.666671  0.333334  0.250013  1
  Br  Br12  1  0.003378  0.332859  0.134655  1
  Br  Br13  1  0.329440  0.996591  0.134601  1
  Br  Br14  1  0.667115  0.670429  0.134662  1
  Br  Br15  1  0.667094  0.996692  0.365338  1
  Br  Br16  1  0.329505  0.332921  0.365341  1
  Br  Br17  1  0.003452  0.670526  0.365392  1
