# generated using pymatgen
data_HoNp7H24
_symmetry_space_group_name_H-M   'P 1'
_cell_length_a   6.61083000
_cell_length_b   6.61083000
_cell_length_c   6.61083000
_cell_angle_alpha   90.00000000
_cell_angle_beta   90.00000000
_cell_angle_gamma   90.00000000
_symmetry_Int_Tables_number   1
_chemical_formula_structural   HoNp7H24
_chemical_formula_sum   'Ho1 Np7 H24'
_cell_volume   288.91358799
_cell_formula_units_Z   1
loop_
 _symmetry_equiv_pos_site_id
 _symmetry_equiv_pos_as_xyz
  1  'x, y, z'
loop_
 _atom_site_type_symbol
 _atom_site_label
 _atom_site_symmetry_multiplicity
 _atom_site_fract_x
 _atom_site_fract_y
 _atom_site_fract_z
 _atom_site_occupancy
  Ho  Ho0  1  0.500000  0.500000  0.500000  1
  Np  Np1  1  0.000000  0.000000  0.000000  1
  Np  Np2  1  0.250799  0.000000  0.500000  1
  Np  Np3  1  0.749201  0.000000  0.500000  1
  Np  Np4  1  0.000000  0.500000  0.250799  1
  Np  Np5  1  0.000000  0.500000  0.749201  1
  Np  Np6  1  0.500000  0.749201  0.000000  1
  Np  Np7  1  0.500000  0.250799  0.000000  1
  H  H8  1  0.000000  0.155886  0.303272  1
  H  H9  1  0.500000  0.193761  0.655596  1
  H  H10  1  0.500000  0.806239  0.344404  1
  H  H11  1  0.806239  0.655596  0.500000  1
  H  H12  1  0.193761  0.655596  0.500000  1
  H  H13  1  0.344404  0.500000  0.806239  1
  H  H14  1  0.655596  0.500000  0.806239  1
  H  H15  1  0.303272  0.000000  0.155886  1
  H  H16  1  0.155886  0.303272  0.000000  1
  H  H17  1  0.844114  0.696728  0.000000  1
  H  H18  1  0.303272  0.000000  0.844114  1
  H  H19  1  0.844114  0.303272  0.000000  1
  H  H20  1  0.696728  0.000000  0.155886  1
  H  H21  1  0.696728  0.000000  0.844114  1
  H  H22  1  0.155886  0.696728  0.000000  1
  H  H23  1  0.000000  0.844114  0.696728  1
  H  H24  1  0.000000  0.155886  0.696728  1
  H  H25  1  0.000000  0.844114  0.303272  1
  H  H26  1  0.655596  0.500000  0.193761  1
  H  H27  1  0.344404  0.500000  0.193761  1
  H  H28  1  0.806239  0.344404  0.500000  1
  H  H29  1  0.193761  0.344404  0.500000  1
  H  H30  1  0.500000  0.806239  0.655596  1
  H  H31  1  0.500000  0.193761  0.344404  1
