# generated using pymatgen
data_Pr10InSi4Pd
_symmetry_space_group_name_H-M   'P 1'
_cell_length_a   7.80581400
_cell_length_b   9.31769334
_cell_length_c   7.80581400
_cell_angle_alpha   114.76329885
_cell_angle_beta   90.00000000
_cell_angle_gamma   114.76329885
_symmetry_Int_Tables_number   1
_chemical_formula_structural   Pr10InSi4Pd
_chemical_formula_sum   'Pr10 In1 Si4 Pd1'
_cell_volume   457.40292429
_cell_formula_units_Z   1
loop_
 _symmetry_equiv_pos_site_id
 _symmetry_equiv_pos_as_xyz
  1  'x, y, z'
loop_
 _atom_site_type_symbol
 _atom_site_label
 _atom_site_symmetry_multiplicity
 _atom_site_fract_x
 _atom_site_fract_y
 _atom_site_fract_z
 _atom_site_occupancy
  Pr  Pr0  1  0.975501  0.951001  0.975501  1
  Pr  Pr1  1  0.524499  0.048999  0.524499  1
  Pr  Pr2  1  0.522111  0.721214  0.669268  1
  Pr  Pr3  1  0.199106  0.721214  0.051948  1
  Pr  Pr4  1  0.669268  0.721214  0.199106  1
  Pr  Pr5  1  0.051948  0.721214  0.522111  1
  Pr  Pr6  1  0.448052  0.278786  0.300894  1
  Pr  Pr7  1  0.830732  0.278786  0.977889  1
  Pr  Pr8  1  0.300894  0.278786  0.830732  1
  Pr  Pr9  1  0.977889  0.278786  0.448052  1
  In  In10  1  0.750000  0.500000  0.750000  1
  Si  Si11  1  0.885420  0.000000  0.614580  1
  Si  Si12  1  0.114580  0.000000  0.385420  1
  Si  Si13  1  0.614580  0.000000  0.114580  1
  Si  Si14  1  0.385420  0.000000  0.885420  1
  Pd  Pd15  1  0.250000  0.500000  0.250000  1
