# generated using pymatgen
data_Nd8Ho11Si16Hg
_symmetry_space_group_name_H-M   'P 1'
_cell_length_a   7.45288410
_cell_length_b   7.77227110
_cell_length_c   14.78058300
_cell_angle_alpha   90.00000000
_cell_angle_beta   90.00000000
_cell_angle_gamma   90.01849008
_symmetry_Int_Tables_number   1
_chemical_formula_structural   Nd8Ho11Si16Hg
_chemical_formula_sum   'Nd8 Ho11 Si16 Hg1'
_cell_volume   856.17757764
_cell_formula_units_Z   1
loop_
 _symmetry_equiv_pos_site_id
 _symmetry_equiv_pos_as_xyz
  1  'x, y, z'
loop_
 _atom_site_type_symbol
 _atom_site_label
 _atom_site_symmetry_multiplicity
 _atom_site_fract_x
 _atom_site_fract_y
 _atom_site_fract_z
 _atom_site_occupancy
  Nd  Nd0  1  0.967080  0.823454  0.102091  1
  Nd  Nd1  1  0.479111  0.688291  0.398355  1
  Nd  Nd2  1  0.522750  0.322189  0.902739  1
  Nd  Nd3  1  0.023526  0.179151  0.597503  1
  Nd  Nd4  1  0.023526  0.179151  0.902497  1
  Nd  Nd5  1  0.522750  0.322189  0.597261  1
  Nd  Nd6  1  0.479111  0.688291  0.101645  1
  Nd  Nd7  1  0.967080  0.823454  0.397909  1
  Ho  Ho8  1  0.146148  0.505875  0.250000  1
  Ho  Ho9  1  0.850940  0.489278  0.750000  1
  Ho  Ho10  1  0.348090  0.010951  0.750000  1
  Ho  Ho11  1  0.681179  0.817978  0.875723  1
  Ho  Ho12  1  0.181324  0.677183  0.622272  1
  Ho  Ho13  1  0.814168  0.312940  0.125051  1
  Ho  Ho14  1  0.332039  0.174466  0.374508  1
  Ho  Ho15  1  0.332039  0.174466  0.125492  1
  Ho  Ho16  1  0.814168  0.312940  0.374949  1
  Ho  Ho17  1  0.181324  0.677183  0.877728  1
  Ho  Ho18  1  0.681179  0.817978  0.624277  1
  Si  Si19  1  0.772813  0.608746  0.250000  1
  Si  Si20  1  0.252991  0.874310  0.250000  1
  Si  Si21  1  0.730106  0.121845  0.750000  1
  Si  Si22  1  0.230870  0.377772  0.750000  1
  Si  Si23  1  0.036691  0.114373  0.250000  1
  Si  Si24  1  0.518340  0.412337  0.250000  1
  Si  Si25  1  0.475705  0.609590  0.750000  1
  Si  Si26  1  0.975915  0.886222  0.750000  1
  Si  Si27  1  0.855726  0.529440  0.962851  1
  Si  Si28  1  0.355156  0.968759  0.539770  1
  Si  Si29  1  0.649563  0.036063  0.030068  1
  Si  Si30  1  0.145878  0.470791  0.457446  1
  Si  Si31  1  0.145878  0.470791  0.042554  1
  Si  Si32  1  0.649563  0.036063  0.469932  1
  Si  Si33  1  0.355156  0.968759  0.960230  1
  Si  Si34  1  0.855726  0.529440  0.537149  1
  Hg  Hg35  1  0.646391  0.987293  0.250000  1
