# generated using pymatgen
data_Sr4TeRu3O16
_symmetry_space_group_name_H-M   'P 1'
_cell_length_a   5.07159096
_cell_length_b   5.63207378
_cell_length_c   13.00275000
_cell_angle_alpha   90.00000000
_cell_angle_beta   90.00000000
_cell_angle_gamma   89.46588492
_symmetry_Int_Tables_number   1
_chemical_formula_structural   Sr4TeRu3O16
_chemical_formula_sum   'Sr4 Te1 Ru3 O16'
_cell_volume   371.38888034
_cell_formula_units_Z   1
loop_
 _symmetry_equiv_pos_site_id
 _symmetry_equiv_pos_as_xyz
  1  'x, y, z'
loop_
 _atom_site_type_symbol
 _atom_site_label
 _atom_site_symmetry_multiplicity
 _atom_site_fract_x
 _atom_site_fract_y
 _atom_site_fract_z
 _atom_site_occupancy
  Sr  Sr0  1  0.750000  0.000000  0.662937  1
  Sr  Sr1  1  0.250000  0.500000  0.843004  1
  Sr  Sr2  1  0.250000  0.000000  0.340698  1
  Sr  Sr3  1  0.750000  0.500000  0.156876  1
  Te  Te4  1  0.750000  0.000000  0.929523  1
  Ru  Ru5  1  0.750000  0.500000  0.424245  1
  Ru  Ru6  1  0.250000  0.000000  0.075087  1
  Ru  Ru7  1  0.250000  0.500000  0.572446  1
  O  O8  1  0.132897  0.288827  0.668283  1
  O  O9  1  0.619295  0.209121  0.827875  1
  O  O10  1  0.880705  0.790879  0.827875  1
  O  O11  1  0.367103  0.711173  0.668283  1
  O  O12  1  0.865094  0.712611  0.327313  1
  O  O13  1  0.370894  0.791255  0.174489  1
  O  O14  1  0.129106  0.208745  0.174489  1
  O  O15  1  0.634906  0.287389  0.327313  1
  O  O16  1  0.554406  0.313526  0.538942  1
  O  O17  1  0.054918  0.196706  0.960731  1
  O  O18  1  0.445082  0.803294  0.960731  1
  O  O19  1  0.945594  0.686474  0.538942  1
  O  O20  1  0.444747  0.683754  0.457315  1
  O  O21  1  0.941237  0.809479  0.042645  1
  O  O22  1  0.558763  0.190521  0.042645  1
  O  O23  1  0.055253  0.316246  0.457315  1
