# generated using pymatgen
data_Ho7TmSc12Si15Se
_symmetry_space_group_name_H-M   'P 1'
_cell_length_a   7.14903807
_cell_length_b   7.34614870
_cell_length_c   13.95330772
_cell_angle_alpha   89.89771298
_cell_angle_beta   88.23816460
_cell_angle_gamma   90.09748430
_symmetry_Int_Tables_number   1
_chemical_formula_structural   Ho7TmSc12Si15Se
_chemical_formula_sum   'Ho7 Tm1 Sc12 Si15 Se1'
_cell_volume   732.44965351
_cell_formula_units_Z   1
loop_
 _symmetry_equiv_pos_site_id
 _symmetry_equiv_pos_as_xyz
  1  'x, y, z'
loop_
 _atom_site_type_symbol
 _atom_site_label
 _atom_site_symmetry_multiplicity
 _atom_site_fract_x
 _atom_site_fract_y
 _atom_site_fract_z
 _atom_site_occupancy
  Ho  Ho0  1  0.989519  0.824926  0.902705  1
  Ho  Ho1  1  0.489370  0.676382  0.902979  1
  Ho  Ho2  1  0.997775  0.824773  0.596331  1
  Ho  Ho3  1  0.510691  0.324352  0.097431  1
  Ho  Ho4  1  0.997555  0.175067  0.402101  1
  Ho  Ho5  1  0.501348  0.317362  0.400488  1
  Ho  Ho6  1  0.507817  0.681872  0.598795  1
  Tm  Tm7  1  0.011072  0.176832  0.097811  1
  Sc  Sc8  1  0.168136  0.501104  0.752544  1
  Sc  Sc9  1  0.831642  0.498741  0.253140  1
  Sc  Sc10  1  0.330416  0.000894  0.251492  1
  Sc  Sc11  1  0.669761  0.998893  0.748941  1
  Sc  Sc12  1  0.349763  0.166302  0.626626  1
  Sc  Sc13  1  0.652378  0.829523  0.374002  1
  Sc  Sc14  1  0.150928  0.670357  0.377019  1
  Sc  Sc15  1  0.666112  0.823670  0.125364  1
  Sc  Sc16  1  0.843539  0.331362  0.621451  1
  Sc  Sc17  1  0.333265  0.176040  0.874008  1
  Sc  Sc18  1  0.834697  0.323289  0.874251  1
  Sc  Sc19  1  0.165546  0.676999  0.125449  1
  Si  Si20  1  0.041404  0.118429  0.748426  1
  Si  Si21  1  0.958215  0.883355  0.249551  1
  Si  Si22  1  0.455885  0.616147  0.249423  1
  Si  Si23  1  0.542626  0.384426  0.749698  1
  Si  Si24  1  0.292409  0.869571  0.750395  1
  Si  Si25  1  0.708580  0.127887  0.247974  1
  Si  Si26  1  0.206340  0.371981  0.249406  1
  Si  Si27  1  0.795875  0.628561  0.750347  1
  Si  Si28  1  0.801453  0.540298  0.456888  1
  Si  Si29  1  0.318910  0.960152  0.460287  1
  Si  Si30  1  0.842818  0.534169  0.039555  1
  Si  Si31  1  0.679350  0.039710  0.540506  1
  Si  Si32  1  0.156599  0.465235  0.960870  1
  Si  Si33  1  0.656371  0.035133  0.959841  1
  Si  Si34  1  0.341784  0.966627  0.040191  1
  Se  Se35  1  0.200052  0.459578  0.543716  1
