# generated using pymatgen
data_Nd5Zr3(Co4As3)4
_symmetry_space_group_name_H-M   'P 1'
_cell_length_a   12.87489800
_cell_length_b   12.87489649
_cell_length_c   3.90516000
_cell_angle_alpha   90.00000000
_cell_angle_beta   90.00000000
_cell_angle_gamma   120.00000387
_symmetry_Int_Tables_number   1
_chemical_formula_structural   Nd5Zr3(Co4As3)4
_chemical_formula_sum   'Nd5 Zr3 Co16 As12'
_cell_volume   560.60503029
_cell_formula_units_Z   1
loop_
 _symmetry_equiv_pos_site_id
 _symmetry_equiv_pos_as_xyz
  1  'x, y, z'
loop_
 _atom_site_type_symbol
 _atom_site_label
 _atom_site_symmetry_multiplicity
 _atom_site_fract_x
 _atom_site_fract_y
 _atom_site_fract_z
 _atom_site_occupancy
  Nd  Nd0  1  0.184323  0.184323  0.500000  1
  Nd  Nd1  1  0.815677  0.000000  0.500000  1
  Nd  Nd2  1  0.000000  0.815677  0.500000  1
  Nd  Nd3  1  0.333333  0.666667  0.000000  1
  Nd  Nd4  1  0.666667  0.333333  0.000000  1
  Zr  Zr5  1  0.564166  0.564166  0.000000  1
  Zr  Zr6  1  0.435834  0.000000  0.000000  1
  Zr  Zr7  1  0.000000  0.435834  0.000000  1
  Co  Co8  1  0.719347  0.719347  0.500000  1
  Co  Co9  1  0.280653  0.000000  0.500000  1
  Co  Co10  1  0.000000  0.280653  0.500000  1
  Co  Co11  1  0.178302  0.375008  0.000000  1
  Co  Co12  1  0.624992  0.803294  0.000000  1
  Co  Co13  1  0.196706  0.821698  0.000000  1
  Co  Co14  1  0.803294  0.624992  0.000000  1
  Co  Co15  1  0.821698  0.196706  0.000000  1
  Co  Co16  1  0.375008  0.178302  0.000000  1
  Co  Co17  1  0.358117  0.479311  0.500000  1
  Co  Co18  1  0.520689  0.878808  0.500000  1
  Co  Co19  1  0.121192  0.641883  0.500000  1
  Co  Co20  1  0.878808  0.520689  0.500000  1
  Co  Co21  1  0.641883  0.121192  0.500000  1
  Co  Co22  1  0.479311  0.358117  0.500000  1
  Co  Co23  1  0.000000  0.000000  0.000000  1
  As  As24  1  0.820220  0.820220  0.000000  1
  As  As25  1  0.179780  0.000000  0.000000  1
  As  As26  1  0.000000  0.179780  0.000000  1
  As  As27  1  0.171836  0.478334  0.500000  1
  As  As28  1  0.521666  0.693502  0.500000  1
  As  As29  1  0.306498  0.828164  0.500000  1
  As  As30  1  0.693502  0.521666  0.500000  1
  As  As31  1  0.828164  0.306498  0.500000  1
  As  As32  1  0.478334  0.171836  0.500000  1
  As  As33  1  0.356647  0.356647  0.000000  1
  As  As34  1  0.643353  0.000000  0.000000  1
  As  As35  1  0.000000  0.643353  0.000000  1
