# generated using pymatgen
data_Ho2PaMnGa5
_symmetry_space_group_name_H-M   'P 1'
_cell_length_a   6.93452083
_cell_length_b   6.93452196
_cell_length_c   4.34329800
_cell_angle_alpha   90.00000000
_cell_angle_beta   90.00000000
_cell_angle_gamma   121.78466754
_symmetry_Int_Tables_number   1
_chemical_formula_structural   Ho2PaMnGa5
_chemical_formula_sum   'Ho2 Pa1 Mn1 Ga5'
_cell_volume   177.53694602
_cell_formula_units_Z   1
loop_
 _symmetry_equiv_pos_site_id
 _symmetry_equiv_pos_as_xyz
  1  'x, y, z'
loop_
 _atom_site_type_symbol
 _atom_site_label
 _atom_site_symmetry_multiplicity
 _atom_site_fract_x
 _atom_site_fract_y
 _atom_site_fract_z
 _atom_site_occupancy
  Ho  Ho0  1  0.597829  0.989696  0.000000  1
  Ho  Ho1  1  0.989696  0.597829  0.000000  1
  Pa  Pa2  1  0.378211  0.378211  0.000000  1
  Mn  Mn3  1  0.058226  0.058226  0.000000  1
  Ga  Ga4  1  0.232704  0.988963  0.500000  1
  Ga  Ga5  1  0.988963  0.232704  0.500000  1
  Ga  Ga6  1  0.764317  0.764317  0.500000  1
  Ga  Ga7  1  0.328299  0.661757  0.500000  1
  Ga  Ga8  1  0.661757  0.328299  0.500000  1
