# generated using pymatgen
data_La2AlCu18Si7
_symmetry_space_group_name_H-M   'P 1'
_cell_length_a   8.18898204
_cell_length_b   8.18898208
_cell_length_c   8.22673505
_cell_angle_alpha   120.49345033
_cell_angle_beta   120.49345308
_cell_angle_gamma   89.23832125
_symmetry_Int_Tables_number   1
_chemical_formula_structural   La2AlCu18Si7
_chemical_formula_sum   'La2 Al1 Cu18 Si7'
_cell_volume   386.83707268
_cell_formula_units_Z   1
loop_
 _symmetry_equiv_pos_site_id
 _symmetry_equiv_pos_as_xyz
  1  'x, y, z'
loop_
 _atom_site_type_symbol
 _atom_site_label
 _atom_site_symmetry_multiplicity
 _atom_site_fract_x
 _atom_site_fract_y
 _atom_site_fract_z
 _atom_site_occupancy
  La  La0  1  0.252696  0.249833  0.999970  1
  La  La1  1  0.749833  0.752696  0.999970  1
  Al  Al2  1  0.796481  0.296481  0.854395  1
  Cu  Cu3  1  0.937250  0.201968  0.140484  1
  Cu  Cu4  1  0.201714  0.062522  0.265718  1
  Cu  Cu5  1  0.797410  0.933613  0.732545  1
  Cu  Cu6  1  0.433613  0.297410  0.732545  1
  Cu  Cu7  1  0.066400  0.798233  0.862356  1
  Cu  Cu8  1  0.805037  0.056096  0.497262  1
  Cu  Cu9  1  0.556096  0.305037  0.497262  1
  Cu  Cu10  1  0.191880  0.944251  0.501403  1
  Cu  Cu11  1  0.444251  0.691880  0.501403  1
  Cu  Cu12  1  0.940562  0.440562  0.739467  1
  Cu  Cu13  1  0.692688  0.192688  0.250423  1
  Cu  Cu14  1  0.064546  0.564546  0.265633  1
  Cu  Cu15  1  0.701968  0.437250  0.140484  1
  Cu  Cu16  1  0.562522  0.701714  0.265718  1
  Cu  Cu17  1  0.495184  0.995184  0.494856  1
  Cu  Cu18  1  0.000577  0.500577  0.499729  1
  Cu  Cu19  1  0.309440  0.809440  0.750445  1
  Cu  Cu20  1  0.298233  0.566400  0.862356  1
  Si  Si21  1  0.561121  0.061121  0.850897  1
  Si  Si22  1  0.057532  0.207968  0.500965  1
  Si  Si23  1  0.292845  0.441002  0.499589  1
  Si  Si24  1  0.941002  0.792845  0.499589  1
  Si  Si25  1  0.441732  0.941732  0.149523  1
  Si  Si26  1  0.199418  0.699418  0.144050  1
  Si  Si27  1  0.707968  0.557532  0.500965  1
