# generated using pymatgen
data_Zr3Al3ZnCuPt
_symmetry_space_group_name_H-M   'P 1'
_cell_length_a   6.68759200
_cell_length_b   6.68759151
_cell_length_c   4.08126400
_cell_angle_alpha   90.00000000
_cell_angle_beta   90.00000000
_cell_angle_gamma   120.00000241
_symmetry_Int_Tables_number   1
_chemical_formula_structural   Zr3Al3ZnCuPt
_chemical_formula_sum   'Zr3 Al3 Zn1 Cu1 Pt1'
_cell_volume   158.07559206
_cell_formula_units_Z   1
loop_
 _symmetry_equiv_pos_site_id
 _symmetry_equiv_pos_as_xyz
  1  'x, y, z'
loop_
 _atom_site_type_symbol
 _atom_site_label
 _atom_site_symmetry_multiplicity
 _atom_site_fract_x
 _atom_site_fract_y
 _atom_site_fract_z
 _atom_site_occupancy
  Zr  Zr0  1  0.005181  0.421428  0.500000  1
  Zr  Zr1  1  0.578572  0.583753  0.500000  1
  Zr  Zr2  1  0.416247  0.994819  0.500000  1
  Al  Al3  1  0.007290  0.755962  0.000000  1
  Al  Al4  1  0.244038  0.251328  0.000000  1
  Al  Al5  1  0.748672  0.992710  0.000000  1
  Zn  Zn6  1  0.666667  0.333333  0.000000  1
  Cu  Cu7  1  0.333333  0.666667  0.000000  1
  Pt  Pt8  1  0.000000  0.000000  0.500000  1
