# generated using pymatgen
data_Y2Zr2CN3
_symmetry_space_group_name_H-M   'P 1'
_cell_length_a   11.25307497
_cell_length_b   11.25307488
_cell_length_c   11.25307510
_cell_angle_alpha   17.27061996
_cell_angle_beta   17.27062348
_cell_angle_gamma   17.27062051
_symmetry_Int_Tables_number   1
_chemical_formula_structural   Y2Zr2CN3
_chemical_formula_sum   'Y2 Zr2 C1 N3'
_cell_volume   109.59658545
_cell_formula_units_Z   1
loop_
 _symmetry_equiv_pos_site_id
 _symmetry_equiv_pos_as_xyz
  1  'x, y, z'
loop_
 _atom_site_type_symbol
 _atom_site_label
 _atom_site_symmetry_multiplicity
 _atom_site_fract_x
 _atom_site_fract_y
 _atom_site_fract_z
 _atom_site_occupancy
  Y  Y0  1  0.876507  0.876507  0.876507  1
  Y  Y1  1  0.123493  0.123493  0.123493  1
  Zr  Zr2  1  0.372942  0.372942  0.372942  1
  Zr  Zr3  1  0.627058  0.627058  0.627058  1
  C  C4  1  0.000000  0.000000  0.000000  1
  N  N5  1  0.253304  0.253304  0.253304  1
  N  N6  1  0.500000  0.500000  0.500000  1
  N  N7  1  0.746696  0.746696  0.746696  1
