# generated using pymatgen
data_Tb12Gd8Si15Sn
_symmetry_space_group_name_H-M   'P 1'
_cell_length_a   7.51333086
_cell_length_b   7.82076863
_cell_length_c   14.86618100
_cell_angle_alpha   90.11832402
_cell_angle_beta   89.23091426
_cell_angle_gamma   90.07795602
_symmetry_Int_Tables_number   1
_chemical_formula_structural   Tb12Gd8Si15Sn
_chemical_formula_sum   'Tb12 Gd8 Si15 Sn1'
_cell_volume   873.45579282
_cell_formula_units_Z   1
loop_
 _symmetry_equiv_pos_site_id
 _symmetry_equiv_pos_as_xyz
  1  'x, y, z'
loop_
 _atom_site_type_symbol
 _atom_site_label
 _atom_site_symmetry_multiplicity
 _atom_site_fract_x
 _atom_site_fract_y
 _atom_site_fract_z
 _atom_site_occupancy
  Tb  Tb0  1  0.156729  0.513382  0.754022  1
  Tb  Tb1  1  0.842846  0.485056  0.249390  1
  Tb  Tb2  1  0.344109  0.016507  0.249139  1
  Tb  Tb3  1  0.659308  0.984385  0.752756  1
  Tb  Tb4  1  0.334426  0.165917  0.628961  1
  Tb  Tb5  1  0.671534  0.821537  0.375269  1
  Tb  Tb6  1  0.168765  0.688389  0.371311  1
  Tb  Tb7  1  0.676967  0.819593  0.121476  1
  Tb  Tb8  1  0.819551  0.320749  0.623621  1
  Tb  Tb9  1  0.320400  0.179438  0.878915  1
  Tb  Tb10  1  0.820348  0.319968  0.878611  1
  Tb  Tb11  1  0.178097  0.679749  0.121794  1
  Gd  Gd12  1  0.023111  0.183900  0.097415  1
  Gd  Gd13  1  0.976728  0.817646  0.903268  1
  Gd  Gd14  1  0.477170  0.682550  0.903232  1
  Gd  Gd15  1  0.977071  0.822907  0.599133  1
  Gd  Gd16  1  0.523060  0.316688  0.097742  1
  Gd  Gd17  1  0.016255  0.176503  0.398769  1
  Gd  Gd18  1  0.521616  0.315976  0.400606  1
  Gd  Gd19  1  0.490184  0.689123  0.601034  1
  Si  Si20  1  0.029247  0.106608  0.751413  1
  Si  Si21  1  0.968378  0.898635  0.246348  1
  Si  Si22  1  0.469139  0.603697  0.248126  1
  Si  Si23  1  0.528755  0.395928  0.752551  1
  Si  Si24  1  0.271666  0.872273  0.752350  1
  Si  Si25  1  0.728005  0.123595  0.248093  1
  Si  Si26  1  0.228102  0.377361  0.249301  1
  Si  Si27  1  0.773643  0.624913  0.750690  1
  Si  Si28  1  0.836826  0.532154  0.458567  1
  Si  Si29  1  0.345893  0.970463  0.460737  1
  Si  Si30  1  0.853653  0.528306  0.040047  1
  Si  Si31  1  0.655146  0.030318  0.538273  1
  Si  Si32  1  0.144281  0.472157  0.960176  1
  Si  Si33  1  0.644929  0.028002  0.960268  1
  Si  Si34  1  0.353678  0.971912  0.040334  1
  Sn  Sn35  1  0.170382  0.463717  0.536263  1
