# generated using pymatgen
data_CeY9(Bi3C)2
_symmetry_space_group_name_H-M   'P 1'
_cell_length_a   9.16168200
_cell_length_b   9.15942212
_cell_length_c   6.52119000
_cell_angle_alpha   90.00000000
_cell_angle_beta   90.00000000
_cell_angle_gamma   119.99184500
_symmetry_Int_Tables_number   1
_chemical_formula_structural   CeY9(Bi3C)2
_chemical_formula_sum   'Ce1 Y9 Bi6 C2'
_cell_volume   473.95428698
_cell_formula_units_Z   1
loop_
 _symmetry_equiv_pos_site_id
 _symmetry_equiv_pos_as_xyz
  1  'x, y, z'
loop_
 _atom_site_type_symbol
 _atom_site_label
 _atom_site_symmetry_multiplicity
 _atom_site_fract_x
 _atom_site_fract_y
 _atom_site_fract_z
 _atom_site_occupancy
  Ce  Ce0  1  0.000000  0.789913  0.250000  1
  Y  Y1  1  0.667722  0.334151  0.000527  1
  Y  Y2  1  0.332278  0.666430  0.000527  1
  Y  Y3  1  0.332278  0.666430  0.499473  1
  Y  Y4  1  0.667722  0.334151  0.499473  1
  Y  Y5  1  0.789535  0.790701  0.750000  1
  Y  Y6  1  0.210465  0.001166  0.750000  1
  Y  Y7  1  0.000000  0.211943  0.750000  1
  Y  Y8  1  0.211389  0.212396  0.250000  1
  Y  Y9  1  0.788611  0.001007  0.250000  1
  Bi  Bi10  1  0.401945  0.401674  0.750000  1
  Bi  Bi11  1  0.598055  0.999728  0.750000  1
  Bi  Bi12  1  0.000000  0.596894  0.750000  1
  Bi  Bi13  1  0.594126  0.596735  0.250000  1
  Bi  Bi14  1  0.405874  0.002609  0.250000  1
  Bi  Bi15  1  0.000000  0.400191  0.250000  1
  C  C16  1  0.000000  0.996941  0.001278  1
  C  C17  1  0.000000  0.996941  0.498722  1
