# generated using pymatgen
data_Er6TiMn(Co4P3)4
_symmetry_space_group_name_H-M   'P 1'
_cell_length_a   3.67761900
_cell_length_b   10.53454800
_cell_length_c   12.19855800
_cell_angle_alpha   90.00000000
_cell_angle_beta   90.00000000
_cell_angle_gamma   90.00000000
_symmetry_Int_Tables_number   1
_chemical_formula_structural   Er6TiMn(Co4P3)4
_chemical_formula_sum   'Er6 Ti1 Mn1 Co16 P12'
_cell_volume   472.59719131
_cell_formula_units_Z   1
loop_
 _symmetry_equiv_pos_site_id
 _symmetry_equiv_pos_as_xyz
  1  'x, y, z'
loop_
 _atom_site_type_symbol
 _atom_site_label
 _atom_site_symmetry_multiplicity
 _atom_site_fract_x
 _atom_site_fract_y
 _atom_site_fract_z
 _atom_site_occupancy
  Er  Er0  1  0.750000  0.250000  0.476601  1
  Er  Er1  1  0.250000  0.750000  0.525623  1
  Er  Er2  1  0.250000  0.931598  0.796218  1
  Er  Er3  1  0.250000  0.568402  0.796218  1
  Er  Er4  1  0.750000  0.069786  0.205549  1
  Er  Er5  1  0.750000  0.430214  0.205549  1
  Ti  Ti6  1  0.750000  0.750000  0.152510  1
  Mn  Mn7  1  0.250000  0.250000  0.838932  1
  Co  Co8  1  0.250000  0.250000  0.297755  1
  Co  Co9  1  0.750000  0.750000  0.702534  1
  Co  Co10  1  0.750000  0.250000  0.013603  1
  Co  Co11  1  0.250000  0.750000  0.986197  1
  Co  Co12  1  0.250000  0.414428  0.004419  1
  Co  Co13  1  0.250000  0.085572  0.004419  1
  Co  Co14  1  0.750000  0.579869  0.991276  1
  Co  Co15  1  0.750000  0.920131  0.991276  1
  Co  Co16  1  0.250000  0.452840  0.570240  1
  Co  Co17  1  0.250000  0.047160  0.570240  1
  Co  Co18  1  0.750000  0.545476  0.432858  1
  Co  Co19  1  0.750000  0.954524  0.432858  1
  Co  Co20  1  0.250000  0.872369  0.293421  1
  Co  Co21  1  0.250000  0.627631  0.293421  1
  Co  Co22  1  0.750000  0.129649  0.707751  1
  Co  Co23  1  0.750000  0.370351  0.707751  1
  P  P24  1  0.250000  0.250000  0.117827  1
  P  P25  1  0.750000  0.750000  0.882106  1
  P  P26  1  0.250000  0.250000  0.653486  1
  P  P27  1  0.750000  0.750000  0.353717  1
  P  P28  1  0.250000  0.438006  0.384775  1
  P  P29  1  0.250000  0.061994  0.384775  1
  P  P30  1  0.750000  0.561592  0.617411  1
  P  P31  1  0.750000  0.938408  0.617411  1
  P  P32  1  0.250000  0.909108  0.105613  1
  P  P33  1  0.250000  0.590892  0.105613  1
  P  P34  1  0.750000  0.099440  0.890022  1
  P  P35  1  0.750000  0.400560  0.890022  1
