# generated using pymatgen
data_RbCeHgSe3
_symmetry_space_group_name_H-M   'P 1'
_cell_length_a   4.43054100
_cell_length_b   8.15478790
_cell_length_c   11.47401600
_cell_angle_alpha   90.00000000
_cell_angle_beta   90.00000000
_cell_angle_gamma   74.23736527
_symmetry_Int_Tables_number   1
_chemical_formula_structural   RbCeHgSe3
_chemical_formula_sum   'Rb2 Ce2 Hg2 Se6'
_cell_volume   398.96830833
_cell_formula_units_Z   2
loop_
 _symmetry_equiv_pos_site_id
 _symmetry_equiv_pos_as_xyz
  1  'x, y, z'
loop_
 _atom_site_type_symbol
 _atom_site_label
 _atom_site_symmetry_multiplicity
 _atom_site_fract_x
 _atom_site_fract_y
 _atom_site_fract_z
 _atom_site_occupancy
  Rb  Rb0  1  0.743448  0.513101  0.250000  1
  Rb  Rb1  1  0.256550  0.486899  0.750000  1
  Ce  Ce2  1  0.000000  0.000000  0.000000  1
  Ce  Ce3  1  0.000000  0.000000  0.500000  1
  Hg  Hg4  1  0.455484  0.089031  0.250000  1
  Hg  Hg5  1  0.544515  0.910969  0.750000  1
  Se  Se6  1  0.374538  0.250922  0.048044  1
  Se  Se7  1  0.064082  0.871836  0.250000  1
  Se  Se8  1  0.374538  0.250922  0.451956  1
  Se  Se9  1  0.625461  0.749077  0.548044  1
  Se  Se10  1  0.935917  0.128165  0.750000  1
  Se  Se11  1  0.625461  0.749077  0.951956  1
