# generated using pymatgen
data_Dy15HoIn2(AgIr2)2
_symmetry_space_group_name_H-M   'P 1'
_cell_length_a   9.58929556
_cell_length_b   9.58929649
_cell_length_c   9.59964404
_cell_angle_alpha   59.95606582
_cell_angle_beta   59.95606062
_cell_angle_gamma   60.02700872
_symmetry_Int_Tables_number   1
_chemical_formula_structural   Dy15HoIn2(AgIr2)2
_chemical_formula_sum   'Dy15 Ho1 In2 Ag2 Ir4'
_cell_volume   623.89757467
_cell_formula_units_Z   1
loop_
 _symmetry_equiv_pos_site_id
 _symmetry_equiv_pos_as_xyz
  1  'x, y, z'
loop_
 _atom_site_type_symbol
 _atom_site_label
 _atom_site_symmetry_multiplicity
 _atom_site_fract_x
 _atom_site_fract_y
 _atom_site_fract_z
 _atom_site_occupancy
  Dy  Dy0  1  0.599832  0.599832  0.200395  1
  Dy  Dy1  1  0.600685  0.199587  0.599875  1
  Dy  Dy2  1  0.199587  0.600685  0.599875  1
  Dy  Dy3  1  0.059282  0.439731  0.441435  1
  Dy  Dy4  1  0.439648  0.059566  0.059625  1
  Dy  Dy5  1  0.439731  0.059282  0.441435  1
  Dy  Dy6  1  0.059566  0.439648  0.059625  1
  Dy  Dy7  1  0.442296  0.442296  0.057631  1
  Dy  Dy8  1  0.061028  0.061028  0.439059  1
  Dy  Dy9  1  0.185067  0.810433  0.812707  1
  Dy  Dy10  1  0.810499  0.184878  0.191619  1
  Dy  Dy11  1  0.810433  0.185067  0.812707  1
  Dy  Dy12  1  0.184878  0.810499  0.191619  1
  Dy  Dy13  1  0.809805  0.809805  0.190159  1
  Dy  Dy14  1  0.187169  0.187169  0.812708  1
  Ho  Ho15  1  0.599617  0.599617  0.599869  1
  In  In16  1  0.833617  0.507874  0.829126  1
  In  In17  1  0.507874  0.833617  0.829126  1
  Ag  Ag18  1  0.833440  0.833440  0.832337  1
  Ag  Ag19  1  0.833285  0.833285  0.500931  1
  Ir  Ir20  1  0.392505  0.392505  0.389820  1
  Ir  Ir21  1  0.392873  0.392873  0.824848  1
  Ir  Ir22  1  0.392793  0.824492  0.391736  1
  Ir  Ir23  1  0.824492  0.392793  0.391736  1
