# generated using pymatgen
data_Nd6DyCoBr12
_symmetry_space_group_name_H-M   'P 1'
_cell_length_a   9.55093531
_cell_length_b   9.55093512
_cell_length_c   9.55093603
_cell_angle_alpha   107.04204783
_cell_angle_beta   107.04203027
_cell_angle_gamma   107.04202490
_symmetry_Int_Tables_number   1
_chemical_formula_structural   Nd6DyCoBr12
_chemical_formula_sum   'Nd6 Dy1 Co1 Br12'
_cell_volume   724.74329967
_cell_formula_units_Z   1
loop_
 _symmetry_equiv_pos_site_id
 _symmetry_equiv_pos_as_xyz
  1  'x, y, z'
loop_
 _atom_site_type_symbol
 _atom_site_label
 _atom_site_symmetry_multiplicity
 _atom_site_fract_x
 _atom_site_fract_y
 _atom_site_fract_z
 _atom_site_occupancy
  Nd  Nd0  1  0.976331  0.900049  0.693125  1
  Nd  Nd1  1  0.023669  0.099951  0.306875  1
  Nd  Nd2  1  0.099951  0.306875  0.023669  1
  Nd  Nd3  1  0.306875  0.023669  0.099951  1
  Nd  Nd4  1  0.900049  0.693125  0.976331  1
  Nd  Nd5  1  0.693125  0.976331  0.900049  1
  Dy  Dy6  1  0.500000  0.500000  0.500000  1
  Co  Co7  1  0.000000  0.000000  0.000000  1
  Br  Br8  1  0.535435  0.610288  0.822007  1
  Br  Br9  1  0.464565  0.389712  0.177993  1
  Br  Br10  1  0.316331  0.927938  0.777496  1
  Br  Br11  1  0.389712  0.177993  0.464565  1
  Br  Br12  1  0.927938  0.777496  0.316331  1
  Br  Br13  1  0.683669  0.072062  0.222504  1
  Br  Br14  1  0.072062  0.222504  0.683669  1
  Br  Br15  1  0.777496  0.316331  0.927938  1
  Br  Br16  1  0.222504  0.683669  0.072062  1
  Br  Br17  1  0.822007  0.535435  0.610288  1
  Br  Br18  1  0.177993  0.464565  0.389712  1
  Br  Br19  1  0.610288  0.822007  0.535435  1
