# generated using pymatgen
data_LaTbDy2(WO6)2
_symmetry_space_group_name_H-M   'P 1'
_cell_length_a   5.47786200
_cell_length_b   7.80837035
_cell_length_c   11.60986510
_cell_angle_alpha   75.73776052
_cell_angle_beta   90.00000000
_cell_angle_gamma   90.00000000
_symmetry_Int_Tables_number   1
_chemical_formula_structural   LaTbDy2(WO6)2
_chemical_formula_sum   'La2 Tb2 Dy4 W4 O24'
_cell_volume   481.28502366
_cell_formula_units_Z   2
loop_
 _symmetry_equiv_pos_site_id
 _symmetry_equiv_pos_as_xyz
  1  'x, y, z'
loop_
 _atom_site_type_symbol
 _atom_site_label
 _atom_site_symmetry_multiplicity
 _atom_site_fract_x
 _atom_site_fract_y
 _atom_site_fract_z
 _atom_site_occupancy
  La  La0  1  0.686423  0.500000  0.750000  1
  La  La1  1  0.313577  0.500000  0.250000  1
  Tb  Tb2  1  0.741149  0.000000  0.750000  1
  Tb  Tb3  1  0.258851  0.000000  0.250000  1
  Dy  Dy4  1  0.188075  0.798768  0.576268  1
  Dy  Dy5  1  0.811925  0.798768  0.076268  1
  Dy  Dy6  1  0.188075  0.201232  0.923732  1
  Dy  Dy7  1  0.811925  0.201232  0.423732  1
  W  W8  1  0.252036  0.728674  0.884101  1
  W  W9  1  0.747964  0.728674  0.384101  1
  W  W10  1  0.252036  0.271326  0.615899  1
  W  W11  1  0.747964  0.271326  0.115899  1
  O  O12  1  0.041091  0.941517  0.896111  1
  O  O13  1  0.529751  0.846270  0.930911  1
  O  O14  1  0.958909  0.941517  0.396111  1
  O  O15  1  0.453305  0.795128  0.727872  1
  O  O16  1  0.470249  0.846270  0.430911  1
  O  O17  1  0.987510  0.721266  0.769289  1
  O  O18  1  0.546695  0.795128  0.227872  1
  O  O19  1  0.858195  0.643531  0.543766  1
  O  O20  1  0.346377  0.495226  0.887649  1
  O  O21  1  0.012490  0.721266  0.269289  1
  O  O22  1  0.346377  0.504774  0.612351  1
  O  O23  1  0.858195  0.356469  0.956234  1
  O  O24  1  0.141805  0.643531  0.043766  1
  O  O25  1  0.653623  0.495226  0.387649  1
  O  O26  1  0.987510  0.278734  0.730711  1
  O  O27  1  0.653623  0.504774  0.112351  1
  O  O28  1  0.141805  0.356469  0.456234  1
  O  O29  1  0.453305  0.204872  0.772128  1
  O  O30  1  0.012490  0.278734  0.230711  1
  O  O31  1  0.529751  0.153730  0.569089  1
  O  O32  1  0.546695  0.204872  0.272128  1
  O  O33  1  0.041091  0.058483  0.603889  1
  O  O34  1  0.470249  0.153730  0.069089  1
  O  O35  1  0.958909  0.058483  0.103889  1
