# generated using pymatgen
data_Ce3Ti13Bi18
_symmetry_space_group_name_H-M   'P 1'
_cell_length_a   10.45589700
_cell_length_b   10.45589700
_cell_length_c   7.56131800
_cell_angle_alpha   90.00000000
_cell_angle_beta   90.00000000
_cell_angle_gamma   90.00000000
_symmetry_Int_Tables_number   1
_chemical_formula_structural   Ce3Ti13Bi18
_chemical_formula_sum   'Ce3 Ti13 Bi18'
_cell_volume   826.64700386
_cell_formula_units_Z   1
loop_
 _symmetry_equiv_pos_site_id
 _symmetry_equiv_pos_as_xyz
  1  'x, y, z'
loop_
 _atom_site_type_symbol
 _atom_site_label
 _atom_site_symmetry_multiplicity
 _atom_site_fract_x
 _atom_site_fract_y
 _atom_site_fract_z
 _atom_site_occupancy
  Ce  Ce0  1  0.500000  0.000000  0.418943  1
  Ce  Ce1  1  0.000000  0.500000  0.069491  1
  Ce  Ce2  1  0.500000  0.000000  0.925708  1
  Ti  Ti3  1  0.861143  0.000000  0.842712  1
  Ti  Ti4  1  0.000000  0.143279  0.146968  1
  Ti  Ti5  1  0.000000  0.856721  0.146968  1
  Ti  Ti6  1  0.643279  0.500000  0.146968  1
  Ti  Ti7  1  0.138857  0.000000  0.842712  1
  Ti  Ti8  1  0.356721  0.500000  0.146968  1
  Ti  Ti9  1  0.248216  0.748216  0.008102  1
  Ti  Ti10  1  0.500000  0.361143  0.842712  1
  Ti  Ti11  1  0.000000  0.500000  0.571180  1
  Ti  Ti12  1  0.751784  0.251784  0.008102  1
  Ti  Ti13  1  0.500000  0.638857  0.842712  1
  Ti  Ti14  1  0.751784  0.748216  0.008102  1
  Ti  Ti15  1  0.248216  0.251784  0.008102  1
  Bi  Bi16  1  0.676102  0.176102  0.660981  1
  Bi  Bi17  1  0.500000  0.256529  0.187333  1
  Bi  Bi18  1  0.000000  0.000000  0.497719  1
  Bi  Bi19  1  0.167718  0.667718  0.354849  1
  Bi  Bi20  1  0.245028  0.500000  0.803865  1
  Bi  Bi21  1  0.676102  0.823898  0.660981  1
  Bi  Bi22  1  0.000000  0.254972  0.803865  1
  Bi  Bi23  1  0.756529  0.000000  0.187333  1
  Bi  Bi24  1  0.500000  0.743471  0.187333  1
  Bi  Bi25  1  0.243471  0.000000  0.187333  1
  Bi  Bi26  1  0.323898  0.823898  0.660981  1
  Bi  Bi27  1  0.754972  0.500000  0.803865  1
  Bi  Bi28  1  0.500000  0.500000  0.497719  1
  Bi  Bi29  1  0.000000  0.745028  0.803865  1
  Bi  Bi30  1  0.167718  0.332282  0.354849  1
  Bi  Bi31  1  0.832282  0.332282  0.354849  1
  Bi  Bi32  1  0.323898  0.176102  0.660981  1
  Bi  Bi33  1  0.832282  0.667718  0.354849  1
