# generated using pymatgen
data_Ca3Tm4U(B6Ru)4
_symmetry_space_group_name_H-M   'P 1'
_cell_length_a   3.64523400
_cell_length_b   9.12565206
_cell_length_c   11.53582700
_cell_angle_alpha   89.84117155
_cell_angle_beta   90.00000000
_cell_angle_gamma   90.00000000
_symmetry_Int_Tables_number   1
_chemical_formula_structural   Ca3Tm4U(B6Ru)4
_chemical_formula_sum   'Ca3 Tm4 U1 B24 Ru4'
_cell_volume   383.73939312
_cell_formula_units_Z   1
loop_
 _symmetry_equiv_pos_site_id
 _symmetry_equiv_pos_as_xyz
  1  'x, y, z'
loop_
 _atom_site_type_symbol
 _atom_site_label
 _atom_site_symmetry_multiplicity
 _atom_site_fract_x
 _atom_site_fract_y
 _atom_site_fract_z
 _atom_site_occupancy
  Ca  Ca0  1  0.000000  0.324361  0.414322  1
  Ca  Ca1  1  0.000000  0.676588  0.583584  1
  Ca  Ca2  1  0.000000  0.819569  0.087242  1
  Tm  Tm3  1  0.000000  0.941270  0.369358  1
  Tm  Tm4  1  0.000000  0.056423  0.627104  1
  Tm  Tm5  1  0.000000  0.446291  0.130406  1
  Tm  Tm6  1  0.000000  0.558659  0.871659  1
  U  U7  1  0.000000  0.175047  0.915233  1
  B  B8  1  0.500000  0.554033  0.432741  1
  B  B9  1  0.500000  0.444554  0.569470  1
  B  B10  1  0.500000  0.055122  0.066208  1
  B  B11  1  0.500000  0.947242  0.932050  1
  B  B12  1  0.500000  0.748551  0.417564  1
  B  B13  1  0.500000  0.251196  0.582896  1
  B  B14  1  0.500000  0.249531  0.079465  1
  B  B15  1  0.500000  0.751658  0.918258  1
  B  B16  1  0.500000  0.791121  0.265428  1
  B  B17  1  0.500000  0.206965  0.736132  1
  B  B18  1  0.500000  0.291180  0.234118  1
  B  B19  1  0.500000  0.710370  0.766250  1
  B  B20  1  0.500000  0.631017  0.185733  1
  B  B21  1  0.500000  0.366972  0.817488  1
  B  B22  1  0.500000  0.131120  0.313345  1
  B  B23  1  0.500000  0.869549  0.684597  1
  B  B24  1  0.500000  0.984233  0.212034  1
  B  B25  1  0.500000  0.017921  0.787792  1
  B  B26  1  0.500000  0.483836  0.287503  1
  B  B27  1  0.500000  0.515447  0.713621  1
  B  B28  1  0.500000  0.604039  0.028205  1
  B  B29  1  0.500000  0.395294  0.971485  1
  B  B30  1  0.500000  0.100353  0.471320  1
  B  B31  1  0.500000  0.899733  0.526722  1
  Ru  Ru32  1  0.000000  0.638894  0.319456  1
  Ru  Ru33  1  0.000000  0.356607  0.685889  1
  Ru  Ru34  1  0.000000  0.139562  0.174751  1
  Ru  Ru35  1  0.000000  0.865692  0.820570  1
