# generated using pymatgen
data_La2P7(IrRu5)2
_symmetry_space_group_name_H-M   'P 1'
_cell_length_a   9.49962342
_cell_length_b   9.55536451
_cell_length_c   3.98761900
_cell_angle_alpha   90.00000000
_cell_angle_beta   90.00000000
_cell_angle_gamma   120.12173091
_symmetry_Int_Tables_number   1
_chemical_formula_structural   La2P7(IrRu5)2
_chemical_formula_sum   'La2 P7 Ir2 Ru10'
_cell_volume   313.08618512
_cell_formula_units_Z   1
loop_
 _symmetry_equiv_pos_site_id
 _symmetry_equiv_pos_as_xyz
  1  'x, y, z'
loop_
 _atom_site_type_symbol
 _atom_site_label
 _atom_site_symmetry_multiplicity
 _atom_site_fract_x
 _atom_site_fract_y
 _atom_site_fract_z
 _atom_site_occupancy
  La  La0  1  0.668309  0.333990  0.500000  1
  La  La1  1  0.330623  0.665587  0.000000  1
  P  P2  1  0.604786  0.713291  0.500000  1
  P  P3  1  0.999818  0.000465  0.000000  1
  P  P4  1  0.281529  0.887731  0.500000  1
  P  P5  1  0.106052  0.396644  0.500000  1
  P  P6  1  0.891492  0.581296  0.000000  1
  P  P7  1  0.420122  0.305148  0.000000  1
  P  P8  1  0.695598  0.113088  0.000000  1
  Ir  Ir9  1  0.557385  0.946382  0.500000  1
  Ir  Ir10  1  0.388072  0.440515  0.500000  1
  Ru  Ru11  1  0.913029  0.123283  0.500000  1
  Ru  Ru12  1  0.212936  0.088599  0.500000  1
  Ru  Ru13  1  0.876552  0.792320  0.500000  1
  Ru  Ru14  1  0.729456  0.891603  0.000000  1
  Ru  Ru15  1  0.109424  0.841331  0.000000  1
  Ru  Ru16  1  0.162519  0.268605  0.000000  1
  Ru  Ru17  1  0.427758  0.064236  0.000000  1
  Ru  Ru18  1  0.937437  0.360458  0.000000  1
  Ru  Ru19  1  0.638671  0.573875  0.000000  1
  Ru  Ru20  1  0.048431  0.611553  0.500000  1
