# generated using pymatgen
data_Cs4Hf5ZrFeBr18
_symmetry_space_group_name_H-M   'P 1'
_cell_length_a   10.89686450
_cell_length_b   11.26006297
_cell_length_c   11.36379384
_cell_angle_alpha   118.13783039
_cell_angle_beta   100.74931950
_cell_angle_gamma   104.46922623
_symmetry_Int_Tables_number   1
_chemical_formula_structural   Cs4Hf5ZrFeBr18
_chemical_formula_sum   'Cs4 Hf5 Zr1 Fe1 Br18'
_cell_volume   1112.34680814
_cell_formula_units_Z   1
loop_
 _symmetry_equiv_pos_site_id
 _symmetry_equiv_pos_as_xyz
  1  'x, y, z'
loop_
 _atom_site_type_symbol
 _atom_site_label
 _atom_site_symmetry_multiplicity
 _atom_site_fract_x
 _atom_site_fract_y
 _atom_site_fract_z
 _atom_site_occupancy
  Cs  Cs0  1  0.664938  0.537938  0.231660  1
  Cs  Cs1  1  0.334900  0.461805  0.767993  1
  Cs  Cs2  1  0.698264  0.228546  0.564412  1
  Cs  Cs3  1  0.301514  0.771499  0.435342  1
  Hf  Hf4  1  0.851497  0.944469  0.777648  1
  Hf  Hf5  1  0.862788  0.117797  0.124169  1
  Hf  Hf6  1  0.137187  0.882178  0.875749  1
  Hf  Hf7  1  0.143735  0.231973  0.044659  1
  Hf  Hf8  1  0.856167  0.768031  0.955161  1
  Zr  Zr9  1  0.150213  0.056219  0.225008  1
  Fe  Fe10  1  0.000668  0.000349  0.001084  1
  Br  Br11  1  0.007300  0.388403  0.185413  1
  Br  Br12  1  0.992315  0.611444  0.814105  1
  Br  Br13  1  0.323899  0.324449  0.299474  1
  Br  Br14  1  0.677230  0.678403  0.700009  1
  Br  Br15  1  0.311960  0.499069  0.098012  1
  Br  Br16  1  0.687448  0.500782  0.900992  1
  Br  Br17  1  0.001870  0.802010  0.198698  1
  Br  Br18  1  0.995460  0.194712  0.799624  1
  Br  Br19  1  0.709863  0.251738  0.264973  1
  Br  Br20  1  0.289386  0.747894  0.733848  1
  Br  Br21  1  0.309224  0.127052  0.911666  1
  Br  Br22  1  0.690421  0.872782  0.087819  1
  Br  Br23  1  0.012771  0.194849  0.388076  1
  Br  Br24  1  0.984607  0.806573  0.612412  1
  Br  Br25  1  0.315032  0.929372  0.107651  1
  Br  Br26  1  0.685814  0.068496  0.889448  1
  Br  Br27  1  0.328379  0.121499  0.484633  1
  Br  Br28  1  0.675149  0.879670  0.520260  1
