# generated using pymatgen
data_Cs2LiCrO4
_symmetry_space_group_name_H-M   'P 1'
_cell_length_a   6.10948000
_cell_length_b   12.40909300
_cell_length_c   8.29662200
_cell_angle_alpha   90.00000000
_cell_angle_beta   90.00000000
_cell_angle_gamma   90.00000000
_symmetry_Int_Tables_number   1
_chemical_formula_structural   Cs2LiCrO4
_chemical_formula_sum   'Cs8 Li4 Cr4 O16'
_cell_volume   628.99267899
_cell_formula_units_Z   4
loop_
 _symmetry_equiv_pos_site_id
 _symmetry_equiv_pos_as_xyz
  1  'x, y, z'
loop_
 _atom_site_type_symbol
 _atom_site_label
 _atom_site_symmetry_multiplicity
 _atom_site_fract_x
 _atom_site_fract_y
 _atom_site_fract_z
 _atom_site_occupancy
  Cs  Cs0  1  0.500000  0.107267  0.547223  1
  Cs  Cs1  1  0.000000  0.607267  0.547223  1
  Cs  Cs2  1  0.000000  0.392733  0.047223  1
  Cs  Cs3  1  0.500000  0.892733  0.047223  1
  Cs  Cs4  1  0.500000  0.427577  0.411744  1
  Cs  Cs5  1  0.000000  0.927577  0.411744  1
  Cs  Cs6  1  0.000000  0.072423  0.911744  1
  Cs  Cs7  1  0.500000  0.572423  0.911744  1
  Li  Li8  1  0.500000  0.293063  0.827905  1
  Li  Li9  1  0.000000  0.793063  0.827905  1
  Li  Li10  1  0.000000  0.206937  0.327905  1
  Li  Li11  1  0.500000  0.706937  0.327905  1
  Cr  Cr12  1  0.500000  0.801279  0.608912  1
  Cr  Cr13  1  0.000000  0.698721  0.108912  1
  Cr  Cr14  1  0.000000  0.301279  0.608912  1
  Cr  Cr15  1  0.500000  0.198721  0.108912  1
  O  O16  1  0.500000  0.138482  0.918953  1
  O  O17  1  0.000000  0.638482  0.918953  1
  O  O18  1  0.000000  0.361518  0.418953  1
  O  O19  1  0.500000  0.861518  0.418953  1
  O  O20  1  0.000000  0.163899  0.561779  1
  O  O21  1  0.500000  0.663899  0.561779  1
  O  O22  1  0.500000  0.336101  0.061779  1
  O  O23  1  0.000000  0.836101  0.061779  1
  O  O24  1  0.261551  0.165932  0.207792  1
  O  O25  1  0.761551  0.665932  0.207792  1
  O  O26  1  0.238449  0.334068  0.707792  1
  O  O27  1  0.738449  0.834068  0.707792  1
  O  O28  1  0.738449  0.165932  0.207792  1
  O  O29  1  0.238449  0.665932  0.207792  1
  O  O30  1  0.761551  0.334068  0.707792  1
  O  O31  1  0.261551  0.834068  0.707792  1
