# generated using pymatgen
data_Dy3Y(Si2Tc)2
_symmetry_space_group_name_H-M   'P 1'
_cell_length_a   5.82616520
_cell_length_b   5.82616470
_cell_length_c   10.12619401
_cell_angle_alpha   63.40060148
_cell_angle_beta   63.40059552
_cell_angle_gamma   42.15297143
_symmetry_Int_Tables_number   1
_chemical_formula_structural   Dy3Y(Si2Tc)2
_chemical_formula_sum   'Dy3 Y1 Si4 Tc2'
_cell_volume   202.38569847
_cell_formula_units_Z   1
loop_
 _symmetry_equiv_pos_site_id
 _symmetry_equiv_pos_as_xyz
  1  'x, y, z'
loop_
 _atom_site_type_symbol
 _atom_site_label
 _atom_site_symmetry_multiplicity
 _atom_site_fract_x
 _atom_site_fract_y
 _atom_site_fract_z
 _atom_site_occupancy
  Dy  Dy0  1  0.005530  0.005530  0.322478  1
  Dy  Dy1  1  0.187648  0.187648  0.889987  1
  Dy  Dy2  1  0.994197  0.994197  0.677690  1
  Y  Y3  1  0.812382  0.812382  0.109424  1
  Si  Si4  1  0.357164  0.357164  0.560009  1
  Si  Si5  1  0.499419  0.499419  0.877656  1
  Si  Si6  1  0.643054  0.643054  0.439911  1
  Si  Si7  1  0.500698  0.500698  0.122381  1
  Tc  Tc8  1  0.727091  0.727091  0.629346  1
  Tc  Tc9  1  0.272817  0.272817  0.371116  1
