# generated using pymatgen
data_ErLu2Zr2Sb3
_symmetry_space_group_name_H-M   'P 1'
_cell_length_a   8.72592341
_cell_length_b   8.72592422
_cell_length_c   5.94420600
_cell_angle_alpha   90.00000000
_cell_angle_beta   90.00000000
_cell_angle_gamma   119.91489556
_symmetry_Int_Tables_number   1
_chemical_formula_structural   ErLu2Zr2Sb3
_chemical_formula_sum   'Er2 Lu4 Zr4 Sb6'
_cell_volume   392.30072985
_cell_formula_units_Z   2
loop_
 _symmetry_equiv_pos_site_id
 _symmetry_equiv_pos_as_xyz
  1  'x, y, z'
loop_
 _atom_site_type_symbol
 _atom_site_label
 _atom_site_symmetry_multiplicity
 _atom_site_fract_x
 _atom_site_fract_y
 _atom_site_fract_z
 _atom_site_occupancy
  Er  Er0  1  0.750057  0.000042  0.250000  1
  Er  Er1  1  0.000042  0.750057  0.250000  1
  Lu  Lu2  1  0.749551  0.749551  0.750000  1
  Lu  Lu3  1  0.250083  0.000293  0.750000  1
  Lu  Lu4  1  0.000293  0.250083  0.750000  1
  Lu  Lu5  1  0.250532  0.250532  0.250000  1
  Zr  Zr6  1  0.666661  0.333264  0.000041  1
  Zr  Zr7  1  0.333264  0.666661  0.000041  1
  Zr  Zr8  1  0.333264  0.666661  0.499959  1
  Zr  Zr9  1  0.666661  0.333264  0.499959  1
  Sb  Sb10  1  0.390596  0.390596  0.750000  1
  Sb  Sb11  1  0.609212  0.999975  0.750000  1
  Sb  Sb12  1  0.999975  0.609212  0.750000  1
  Sb  Sb13  1  0.608250  0.608250  0.250000  1
  Sb  Sb14  1  0.390796  0.000762  0.250000  1
  Sb  Sb15  1  0.000762  0.390796  0.250000  1
