# generated using pymatgen
data_Zr4Al18(FePd)3
_symmetry_space_group_name_H-M   'P 1'
_cell_length_a   7.40822509
_cell_length_b   7.40822452
_cell_length_c   9.18321515
_cell_angle_alpha   89.97211095
_cell_angle_beta   89.97211231
_cell_angle_gamma   119.71444474
_symmetry_Int_Tables_number   1
_chemical_formula_structural   Zr4Al18(FePd)3
_chemical_formula_sum   'Zr4 Al18 Fe3 Pd3'
_cell_volume   437.71957873
_cell_formula_units_Z   1
loop_
 _symmetry_equiv_pos_site_id
 _symmetry_equiv_pos_as_xyz
  1  'x, y, z'
loop_
 _atom_site_type_symbol
 _atom_site_label
 _atom_site_symmetry_multiplicity
 _atom_site_fract_x
 _atom_site_fract_y
 _atom_site_fract_z
 _atom_site_occupancy
  Zr  Zr0  1  0.994669  0.669656  0.248877  1
  Zr  Zr1  1  0.010461  0.333505  0.751644  1
  Zr  Zr2  1  0.666495  0.989539  0.248356  1
  Zr  Zr3  1  0.330344  0.005331  0.751123  1
  Al  Al4  1  0.109591  0.111742  0.248203  1
  Al  Al5  1  0.888258  0.890409  0.751797  1
  Al  Al6  1  0.985223  0.324736  0.074325  1
  Al  Al7  1  0.995303  0.665490  0.927198  1
  Al  Al8  1  0.001501  0.676194  0.577437  1
  Al  Al9  1  0.323806  0.998499  0.422563  1
  Al  Al10  1  0.995950  0.324133  0.423108  1
  Al  Al11  1  0.675867  0.004050  0.576892  1
  Al  Al12  1  0.675264  0.014777  0.925675  1
  Al  Al13  1  0.334510  0.004697  0.072802  1
  Al  Al14  1  0.321597  0.321820  0.558547  1
  Al  Al15  1  0.678180  0.678403  0.441453  1
  Al  Al16  1  0.678658  0.670232  0.049096  1
  Al  Al17  1  0.329768  0.321342  0.950904  1
  Al  Al18  1  0.339573  0.548057  0.249196  1
  Al  Al19  1  0.658521  0.441855  0.759279  1
  Al  Al20  1  0.558145  0.341479  0.240721  1
  Al  Al21  1  0.451943  0.660427  0.750804  1
  Fe  Fe22  1  0.672004  0.327996  0.000000  1
  Fe  Fe23  1  0.000476  0.999524  0.000000  1
  Fe  Fe24  1  0.999234  0.000766  0.500000  1
  Pd  Pd25  1  0.326557  0.673443  0.000000  1
  Pd  Pd26  1  0.326164  0.673836  0.500000  1
  Pd  Pd27  1  0.671940  0.328060  0.500000  1
