# generated using pymatgen
data_TbY7Ta8Ti3Si16Ru
_symmetry_space_group_name_H-M   'P 1'
_cell_length_a   7.03534919
_cell_length_b   7.03549516
_cell_length_c   12.90660600
_cell_angle_alpha   90.02917115
_cell_angle_beta   89.96668295
_cell_angle_gamma   89.88072628
_symmetry_Int_Tables_number   1
_chemical_formula_structural   TbY7Ta8Ti3Si16Ru
_chemical_formula_sum   'Tb1 Y7 Ta8 Ti3 Si16 Ru1'
_cell_volume   638.83883361
_cell_formula_units_Z   1
loop_
 _symmetry_equiv_pos_site_id
 _symmetry_equiv_pos_as_xyz
  1  'x, y, z'
loop_
 _atom_site_type_symbol
 _atom_site_label
 _atom_site_symmetry_multiplicity
 _atom_site_fract_x
 _atom_site_fract_y
 _atom_site_fract_z
 _atom_site_occupancy
  Tb  Tb0  1  0.996543  0.660096  0.031193  1
  Y  Y1  1  0.340924  0.003344  0.467557  1
  Y  Y2  1  0.497402  0.841547  0.718979  1
  Y  Y3  1  0.500361  0.158744  0.216744  1
  Y  Y4  1  0.842127  0.497528  0.281049  1
  Y  Y5  1  0.159091  0.501036  0.783554  1
  Y  Y6  1  0.658523  0.997905  0.969098  1
  Y  Y7  1  0.003272  0.340951  0.532058  1
  Ta  Ta8  1  0.175126  0.826772  0.247996  1
  Ta  Ta9  1  0.827720  0.174627  0.751962  1
  Ta  Ta10  1  0.669950  0.669414  0.499815  1
  Ta  Ta11  1  0.147960  0.003053  0.874168  1
  Ta  Ta12  1  0.493516  0.656963  0.124919  1
  Ta  Ta13  1  0.506693  0.348175  0.627015  1
  Ta  Ta14  1  0.657070  0.492931  0.875036  1
  Ta  Ta15  1  0.348714  0.507333  0.373762  1
  Ti  Ti16  1  0.848024  0.991494  0.374583  1
  Ti  Ti17  1  0.003812  0.147766  0.125588  1
  Ti  Ti18  1  0.990797  0.847135  0.625334  1
  Si  Si19  1  0.201960  0.133020  0.683547  1
  Si  Si20  1  0.369348  0.700970  0.933349  1
  Si  Si21  1  0.634390  0.294696  0.432682  1
  Si  Si22  1  0.700480  0.367605  0.067001  1
  Si  Si23  1  0.295384  0.634394  0.567106  1
  Si  Si24  1  0.797369  0.869326  0.183333  1
  Si  Si25  1  0.132161  0.200775  0.314925  1
  Si  Si26  1  0.865664  0.796288  0.816833  1
  Si  Si27  1  0.289898  0.956804  0.062106  1
  Si  Si28  1  0.547359  0.796997  0.314692  1
  Si  Si29  1  0.448423  0.208288  0.818433  1
  Si  Si30  1  0.797365  0.546943  0.684763  1
  Si  Si31  1  0.207394  0.447675  0.181299  1
  Si  Si32  1  0.709167  0.045636  0.564100  1
  Si  Si33  1  0.956821  0.290600  0.939507  1
  Si  Si34  1  0.045423  0.709158  0.435550  1
  Ru  Ru35  1  0.333772  0.334011  0.000365  1
