# generated using pymatgen
data_Na2Ag3Sn
_symmetry_space_group_name_H-M   'P 1'
_cell_length_a   5.81281672
_cell_length_b   5.81882414
_cell_length_c   5.81882400
_cell_angle_alpha   60.00000079
_cell_angle_beta   59.96580771
_cell_angle_gamma   59.96580743
_symmetry_Int_Tables_number   1
_chemical_formula_structural   Na2Ag3Sn
_chemical_formula_sum   'Na2 Ag3 Sn1'
_cell_volume   139.09689731
_cell_formula_units_Z   1
loop_
 _symmetry_equiv_pos_site_id
 _symmetry_equiv_pos_as_xyz
  1  'x, y, z'
loop_
 _atom_site_type_symbol
 _atom_site_label
 _atom_site_symmetry_multiplicity
 _atom_site_fract_x
 _atom_site_fract_y
 _atom_site_fract_z
 _atom_site_occupancy
  Na  Na0  1  0.500436  0.499855  0.499855  1
  Na  Na1  1  0.749564  0.750145  0.750145  1
  Ag  Ag2  1  0.125000  0.125000  0.125000  1
  Ag  Ag3  1  0.125000  0.125000  0.625000  1
  Ag  Ag4  1  0.125000  0.625000  0.125000  1
  Sn  Sn5  1  0.625000  0.125000  0.125000  1
