# generated using pymatgen
data_Hf3Zn2GaNi3
_symmetry_space_group_name_H-M   'P 1'
_cell_length_a   6.85863200
_cell_length_b   6.85840615
_cell_length_c   3.40559800
_cell_angle_alpha   90.00000000
_cell_angle_beta   90.00000000
_cell_angle_gamma   119.99891327
_symmetry_Int_Tables_number   1
_chemical_formula_structural   Hf3Zn2GaNi3
_chemical_formula_sum   'Hf3 Zn2 Ga1 Ni3'
_cell_volume   138.73609658
_cell_formula_units_Z   1
loop_
 _symmetry_equiv_pos_site_id
 _symmetry_equiv_pos_as_xyz
  1  'x, y, z'
loop_
 _atom_site_type_symbol
 _atom_site_label
 _atom_site_symmetry_multiplicity
 _atom_site_fract_x
 _atom_site_fract_y
 _atom_site_fract_z
 _atom_site_occupancy
  Hf  Hf0  1  0.409046  0.406473  0.500000  1
  Hf  Hf1  1  0.590954  0.997427  0.500000  1
  Hf  Hf2  1  0.000000  0.598490  0.500000  1
  Zn  Zn3  1  0.739195  0.739412  0.000000  1
  Zn  Zn4  1  0.260805  0.000217  0.000000  1
  Ga  Ga5  1  0.000000  0.258485  0.000000  1
  Ni  Ni6  1  0.669564  0.332543  0.000000  1
  Ni  Ni7  1  0.330436  0.662980  0.000000  1
  Ni  Ni8  1  0.000000  0.003971  0.500000  1
