# generated using pymatgen
data_Er8Tm2Ir3Rh
_symmetry_space_group_name_H-M   'P 1'
_cell_length_a   6.42052786
_cell_length_b   7.14760473
_cell_length_c   8.43297109
_cell_angle_alpha   96.43444820
_cell_angle_beta   112.26188016
_cell_angle_gamma   90.07614001
_symmetry_Int_Tables_number   1
_chemical_formula_structural   Er8Tm2Ir3Rh
_chemical_formula_sum   'Er8 Tm2 Ir3 Rh1'
_cell_volume   355.49481984
_cell_formula_units_Z   1
loop_
 _symmetry_equiv_pos_site_id
 _symmetry_equiv_pos_as_xyz
  1  'x, y, z'
loop_
 _atom_site_type_symbol
 _atom_site_label
 _atom_site_symmetry_multiplicity
 _atom_site_fract_x
 _atom_site_fract_y
 _atom_site_fract_z
 _atom_site_occupancy
  Er  Er0  1  0.971580  0.918987  0.182112  1
  Er  Er1  1  0.788971  0.581805  0.815612  1
  Er  Er2  1  0.028532  0.080984  0.817442  1
  Er  Er3  1  0.211480  0.417652  0.182541  1
  Er  Er4  1  0.652412  0.817954  0.441853  1
  Er  Er5  1  0.215136  0.683409  0.560149  1
  Er  Er6  1  0.345720  0.183380  0.558763  1
  Er  Er7  1  0.787503  0.316441  0.441639  1
  Tm  Tm8  1  0.426794  0.750898  0.999579  1
  Tm  Tm9  1  0.571473  0.249211  0.999670  1
  Ir  Ir10  1  0.605714  0.927047  0.782289  1
  Ir  Ir11  1  0.175443  0.427026  0.781331  1
  Ir  Ir12  1  0.394412  0.072980  0.218780  1
  Rh  Rh13  1  0.824831  0.572226  0.218242  1
