# generated using pymatgen
data_Ba8Sr9Th3Pt16
_symmetry_space_group_name_H-M   'P 1'
_cell_length_a   8.13590245
_cell_length_b   8.26176203
_cell_length_c   15.77001100
_cell_angle_alpha   90.00098478
_cell_angle_beta   89.80225778
_cell_angle_gamma   89.99562740
_symmetry_Int_Tables_number   1
_chemical_formula_structural   Ba8Sr9Th3Pt16
_chemical_formula_sum   'Ba8 Sr9 Th3 Pt16'
_cell_volume   1060.00477745
_cell_formula_units_Z   1
loop_
 _symmetry_equiv_pos_site_id
 _symmetry_equiv_pos_as_xyz
  1  'x, y, z'
loop_
 _atom_site_type_symbol
 _atom_site_label
 _atom_site_symmetry_multiplicity
 _atom_site_fract_x
 _atom_site_fract_y
 _atom_site_fract_z
 _atom_site_occupancy
  Ba  Ba0  1  0.495166  0.327950  0.903519  1
  Ba  Ba1  1  0.993404  0.173331  0.597303  1
  Ba  Ba2  1  0.507257  0.673671  0.401623  1
  Ba  Ba3  1  0.007619  0.818488  0.096646  1
  Ba  Ba4  1  0.507332  0.678768  0.095808  1
  Ba  Ba5  1  0.010670  0.819330  0.404625  1
  Ba  Ba6  1  0.491385  0.319441  0.594629  1
  Ba  Ba7  1  0.991305  0.183578  0.907135  1
  Sr  Sr8  1  0.165158  0.335419  0.121556  1
  Sr  Sr9  1  0.661393  0.167991  0.120851  1
  Sr  Sr10  1  0.159729  0.333039  0.381946  1
  Sr  Sr11  1  0.342163  0.830443  0.618221  1
  Sr  Sr12  1  0.839043  0.672832  0.879449  1
  Sr  Sr13  1  0.178989  0.487875  0.749232  1
  Sr  Sr14  1  0.679775  0.014233  0.750006  1
  Sr  Sr15  1  0.828443  0.508358  0.248367  1
  Sr  Sr16  1  0.318689  0.992740  0.249349  1
  Th  Th17  1  0.337786  0.837444  0.872757  1
  Th  Th18  1  0.836246  0.664257  0.625922  1
  Th  Th19  1  0.664422  0.165388  0.375851  1
  Pt  Pt20  1  0.321213  0.027018  0.029321  1
  Pt  Pt21  1  0.809175  0.444171  0.466363  1
  Pt  Pt22  1  0.693604  0.940891  0.536417  1
  Pt  Pt23  1  0.186603  0.566800  0.954151  1
  Pt  Pt24  1  0.635781  0.961531  0.950689  1
  Pt  Pt25  1  0.126032  0.542656  0.547995  1
  Pt  Pt26  1  0.374863  0.044430  0.452850  1
  Pt  Pt27  1  0.843925  0.467210  0.042873  1
  Pt  Pt28  1  0.546009  0.642602  0.751316  1
  Pt  Pt29  1  0.044618  0.859504  0.743317  1
  Pt  Pt30  1  0.464756  0.364038  0.261172  1
  Pt  Pt31  1  0.939441  0.130259  0.260935  1
  Pt  Pt32  1  0.289715  0.104109  0.759994  1
  Pt  Pt33  1  0.791325  0.396365  0.739049  1
  Pt  Pt34  1  0.698177  0.887241  0.258409  1
  Pt  Pt35  1  0.218790  0.616598  0.250349  1
