# generated using pymatgen
data_Ho3Er3VB14W
_symmetry_space_group_name_H-M   'P 1'
_cell_length_a   8.10078231
_cell_length_b   8.10078049
_cell_length_c   9.42497337
_cell_angle_alpha   89.96865584
_cell_angle_beta   90.03134542
_cell_angle_gamma   155.54919027
_symmetry_Int_Tables_number   1
_chemical_formula_structural   Ho3Er3VB14W
_chemical_formula_sum   'Ho3 Er3 V1 B14 W1'
_cell_volume   256.00105714
_cell_formula_units_Z   1
loop_
 _symmetry_equiv_pos_site_id
 _symmetry_equiv_pos_as_xyz
  1  'x, y, z'
loop_
 _atom_site_type_symbol
 _atom_site_label
 _atom_site_symmetry_multiplicity
 _atom_site_fract_x
 _atom_site_fract_y
 _atom_site_fract_z
 _atom_site_occupancy
  Ho  Ho0  1  0.893555  0.106445  0.438074  1
  Ho  Ho1  1  0.242152  0.757848  0.249990  1
  Ho  Ho2  1  0.754691  0.245309  0.750010  1
  Er  Er3  1  0.106859  0.893141  0.557128  1
  Er  Er4  1  0.893704  0.106296  0.061595  1
  Er  Er5  1  0.106866  0.893134  0.942927  1
  V  V6  1  0.052392  0.947608  0.249927  1
  B  B7  1  0.727151  0.272849  0.466876  1
  B  B8  1  0.272406  0.727594  0.531656  1
  B  B9  1  0.727283  0.272717  0.033170  1
  B  B10  1  0.272542  0.727458  0.968470  1
  B  B11  1  0.632496  0.367504  0.149906  1
  B  B12  1  0.365285  0.634715  0.854061  1
  B  B13  1  0.632487  0.367513  0.350093  1
  B  B14  1  0.365253  0.634747  0.646193  1
  B  B15  1  0.520751  0.479249  0.094988  1
  B  B16  1  0.481007  0.518993  0.909523  1
  B  B17  1  0.520834  0.479166  0.404866  1
  B  B18  1  0.481078  0.518922  0.590658  1
  B  B19  1  0.457565  0.542435  0.249749  1
  B  B20  1  0.546325  0.453675  0.750023  1
  W  W21  1  0.947315  0.052685  0.750117  1
