# generated using pymatgen
data_TeOsCl9
_symmetry_space_group_name_H-M   'P 1'
_cell_length_a   6.68619429
_cell_length_b   9.68903057
_cell_length_c   11.88428405
_cell_angle_alpha   106.92499079
_cell_angle_beta   107.84184852
_cell_angle_gamma   88.19081036
_symmetry_Int_Tables_number   1
_chemical_formula_structural   TeOsCl9
_chemical_formula_sum   'Te2 Os2 Cl18'
_cell_volume   699.72093344
_cell_formula_units_Z   2
loop_
 _symmetry_equiv_pos_site_id
 _symmetry_equiv_pos_as_xyz
  1  'x, y, z'
loop_
 _atom_site_type_symbol
 _atom_site_label
 _atom_site_symmetry_multiplicity
 _atom_site_fract_x
 _atom_site_fract_y
 _atom_site_fract_z
 _atom_site_occupancy
  Te  Te0  1  0.869328  0.342562  0.164458  1
  Te  Te1  1  0.130672  0.657438  0.835542  1
  Os  Os2  1  0.423850  0.727381  0.283421  1
  Os  Os3  1  0.576150  0.272619  0.716579  1
  Cl  Cl4  1  0.082231  0.606258  0.170107  1
  Cl  Cl5  1  0.439406  0.501648  0.712329  1
  Cl  Cl6  1  0.361856  0.746792  0.464725  1
  Cl  Cl7  1  0.751455  0.837244  0.381388  1
  Cl  Cl8  1  0.910058  0.630077  0.634692  1
  Cl  Cl9  1  0.089942  0.369923  0.365308  1
  Cl  Cl10  1  0.480893  0.692466  0.090283  1
  Cl  Cl11  1  0.560594  0.498352  0.287671  1
  Cl  Cl12  1  0.096999  0.205812  0.066564  1
  Cl  Cl13  1  0.318842  0.862003  0.840917  1
  Cl  Cl14  1  0.903001  0.794188  0.933436  1
  Cl  Cl15  1  0.277614  0.939329  0.271766  1
  Cl  Cl16  1  0.519107  0.307534  0.909717  1
  Cl  Cl17  1  0.681158  0.137997  0.159083  1
  Cl  Cl18  1  0.917769  0.393742  0.829893  1
  Cl  Cl19  1  0.722386  0.060671  0.728234  1
  Cl  Cl20  1  0.638144  0.253208  0.535275  1
  Cl  Cl21  1  0.248545  0.162756  0.618612  1
