# generated using pymatgen
data_BaPmAu4
_symmetry_space_group_name_H-M   'P 1'
_cell_length_a   4.82412500
_cell_length_b   4.82412406
_cell_length_c   7.96824700
_cell_angle_alpha   90.00000000
_cell_angle_beta   90.00000000
_cell_angle_gamma   119.99999961
_symmetry_Int_Tables_number   1
_chemical_formula_structural   BaPmAu4
_chemical_formula_sum   'Ba1 Pm1 Au4'
_cell_volume   160.59441631
_cell_formula_units_Z   1
loop_
 _symmetry_equiv_pos_site_id
 _symmetry_equiv_pos_as_xyz
  1  'x, y, z'
loop_
 _atom_site_type_symbol
 _atom_site_label
 _atom_site_symmetry_multiplicity
 _atom_site_fract_x
 _atom_site_fract_y
 _atom_site_fract_z
 _atom_site_occupancy
  Ba  Ba0  1  0.000000  0.000000  0.000000  1
  Pm  Pm1  1  0.000000  0.000000  0.500000  1
  Au  Au2  1  0.666667  0.333333  0.297408  1
  Au  Au3  1  0.333333  0.666666  0.297408  1
  Au  Au4  1  0.666667  0.333333  0.702591  1
  Au  Au5  1  0.333333  0.666666  0.702591  1
