# generated using pymatgen
data_Er5Th3(CdRu)2
_symmetry_space_group_name_H-M   'P 1'
_cell_length_a   9.66343816
_cell_length_b   9.73374986
_cell_length_c   9.73375069
_cell_angle_alpha   59.52266110
_cell_angle_beta   60.23866418
_cell_angle_gamma   60.23866362
_symmetry_Int_Tables_number   1
_chemical_formula_structural   Er5Th3(CdRu)2
_chemical_formula_sum   'Er10 Th6 Cd4 Ru4'
_cell_volume   647.33939339
_cell_formula_units_Z   2
loop_
 _symmetry_equiv_pos_site_id
 _symmetry_equiv_pos_as_xyz
  1  'x, y, z'
loop_
 _atom_site_type_symbol
 _atom_site_label
 _atom_site_symmetry_multiplicity
 _atom_site_fract_x
 _atom_site_fract_y
 _atom_site_fract_z
 _atom_site_occupancy
  Er  Er0  1  0.440548  0.059452  0.440548  1
  Er  Er1  1  0.059452  0.440548  0.059452  1
  Er  Er2  1  0.440548  0.440548  0.059452  1
  Er  Er3  1  0.059452  0.059452  0.440548  1
  Er  Er4  1  0.183701  0.816299  0.816299  1
  Er  Er5  1  0.816299  0.183701  0.183701  1
  Er  Er6  1  0.813621  0.186379  0.813621  1
  Er  Er7  1  0.186379  0.813621  0.186379  1
  Er  Er8  1  0.813621  0.813621  0.186379  1
  Er  Er9  1  0.186379  0.186379  0.813621  1
  Th  Th10  1  0.593563  0.600707  0.600707  1
  Th  Th11  1  0.600707  0.593563  0.205025  1
  Th  Th12  1  0.600707  0.205025  0.593563  1
  Th  Th13  1  0.205025  0.600707  0.600707  1
  Th  Th14  1  0.065093  0.434907  0.434907  1
  Th  Th15  1  0.434907  0.065093  0.065093  1
  Cd  Cd16  1  0.833520  0.830491  0.830491  1
  Cd  Cd17  1  0.830491  0.833520  0.505497  1
  Cd  Cd18  1  0.830491  0.505497  0.833520  1
  Cd  Cd19  1  0.505497  0.830491  0.830491  1
  Ru  Ru20  1  0.378970  0.397801  0.397801  1
  Ru  Ru21  1  0.397801  0.378970  0.825428  1
  Ru  Ru22  1  0.397801  0.825428  0.378970  1
  Ru  Ru23  1  0.825428  0.397801  0.397801  1
