# generated using pymatgen
data_Yb4Co2MoOsO12
_symmetry_space_group_name_H-M   'P 1'
_cell_length_a   5.52994673
_cell_length_b   5.30161255
_cell_length_c   9.23202500
_cell_angle_alpha   55.05569639
_cell_angle_beta   89.90418142
_cell_angle_gamma   89.98669245
_symmetry_Int_Tables_number   1
_chemical_formula_structural   Yb4Co2MoOsO12
_chemical_formula_sum   'Yb4 Co2 Mo1 Os1 O12'
_cell_volume   221.86303492
_cell_formula_units_Z   1
loop_
 _symmetry_equiv_pos_site_id
 _symmetry_equiv_pos_as_xyz
  1  'x, y, z'
loop_
 _atom_site_type_symbol
 _atom_site_label
 _atom_site_symmetry_multiplicity
 _atom_site_fract_x
 _atom_site_fract_y
 _atom_site_fract_z
 _atom_site_occupancy
  Yb  Yb0  1  0.931677  0.231704  0.749735  1
  Yb  Yb1  1  0.564401  0.234311  0.246282  1
  Yb  Yb2  1  0.068323  0.768296  0.250265  1
  Yb  Yb3  1  0.435599  0.765689  0.753718  1
  Co  Co4  1  0.000000  0.500000  0.000000  1
  Co  Co5  1  0.500000  0.500000  0.500000  1
  Mo  Mo6  1  0.000000  0.000000  0.500000  1
  Os  Os7  1  0.500000  0.000000  0.000000  1
  O  O8  1  0.531693  0.348136  0.756621  1
  O  O9  1  0.969619  0.345753  0.256534  1
  O  O10  1  0.468307  0.651864  0.243379  1
  O  O11  1  0.030381  0.654247  0.743466  1
  O  O12  1  0.694668  0.751386  0.949584  1
  O  O13  1  0.807960  0.755161  0.448797  1
  O  O14  1  0.305332  0.248614  0.050416  1
  O  O15  1  0.192040  0.244839  0.551203  1
  O  O16  1  0.788709  0.128762  0.056581  1
  O  O17  1  0.709438  0.131893  0.555569  1
  O  O18  1  0.211291  0.871238  0.943419  1
  O  O19  1  0.290562  0.868107  0.444431  1
