# generated using pymatgen
data_EuScCuSe3
_symmetry_space_group_name_H-M   'P 1'
_cell_length_a   6.90660791
_cell_length_b   6.90660848
_cell_length_c   10.15431300
_cell_angle_alpha   90.00000000
_cell_angle_beta   90.00000000
_cell_angle_gamma   146.52220859
_symmetry_Int_Tables_number   1
_chemical_formula_structural   EuScCuSe3
_chemical_formula_sum   'Eu2 Sc2 Cu2 Se6'
_cell_volume   267.18695101
_cell_formula_units_Z   2
loop_
 _symmetry_equiv_pos_site_id
 _symmetry_equiv_pos_as_xyz
  1  'x, y, z'
loop_
 _atom_site_type_symbol
 _atom_site_label
 _atom_site_symmetry_multiplicity
 _atom_site_fract_x
 _atom_site_fract_y
 _atom_site_fract_z
 _atom_site_occupancy
  Eu  Eu0  1  0.246846  0.753154  0.250000  1
  Eu  Eu1  1  0.753154  0.246846  0.750000  1
  Sc  Sc2  1  0.000000  0.000000  0.500000  1
  Sc  Sc3  1  0.000000  0.000000  0.000000  1
  Cu  Cu4  1  0.530411  0.469589  0.250000  1
  Cu  Cu5  1  0.469589  0.530411  0.750000  1
  Se  Se6  1  0.638648  0.361352  0.442822  1
  Se  Se7  1  0.361352  0.638648  0.557178  1
  Se  Se8  1  0.638648  0.361352  0.057178  1
  Se  Se9  1  0.361352  0.638648  0.942822  1
  Se  Se10  1  0.921050  0.078950  0.250000  1
  Se  Se11  1  0.078950  0.921050  0.750000  1
