# generated using pymatgen
data_NdDy2WO7
_symmetry_space_group_name_H-M   'P 1'
_cell_length_a   6.51704560
_cell_length_b   6.51704480
_cell_length_c   7.60159200
_cell_angle_alpha   90.00000000
_cell_angle_beta   90.00000000
_cell_angle_gamma   109.08820852
_symmetry_Int_Tables_number   1
_chemical_formula_structural   NdDy2WO7
_chemical_formula_sum   'Nd2 Dy4 W2 O14'
_cell_volume   305.10216653
_cell_formula_units_Z   2
loop_
 _symmetry_equiv_pos_site_id
 _symmetry_equiv_pos_as_xyz
  1  'x, y, z'
loop_
 _atom_site_type_symbol
 _atom_site_label
 _atom_site_symmetry_multiplicity
 _atom_site_fract_x
 _atom_site_fract_y
 _atom_site_fract_z
 _atom_site_occupancy
  Nd  Nd0  1  0.500000  0.500000  0.500000  1
  Nd  Nd1  1  0.500000  0.500000  0.000000  1
  Dy  Dy2  1  0.533087  0.001164  0.750000  1
  Dy  Dy3  1  0.001164  0.533087  0.250000  1
  Dy  Dy4  1  0.466913  0.998836  0.250000  1
  Dy  Dy5  1  0.998836  0.466913  0.750000  1
  W  W6  1  0.000000  0.000000  0.500000  1
  W  W7  1  0.000000  0.000000  0.000000  1
  O  O8  1  0.678876  0.928058  0.470980  1
  O  O9  1  0.928058  0.678876  0.529020  1
  O  O10  1  0.678876  0.928058  0.029020  1
  O  O11  1  0.928058  0.678876  0.970980  1
  O  O12  1  0.321124  0.071942  0.529020  1
  O  O13  1  0.071942  0.321124  0.470980  1
  O  O14  1  0.321124  0.071942  0.970980  1
  O  O15  1  0.071942  0.321124  0.029020  1
  O  O16  1  0.928294  0.071706  0.750000  1
  O  O17  1  0.071706  0.928294  0.250000  1
  O  O18  1  0.363002  0.636997  0.750000  1
  O  O19  1  0.636997  0.363002  0.250000  1
  O  O20  1  0.641792  0.358208  0.750000  1
  O  O21  1  0.358208  0.641792  0.250000  1
