# generated using pymatgen
data_Pr2PaIr2
_symmetry_space_group_name_H-M   'P 1'
_cell_length_a   6.46938801
_cell_length_b   6.46938740
_cell_length_c   7.35620491
_cell_angle_alpha   99.69916603
_cell_angle_beta   99.69916497
_cell_angle_gamma   59.45635471
_symmetry_Int_Tables_number   1
_chemical_formula_structural   Pr2PaIr2
_chemical_formula_sum   'Pr4 Pa2 Ir4'
_cell_volume   260.12040511
_cell_formula_units_Z   2
loop_
 _symmetry_equiv_pos_site_id
 _symmetry_equiv_pos_as_xyz
  1  'x, y, z'
loop_
 _atom_site_type_symbol
 _atom_site_label
 _atom_site_symmetry_multiplicity
 _atom_site_fract_x
 _atom_site_fract_y
 _atom_site_fract_z
 _atom_site_occupancy
  Pr  Pr0  1  0.035956  0.264078  0.142975  1
  Pr  Pr1  1  0.735922  0.964044  0.357026  1
  Pr  Pr2  1  0.264078  0.035956  0.642975  1
  Pr  Pr3  1  0.964044  0.735922  0.857025  1
  Pa  Pa4  1  0.419945  0.580055  0.250000  1
  Pa  Pa5  1  0.580055  0.419945  0.750000  1
  Ir  Ir6  1  0.505460  0.205012  0.988528  1
  Ir  Ir7  1  0.794988  0.494540  0.511472  1
  Ir  Ir8  1  0.205012  0.505460  0.488529  1
  Ir  Ir9  1  0.494540  0.794988  0.011471  1
