# generated using pymatgen
data_Tm4Lu6(AlSb)3
_symmetry_space_group_name_H-M   'P 1'
_cell_length_a   8.67332336
_cell_length_b   8.68901062
_cell_length_c   6.31538800
_cell_angle_alpha   90.00000000
_cell_angle_beta   90.00000000
_cell_angle_gamma   119.65804170
_symmetry_Int_Tables_number   1
_chemical_formula_structural   Tm4Lu6(AlSb)3
_chemical_formula_sum   'Tm4 Lu6 Al3 Sb3'
_cell_volume   413.59257845
_cell_formula_units_Z   1
loop_
 _symmetry_equiv_pos_site_id
 _symmetry_equiv_pos_as_xyz
  1  'x, y, z'
loop_
 _atom_site_type_symbol
 _atom_site_label
 _atom_site_symmetry_multiplicity
 _atom_site_fract_x
 _atom_site_fract_y
 _atom_site_fract_z
 _atom_site_occupancy
  Tm  Tm0  1  0.987234  0.232864  0.250000  1
  Tm  Tm1  1  0.763850  0.764774  0.250000  1
  Tm  Tm2  1  0.243448  0.231972  0.750000  1
  Tm  Tm3  1  0.013177  0.771021  0.750000  1
  Lu  Lu4  1  0.332906  0.679410  0.003043  1
  Lu  Lu5  1  0.666568  0.325523  0.497246  1
  Lu  Lu6  1  0.666568  0.325523  0.002754  1
  Lu  Lu7  1  0.332906  0.679410  0.496957  1
  Lu  Lu8  1  0.233377  0.988561  0.250000  1
  Lu  Lu9  1  0.759494  0.002281  0.750000  1
  Al  Al10  1  0.598614  0.999116  0.250000  1
  Al  Al11  1  0.405551  0.004063  0.750000  1
  Al  Al12  1  0.994972  0.599868  0.250000  1
  Sb  Sb13  1  0.387706  0.391298  0.250000  1
  Sb  Sb14  1  0.608883  0.607566  0.750000  1
  Sb  Sb15  1  0.004746  0.396747  0.750000  1
