# generated using pymatgen
data_Dy2Al20RuRh3
_symmetry_space_group_name_H-M   'P 1'
_cell_length_a   6.84683558
_cell_length_b   6.84581780
_cell_length_c   9.14874001
_cell_angle_alpha   90.11413655
_cell_angle_beta   90.08461780
_cell_angle_gamma   97.29316412
_symmetry_Int_Tables_number   1
_chemical_formula_structural   Dy2Al20RuRh3
_chemical_formula_sum   'Dy2 Al20 Ru1 Rh3'
_cell_volume   425.35064047
_cell_formula_units_Z   1
loop_
 _symmetry_equiv_pos_site_id
 _symmetry_equiv_pos_as_xyz
  1  'x, y, z'
loop_
 _atom_site_type_symbol
 _atom_site_label
 _atom_site_symmetry_multiplicity
 _atom_site_fract_x
 _atom_site_fract_y
 _atom_site_fract_z
 _atom_site_occupancy
  Dy  Dy0  1  0.869023  0.128232  0.750112  1
  Dy  Dy1  1  0.130977  0.871768  0.249888  1
  Al  Al2  1  0.621146  0.375964  0.547864  1
  Al  Al3  1  0.378854  0.624036  0.452136  1
  Al  Al4  1  0.378214  0.622454  0.049403  1
  Al  Al5  1  0.621786  0.377546  0.950597  1
  Al  Al6  1  0.221473  0.220050  0.499221  1
  Al  Al7  1  0.778527  0.779950  0.500779  1
  Al  Al8  1  0.777420  0.777847  0.999981  1
  Al  Al9  1  0.222580  0.222153  0.000019  1
  Al  Al10  1  0.845081  0.155464  0.103764  1
  Al  Al11  1  0.154919  0.844536  0.896236  1
  Al  Al12  1  0.155716  0.845874  0.602512  1
  Al  Al13  1  0.844284  0.154126  0.397488  1
  Al  Al14  1  0.856774  0.590290  0.749444  1
  Al  Al15  1  0.143226  0.409710  0.250556  1
  Al  Al16  1  0.409830  0.142516  0.749012  1
  Al  Al17  1  0.590170  0.857484  0.250988  1
  Al  Al18  1  0.225294  0.480437  0.749916  1
  Al  Al19  1  0.774706  0.519563  0.250084  1
  Al  Al20  1  0.518919  0.776220  0.746701  1
  Al  Al21  1  0.481081  0.223780  0.253299  1
  Ru  Ru22  1  0.500000  0.000000  0.500000  1
  Rh  Rh23  1  0.000000  0.500000  0.500000  1
  Rh  Rh24  1  0.000000  0.500000  0.000000  1
  Rh  Rh25  1  0.500000  0.000000  0.000000  1
