# generated using pymatgen
data_KDyCdFeH8
_symmetry_space_group_name_H-M   'P 1'
_cell_length_a   4.64764900
_cell_length_b   4.64765003
_cell_length_c   8.20302700
_cell_angle_alpha   90.00000000
_cell_angle_beta   90.00000000
_cell_angle_gamma   119.99999980
_symmetry_Int_Tables_number   1
_chemical_formula_structural   KDyCdFeH8
_chemical_formula_sum   'K1 Dy1 Cd1 Fe1 H8'
_cell_volume   153.45163257
_cell_formula_units_Z   1
loop_
 _symmetry_equiv_pos_site_id
 _symmetry_equiv_pos_as_xyz
  1  'x, y, z'
loop_
 _atom_site_type_symbol
 _atom_site_label
 _atom_site_symmetry_multiplicity
 _atom_site_fract_x
 _atom_site_fract_y
 _atom_site_fract_z
 _atom_site_occupancy
  K  K0  1  0.000000  0.000000  0.507489  1
  Dy  Dy1  1  0.333333  0.666667  0.110771  1
  Cd  Cd2  1  0.666667  0.333333  0.850257  1
  Fe  Fe3  1  0.000000  0.000000  0.003811  1
  H  H4  1  0.309316  0.154658  0.121829  1
  H  H5  1  0.845342  0.690684  0.121829  1
  H  H6  1  0.845342  0.154658  0.121829  1
  H  H7  1  0.685053  0.842526  0.886435  1
  H  H8  1  0.157474  0.314947  0.886435  1
  H  H9  1  0.157474  0.842526  0.886435  1
  H  H10  1  0.666667  0.333333  0.631544  1
  H  H11  1  0.333333  0.666667  0.371339  1
