# generated using pymatgen
data_Er8BeZn2Si12Rh
_symmetry_space_group_name_H-M   'P 1'
_cell_length_a   8.02040000
_cell_length_b   8.02040074
_cell_length_c   7.99313800
_cell_angle_alpha   90.00000000
_cell_angle_beta   90.00000000
_cell_angle_gamma   119.99999696
_symmetry_Int_Tables_number   1
_chemical_formula_structural   Er8BeZn2Si12Rh
_chemical_formula_sum   'Er8 Be1 Zn2 Si12 Rh1'
_cell_volume   445.28703730
_cell_formula_units_Z   1
loop_
 _symmetry_equiv_pos_site_id
 _symmetry_equiv_pos_as_xyz
  1  'x, y, z'
loop_
 _atom_site_type_symbol
 _atom_site_label
 _atom_site_symmetry_multiplicity
 _atom_site_fract_x
 _atom_site_fract_y
 _atom_site_fract_z
 _atom_site_occupancy
  Er  Er0  1  0.000000  0.000000  0.247722  1
  Er  Er1  1  0.000000  0.000000  0.752391  1
  Er  Er2  1  0.495666  0.504334  0.247896  1
  Er  Er3  1  0.495666  0.991333  0.247896  1
  Er  Er4  1  0.008667  0.504334  0.247896  1
  Er  Er5  1  0.498046  0.501954  0.752116  1
  Er  Er6  1  0.003910  0.501954  0.752116  1
  Er  Er7  1  0.498046  0.996090  0.752116  1
  Be  Be8  1  0.333333  0.666667  0.995034  1
  Zn  Zn9  1  0.666667  0.333333  0.497336  1
  Zn  Zn10  1  0.666667  0.333333  0.003210  1
  Si  Si11  1  0.836662  0.163338  0.498762  1
  Si  Si12  1  0.836662  0.673323  0.498762  1
  Si  Si13  1  0.326677  0.163338  0.498762  1
  Si  Si14  1  0.835341  0.164659  0.000542  1
  Si  Si15  1  0.835341  0.670684  0.000542  1
  Si  Si16  1  0.329316  0.164659  0.000542  1
  Si  Si17  1  0.174729  0.825271  0.999771  1
  Si  Si18  1  0.650543  0.825271  0.999771  1
  Si  Si19  1  0.174729  0.349457  0.999771  1
  Si  Si20  1  0.169506  0.830494  0.500750  1
  Si  Si21  1  0.660989  0.830494  0.500750  1
  Si  Si22  1  0.169506  0.339011  0.500750  1
  Rh  Rh23  1  0.333333  0.666667  0.504796  1
