# generated using pymatgen
data_K2Rb4YInAs4
_symmetry_space_group_name_H-M   'P 1'
_cell_length_a   9.65419826
_cell_length_b   9.65419815
_cell_length_c   9.65419744
_cell_angle_alpha   131.91981961
_cell_angle_beta   66.27112363
_cell_angle_gamma   137.24972454
_symmetry_Int_Tables_number   1
_chemical_formula_structural   K2Rb4YInAs4
_chemical_formula_sum   'K2 Rb4 Y1 In1 As4'
_cell_volume   447.49810301
_cell_formula_units_Z   1
loop_
 _symmetry_equiv_pos_site_id
 _symmetry_equiv_pos_as_xyz
  1  'x, y, z'
loop_
 _atom_site_type_symbol
 _atom_site_label
 _atom_site_symmetry_multiplicity
 _atom_site_fract_x
 _atom_site_fract_y
 _atom_site_fract_z
 _atom_site_occupancy
  K  K0  1  0.750000  0.250000  0.500000  1
  K  K1  1  0.250000  0.750000  0.500001  1
  Rb  Rb2  1  0.802532  0.206230  0.032910  1
  Rb  Rb3  1  0.697469  0.730379  0.403699  1
  Rb  Rb4  1  0.326680  0.293770  0.596302  1
  Rb  Rb5  1  0.173321  0.769621  0.967090  1
  Y  Y6  1  0.250000  0.250000  0.000000  1
  In  In7  1  0.750000  0.750000  0.000000  1
  As  As8  1  0.407994  0.701622  0.097401  1
  As  As9  1  0.092007  0.189408  0.293628  1
  As  As10  1  0.895780  0.798380  0.706372  1
  As  As11  1  0.604220  0.310593  0.902600  1
