# generated using pymatgen
data_NdSmPa2(Ni12P5)2
_symmetry_space_group_name_H-M   'P 1'
_cell_length_a   3.67299100
_cell_length_b   10.70030698
_cell_length_c   13.11737723
_cell_angle_alpha   71.78049011
_cell_angle_beta   90.00000000
_cell_angle_gamma   90.00000000
_symmetry_Int_Tables_number   1
_chemical_formula_structural   NdSmPa2(Ni12P5)2
_chemical_formula_sum   'Nd1 Sm1 Pa2 Ni24 P10'
_cell_volume   489.69457057
_cell_formula_units_Z   1
loop_
 _symmetry_equiv_pos_site_id
 _symmetry_equiv_pos_as_xyz
  1  'x, y, z'
loop_
 _atom_site_type_symbol
 _atom_site_label
 _atom_site_symmetry_multiplicity
 _atom_site_fract_x
 _atom_site_fract_y
 _atom_site_fract_z
 _atom_site_occupancy
  Nd  Nd0  1  0.750000  0.753016  0.812045  1
  Sm  Sm1  1  0.250000  0.246575  0.188030  1
  Pa  Pa2  1  0.250000  0.279781  0.681924  1
  Pa  Pa3  1  0.750000  0.720340  0.317962  1
  Ni  Ni4  1  0.250000  0.830911  0.145225  1
  Ni  Ni5  1  0.750000  0.169153  0.855024  1
  Ni  Ni6  1  0.250000  0.286803  0.441999  1
  Ni  Ni7  1  0.750000  0.713200  0.557834  1
  Ni  Ni8  1  0.250000  0.067780  0.018904  1
  Ni  Ni9  1  0.750000  0.932316  0.981310  1
  Ni  Ni10  1  0.250000  0.063016  0.445433  1
  Ni  Ni11  1  0.750000  0.937163  0.554337  1
  Ni  Ni12  1  0.250000  0.595251  0.696478  1
  Ni  Ni13  1  0.750000  0.404005  0.303159  1
  Ni  Ni14  1  0.250000  0.583720  0.008578  1
  Ni  Ni15  1  0.750000  0.415500  0.992101  1
  Ni  Ni16  1  0.250000  0.580855  0.506887  1
  Ni  Ni17  1  0.750000  0.419215  0.492940  1
  Ni  Ni18  1  0.250000  0.296375  0.915891  1
  Ni  Ni19  1  0.750000  0.703363  0.084382  1
  Ni  Ni20  1  0.250000  0.996341  0.658666  1
  Ni  Ni21  1  0.750000  0.004292  0.340942  1
  Ni  Ni22  1  0.250000  0.834211  0.434410  1
  Ni  Ni23  1  0.750000  0.165868  0.565337  1
  Ni  Ni24  1  0.250000  0.991402  0.846922  1
  Ni  Ni25  1  0.750000  0.009246  0.153143  1
  Ni  Ni26  1  0.250000  0.570181  0.203634  1
  Ni  Ni27  1  0.750000  0.429727  0.796450  1
  P  P28  1  0.250000  0.508916  0.871536  1
  P  P29  1  0.750000  0.490345  0.128650  1
  P  P30  1  0.250000  0.803944  0.984589  1
  P  P31  1  0.750000  0.196258  0.016051  1
  P  P32  1  0.250000  0.496872  0.376178  1
  P  P33  1  0.750000  0.503182  0.623808  1
  P  P34  1  0.250000  0.812565  0.609251  1
  P  P35  1  0.750000  0.187623  0.390165  1
  P  P36  1  0.250000  0.950831  0.259051  1
  P  P37  1  0.750000  0.049859  0.740774  1
