# generated using pymatgen
data_K7RbBa4(ZrP4)2
_symmetry_space_group_name_H-M   'P 1'
_cell_length_a   10.43298299
_cell_length_b   10.43060535
_cell_length_c   7.99530621
_cell_angle_alpha   88.63682411
_cell_angle_beta   88.93130084
_cell_angle_gamma   119.64374869
_symmetry_Int_Tables_number   1
_chemical_formula_structural   K7RbBa4(ZrP4)2
_chemical_formula_sum   'K7 Rb1 Ba4 Zr2 P8'
_cell_volume   755.51379166
_cell_formula_units_Z   1
loop_
 _symmetry_equiv_pos_site_id
 _symmetry_equiv_pos_as_xyz
  1  'x, y, z'
loop_
 _atom_site_type_symbol
 _atom_site_label
 _atom_site_symmetry_multiplicity
 _atom_site_fract_x
 _atom_site_fract_y
 _atom_site_fract_z
 _atom_site_occupancy
  K  K0  1  0.060940  0.527081  0.615397  1
  K  K1  1  0.529401  0.060810  0.115003  1
  K  K2  1  0.278196  0.133732  0.818514  1
  K  K3  1  0.870715  0.729164  0.764472  1
  K  K4  1  0.861368  0.143003  0.793295  1
  K  K5  1  0.728906  0.871188  0.263934  1
  K  K6  1  0.134078  0.279005  0.319626  1
  Rb  Rb7  1  0.140406  0.865768  0.298174  1
  Ba  Ba8  1  0.466284  0.933080  0.603917  1
  Ba  Ba9  1  0.464862  0.524592  0.618392  1
  Ba  Ba10  1  0.933499  0.464544  0.105419  1
  Ba  Ba11  1  0.524295  0.464059  0.119457  1
  Zr  Zr12  1  0.668779  0.335237  0.513248  1
  Zr  Zr13  1  0.335532  0.667557  0.009646  1
  P  P14  1  0.670200  0.350085  0.833968  1
  P  P15  1  0.350809  0.668880  0.330461  1
  P  P16  1  0.597653  0.792321  0.881488  1
  P  P17  1  0.202332  0.396920  0.922269  1
  P  P18  1  0.198029  0.794006  0.899152  1
  P  P19  1  0.399887  0.206600  0.424542  1
  P  P20  1  0.788574  0.595360  0.382722  1
  P  P21  1  0.795255  0.197009  0.404395  1
