# generated using pymatgen
data_Ac2MgNi2
_symmetry_space_group_name_H-M   'P 1'
_cell_length_a   7.80041600
_cell_length_b   7.80041600
_cell_length_c   4.07662100
_cell_angle_alpha   90.00000000
_cell_angle_beta   90.00000000
_cell_angle_gamma   90.00000000
_symmetry_Int_Tables_number   1
_chemical_formula_structural   Ac2MgNi2
_chemical_formula_sum   'Ac4 Mg2 Ni4'
_cell_volume   248.04807799
_cell_formula_units_Z   2
loop_
 _symmetry_equiv_pos_site_id
 _symmetry_equiv_pos_as_xyz
  1  'x, y, z'
loop_
 _atom_site_type_symbol
 _atom_site_label
 _atom_site_symmetry_multiplicity
 _atom_site_fract_x
 _atom_site_fract_y
 _atom_site_fract_z
 _atom_site_occupancy
  Ac  Ac0  1  0.673186  0.173186  0.500000  1
  Ac  Ac1  1  0.326814  0.826814  0.500000  1
  Ac  Ac2  1  0.173186  0.326814  0.500000  1
  Ac  Ac3  1  0.826814  0.673186  0.500000  1
  Mg  Mg4  1  0.000000  0.000000  0.000000  1
  Mg  Mg5  1  0.500000  0.500000  0.000000  1
  Ni  Ni6  1  0.118515  0.618515  0.000000  1
  Ni  Ni7  1  0.881485  0.381485  0.000000  1
  Ni  Ni8  1  0.618515  0.881485  0.000000  1
  Ni  Ni9  1  0.381485  0.118515  0.000000  1
