# generated using pymatgen
data_CaCd3Fe4(P2O7)4
_symmetry_space_group_name_H-M   'P 1'
_cell_length_a   7.31065041
_cell_length_b   9.89628253
_cell_length_c   8.59279526
_cell_angle_alpha   106.39999098
_cell_angle_beta   110.92471759
_cell_angle_gamma   69.43438571
_symmetry_Int_Tables_number   1
_chemical_formula_structural   CaCd3Fe4(P2O7)4
_chemical_formula_sum   'Ca1 Cd3 Fe4 P8 O28'
_cell_volume   534.84879328
_cell_formula_units_Z   1
loop_
 _symmetry_equiv_pos_site_id
 _symmetry_equiv_pos_as_xyz
  1  'x, y, z'
loop_
 _atom_site_type_symbol
 _atom_site_label
 _atom_site_symmetry_multiplicity
 _atom_site_fract_x
 _atom_site_fract_y
 _atom_site_fract_z
 _atom_site_occupancy
  Ca  Ca0  1  0.481301  0.349773  0.206257  1
  Cd  Cd1  1  0.515556  0.647317  0.798034  1
  Cd  Cd2  1  0.016795  0.147867  0.298197  1
  Cd  Cd3  1  0.984010  0.853991  0.702008  1
  Fe  Fe4  1  0.508851  0.264542  0.612387  1
  Fe  Fe5  1  0.491786  0.735633  0.388995  1
  Fe  Fe6  1  0.010406  0.762705  0.111700  1
  Fe  Fe7  1  0.990470  0.236734  0.888262  1
  P  P8  1  0.186374  0.562889  0.414903  1
  P  P9  1  0.690433  0.061961  0.910988  1
  P  P10  1  0.312770  0.935898  0.088112  1
  P  P11  1  0.813349  0.436354  0.587558  1
  P  P12  1  0.703861  0.971463  0.345420  1
  P  P13  1  0.202488  0.470798  0.844767  1
  P  P14  1  0.795048  0.530686  0.154574  1
  P  P15  1  0.296586  0.029556  0.653849  1
  O  O16  1  0.549748  0.928722  0.160852  1
  O  O17  1  0.048028  0.433831  0.658619  1
  O  O18  1  0.948640  0.573316  0.339842  1
  O  O19  1  0.452890  0.069547  0.838392  1
  O  O20  1  0.821743  0.901097  0.908296  1
  O  O21  1  0.314572  0.402692  0.418145  1
  O  O22  1  0.676262  0.595980  0.587908  1
  O  O23  1  0.181707  0.097129  0.090785  1
  O  O24  1  0.782245  0.634964  0.043518  1
  O  O25  1  0.283383  0.134705  0.543632  1
  O  O26  1  0.715550  0.868935  0.457669  1
  O  O27  1  0.212721  0.365361  0.951603  1
  O  O28  1  0.594127  0.564672  0.196712  1
  O  O29  1  0.095209  0.065040  0.696626  1
  O  O30  1  0.906228  0.934925  0.303745  1
  O  O31  1  0.405971  0.435767  0.804833  1
  O  O32  1  0.295723  0.846793  0.908955  1
  O  O33  1  0.796649  0.346153  0.409432  1
  O  O34  1  0.203043  0.657324  0.591417  1
  O  O35  1  0.707335  0.152076  0.088990  1
  O  O36  1  0.263778  0.868951  0.205289  1
  O  O37  1  0.765797  0.369393  0.705677  1
  O  O38  1  0.241529  0.621842  0.293688  1
  O  O39  1  0.738074  0.128974  0.792880  1
  O  O40  1  0.883216  0.369695  0.088892  1
  O  O41  1  0.381902  0.868796  0.586390  1
  O  O42  1  0.615206  0.133542  0.407787  1
  O  O43  1  0.118632  0.631609  0.913415  1
