# generated using pymatgen
data_Tb(PdO2)2
_symmetry_space_group_name_H-M   'P 1'
_cell_length_a   6.52463138
_cell_length_b   6.52463131
_cell_length_c   6.52463103
_cell_angle_alpha   126.91526405
_cell_angle_beta   126.91526768
_cell_angle_gamma   78.38896815
_symmetry_Int_Tables_number   1
_chemical_formula_structural   Tb(PdO2)2
_chemical_formula_sum   'Tb2 Pd4 O8'
_cell_volume   171.93903289
_cell_formula_units_Z   2
loop_
 _symmetry_equiv_pos_site_id
 _symmetry_equiv_pos_as_xyz
  1  'x, y, z'
loop_
 _atom_site_type_symbol
 _atom_site_label
 _atom_site_symmetry_multiplicity
 _atom_site_fract_x
 _atom_site_fract_y
 _atom_site_fract_z
 _atom_site_occupancy
  Tb  Tb0  1  0.500000  0.500000  0.000000  1
  Tb  Tb1  1  0.250000  0.750000  0.500000  1
  Pd  Pd2  1  0.875000  0.125000  0.750000  1
  Pd  Pd3  1  0.875000  0.625000  0.750000  1
  Pd  Pd4  1  0.875000  0.125000  0.250000  1
  Pd  Pd5  1  0.375000  0.125000  0.250000  1
  O  O6  1  0.492765  0.458752  0.346352  1
  O  O7  1  0.208752  0.362400  0.465987  1
  O  O8  1  0.896414  0.742765  0.534013  1
  O  O9  1  0.112400  0.146414  0.653648  1
  O  O10  1  0.257235  0.791248  0.153648  1
  O  O11  1  0.541248  0.887600  0.034013  1
  O  O12  1  0.637600  0.103586  0.846352  1
  O  O13  1  0.853586  0.507235  0.965987  1
