# generated using pymatgen
data_La10Sb6HSe
_symmetry_space_group_name_H-M   'P 1'
_cell_length_a   9.61990300
_cell_length_b   9.61990379
_cell_length_c   6.63863100
_cell_angle_alpha   90.00000000
_cell_angle_beta   90.00000000
_cell_angle_gamma   120.00000073
_symmetry_Int_Tables_number   1
_chemical_formula_structural   La10Sb6HSe
_chemical_formula_sum   'La10 Sb6 H1 Se1'
_cell_volume   532.04771154
_cell_formula_units_Z   1
loop_
 _symmetry_equiv_pos_site_id
 _symmetry_equiv_pos_as_xyz
  1  'x, y, z'
loop_
 _atom_site_type_symbol
 _atom_site_label
 _atom_site_symmetry_multiplicity
 _atom_site_fract_x
 _atom_site_fract_y
 _atom_site_fract_z
 _atom_site_occupancy
  La  La0  1  0.258301  0.000000  0.243904  1
  La  La1  1  0.000000  0.741699  0.756096  1
  La  La2  1  0.741699  0.741699  0.243904  1
  La  La3  1  0.258301  0.258301  0.756096  1
  La  La4  1  0.741699  0.000000  0.756096  1
  La  La5  1  0.000000  0.258301  0.243904  1
  La  La6  1  0.666667  0.333333  0.500000  1
  La  La7  1  0.333333  0.666667  0.000000  1
  La  La8  1  0.333333  0.666667  0.500000  1
  La  La9  1  0.666667  0.333333  0.000000  1
  Sb  Sb10  1  0.616541  0.616541  0.750358  1
  Sb  Sb11  1  0.000000  0.616541  0.249642  1
  Sb  Sb12  1  0.616541  0.000000  0.249642  1
  Sb  Sb13  1  0.383459  0.000000  0.750358  1
  Sb  Sb14  1  0.000000  0.383459  0.750358  1
  Sb  Sb15  1  0.383459  0.383459  0.249642  1
  H  H16  1  0.000000  0.000000  0.000000  1
  Se  Se17  1  0.000000  0.000000  0.500000  1
