# generated using pymatgen
data_Ho5Er15(Bi2As)4
_symmetry_space_group_name_H-M   'P 1'
_cell_length_a   7.99793505
_cell_length_b   9.10342403
_cell_length_c   11.99844210
_cell_angle_alpha   89.99164719
_cell_angle_beta   89.98792012
_cell_angle_gamma   89.99820406
_symmetry_Int_Tables_number   1
_chemical_formula_structural   Ho5Er15(Bi2As)4
_chemical_formula_sum   'Ho5 Er15 Bi8 As4'
_cell_volume   873.58967080
_cell_formula_units_Z   1
loop_
 _symmetry_equiv_pos_site_id
 _symmetry_equiv_pos_as_xyz
  1  'x, y, z'
loop_
 _atom_site_type_symbol
 _atom_site_label
 _atom_site_symmetry_multiplicity
 _atom_site_fract_x
 _atom_site_fract_y
 _atom_site_fract_z
 _atom_site_occupancy
  Ho  Ho0  1  0.683106  0.556336  0.562831  1
  Ho  Ho1  1  0.634235  0.750040  0.292616  1
  Ho  Ho2  1  0.865816  0.750101  0.792762  1
  Ho  Ho3  1  0.365713  0.250001  0.707340  1
  Ho  Ho4  1  0.134202  0.250002  0.207297  1
  Er  Er5  1  0.817119  0.556558  0.062898  1
  Er  Er6  1  0.682811  0.943505  0.562866  1
  Er  Er7  1  0.182918  0.056689  0.937148  1
  Er  Er8  1  0.317086  0.443418  0.437083  1
  Er  Er9  1  0.182942  0.443360  0.937127  1
  Er  Er10  1  0.317122  0.056581  0.437110  1
  Er  Er11  1  0.817094  0.943433  0.062917  1
  Er  Er12  1  0.156143  0.750005  0.210779  1
  Er  Er13  1  0.343782  0.750072  0.710859  1
  Er  Er14  1  0.843807  0.250004  0.789278  1
  Er  Er15  1  0.656240  0.250001  0.289187  1
  Er  Er16  1  0.463886  0.749967  0.000122  1
  Er  Er17  1  0.036302  0.750024  0.500076  1
  Er  Er18  1  0.536051  0.250015  0.999897  1
  Er  Er19  1  0.963938  0.249949  0.499893  1
  Bi  Bi20  1  0.925664  0.510068  0.326854  1
  Bi  Bi21  1  0.574322  0.989941  0.826961  1
  Bi  Bi22  1  0.074357  0.010051  0.673066  1
  Bi  Bi23  1  0.425647  0.489935  0.173037  1
  Bi  Bi24  1  0.074381  0.490018  0.673084  1
  Bi  Bi25  1  0.425663  0.010084  0.173055  1
  Bi  Bi26  1  0.925690  0.989990  0.326910  1
  Bi  Bi27  1  0.574284  0.510075  0.827039  1
  As  As28  1  0.412194  0.750236  0.478860  1
  As  As29  1  0.087581  0.750001  0.978897  1
  As  As30  1  0.587486  0.249548  0.521025  1
  As  As31  1  0.912416  0.249991  0.021126  1
