# generated using pymatgen
data_Np2BeSi4Ni
_symmetry_space_group_name_H-M   'P 1'
_cell_length_a   3.94425800
_cell_length_b   3.98765297
_cell_length_c   8.39577997
_cell_angle_alpha   103.73782228
_cell_angle_beta   90.00000000
_cell_angle_gamma   90.00000000
_symmetry_Int_Tables_number   1
_chemical_formula_structural   Np2BeSi4Ni
_chemical_formula_sum   'Np2 Be1 Si4 Ni1'
_cell_volume   128.27395811
_cell_formula_units_Z   1
loop_
 _symmetry_equiv_pos_site_id
 _symmetry_equiv_pos_as_xyz
  1  'x, y, z'
loop_
 _atom_site_type_symbol
 _atom_site_label
 _atom_site_symmetry_multiplicity
 _atom_site_fract_x
 _atom_site_fract_y
 _atom_site_fract_z
 _atom_site_occupancy
  Np  Np0  1  0.250000  0.398349  0.796698  1
  Np  Np1  1  0.750000  0.609180  0.218359  1
  Be  Be2  1  0.250000  0.173599  0.347197  1
  Si  Si3  1  0.250000  0.039556  0.079111  1
  Si  Si4  1  0.750000  0.959807  0.919615  1
  Si  Si5  1  0.250000  0.749044  0.498090  1
  Si  Si6  1  0.750000  0.250747  0.501493  1
  Ni  Ni7  1  0.750000  0.819718  0.639437  1
