# generated using pymatgen
data_Zr6Ga2SiAs
_symmetry_space_group_name_H-M   'P 1'
_cell_length_a   7.26630726
_cell_length_b   7.26645918
_cell_length_c   3.71044500
_cell_angle_alpha   90.00000000
_cell_angle_beta   90.00000000
_cell_angle_gamma   90.40869867
_symmetry_Int_Tables_number   1
_chemical_formula_structural   Zr6Ga2SiAs
_chemical_formula_sum   'Zr6 Ga2 Si1 As1'
_cell_volume   195.90771785
_cell_formula_units_Z   1
loop_
 _symmetry_equiv_pos_site_id
 _symmetry_equiv_pos_as_xyz
  1  'x, y, z'
loop_
 _atom_site_type_symbol
 _atom_site_label
 _atom_site_symmetry_multiplicity
 _atom_site_fract_x
 _atom_site_fract_y
 _atom_site_fract_z
 _atom_site_occupancy
  Zr  Zr0  1  0.999730  0.004930  0.000000  1
  Zr  Zr1  1  0.501747  0.497714  0.000000  1
  Zr  Zr2  1  0.675063  0.179347  0.500000  1
  Zr  Zr3  1  0.168518  0.323565  0.500000  1
  Zr  Zr4  1  0.824855  0.665693  0.500000  1
  Zr  Zr5  1  0.324809  0.830684  0.500000  1
  Ga  Ga6  1  0.630665  0.869882  0.000000  1
  Ga  Ga7  1  0.125038  0.625534  0.000000  1
  Si  Si8  1  0.875571  0.376373  0.000000  1
  As  As9  1  0.374005  0.126278  0.000000  1
