# generated using pymatgen
data_Yb3Y(Os3Ru)2
_symmetry_space_group_name_H-M   'P 1'
_cell_length_a   5.23580401
_cell_length_b   5.23580404
_cell_length_c   8.99923600
_cell_angle_alpha   90.00013057
_cell_angle_beta   89.99987067
_cell_angle_gamma   120.00217344
_symmetry_Int_Tables_number   1
_chemical_formula_structural   Yb3Y(Os3Ru)2
_chemical_formula_sum   'Yb3 Y1 Os6 Ru2'
_cell_volume   213.64538987
_cell_formula_units_Z   1
loop_
 _symmetry_equiv_pos_site_id
 _symmetry_equiv_pos_as_xyz
  1  'x, y, z'
loop_
 _atom_site_type_symbol
 _atom_site_label
 _atom_site_symmetry_multiplicity
 _atom_site_fract_x
 _atom_site_fract_y
 _atom_site_fract_z
 _atom_site_occupancy
  Yb  Yb0  1  0.333337  0.666663  0.431069  1
  Yb  Yb1  1  0.333337  0.666663  0.064953  1
  Yb  Yb2  1  0.666663  0.333337  0.939057  1
  Y  Y3  1  0.666663  0.333337  0.566753  1
  Os  Os4  1  0.171503  0.343021  0.750375  1
  Os  Os5  1  0.171489  0.828511  0.750377  1
  Os  Os6  1  0.656979  0.828497  0.750375  1
  Os  Os7  1  0.828997  0.657977  0.249807  1
  Os  Os8  1  0.829013  0.170987  0.249807  1
  Os  Os9  1  0.342023  0.171003  0.249807  1
  Ru  Ru10  1  0.999999  0.000001  0.499189  1
  Ru  Ru11  1  0.999998  0.000002  0.998431  1
