# generated using pymatgen
data_Tb7Tm9Cd4NiRu3
_symmetry_space_group_name_H-M   'P 1'
_cell_length_a   9.49310506
_cell_length_b   9.56676759
_cell_length_c   9.60727700
_cell_angle_alpha   59.85982495
_cell_angle_beta   59.60134835
_cell_angle_gamma   59.54246464
_symmetry_Int_Tables_number   1
_chemical_formula_structural   Tb7Tm9Cd4NiRu3
_chemical_formula_sum   'Tb7 Tm9 Cd4 Ni1 Ru3'
_cell_volume   612.29648584
_cell_formula_units_Z   1
loop_
 _symmetry_equiv_pos_site_id
 _symmetry_equiv_pos_as_xyz
  1  'x, y, z'
loop_
 _atom_site_type_symbol
 _atom_site_label
 _atom_site_symmetry_multiplicity
 _atom_site_fract_x
 _atom_site_fract_y
 _atom_site_fract_z
 _atom_site_occupancy
  Tb  Tb0  1  0.810922  0.812099  0.188490  1
  Tb  Tb1  1  0.940571  0.558129  0.560415  1
  Tb  Tb2  1  0.556820  0.939018  0.938020  1
  Tb  Tb3  1  0.556820  0.939018  0.566142  1
  Tb  Tb4  1  0.940571  0.558129  0.940885  1
  Tb  Tb5  1  0.556639  0.565507  0.938926  1
  Tb  Tb6  1  0.940710  0.940762  0.559264  1
  Tm  Tm7  1  0.350387  0.345475  0.344808  1
  Tm  Tm8  1  0.350387  0.345475  0.959330  1
  Tm  Tm9  1  0.349638  0.961544  0.344409  1
  Tm  Tm10  1  0.961227  0.345684  0.346545  1
  Tm  Tm11  1  0.811372  0.188525  0.188024  1
  Tm  Tm12  1  0.186870  0.812086  0.812095  1
  Tm  Tm13  1  0.186870  0.812086  0.188947  1
  Tm  Tm14  1  0.811372  0.188525  0.812078  1
  Tm  Tm15  1  0.186626  0.187306  0.813033  1
  Cd  Cd16  1  0.578842  0.580347  0.581223  1
  Cd  Cd17  1  0.578842  0.580347  0.259588  1
  Cd  Cd18  1  0.579476  0.258808  0.580858  1
  Cd  Cd19  1  0.257784  0.580570  0.580822  1
  Ni  Ni20  1  0.577259  0.143113  0.139814  1
  Ru  Ru21  1  0.142653  0.140235  0.138857  1
  Ru  Ru22  1  0.142653  0.140235  0.578255  1
  Ru  Ru23  1  0.144692  0.576973  0.139167  1
