# generated using pymatgen
data_Ho3Ga4Se
_symmetry_space_group_name_H-M   'P 1'
_cell_length_a   7.80543349
_cell_length_b   7.80543261
_cell_length_c   7.80543376
_cell_angle_alpha   119.28337433
_cell_angle_beta   119.28337279
_cell_angle_gamma   91.24577686
_symmetry_Int_Tables_number   1
_chemical_formula_structural   Ho3Ga4Se
_chemical_formula_sum   'Ho6 Ga8 Se2'
_cell_volume   339.81603337
_cell_formula_units_Z   2
loop_
 _symmetry_equiv_pos_site_id
 _symmetry_equiv_pos_as_xyz
  1  'x, y, z'
loop_
 _atom_site_type_symbol
 _atom_site_label
 _atom_site_symmetry_multiplicity
 _atom_site_fract_x
 _atom_site_fract_y
 _atom_site_fract_z
 _atom_site_occupancy
  Ho  Ho0  1  0.662546  0.162546  0.825090  1
  Ho  Ho1  1  0.162546  0.337454  0.500000  1
  Ho  Ho2  1  0.837454  0.662546  0.500000  1
  Ho  Ho3  1  0.750000  0.750000  0.000000  1
  Ho  Ho4  1  0.337454  0.837454  0.174910  1
  Ho  Ho5  1  0.250000  0.250000  0.000000  1
  Ga  Ga6  1  0.949316  0.449316  0.788960  1
  Ga  Ga7  1  0.839644  0.050684  0.500000  1
  Ga  Ga8  1  0.339644  0.839644  0.788960  1
  Ga  Ga9  1  0.449316  0.660356  0.500000  1
  Ga  Ga10  1  0.550684  0.339644  0.500000  1
  Ga  Ga11  1  0.050684  0.550684  0.211040  1
  Ga  Ga12  1  0.160356  0.949316  0.500000  1
  Ga  Ga13  1  0.660356  0.160356  0.211040  1
  Se  Se14  1  0.500000  0.500000  0.000000  1
  Se  Se15  1  0.000000  0.000000  0.000000  1
