# generated using pymatgen
data_Ho7Tm9(LuPb4)4
_symmetry_space_group_name_H-M   'P 1'
_cell_length_a   8.14105896
_cell_length_b   15.49093236
_cell_length_c   8.20562909
_cell_angle_alpha   90.01450406
_cell_angle_beta   89.87382113
_cell_angle_gamma   90.12614022
_symmetry_Int_Tables_number   1
_chemical_formula_structural   Ho7Tm9(LuPb4)4
_chemical_formula_sum   'Ho7 Tm9 Lu4 Pb16'
_cell_volume   1034.82811864
_cell_formula_units_Z   1
loop_
 _symmetry_equiv_pos_site_id
 _symmetry_equiv_pos_as_xyz
  1  'x, y, z'
loop_
 _atom_site_type_symbol
 _atom_site_label
 _atom_site_symmetry_multiplicity
 _atom_site_fract_x
 _atom_site_fract_y
 _atom_site_fract_z
 _atom_site_occupancy
  Ho  Ho0  1  0.962732  0.900504  0.823341  1
  Ho  Ho1  1  0.537444  0.099035  0.323368  1
  Ho  Ho2  1  0.038589  0.400926  0.176094  1
  Ho  Ho3  1  0.538133  0.400830  0.324388  1
  Ho  Ho4  1  0.037085  0.098676  0.176377  1
  Ho  Ho5  1  0.462855  0.900807  0.676458  1
  Ho  Ho6  1  0.962051  0.599179  0.823722  1
  Tm  Tm7  1  0.623901  0.622335  0.157828  1
  Tm  Tm8  1  0.124807  0.877770  0.342838  1
  Tm  Tm9  1  0.375473  0.122074  0.842664  1
  Tm  Tm10  1  0.875742  0.378490  0.657724  1
  Tm  Tm11  1  0.376862  0.378494  0.841896  1
  Tm  Tm12  1  0.875331  0.121694  0.657032  1
  Tm  Tm13  1  0.624595  0.877298  0.157036  1
  Tm  Tm14  1  0.124130  0.622011  0.342595  1
  Tm  Tm15  1  0.459399  0.600341  0.674612  1
  Lu  Lu16  1  0.792588  0.749708  0.495150  1
  Lu  Lu17  1  0.292855  0.749741  0.005107  1
  Lu  Lu18  1  0.207564  0.250308  0.505259  1
  Lu  Lu19  1  0.707550  0.250078  0.994907  1
  Pb  Pb20  1  0.717887  0.456861  0.966926  1
  Pb  Pb21  1  0.217115  0.042887  0.535360  1
  Pb  Pb22  1  0.283526  0.956702  0.034933  1
  Pb  Pb23  1  0.780617  0.543512  0.466999  1
  Pb  Pb24  1  0.283985  0.543420  0.033726  1
  Pb  Pb25  1  0.783368  0.956743  0.464281  1
  Pb  Pb26  1  0.716336  0.042654  0.964549  1
  Pb  Pb27  1  0.217029  0.457720  0.535490  1
  Pb  Pb28  1  0.430327  0.750133  0.374166  1
  Pb  Pb29  1  0.930786  0.749749  0.126424  1
  Pb  Pb30  1  0.569837  0.250053  0.626172  1
  Pb  Pb31  1  0.069541  0.250048  0.873168  1
  Pb  Pb32  1  0.650415  0.749283  0.842900  1
  Pb  Pb33  1  0.151378  0.749872  0.656491  1
  Pb  Pb34  1  0.348700  0.250105  0.156169  1
  Pb  Pb35  1  0.849464  0.249961  0.343848  1
