# generated using pymatgen
data_TbHo3Ga4Pd3Ru
_symmetry_space_group_name_H-M   'P 1'
_cell_length_a   4.44131000
_cell_length_b   6.89134113
_cell_length_c   7.68728117
_cell_angle_alpha   90.56463061
_cell_angle_beta   90.00000000
_cell_angle_gamma   90.00000000
_symmetry_Int_Tables_number   1
_chemical_formula_structural   TbHo3Ga4Pd3Ru
_chemical_formula_sum   'Tb1 Ho3 Ga4 Pd3 Ru1'
_cell_volume   235.26997932
_cell_formula_units_Z   1
loop_
 _symmetry_equiv_pos_site_id
 _symmetry_equiv_pos_as_xyz
  1  'x, y, z'
loop_
 _atom_site_type_symbol
 _atom_site_label
 _atom_site_symmetry_multiplicity
 _atom_site_fract_x
 _atom_site_fract_y
 _atom_site_fract_z
 _atom_site_occupancy
  Tb  Tb0  1  0.250000  0.021611  0.807537  1
  Ho  Ho1  1  0.250000  0.524201  0.688207  1
  Ho  Ho2  1  0.750000  0.978824  0.201494  1
  Ho  Ho3  1  0.750000  0.488024  0.304735  1
  Ga  Ga4  1  0.250000  0.163677  0.425601  1
  Ga  Ga5  1  0.250000  0.673931  0.076086  1
  Ga  Ga6  1  0.750000  0.825165  0.572139  1
  Ga  Ga7  1  0.750000  0.328959  0.926307  1
  Pd  Pd8  1  0.250000  0.284346  0.103625  1
  Pd  Pd9  1  0.750000  0.219280  0.597781  1
  Pd  Pd10  1  0.750000  0.718826  0.897628  1
  Ru  Ru11  1  0.250000  0.773156  0.398861  1
