# generated using pymatgen
data_Tb6ErLu3(In2Pt)4
_symmetry_space_group_name_H-M   'P 1'
_cell_length_a   3.63103700
_cell_length_b   8.14995618
_cell_length_c   18.14344401
_cell_angle_alpha   89.93340443
_cell_angle_beta   90.00000000
_cell_angle_gamma   90.00000000
_symmetry_Int_Tables_number   1
_chemical_formula_structural   Tb6ErLu3(In2Pt)4
_chemical_formula_sum   'Tb6 Er1 Lu3 In8 Pt4'
_cell_volume   536.91480999
_cell_formula_units_Z   1
loop_
 _symmetry_equiv_pos_site_id
 _symmetry_equiv_pos_as_xyz
  1  'x, y, z'
loop_
 _atom_site_type_symbol
 _atom_site_label
 _atom_site_symmetry_multiplicity
 _atom_site_fract_x
 _atom_site_fract_y
 _atom_site_fract_z
 _atom_site_occupancy
  Tb  Tb0  1  0.000000  0.242592  0.219430  1
  Tb  Tb1  1  0.000000  0.759241  0.781070  1
  Tb  Tb2  1  0.000000  0.258864  0.717663  1
  Tb  Tb3  1  0.000000  0.741078  0.282388  1
  Tb  Tb4  1  0.000000  0.999374  0.999271  1
  Tb  Tb5  1  0.000000  0.499815  0.500479  1
  Er  Er6  1  0.000000  0.617421  0.085186  1
  Lu  Lu7  1  0.000000  0.116041  0.414109  1
  Lu  Lu8  1  0.000000  0.883344  0.586039  1
  Lu  Lu9  1  0.000000  0.383072  0.913145  1
  In  In10  1  0.500000  0.418199  0.351610  1
  In  In11  1  0.500000  0.582048  0.649565  1
  In  In12  1  0.500000  0.081255  0.849881  1
  In  In13  1  0.500000  0.922395  0.150292  1
  In  In14  1  0.500000  0.294961  0.064373  1
  In  In15  1  0.500000  0.702575  0.933845  1
  In  In16  1  0.500000  0.201376  0.563618  1
  In  In17  1  0.500000  0.797587  0.436641  1
  Pt  Pt18  1  0.500000  0.026031  0.306122  1
  Pt  Pt19  1  0.500000  0.974131  0.694036  1
  Pt  Pt20  1  0.500000  0.473107  0.804830  1
  Pt  Pt21  1  0.500000  0.525494  0.196406  1
