# generated using pymatgen
data_PrTm4(FeB3)2
_symmetry_space_group_name_H-M   'P 1'
_cell_length_a   8.24549869
_cell_length_b   8.24549834
_cell_length_c   8.24549746
_cell_angle_alpha   38.21073681
_cell_angle_beta   38.21073860
_cell_angle_gamma   38.21072366
_symmetry_Int_Tables_number   1
_chemical_formula_structural   PrTm4(FeB3)2
_chemical_formula_sum   'Pr1 Tm4 Fe2 B6'
_cell_volume   192.61116174
_cell_formula_units_Z   1
loop_
 _symmetry_equiv_pos_site_id
 _symmetry_equiv_pos_as_xyz
  1  'x, y, z'
loop_
 _atom_site_type_symbol
 _atom_site_label
 _atom_site_symmetry_multiplicity
 _atom_site_fract_x
 _atom_site_fract_y
 _atom_site_fract_z
 _atom_site_occupancy
  Pr  Pr0  1  0.000000  0.000000  0.000000  1
  Tm  Tm1  1  0.581930  0.581930  0.581930  1
  Tm  Tm2  1  0.418070  0.418070  0.418070  1
  Tm  Tm3  1  0.750716  0.750716  0.750716  1
  Tm  Tm4  1  0.249284  0.249284  0.249284  1
  Fe  Fe5  1  0.883928  0.883928  0.883928  1
  Fe  Fe6  1  0.116072  0.116072  0.116072  1
  B  B7  1  0.500000  0.831806  0.168194  1
  B  B8  1  0.168194  0.500000  0.831806  1
  B  B9  1  0.831806  0.168194  0.500000  1
  B  B10  1  0.500000  0.168194  0.831806  1
  B  B11  1  0.831806  0.500000  0.168194  1
  B  B12  1  0.168194  0.831806  0.500000  1
