# generated using pymatgen
data_Er4Fe3Os3Ru2
_symmetry_space_group_name_H-M   'P 1'
_cell_length_a   5.19239212
_cell_length_b   5.17648121
_cell_length_c   8.82658100
_cell_angle_alpha   90.00000000
_cell_angle_beta   90.00000000
_cell_angle_gamma   119.89868565
_symmetry_Int_Tables_number   1
_chemical_formula_structural   Er4Fe3Os3Ru2
_chemical_formula_sum   'Er4 Fe3 Os3 Ru2'
_cell_volume   205.66847965
_cell_formula_units_Z   1
loop_
 _symmetry_equiv_pos_site_id
 _symmetry_equiv_pos_as_xyz
  1  'x, y, z'
loop_
 _atom_site_type_symbol
 _atom_site_label
 _atom_site_symmetry_multiplicity
 _atom_site_fract_x
 _atom_site_fract_y
 _atom_site_fract_z
 _atom_site_occupancy
  Er  Er0  1  0.335963  0.667982  0.434585  1
  Er  Er1  1  0.667862  0.333931  0.563918  1
  Er  Er2  1  0.667862  0.333931  0.936082  1
  Er  Er3  1  0.335963  0.667982  0.065415  1
  Fe  Fe4  1  0.827329  0.658603  0.250000  1
  Fe  Fe5  1  0.662905  0.831453  0.750000  1
  Fe  Fe6  1  0.827329  0.168726  0.250000  1
  Os  Os7  1  0.166840  0.339739  0.750000  1
  Os  Os8  1  0.166840  0.827101  0.750000  1
  Os  Os9  1  0.340549  0.170274  0.250000  1
  Ru  Ru10  1  0.000278  0.000139  0.004286  1
  Ru  Ru11  1  0.000278  0.000139  0.495714  1
