# generated using pymatgen
data_DyZn9Cu2
_symmetry_space_group_name_H-M   'P 1'
_cell_length_a   8.15824485
_cell_length_b   8.15822995
_cell_length_c   8.15824528
_cell_angle_alpha   99.62476802
_cell_angle_beta   99.62513779
_cell_angle_gamma   131.72885825
_symmetry_Int_Tables_number   1
_chemical_formula_structural   DyZn9Cu2
_chemical_formula_sum   'Dy2 Zn18 Cu4'
_cell_volume   369.80701246
_cell_formula_units_Z   2
loop_
 _symmetry_equiv_pos_site_id
 _symmetry_equiv_pos_as_xyz
  1  'x, y, z'
loop_
 _atom_site_type_symbol
 _atom_site_label
 _atom_site_symmetry_multiplicity
 _atom_site_fract_x
 _atom_site_fract_y
 _atom_site_fract_z
 _atom_site_occupancy
  Dy  Dy0  1  0.250000  0.750000  0.500000  1
  Dy  Dy1  1  0.000000  0.999999  0.000001  1
  Zn  Zn2  1  0.427561  0.102884  0.917356  1
  Zn  Zn3  1  0.185526  0.510202  0.082643  1
  Zn  Zn4  1  0.500001  0.500000  0.999999  1
  Zn  Zn5  1  0.749998  0.249999  0.500001  1
  Zn  Zn6  1  0.185528  0.102885  0.675325  1
  Zn  Zn7  1  0.760203  0.935526  0.582644  1
  Zn  Zn8  1  0.352883  0.177559  0.417357  1
  Zn  Zn9  1  0.427559  0.510201  0.324675  1
  Zn  Zn10  1  0.897117  0.814473  0.324676  1
  Zn  Zn11  1  0.489798  0.572440  0.675325  1
  Zn  Zn12  1  0.064473  0.239797  0.417358  1
  Zn  Zn13  1  0.822439  0.647115  0.582643  1
  Zn  Zn14  1  0.064472  0.647114  0.824675  1
  Zn  Zn15  1  0.489796  0.814473  0.917356  1
  Zn  Zn16  1  0.897116  0.572440  0.082643  1
  Zn  Zn17  1  0.822440  0.239798  0.175325  1
  Zn  Zn18  1  0.352883  0.935526  0.175324  1
  Zn  Zn19  1  0.760201  0.177559  0.824675  1
  Cu  Cu20  1  0.625004  0.375001  0.749998  1
  Cu  Cu21  1  0.125002  0.375001  0.750000  1
  Cu  Cu22  1  0.625002  0.375002  0.250001  1
  Cu  Cu23  1  0.624999  0.875002  0.250000  1
