# generated using pymatgen
data_Hf6Ta4Al5SiN2
_symmetry_space_group_name_H-M   'P 1'
_cell_length_a   7.92292300
_cell_length_b   7.95299188
_cell_length_c   5.45283700
_cell_angle_alpha   90.00000000
_cell_angle_beta   90.00000000
_cell_angle_gamma   119.87501406
_symmetry_Int_Tables_number   1
_chemical_formula_structural   Hf6Ta4Al5SiN2
_chemical_formula_sum   'Hf6 Ta4 Al5 Si1 N2'
_cell_volume   297.93032694
_cell_formula_units_Z   1
loop_
 _symmetry_equiv_pos_site_id
 _symmetry_equiv_pos_as_xyz
  1  'x, y, z'
loop_
 _atom_site_type_symbol
 _atom_site_label
 _atom_site_symmetry_multiplicity
 _atom_site_fract_x
 _atom_site_fract_y
 _atom_site_fract_z
 _atom_site_occupancy
  Hf  Hf0  1  0.233679  0.000000  0.250000  1
  Hf  Hf1  1  0.996171  0.228391  0.250000  1
  Hf  Hf2  1  0.767780  0.771609  0.250000  1
  Hf  Hf3  1  0.766558  0.000000  0.750000  1
  Hf  Hf4  1  0.000224  0.771185  0.750000  1
  Hf  Hf5  1  0.229039  0.228815  0.750000  1
  Ta  Ta6  1  0.665913  0.327407  0.001177  1
  Ta  Ta7  1  0.338504  0.672593  0.001177  1
  Ta  Ta8  1  0.665913  0.327407  0.498823  1
  Ta  Ta9  1  0.338504  0.672593  0.498823  1
  Al  Al10  1  0.999576  0.589075  0.250000  1
  Al  Al11  1  0.410501  0.410925  0.250000  1
  Al  Al12  1  0.408456  0.000000  0.750000  1
  Al  Al13  1  0.002591  0.413404  0.750000  1
  Al  Al14  1  0.589187  0.586596  0.750000  1
  Si  Si15  1  0.589298  0.000000  0.250000  1
  N  N16  1  0.999054  0.000000  0.000061  1
  N  N17  1  0.999054  0.000000  0.499939  1
