# generated using pymatgen
data_LaZn(InIr4)2
_symmetry_space_group_name_H-M   'P 1'
_cell_length_a   8.82336000
_cell_length_b   8.82336000
_cell_length_c   5.31436900
_cell_angle_alpha   90.00000000
_cell_angle_beta   90.00000000
_cell_angle_gamma   90.00000000
_symmetry_Int_Tables_number   1
_chemical_formula_structural   LaZn(InIr4)2
_chemical_formula_sum   'La2 Zn2 In4 Ir16'
_cell_volume   413.73256377
_cell_formula_units_Z   2
loop_
 _symmetry_equiv_pos_site_id
 _symmetry_equiv_pos_as_xyz
  1  'x, y, z'
loop_
 _atom_site_type_symbol
 _atom_site_label
 _atom_site_symmetry_multiplicity
 _atom_site_fract_x
 _atom_site_fract_y
 _atom_site_fract_z
 _atom_site_occupancy
  La  La0  1  0.000000  0.000000  0.000000  1
  La  La1  1  0.500000  0.500000  0.000000  1
  Zn  Zn2  1  0.500000  0.000000  0.500000  1
  Zn  Zn3  1  0.000000  0.500000  0.500000  1
  In  In4  1  0.122454  0.622454  0.000000  1
  In  In5  1  0.877546  0.377546  0.000000  1
  In  In6  1  0.622454  0.877546  0.000000  1
  In  In7  1  0.377546  0.122454  0.000000  1
  Ir  Ir8  1  0.204959  0.066328  0.500000  1
  Ir  Ir9  1  0.795041  0.933672  0.500000  1
  Ir  Ir10  1  0.066328  0.795041  0.500000  1
  Ir  Ir11  1  0.704959  0.433672  0.500000  1
  Ir  Ir12  1  0.933672  0.204959  0.500000  1
  Ir  Ir13  1  0.295041  0.566328  0.500000  1
  Ir  Ir14  1  0.566328  0.704959  0.500000  1
  Ir  Ir15  1  0.433672  0.295041  0.500000  1
  Ir  Ir16  1  0.677101  0.177101  0.237245  1
  Ir  Ir17  1  0.322899  0.822899  0.762755  1
  Ir  Ir18  1  0.322899  0.822899  0.237245  1
  Ir  Ir19  1  0.177101  0.322899  0.237245  1
  Ir  Ir20  1  0.177101  0.322899  0.762755  1
  Ir  Ir21  1  0.677101  0.177101  0.762755  1
  Ir  Ir22  1  0.822899  0.677101  0.762755  1
  Ir  Ir23  1  0.822899  0.677101  0.237245  1
