# generated using pymatgen
data_SmTh3(SiTc2)8
_symmetry_space_group_name_H-M   'P 1'
_cell_length_a   4.16986300
_cell_length_b   7.16152276
_cell_length_c   15.69066650
_cell_angle_alpha   90.13237572
_cell_angle_beta   90.00000000
_cell_angle_gamma   90.00000000
_symmetry_Int_Tables_number   1
_chemical_formula_structural   SmTh3(SiTc2)8
_chemical_formula_sum   'Sm1 Th3 Si8 Tc16'
_cell_volume   468.56235729
_cell_formula_units_Z   1
loop_
 _symmetry_equiv_pos_site_id
 _symmetry_equiv_pos_as_xyz
  1  'x, y, z'
loop_
 _atom_site_type_symbol
 _atom_site_label
 _atom_site_symmetry_multiplicity
 _atom_site_fract_x
 _atom_site_fract_y
 _atom_site_fract_z
 _atom_site_occupancy
  Sm  Sm0  1  0.000000  0.590370  0.117632  1
  Th  Th1  1  0.000000  0.408332  0.884747  1
  Th  Th2  1  0.500000  0.091554  0.381757  1
  Th  Th3  1  0.500000  0.907619  0.616843  1
  Si  Si4  1  0.000000  0.827201  0.472622  1
  Si  Si5  1  0.000000  0.172895  0.526501  1
  Si  Si6  1  0.500000  0.329291  0.028149  1
  Si  Si7  1  0.500000  0.673103  0.975034  1
  Si  Si8  1  0.000000  0.312912  0.271988  1
  Si  Si9  1  0.000000  0.687671  0.726818  1
  Si  Si10  1  0.500000  0.806336  0.223816  1
  Si  Si11  1  0.500000  0.188396  0.773744  1
  Tc  Tc12  1  0.000000  0.142323  0.051617  1
  Tc  Tc13  1  0.000000  0.860183  0.948744  1
  Tc  Tc14  1  0.500000  0.641421  0.448718  1
  Tc  Tc15  1  0.500000  0.358254  0.551012  1
  Tc  Tc16  1  0.000000  0.737904  0.319444  1
  Tc  Tc17  1  0.000000  0.263469  0.679829  1
  Tc  Tc18  1  0.500000  0.235966  0.180221  1
  Tc  Tc19  1  0.500000  0.762641  0.820913  1
  Tc  Tc20  1  0.000000  0.431197  0.420543  1
  Tc  Tc21  1  0.000000  0.569157  0.578971  1
  Tc  Tc22  1  0.500000  0.935874  0.078983  1
  Tc  Tc23  1  0.500000  0.069001  0.921224  1
  Tc  Tc24  1  0.000000  0.002612  0.205701  1
  Tc  Tc25  1  0.000000  0.995276  0.794543  1
  Tc  Tc26  1  0.500000  0.503882  0.293904  1
  Tc  Tc27  1  0.500000  0.495158  0.705982  1
