# generated using pymatgen
data_Gd3In4CuPd
_symmetry_space_group_name_H-M   'P 1'
_cell_length_a   7.91620000
_cell_length_b   7.91620024
_cell_length_c   4.04218000
_cell_angle_alpha   90.00000000
_cell_angle_beta   90.00000000
_cell_angle_gamma   120.00000736
_symmetry_Int_Tables_number   1
_chemical_formula_structural   Gd3In4CuPd
_chemical_formula_sum   'Gd3 In4 Cu1 Pd1'
_cell_volume   219.37128413
_cell_formula_units_Z   1
loop_
 _symmetry_equiv_pos_site_id
 _symmetry_equiv_pos_as_xyz
  1  'x, y, z'
loop_
 _atom_site_type_symbol
 _atom_site_label
 _atom_site_symmetry_multiplicity
 _atom_site_fract_x
 _atom_site_fract_y
 _atom_site_fract_z
 _atom_site_occupancy
  Gd  Gd0  1  0.691961  0.944023  0.500000  1
  Gd  Gd1  1  0.252062  0.308039  0.500000  1
  Gd  Gd2  1  0.055977  0.747938  0.500000  1
  In  In3  1  0.913042  0.330089  0.000000  1
  In  In4  1  0.417046  0.086958  0.000000  1
  In  In5  1  0.669911  0.582954  0.000000  1
  In  In6  1  0.333333  0.666667  0.000000  1
  Cu  Cu7  1  0.666667  0.333333  0.500000  1
  Pd  Pd8  1  0.000000  0.000000  0.000000  1
