# generated using pymatgen
data_YEr(Th2Fe)6
_symmetry_space_group_name_H-M   'P 1'
_cell_length_a   9.70446600
_cell_length_b   9.70446593
_cell_length_c   6.20907800
_cell_angle_alpha   90.00000000
_cell_angle_beta   90.00000000
_cell_angle_gamma   120.00000025
_symmetry_Int_Tables_number   1
_chemical_formula_structural   YEr(Th2Fe)6
_chemical_formula_sum   'Y1 Er1 Th12 Fe6'
_cell_volume   506.40854874
_cell_formula_units_Z   1
loop_
 _symmetry_equiv_pos_site_id
 _symmetry_equiv_pos_as_xyz
  1  'x, y, z'
loop_
 _atom_site_type_symbol
 _atom_site_label
 _atom_site_symmetry_multiplicity
 _atom_site_fract_x
 _atom_site_fract_y
 _atom_site_fract_z
 _atom_site_occupancy
  Y  Y0  1  0.333333  0.666667  0.037341  1
  Er  Er1  1  0.666667  0.333333  0.535632  1
  Th  Th2  1  0.125783  0.874217  0.249571  1
  Th  Th3  1  0.252330  0.126165  0.749320  1
  Th  Th4  1  0.873835  0.747670  0.749320  1
  Th  Th5  1  0.125783  0.251566  0.249571  1
  Th  Th6  1  0.748434  0.874217  0.249571  1
  Th  Th7  1  0.873835  0.126165  0.749320  1
  Th  Th8  1  0.541622  0.458378  0.068900  1
  Th  Th9  1  0.082029  0.541014  0.568661  1
  Th  Th10  1  0.458986  0.917971  0.568661  1
  Th  Th11  1  0.541622  0.083243  0.068900  1
  Th  Th12  1  0.916757  0.458378  0.068900  1
  Th  Th13  1  0.458986  0.541014  0.568661  1
  Fe  Fe14  1  0.819282  0.180718  0.280102  1
  Fe  Fe15  1  0.639603  0.819802  0.779122  1
  Fe  Fe16  1  0.180198  0.360397  0.779122  1
  Fe  Fe17  1  0.819282  0.638562  0.280102  1
  Fe  Fe18  1  0.361438  0.180718  0.280102  1
  Fe  Fe19  1  0.180198  0.819802  0.779122  1
