# generated using pymatgen
data_Dy4ReTc2Os5
_symmetry_space_group_name_H-M   'P 1'
_cell_length_a   5.28291676
_cell_length_b   5.19996729
_cell_length_c   9.04977600
_cell_angle_alpha   90.00000000
_cell_angle_beta   90.00000000
_cell_angle_gamma   117.73783231
_symmetry_Int_Tables_number   1
_chemical_formula_structural   Dy4ReTc2Os5
_chemical_formula_sum   'Dy4 Re1 Tc2 Os5'
_cell_volume   220.03811968
_cell_formula_units_Z   1
loop_
 _symmetry_equiv_pos_site_id
 _symmetry_equiv_pos_as_xyz
  1  'x, y, z'
loop_
 _atom_site_type_symbol
 _atom_site_label
 _atom_site_symmetry_multiplicity
 _atom_site_fract_x
 _atom_site_fract_y
 _atom_site_fract_z
 _atom_site_occupancy
  Dy  Dy0  1  0.330957  0.669209  0.434711  1
  Dy  Dy1  1  0.667043  0.334587  0.564214  1
  Dy  Dy2  1  0.667043  0.334587  0.935786  1
  Dy  Dy3  1  0.330957  0.669209  0.065289  1
  Re  Re4  1  0.841462  0.160574  0.250000  1
  Tc  Tc5  1  0.166276  0.829428  0.750000  1
  Tc  Tc6  1  0.166011  0.336119  0.750000  1
  Os  Os7  1  0.996248  0.007100  0.499529  1
  Os  Os8  1  0.996248  0.007100  0.000471  1
  Os  Os9  1  0.831307  0.651733  0.250000  1
  Os  Os10  1  0.353331  0.172096  0.250000  1
  Os  Os11  1  0.653118  0.828257  0.750000  1
