# generated using pymatgen
data_Dy4Mo3WN8
_symmetry_space_group_name_H-M   'P 1'
_cell_length_a   3.20978200
_cell_length_b   5.71377721
_cell_length_c   10.59783239
_cell_angle_alpha   89.96883125
_cell_angle_beta   90.00000000
_cell_angle_gamma   90.00000000
_symmetry_Int_Tables_number   1
_chemical_formula_structural   Dy4Mo3WN8
_chemical_formula_sum   'Dy4 Mo3 W1 N8'
_cell_volume   194.36399735
_cell_formula_units_Z   1
loop_
 _symmetry_equiv_pos_site_id
 _symmetry_equiv_pos_as_xyz
  1  'x, y, z'
loop_
 _atom_site_type_symbol
 _atom_site_label
 _atom_site_symmetry_multiplicity
 _atom_site_fract_x
 _atom_site_fract_y
 _atom_site_fract_z
 _atom_site_occupancy
  Dy  Dy0  1  0.250000  0.078904  0.854059  1
  Dy  Dy1  1  0.250000  0.578540  0.646519  1
  Dy  Dy2  1  0.750000  0.920738  0.146144  1
  Dy  Dy3  1  0.750000  0.421083  0.354868  1
  Mo  Mo4  1  0.250000  0.934068  0.406140  1
  Mo  Mo5  1  0.750000  0.567298  0.906010  1
  Mo  Mo6  1  0.750000  0.066183  0.593492  1
  W  W7  1  0.250000  0.432993  0.094445  1
  N  N8  1  0.250000  0.168041  0.247626  1
  N  N9  1  0.250000  0.662806  0.249232  1
  N  N10  1  0.750000  0.835932  0.749810  1
  N  N11  1  0.750000  0.334464  0.749726  1
  N  N12  1  0.250000  0.758714  0.994072  1
  N  N13  1  0.250000  0.258477  0.506631  1
  N  N14  1  0.750000  0.239730  0.008340  1
  N  N15  1  0.750000  0.742029  0.492884  1
