# generated using pymatgen
data_Pr4Ho12MgHg3Ir4
_symmetry_space_group_name_H-M   'P 1'
_cell_length_a   9.72053696
_cell_length_b   9.69535635
_cell_length_c   9.69535571
_cell_angle_alpha   59.63364026
_cell_angle_beta   59.82406132
_cell_angle_gamma   59.82405954
_symmetry_Int_Tables_number   1
_chemical_formula_structural   Pr4Ho12MgHg3Ir4
_chemical_formula_sum   'Pr4 Ho12 Mg1 Hg3 Ir4'
_cell_volume   642.58740525
_cell_formula_units_Z   1
loop_
 _symmetry_equiv_pos_site_id
 _symmetry_equiv_pos_as_xyz
  1  'x, y, z'
loop_
 _atom_site_type_symbol
 _atom_site_label
 _atom_site_symmetry_multiplicity
 _atom_site_fract_x
 _atom_site_fract_y
 _atom_site_fract_z
 _atom_site_occupancy
  Pr  Pr0  1  0.561705  0.939135  0.562545  1
  Pr  Pr1  1  0.940154  0.562058  0.934973  1
  Pr  Pr2  1  0.561705  0.562545  0.939135  1
  Pr  Pr3  1  0.940154  0.934973  0.562058  1
  Ho  Ho4  1  0.348433  0.346849  0.346849  1
  Ho  Ho5  1  0.348079  0.350044  0.958831  1
  Ho  Ho6  1  0.348079  0.958831  0.350044  1
  Ho  Ho7  1  0.945687  0.350087  0.350087  1
  Ho  Ho8  1  0.811221  0.187951  0.187951  1
  Ho  Ho9  1  0.182125  0.815392  0.815392  1
  Ho  Ho10  1  0.187083  0.811919  0.187827  1
  Ho  Ho11  1  0.808331  0.187579  0.810324  1
  Ho  Ho12  1  0.187083  0.187827  0.811919  1
  Ho  Ho13  1  0.808331  0.810324  0.187579  1
  Ho  Ho14  1  0.944227  0.552720  0.552720  1
  Ho  Ho15  1  0.551575  0.946135  0.946135  1
  Mg  Mg16  1  0.287547  0.568978  0.568978  1
  Hg  Hg17  1  0.585165  0.581913  0.581913  1
  Hg  Hg18  1  0.579881  0.589962  0.247694  1
  Hg  Hg19  1  0.579881  0.247694  0.589962  1
  Ir  Ir20  1  0.144878  0.140374  0.140374  1
  Ir  Ir21  1  0.136403  0.149299  0.576088  1
  Ir  Ir22  1  0.136403  0.576088  0.149299  1
  Ir  Ir23  1  0.575874  0.141325  0.141325  1
