# generated using pymatgen
data_SmHo5ZrCo17P12
_symmetry_space_group_name_H-M   'P 1'
_cell_length_a   3.71641500
_cell_length_b   10.61333000
_cell_length_c   12.33373200
_cell_angle_alpha   90.00000000
_cell_angle_beta   90.00000000
_cell_angle_gamma   90.00000000
_symmetry_Int_Tables_number   1
_chemical_formula_structural   SmHo5ZrCo17P12
_chemical_formula_sum   'Sm1 Ho5 Zr1 Co17 P12'
_cell_volume   486.48603684
_cell_formula_units_Z   1
loop_
 _symmetry_equiv_pos_site_id
 _symmetry_equiv_pos_as_xyz
  1  'x, y, z'
loop_
 _atom_site_type_symbol
 _atom_site_label
 _atom_site_symmetry_multiplicity
 _atom_site_fract_x
 _atom_site_fract_y
 _atom_site_fract_z
 _atom_site_occupancy
  Sm  Sm0  1  0.500000  0.000000  0.477234  1
  Ho  Ho1  1  0.000000  0.500000  0.529295  1
  Ho  Ho2  1  0.500000  0.821237  0.206963  1
  Ho  Ho3  1  0.500000  0.178763  0.206963  1
  Ho  Ho4  1  0.000000  0.682793  0.795977  1
  Ho  Ho5  1  0.000000  0.317207  0.795977  1
  Zr  Zr6  1  0.500000  0.500000  0.154395  1
  Co  Co7  1  0.000000  0.500000  0.982932  1
  Co  Co8  1  0.500000  0.000000  0.013297  1
  Co  Co9  1  0.500000  0.295707  0.434510  1
  Co  Co10  1  0.500000  0.704293  0.434510  1
  Co  Co11  1  0.000000  0.203859  0.570933  1
  Co  Co12  1  0.000000  0.796141  0.570933  1
  Co  Co13  1  0.500000  0.879851  0.708624  1
  Co  Co14  1  0.500000  0.120149  0.708624  1
  Co  Co15  1  0.000000  0.622209  0.297421  1
  Co  Co16  1  0.000000  0.377791  0.297421  1
  Co  Co17  1  0.500000  0.326975  0.987938  1
  Co  Co18  1  0.500000  0.673025  0.987938  1
  Co  Co19  1  0.000000  0.161542  0.001371  1
  Co  Co20  1  0.000000  0.838458  0.001371  1
  Co  Co21  1  0.000000  0.000000  0.837876  1
  Co  Co22  1  0.500000  0.500000  0.703014  1
  Co  Co23  1  0.000000  0.000000  0.294223  1
  P  P24  1  0.500000  0.309505  0.618278  1
  P  P25  1  0.500000  0.690495  0.618278  1
  P  P26  1  0.000000  0.190360  0.385659  1
  P  P27  1  0.000000  0.809640  0.385659  1
  P  P28  1  0.500000  0.500000  0.881205  1
  P  P29  1  0.000000  0.000000  0.115870  1
  P  P30  1  0.500000  0.852011  0.888746  1
  P  P31  1  0.500000  0.147989  0.888746  1
  P  P32  1  0.000000  0.665203  0.099326  1
  P  P33  1  0.000000  0.334797  0.099326  1
  P  P34  1  0.500000  0.500000  0.362210  1
  P  P35  1  0.000000  0.000000  0.656957  1
