# generated using pymatgen
data_La2Er(LuRh6)3
_symmetry_space_group_name_H-M   'P 1'
_cell_length_a   5.28790400
_cell_length_b   5.28790333
_cell_length_c   17.48487700
_cell_angle_alpha   90.00000000
_cell_angle_beta   90.00000000
_cell_angle_gamma   119.99999168
_symmetry_Int_Tables_number   1
_chemical_formula_structural   La2Er(LuRh6)3
_chemical_formula_sum   'La2 Er1 Lu3 Rh18'
_cell_volume   423.40922774
_cell_formula_units_Z   1
loop_
 _symmetry_equiv_pos_site_id
 _symmetry_equiv_pos_as_xyz
  1  'x, y, z'
loop_
 _atom_site_type_symbol
 _atom_site_label
 _atom_site_symmetry_multiplicity
 _atom_site_fract_x
 _atom_site_fract_y
 _atom_site_fract_z
 _atom_site_occupancy
  La  La0  1  0.333333  0.666667  0.749559  1
  La  La1  1  0.666667  0.333333  0.250156  1
  Er  Er2  1  0.333333  0.666667  0.959659  1
  Lu  Lu3  1  0.333333  0.666667  0.540477  1
  Lu  Lu4  1  0.666667  0.333333  0.041038  1
  Lu  Lu5  1  0.666667  0.333333  0.459550  1
  Rh  Rh6  1  0.167601  0.335203  0.123438  1
  Rh  Rh7  1  0.832211  0.664421  0.622946  1
  Rh  Rh8  1  0.664797  0.832399  0.123438  1
  Rh  Rh9  1  0.167601  0.832399  0.123438  1
  Rh  Rh10  1  0.832211  0.167789  0.622946  1
  Rh  Rh11  1  0.335579  0.167789  0.622946  1
  Rh  Rh12  1  0.832396  0.664791  0.876414  1
  Rh  Rh13  1  0.832396  0.167604  0.876414  1
  Rh  Rh14  1  0.335209  0.167604  0.876414  1
  Rh  Rh15  1  0.664481  0.832241  0.377046  1
  Rh  Rh16  1  0.167759  0.832241  0.377046  1
  Rh  Rh17  1  0.167759  0.335519  0.377046  1
  Rh  Rh18  1  0.000000  0.000000  0.250355  1
  Rh  Rh19  1  0.000000  0.000000  0.749789  1
  Rh  Rh20  1  0.333333  0.666667  0.250126  1
  Rh  Rh21  1  0.666667  0.333333  0.749835  1
  Rh  Rh22  1  0.000000  0.000000  0.999961  1
  Rh  Rh23  1  0.000000  0.000000  0.499963  1
