# generated using pymatgen
data_Sm3Er2(CoB3)2
_symmetry_space_group_name_H-M   'P 1'
_cell_length_a   5.40599796
_cell_length_b   5.40599938
_cell_length_c   8.48878130
_cell_angle_alpha   71.43259269
_cell_angle_beta   71.43258566
_cell_angle_gamma   59.99998982
_symmetry_Int_Tables_number   1
_chemical_formula_structural   Sm3Er2(CoB3)2
_chemical_formula_sum   'Sm3 Er2 Co2 B6'
_cell_volume   199.79679643
_cell_formula_units_Z   1
loop_
 _symmetry_equiv_pos_site_id
 _symmetry_equiv_pos_as_xyz
  1  'x, y, z'
loop_
 _atom_site_type_symbol
 _atom_site_label
 _atom_site_symmetry_multiplicity
 _atom_site_fract_x
 _atom_site_fract_y
 _atom_site_fract_z
 _atom_site_occupancy
  Sm  Sm0  1  0.000000  0.000000  0.000000  1
  Sm  Sm1  1  0.252977  0.252977  0.241069  1
  Sm  Sm2  1  0.747023  0.747023  0.758931  1
  Er  Er3  1  0.419698  0.419698  0.740905  1
  Er  Er4  1  0.580302  0.580302  0.259095  1
  Co  Co5  1  0.120534  0.120534  0.638397  1
  Co  Co6  1  0.879466  0.879466  0.361603  1
  B  B7  1  0.168445  0.831555  0.500000  1
  B  B8  1  0.831555  0.500000  0.500000  1
  B  B9  1  0.500000  0.168445  0.500000  1
  B  B10  1  0.168445  0.500000  0.500000  1
  B  B11  1  0.500000  0.831555  0.500000  1
  B  B12  1  0.831555  0.168445  0.500000  1
