# generated using pymatgen
data_Rb8TbHo5BBr20
_symmetry_space_group_name_H-M   'P 1'
_cell_length_a   12.27591231
_cell_length_b   12.27713155
_cell_length_c   12.27713106
_cell_angle_alpha   59.99343380
_cell_angle_beta   60.00328641
_cell_angle_gamma   60.00328508
_symmetry_Int_Tables_number   1
_chemical_formula_structural   Rb8TbHo5BBr20
_chemical_formula_sum   'Rb8 Tb1 Ho5 B1 Br20'
_cell_volume   1308.37606205
_cell_formula_units_Z   1
loop_
 _symmetry_equiv_pos_site_id
 _symmetry_equiv_pos_as_xyz
  1  'x, y, z'
loop_
 _atom_site_type_symbol
 _atom_site_label
 _atom_site_symmetry_multiplicity
 _atom_site_fract_x
 _atom_site_fract_y
 _atom_site_fract_z
 _atom_site_occupancy
  Rb  Rb0  1  0.359694  0.359526  0.359526  1
  Rb  Rb1  1  0.640341  0.640473  0.640473  1
  Rb  Rb2  1  0.359527  0.359659  0.921287  1
  Rb  Rb3  1  0.359527  0.921287  0.359659  1
  Rb  Rb4  1  0.640474  0.640306  0.078745  1
  Rb  Rb5  1  0.640474  0.078745  0.640306  1
  Rb  Rb6  1  0.921255  0.359526  0.359526  1
  Rb  Rb7  1  0.078713  0.640473  0.640473  1
  Tb  Tb8  1  0.849216  0.150784  0.150784  1
  Ho  Ho9  1  0.150423  0.849577  0.849577  1
  Ho  Ho10  1  0.150525  0.849475  0.150233  1
  Ho  Ho11  1  0.849767  0.150233  0.849475  1
  Ho  Ho12  1  0.150525  0.150233  0.849475  1
  Ho  Ho13  1  0.849767  0.849475  0.150233  1
  B  B14  1  0.000606  0.999394  0.999394  1
  Br  Br15  1  0.328063  0.999979  0.999979  1
  Br  Br16  1  0.671979  0.999979  0.999979  1
  Br  Br17  1  0.000021  0.328021  0.671937  1
  Br  Br18  1  0.000021  0.671937  0.328021  1
  Br  Br19  1  0.001260  0.329252  0.998740  1
  Br  Br20  1  0.670748  0.998740  0.329252  1
  Br  Br21  1  0.000017  0.671834  0.999983  1
  Br  Br22  1  0.328166  0.999983  0.671834  1
  Br  Br23  1  0.001260  0.998740  0.329252  1
  Br  Br24  1  0.000017  0.999983  0.671834  1
  Br  Br25  1  0.670748  0.329252  0.998740  1
  Br  Br26  1  0.328166  0.671834  0.999983  1
  Br  Br27  1  0.681142  0.318858  0.318858  1
  Br  Br28  1  0.317335  0.682665  0.682665  1
  Br  Br29  1  0.317307  0.682693  0.317195  1
  Br  Br30  1  0.682805  0.317195  0.682693  1
  Br  Br31  1  0.317307  0.317195  0.682693  1
  Br  Br32  1  0.682805  0.682693  0.317195  1
  Br  Br33  1  0.250001  0.249999  0.249999  1
  Br  Br34  1  0.750001  0.749999  0.749999  1
