# generated using pymatgen
data_CaPr3(AlPt)4
_symmetry_space_group_name_H-M   'P 1'
_cell_length_a   4.52103300
_cell_length_b   7.14034309
_cell_length_c   7.84736716
_cell_angle_alpha   89.41939870
_cell_angle_beta   90.00000000
_cell_angle_gamma   90.00000000
_symmetry_Int_Tables_number   1
_chemical_formula_structural   CaPr3(AlPt)4
_chemical_formula_sum   'Ca1 Pr3 Al4 Pt4'
_cell_volume   253.31355580
_cell_formula_units_Z   1
loop_
 _symmetry_equiv_pos_site_id
 _symmetry_equiv_pos_as_xyz
  1  'x, y, z'
loop_
 _atom_site_type_symbol
 _atom_site_label
 _atom_site_symmetry_multiplicity
 _atom_site_fract_x
 _atom_site_fract_y
 _atom_site_fract_z
 _atom_site_occupancy
  Ca  Ca0  1  0.750000  0.474164  0.182771  1
  Pr  Pr1  1  0.250000  0.029114  0.680772  1
  Pr  Pr2  1  0.250000  0.527582  0.824910  1
  Pr  Pr3  1  0.750000  0.970289  0.317631  1
  Al  Al4  1  0.250000  0.148476  0.067000  1
  Al  Al5  1  0.250000  0.641435  0.430842  1
  Al  Al6  1  0.750000  0.852550  0.935907  1
  Al  Al7  1  0.750000  0.357116  0.561813  1
  Pt  Pt8  1  0.250000  0.283892  0.383356  1
  Pt  Pt9  1  0.250000  0.787282  0.113815  1
  Pt  Pt10  1  0.750000  0.714575  0.616512  1
  Pt  Pt11  1  0.750000  0.213525  0.884671  1
