# generated using pymatgen
data_La5Tb(OsI3)2
_symmetry_space_group_name_H-M   'P 1'
_cell_length_a   4.40217200
_cell_length_b   9.45804844
_cell_length_c   12.41565006
_cell_angle_alpha   86.41170193
_cell_angle_beta   90.00000000
_cell_angle_gamma   90.00000000
_symmetry_Int_Tables_number   1
_chemical_formula_structural   La5Tb(OsI3)2
_chemical_formula_sum   'La5 Tb1 Os2 I6'
_cell_volume   515.92402003
_cell_formula_units_Z   1
loop_
 _symmetry_equiv_pos_site_id
 _symmetry_equiv_pos_as_xyz
  1  'x, y, z'
loop_
 _atom_site_type_symbol
 _atom_site_label
 _atom_site_symmetry_multiplicity
 _atom_site_fract_x
 _atom_site_fract_y
 _atom_site_fract_z
 _atom_site_occupancy
  La  La0  1  0.750000  0.686416  0.119749  1
  La  La1  1  0.250000  0.886756  0.330683  1
  La  La2  1  0.250000  0.311629  0.884787  1
  La  La3  1  0.250000  0.899070  0.893946  1
  La  La4  1  0.750000  0.119030  0.668539  1
  Tb  Tb5  1  0.750000  0.090803  0.105229  1
  Os  Os6  1  0.250000  0.891071  0.123375  1
  Os  Os7  1  0.750000  0.109784  0.877356  1
  I  I8  1  0.250000  0.390848  0.139770  1
  I  I9  1  0.750000  0.139156  0.373535  1
  I  I10  1  0.750000  0.603751  0.862149  1
  I  I11  1  0.250000  0.369229  0.620428  1
  I  I12  1  0.750000  0.634779  0.381868  1
  I  I13  1  0.250000  0.867682  0.618585  1
