# generated using pymatgen
data_Zr2Sc3As2P
_symmetry_space_group_name_H-M   'P 1'
_cell_length_a   7.13511300
_cell_length_b   8.20999700
_cell_length_c   10.58805200
_cell_angle_alpha   90.00000000
_cell_angle_beta   90.00000000
_cell_angle_gamma   90.00000000
_symmetry_Int_Tables_number   1
_chemical_formula_structural   Zr2Sc3As2P
_chemical_formula_sum   'Zr8 Sc12 As8 P4'
_cell_volume   620.24021209
_cell_formula_units_Z   4
loop_
 _symmetry_equiv_pos_site_id
 _symmetry_equiv_pos_as_xyz
  1  'x, y, z'
loop_
 _atom_site_type_symbol
 _atom_site_label
 _atom_site_symmetry_multiplicity
 _atom_site_fract_x
 _atom_site_fract_y
 _atom_site_fract_z
 _atom_site_occupancy
  Zr  Zr0  1  0.815522  0.948331  0.062789  1
  Zr  Zr1  1  0.315522  0.051669  0.437211  1
  Zr  Zr2  1  0.184478  0.448331  0.937211  1
  Zr  Zr3  1  0.684478  0.551669  0.562789  1
  Zr  Zr4  1  0.184478  0.051669  0.937211  1
  Zr  Zr5  1  0.684478  0.948331  0.562789  1
  Zr  Zr6  1  0.815522  0.551669  0.062789  1
  Zr  Zr7  1  0.315522  0.448331  0.437211  1
  Sc  Sc8  1  0.160212  0.750000  0.218035  1
  Sc  Sc9  1  0.660212  0.250000  0.281965  1
  Sc  Sc10  1  0.839788  0.250000  0.781965  1
  Sc  Sc11  1  0.339788  0.750000  0.718035  1
  Sc  Sc12  1  0.466069  0.750000  0.002398  1
  Sc  Sc13  1  0.966069  0.250000  0.497602  1
  Sc  Sc14  1  0.533931  0.250000  0.997602  1
  Sc  Sc15  1  0.033931  0.750000  0.502398  1
  Sc  Sc16  1  0.640847  0.750000  0.295160  1
  Sc  Sc17  1  0.140847  0.250000  0.204840  1
  Sc  Sc18  1  0.359153  0.250000  0.704840  1
  Sc  Sc19  1  0.859153  0.750000  0.795160  1
  As  As20  1  0.930967  0.510686  0.327229  1
  As  As21  1  0.430967  0.489314  0.172771  1
  As  As22  1  0.069033  0.010686  0.672771  1
  As  As23  1  0.569033  0.989314  0.827229  1
  As  As24  1  0.069033  0.489314  0.672771  1
  As  As25  1  0.569033  0.510686  0.827229  1
  As  As26  1  0.930967  0.989314  0.327229  1
  As  As27  1  0.430967  0.010686  0.172771  1
  P  P28  1  0.409684  0.750000  0.480802  1
  P  P29  1  0.909684  0.250000  0.019198  1
  P  P30  1  0.590316  0.250000  0.519198  1
  P  P31  1  0.090316  0.750000  0.980802  1
