# generated using pymatgen
data_TbYPbC
_symmetry_space_group_name_H-M   'P 1'
_cell_length_a   3.64176500
_cell_length_b   3.64176475
_cell_length_c   16.23405300
_cell_angle_alpha   90.00000000
_cell_angle_beta   90.00000000
_cell_angle_gamma   119.99999322
_symmetry_Int_Tables_number   1
_chemical_formula_structural   TbYPbC
_chemical_formula_sum   'Tb2 Y2 Pb2 C2'
_cell_volume   186.45817363
_cell_formula_units_Z   2
loop_
 _symmetry_equiv_pos_site_id
 _symmetry_equiv_pos_as_xyz
  1  'x, y, z'
loop_
 _atom_site_type_symbol
 _atom_site_label
 _atom_site_symmetry_multiplicity
 _atom_site_fract_x
 _atom_site_fract_y
 _atom_site_fract_z
 _atom_site_occupancy
  Tb  Tb0  1  0.666667  0.333333  0.082895  1
  Tb  Tb1  1  0.333333  0.666667  0.917105  1
  Y  Y2  1  0.333333  0.666667  0.582390  1
  Y  Y3  1  0.666667  0.333333  0.417610  1
  Pb  Pb4  1  0.333333  0.666667  0.250771  1
  Pb  Pb5  1  0.666667  0.333333  0.749229  1
  C  C6  1  0.000000  0.000000  0.000000  1
  C  C7  1  0.000000  0.000000  0.500000  1
