# generated using pymatgen
data_Ho16Lu4Si15Hg
_symmetry_space_group_name_H-M   'P 1'
_cell_length_a   7.36988404
_cell_length_b   7.66303632
_cell_length_c   14.56092490
_cell_angle_alpha   89.92647601
_cell_angle_beta   89.20277927
_cell_angle_gamma   90.10319956
_symmetry_Int_Tables_number   1
_chemical_formula_structural   Ho16Lu4Si15Hg
_chemical_formula_sum   'Ho16 Lu4 Si15 Hg1'
_cell_volume   822.25662724
_cell_formula_units_Z   1
loop_
 _symmetry_equiv_pos_site_id
 _symmetry_equiv_pos_as_xyz
  1  'x, y, z'
loop_
 _atom_site_type_symbol
 _atom_site_label
 _atom_site_symmetry_multiplicity
 _atom_site_fract_x
 _atom_site_fract_y
 _atom_site_fract_z
 _atom_site_occupancy
  Ho  Ho0  1  0.979429  0.823451  0.101846  1
  Ho  Ho1  1  0.473488  0.683695  0.401317  1
  Ho  Ho2  1  0.515732  0.312052  0.898838  1
  Ho  Ho3  1  0.028557  0.181984  0.597783  1
  Ho  Ho4  1  0.024405  0.176182  0.900043  1
  Ho  Ho5  1  0.528261  0.316784  0.597872  1
  Ho  Ho6  1  0.478217  0.682726  0.101034  1
  Ho  Ho7  1  0.971934  0.816265  0.400800  1
  Ho  Ho8  1  0.671137  0.830382  0.873136  1
  Ho  Ho9  1  0.182036  0.679109  0.621678  1
  Ho  Ho10  1  0.823923  0.321054  0.127432  1
  Ho  Ho11  1  0.319512  0.177747  0.376957  1
  Ho  Ho12  1  0.324499  0.176749  0.124980  1
  Ho  Ho13  1  0.819715  0.322144  0.377120  1
  Ho  Ho14  1  0.180508  0.674239  0.876659  1
  Ho  Ho15  1  0.682087  0.823018  0.622073  1
  Lu  Lu16  1  0.650898  0.990566  0.250217  1
  Lu  Lu17  1  0.153622  0.511176  0.248893  1
  Lu  Lu18  1  0.847459  0.489792  0.747816  1
  Lu  Lu19  1  0.346777  0.011253  0.749049  1
  Si  Si20  1  0.771778  0.632580  0.252160  1
  Si  Si21  1  0.271815  0.869256  0.251830  1
  Si  Si22  1  0.730583  0.130307  0.747797  1
  Si  Si23  1  0.226830  0.369439  0.747338  1
  Si  Si24  1  0.021935  0.101829  0.252522  1
  Si  Si25  1  0.522802  0.397067  0.252386  1
  Si  Si26  1  0.477106  0.603016  0.747434  1
  Si  Si27  1  0.978215  0.893722  0.747589  1
  Si  Si28  1  0.354142  0.972040  0.540557  1
  Si  Si29  1  0.654848  0.030818  0.041281  1
  Si  Si30  1  0.148204  0.470358  0.459683  1
  Si  Si31  1  0.162221  0.470343  0.043743  1
  Si  Si32  1  0.646872  0.028055  0.458221  1
  Si  Si33  1  0.345290  0.967590  0.961719  1
  Si  Si34  1  0.853539  0.529826  0.539611  1
  Hg  Hg35  1  0.831627  0.533387  0.960589  1
