# generated using pymatgen
data_Ca12Si11Ag
_symmetry_space_group_name_H-M   'P 1'
_cell_length_a   3.95858200
_cell_length_b   5.85525867
_cell_length_c   25.32369297
_cell_angle_alpha   82.63540518
_cell_angle_beta   90.00000000
_cell_angle_gamma   90.00000000
_symmetry_Int_Tables_number   1
_chemical_formula_structural   Ca12Si11Ag
_chemical_formula_sum   'Ca12 Si11 Ag1'
_cell_volume   582.12362532
_cell_formula_units_Z   1
loop_
 _symmetry_equiv_pos_site_id
 _symmetry_equiv_pos_as_xyz
  1  'x, y, z'
loop_
 _atom_site_type_symbol
 _atom_site_label
 _atom_site_symmetry_multiplicity
 _atom_site_fract_x
 _atom_site_fract_y
 _atom_site_fract_z
 _atom_site_occupancy
  Ca  Ca0  1  0.750000  0.360765  0.059640  1
  Ca  Ca1  1  0.250000  0.663981  0.938941  1
  Ca  Ca2  1  0.750000  0.537232  0.226796  1
  Ca  Ca3  1  0.250000  0.462317  0.772996  1
  Ca  Ca4  1  0.750000  0.161089  0.394149  1
  Ca  Ca5  1  0.250000  0.831247  0.606703  1
  Ca  Ca6  1  0.750000  0.354730  0.560030  1
  Ca  Ca7  1  0.250000  0.638658  0.440612  1
  Ca  Ca8  1  0.750000  0.990112  0.726979  1
  Ca  Ca9  1  0.250000  0.992555  0.273394  1
  Ca  Ca10  1  0.750000  0.166978  0.892647  1
  Ca  Ca11  1  0.250000  0.847016  0.106238  1
  Si  Si12  1  0.750000  0.889471  0.009065  1
  Si  Si13  1  0.250000  0.135094  0.988124  1
  Si  Si14  1  0.750000  0.050128  0.180383  1
  Si  Si15  1  0.250000  0.937751  0.821935  1
  Si  Si16  1  0.750000  0.682586  0.347217  1
  Si  Si17  1  0.250000  0.305239  0.654594  1
  Si  Si18  1  0.750000  0.878145  0.512504  1
  Si  Si19  1  0.250000  0.115935  0.488780  1
  Si  Si20  1  0.750000  0.516479  0.678578  1
  Si  Si21  1  0.250000  0.472309  0.322007  1
  Si  Si22  1  0.750000  0.695089  0.843824  1
  Ag  Ag23  1  0.250000  0.315092  0.153860  1
