# generated using pymatgen
data_Ho4VFeOs6
_symmetry_space_group_name_H-M   'P 1'
_cell_length_a   5.21381125
_cell_length_b   5.21381076
_cell_length_c   8.82255300
_cell_angle_alpha   90.00000000
_cell_angle_beta   90.00000000
_cell_angle_gamma   117.61973851
_symmetry_Int_Tables_number   1
_chemical_formula_structural   Ho4VFeOs6
_chemical_formula_sum   'Ho4 V1 Fe1 Os6'
_cell_volume   212.50056786
_cell_formula_units_Z   1
loop_
 _symmetry_equiv_pos_site_id
 _symmetry_equiv_pos_as_xyz
  1  'x, y, z'
loop_
 _atom_site_type_symbol
 _atom_site_label
 _atom_site_symmetry_multiplicity
 _atom_site_fract_x
 _atom_site_fract_y
 _atom_site_fract_z
 _atom_site_occupancy
  Ho  Ho0  1  0.329420  0.670580  0.438341  1
  Ho  Ho1  1  0.668666  0.331334  0.566665  1
  Ho  Ho2  1  0.668666  0.331334  0.933335  1
  Ho  Ho3  1  0.329420  0.670580  0.061659  1
  V  V4  1  0.835524  0.164476  0.250000  1
  Fe  Fe5  1  0.165461  0.834539  0.750000  1
  Os  Os6  1  0.997785  0.002215  0.500740  1
  Os  Os7  1  0.997785  0.002215  0.999260  1
  Os  Os8  1  0.824841  0.651090  0.250000  1
  Os  Os9  1  0.348910  0.175159  0.250000  1
  Os  Os10  1  0.178296  0.344775  0.750000  1
  Os  Os11  1  0.655225  0.821704  0.750000  1
