# generated using pymatgen
data_Lu19HfN19
_symmetry_space_group_name_H-M   'P 1'
_cell_length_a   8.87500388
_cell_length_b   8.87660635
_cell_length_c   8.87654500
_cell_angle_alpha   106.56472871
_cell_angle_beta   106.59974153
_cell_angle_gamma   115.43258974
_symmetry_Int_Tables_number   1
_chemical_formula_structural   Lu19HfN19
_chemical_formula_sum   'Lu19 Hf1 N19'
_cell_volume   533.81411069
_cell_formula_units_Z   1
loop_
 _symmetry_equiv_pos_site_id
 _symmetry_equiv_pos_as_xyz
  1  'x, y, z'
loop_
 _atom_site_type_symbol
 _atom_site_label
 _atom_site_symmetry_multiplicity
 _atom_site_fract_x
 _atom_site_fract_y
 _atom_site_fract_z
 _atom_site_occupancy
  Lu  Lu0  1  0.396097  0.706629  0.102979  1
  Lu  Lu1  1  0.099991  0.798860  0.898859  1
  Lu  Lu2  1  0.757715  0.757616  0.999746  1
  Lu  Lu3  1  0.798801  0.900093  0.698829  1
  Lu  Lu4  1  0.449797  0.847619  0.799790  1
  Lu  Lu5  1  0.499965  0.999900  0.499730  1
  Lu  Lu6  1  0.152352  0.951899  0.601879  1
  Lu  Lu7  1  0.201482  0.100115  0.301148  1
  Lu  Lu8  1  0.847366  0.048225  0.397984  1
  Lu  Lu9  1  0.900415  0.201276  0.101202  1
  Lu  Lu10  1  0.550850  0.152753  0.200505  1
  Lu  Lu11  1  0.603687  0.292853  0.896510  1
  Lu  Lu12  1  0.242572  0.242218  0.999927  1
  Lu  Lu13  1  0.293236  0.396259  0.689369  1
  Lu  Lu14  1  0.952256  0.350102  0.799803  1
  Lu  Lu15  1  0.000015  0.499896  0.500146  1
  Lu  Lu16  1  0.650119  0.449462  0.601958  1
  Lu  Lu17  1  0.706823  0.603850  0.310902  1
  Lu  Lu18  1  0.349694  0.550413  0.397797  1
  Hf  Hf19  1  0.047645  0.650010  0.200901  1
  N  N20  1  0.898745  0.699218  0.598913  1
  N  N21  1  0.550366  0.650188  0.701721  1
  N  N22  1  0.600458  0.799372  0.399174  1
  N  N23  1  0.242649  0.746300  0.489122  1
  N  N24  1  0.292462  0.891196  0.199342  1
  N  N25  1  0.952098  0.841490  0.295021  1
  N  N26  1  0.000382  0.000966  0.000538  1
  N  N27  1  0.649507  0.948914  0.099660  1
  N  N28  1  0.698672  0.100688  0.800252  1
  N  N29  1  0.350209  0.051892  0.900982  1
  N  N30  1  0.051576  0.151271  0.701628  1
  N  N31  1  0.749641  0.249472  0.499052  1
  N  N32  1  0.400791  0.201168  0.601338  1
  N  N33  1  0.450199  0.349580  0.298716  1
  N  N34  1  0.100776  0.299544  0.401225  1
  N  N35  1  0.147180  0.456187  0.103159  1
  N  N36  1  0.200631  0.600495  0.800311  1
  N  N37  1  0.807350  0.408358  0.199471  1
  N  N38  1  0.855429  0.553654  0.910408  1
