# generated using pymatgen
data_Zr3Al2IrC
_symmetry_space_group_name_H-M   'P 1'
_cell_length_a   8.66877939
_cell_length_b   8.66877893
_cell_length_c   8.66877900
_cell_angle_alpha   59.99999591
_cell_angle_beta   59.99999769
_cell_angle_gamma   59.99999668
_symmetry_Int_Tables_number   1
_chemical_formula_structural   Zr3Al2IrC
_chemical_formula_sum   'Zr12 Al8 Ir4 C4'
_cell_volume   460.63695874
_cell_formula_units_Z   4
loop_
 _symmetry_equiv_pos_site_id
 _symmetry_equiv_pos_as_xyz
  1  'x, y, z'
loop_
 _atom_site_type_symbol
 _atom_site_label
 _atom_site_symmetry_multiplicity
 _atom_site_fract_x
 _atom_site_fract_y
 _atom_site_fract_z
 _atom_site_occupancy
  Zr  Zr0  1  0.945043  0.945043  0.554957  1
  Zr  Zr1  1  0.695043  0.304957  0.304957  1
  Zr  Zr2  1  0.304957  0.695043  0.695043  1
  Zr  Zr3  1  0.695043  0.695043  0.304957  1
  Zr  Zr4  1  0.695043  0.304957  0.695043  1
  Zr  Zr5  1  0.304957  0.695043  0.304957  1
  Zr  Zr6  1  0.554957  0.945043  0.554957  1
  Zr  Zr7  1  0.554957  0.945043  0.945043  1
  Zr  Zr8  1  0.945043  0.554957  0.554957  1
  Zr  Zr9  1  0.945043  0.554957  0.945043  1
  Zr  Zr10  1  0.304957  0.304957  0.695043  1
  Zr  Zr11  1  0.554957  0.554957  0.945043  1
  Al  Al12  1  0.919662  0.241015  0.919662  1
  Al  Al13  1  0.330338  0.330338  0.008985  1
  Al  Al14  1  0.008985  0.330338  0.330338  1
  Al  Al15  1  0.330338  0.330338  0.330338  1
  Al  Al16  1  0.241015  0.919662  0.919662  1
  Al  Al17  1  0.919662  0.919662  0.919662  1
  Al  Al18  1  0.919662  0.919662  0.241015  1
  Al  Al19  1  0.330338  0.008985  0.330338  1
  Ir  Ir20  1  0.125000  0.625000  0.125000  1
  Ir  Ir21  1  0.125000  0.125000  0.625000  1
  Ir  Ir22  1  0.625000  0.125000  0.125000  1
  Ir  Ir23  1  0.125000  0.125000  0.125000  1
  C  C24  1  0.625000  0.125000  0.625000  1
  C  C25  1  0.625000  0.625000  0.125000  1
  C  C26  1  0.125000  0.625000  0.625000  1
  C  C27  1  0.625000  0.625000  0.625000  1
