# generated using pymatgen
data_HoLu4Os2C7
_symmetry_space_group_name_H-M   'P 1'
_cell_length_a   8.03877428
_cell_length_b   8.03877505
_cell_length_c   3.44686200
_cell_angle_alpha   90.00000000
_cell_angle_beta   90.00000000
_cell_angle_gamma   121.22364639
_symmetry_Int_Tables_number   1
_chemical_formula_structural   HoLu4Os2C7
_chemical_formula_sum   'Ho1 Lu4 Os2 C7'
_cell_volume   190.47856313
_cell_formula_units_Z   1
loop_
 _symmetry_equiv_pos_site_id
 _symmetry_equiv_pos_as_xyz
  1  'x, y, z'
loop_
 _atom_site_type_symbol
 _atom_site_label
 _atom_site_symmetry_multiplicity
 _atom_site_fract_x
 _atom_site_fract_y
 _atom_site_fract_z
 _atom_site_occupancy
  Ho  Ho0  1  0.500000  0.500000  0.000000  1
  Lu  Lu1  1  0.340000  0.079200  0.500000  1
  Lu  Lu2  1  0.660000  0.920800  0.500000  1
  Lu  Lu3  1  0.079200  0.340000  0.500000  1
  Lu  Lu4  1  0.920800  0.660000  0.500000  1
  Os  Os5  1  0.284393  0.715607  0.000000  1
  Os  Os6  1  0.715607  0.284393  0.000000  1
  C  C7  1  0.172253  0.172253  0.000000  1
  C  C8  1  0.827747  0.827747  0.000000  1
  C  C9  1  0.000000  0.000000  0.000000  1
  C  C10  1  0.369300  0.630700  0.500000  1
  C  C11  1  0.630700  0.369300  0.500000  1
  C  C12  1  0.500000  0.000000  0.000000  1
  C  C13  1  0.000000  0.500000  0.000000  1
