# generated using pymatgen
data_Lu6MgCo17P12
_symmetry_space_group_name_H-M   'P 1'
_cell_length_a   3.67649400
_cell_length_b   10.50943700
_cell_length_c   12.13492500
_cell_angle_alpha   90.00000000
_cell_angle_beta   90.00000000
_cell_angle_gamma   90.00000000
_symmetry_Int_Tables_number   1
_chemical_formula_structural   Lu6MgCo17P12
_chemical_formula_sum   'Lu6 Mg1 Co17 P12'
_cell_volume   468.86780113
_cell_formula_units_Z   1
loop_
 _symmetry_equiv_pos_site_id
 _symmetry_equiv_pos_as_xyz
  1  'x, y, z'
loop_
 _atom_site_type_symbol
 _atom_site_label
 _atom_site_symmetry_multiplicity
 _atom_site_fract_x
 _atom_site_fract_y
 _atom_site_fract_z
 _atom_site_occupancy
  Lu  Lu0  1  0.000000  0.500000  0.525875  1
  Lu  Lu1  1  0.500000  0.000000  0.477443  1
  Lu  Lu2  1  0.500000  0.822536  0.207477  1
  Lu  Lu3  1  0.500000  0.177464  0.207477  1
  Lu  Lu4  1  0.000000  0.681560  0.794415  1
  Lu  Lu5  1  0.000000  0.318440  0.794415  1
  Mg  Mg6  1  0.500000  0.500000  0.153609  1
  Co  Co7  1  0.000000  0.000000  0.838131  1
  Co  Co8  1  0.500000  0.500000  0.703590  1
  Co  Co9  1  0.000000  0.000000  0.296624  1
  Co  Co10  1  0.000000  0.500000  0.985720  1
  Co  Co11  1  0.500000  0.000000  0.012522  1
  Co  Co12  1  0.500000  0.329517  0.992879  1
  Co  Co13  1  0.500000  0.670483  0.992879  1
  Co  Co14  1  0.000000  0.163451  0.002370  1
  Co  Co15  1  0.000000  0.836549  0.002370  1
  Co  Co16  1  0.500000  0.295981  0.432995  1
  Co  Co17  1  0.500000  0.704019  0.432995  1
  Co  Co18  1  0.000000  0.201941  0.569925  1
  Co  Co19  1  0.000000  0.798059  0.569925  1
  Co  Co20  1  0.500000  0.878823  0.708210  1
  Co  Co21  1  0.500000  0.121177  0.708210  1
  Co  Co22  1  0.000000  0.623943  0.293388  1
  Co  Co23  1  0.000000  0.376057  0.293388  1
  P  P24  1  0.500000  0.500000  0.882257  1
  P  P25  1  0.000000  0.000000  0.117262  1
  P  P26  1  0.500000  0.500000  0.355980  1
  P  P27  1  0.000000  0.000000  0.652960  1
  P  P28  1  0.500000  0.311669  0.617972  1
  P  P29  1  0.500000  0.688331  0.617972  1
  P  P30  1  0.000000  0.187301  0.384908  1
  P  P31  1  0.000000  0.812699  0.384908  1
  P  P32  1  0.500000  0.848369  0.888980  1
  P  P33  1  0.500000  0.151631  0.888980  1
  P  P34  1  0.000000  0.663824  0.105493  1
  P  P35  1  0.000000  0.336176  0.105493  1
