# generated using pymatgen
data_PrY7(Sc3Pt4)4
_symmetry_space_group_name_H-M   'P 1'
_cell_length_a   7.38385603
_cell_length_b   7.30810438
_cell_length_c   14.10924916
_cell_angle_alpha   90.07037131
_cell_angle_beta   90.21856894
_cell_angle_gamma   90.00686598
_symmetry_Int_Tables_number   1
_chemical_formula_structural   PrY7(Sc3Pt4)4
_chemical_formula_sum   'Pr1 Y7 Sc12 Pt16'
_cell_volume   761.35705029
_cell_formula_units_Z   1
loop_
 _symmetry_equiv_pos_site_id
 _symmetry_equiv_pos_as_xyz
  1  'x, y, z'
loop_
 _atom_site_type_symbol
 _atom_site_label
 _atom_site_symmetry_multiplicity
 _atom_site_fract_x
 _atom_site_fract_y
 _atom_site_fract_z
 _atom_site_occupancy
  Pr  Pr0  1  0.004202  0.826294  0.407120  1
  Y  Y1  1  0.501669  0.675467  0.092635  1
  Y  Y2  1  0.495941  0.324183  0.594791  1
  Y  Y3  1  0.998075  0.176191  0.906046  1
  Y  Y4  1  0.995901  0.177962  0.596479  1
  Y  Y5  1  0.498141  0.323010  0.905967  1
  Y  Y6  1  0.502464  0.674933  0.405462  1
  Y  Y7  1  0.001092  0.824637  0.093600  1
  Sc  Sc8  1  0.677912  0.001419  0.247753  1
  Sc  Sc9  1  0.179008  0.499373  0.247988  1
  Sc  Sc10  1  0.820903  0.501380  0.750757  1
  Sc  Sc11  1  0.320955  0.998747  0.751308  1
  Sc  Sc12  1  0.653350  0.834731  0.624530  1
  Sc  Sc13  1  0.155515  0.664181  0.876576  1
  Sc  Sc14  1  0.845044  0.335309  0.375447  1
  Sc  Sc15  1  0.343788  0.164445  0.122373  1
  Sc  Sc16  1  0.348658  0.166414  0.374782  1
  Sc  Sc17  1  0.843801  0.336780  0.123044  1
  Sc  Sc18  1  0.157439  0.662397  0.625848  1
  Sc  Sc19  1  0.656988  0.836577  0.876222  1
  Pt  Pt20  1  0.806495  0.641853  0.247019  1
  Pt  Pt21  1  0.312934  0.857072  0.247517  1
  Pt  Pt22  1  0.689866  0.143267  0.750501  1
  Pt  Pt23  1  0.190573  0.356475  0.751432  1
  Pt  Pt24  1  0.542437  0.373519  0.248877  1
  Pt  Pt25  1  0.044718  0.128816  0.247590  1
  Pt  Pt26  1  0.956773  0.874104  0.750084  1
  Pt  Pt27  1  0.457398  0.624946  0.751139  1
  Pt  Pt28  1  0.820964  0.539907  0.543579  1
  Pt  Pt29  1  0.322523  0.955897  0.957708  1
  Pt  Pt30  1  0.672928  0.047800  0.459611  1
  Pt  Pt31  1  0.178178  0.455906  0.041561  1
  Pt  Pt32  1  0.179065  0.450005  0.460448  1
  Pt  Pt33  1  0.678402  0.044167  0.041708  1
  Pt  Pt34  1  0.323460  0.958152  0.544684  1
  Pt  Pt35  1  0.822442  0.543683  0.957813  1
