# generated using pymatgen
data_Y4Ir3PdO14
_symmetry_space_group_name_H-M   'P 1'
_cell_length_a   7.28258558
_cell_length_b   7.25505020
_cell_length_c   7.28258600
_cell_angle_alpha   59.87436964
_cell_angle_beta   59.99999811
_cell_angle_gamma   59.87436500
_symmetry_Int_Tables_number   1
_chemical_formula_structural   Y4Ir3PdO14
_chemical_formula_sum   'Y4 Ir3 Pd1 O14'
_cell_volume   271.56220317
_cell_formula_units_Z   1
loop_
 _symmetry_equiv_pos_site_id
 _symmetry_equiv_pos_as_xyz
  1  'x, y, z'
loop_
 _atom_site_type_symbol
 _atom_site_label
 _atom_site_symmetry_multiplicity
 _atom_site_fract_x
 _atom_site_fract_y
 _atom_site_fract_z
 _atom_site_occupancy
  Y  Y0  1  0.625000  0.125000  0.125000  1
  Y  Y1  1  0.125000  0.625000  0.125000  1
  Y  Y2  1  0.125000  0.125000  0.625000  1
  Y  Y3  1  0.125000  0.125000  0.125000  1
  Ir  Ir4  1  0.125000  0.625000  0.625000  1
  Ir  Ir5  1  0.625000  0.625000  0.125000  1
  Ir  Ir6  1  0.625000  0.625000  0.625000  1
  Pd  Pd7  1  0.625000  0.125000  0.625000  1
  O  O8  1  0.715245  0.705930  0.289412  1
  O  O9  1  0.280165  0.288646  0.715595  1
  O  O10  1  0.715595  0.288646  0.715595  1
  O  O11  1  0.289412  0.705930  0.289412  1
  O  O12  1  0.289412  0.705930  0.715245  1
  O  O13  1  0.715595  0.288646  0.280165  1
  O  O14  1  0.534755  0.544070  0.960588  1
  O  O15  1  0.969835  0.961354  0.534405  1
  O  O16  1  0.534405  0.961354  0.534405  1
  O  O17  1  0.960588  0.544070  0.960588  1
  O  O18  1  0.960588  0.544070  0.534755  1
  O  O19  1  0.534405  0.961354  0.969835  1
  O  O20  1  0.249680  0.250959  0.249680  1
  O  O21  1  0.000320  0.999041  0.000320  1
