# generated using pymatgen
data_LaSm3(OsO5)2
_symmetry_space_group_name_H-M   'P 1'
_cell_length_a   6.93248070
_cell_length_b   6.93248210
_cell_length_c   6.91933670
_cell_angle_alpha   100.64194474
_cell_angle_beta   100.35743760
_cell_angle_gamma   129.51139896
_symmetry_Int_Tables_number   1
_chemical_formula_structural   LaSm3(OsO5)2
_chemical_formula_sum   'La1 Sm3 Os2 O10'
_cell_volume   231.95220464
_cell_formula_units_Z   1
loop_
 _symmetry_equiv_pos_site_id
 _symmetry_equiv_pos_as_xyz
  1  'x, y, z'
loop_
 _atom_site_type_symbol
 _atom_site_label
 _atom_site_symmetry_multiplicity
 _atom_site_fract_x
 _atom_site_fract_y
 _atom_site_fract_z
 _atom_site_occupancy
  La  La0  1  0.180079  0.604810  0.784889  1
  Sm  Sm1  1  0.818380  0.398444  0.216824  1
  Sm  Sm2  1  0.396012  0.179108  0.575121  1
  Sm  Sm3  1  0.602230  0.819692  0.421921  1
  Os  Os4  1  0.186275  0.185638  0.000667  1
  Os  Os5  1  0.815028  0.814392  0.000667  1
  O  O6  1  0.363880  0.077870  0.906104  1
  O  O7  1  0.064812  0.156179  0.710993  1
  O  O8  1  0.452369  0.357384  0.288699  1
  O  O9  1  0.162661  0.448315  0.099018  1
  O  O10  1  0.650703  0.936357  0.099018  1
  O  O11  1  0.931315  0.836331  0.288699  1
  O  O12  1  0.250057  0.751990  0.495141  1
  O  O13  1  0.743151  0.245084  0.495141  1
  O  O14  1  0.828234  0.542225  0.906104  1
  O  O15  1  0.554814  0.646180  0.710993  1
