# generated using pymatgen
data_Ba2MgIn3
_symmetry_space_group_name_H-M   'P 1'
_cell_length_a   6.75385495
_cell_length_b   6.75385468
_cell_length_c   8.63279334
_cell_angle_alpha   49.70172869
_cell_angle_beta   49.70172849
_cell_angle_gamma   46.24886313
_symmetry_Int_Tables_number   1
_chemical_formula_structural   Ba2MgIn3
_chemical_formula_sum   'Ba2 Mg1 In3'
_cell_volume   202.21996024
_cell_formula_units_Z   1
loop_
 _symmetry_equiv_pos_site_id
 _symmetry_equiv_pos_as_xyz
  1  'x, y, z'
loop_
 _atom_site_type_symbol
 _atom_site_label
 _atom_site_symmetry_multiplicity
 _atom_site_fract_x
 _atom_site_fract_y
 _atom_site_fract_z
 _atom_site_occupancy
  Ba  Ba0  1  0.044799  0.044799  0.705465  1
  Ba  Ba1  1  0.954100  0.954100  0.293372  1
  Mg  Mg2  1  0.333832  0.333832  0.733950  1
  In  In3  1  0.661524  0.661524  0.274427  1
  In  In4  1  0.664346  0.664346  0.897632  1
  In  In5  1  0.341400  0.341400  0.095154  1
