# generated using pymatgen
data_La2Tb3Y(IrO7)2
_symmetry_space_group_name_H-M   'P 1'
_cell_length_a   6.51389882
_cell_length_b   6.50587561
_cell_length_c   7.54025800
_cell_angle_alpha   90.00000000
_cell_angle_beta   90.00000000
_cell_angle_gamma   109.71195241
_symmetry_Int_Tables_number   1
_chemical_formula_structural   La2Tb3Y(IrO7)2
_chemical_formula_sum   'La2 Tb3 Y1 Ir2 O14'
_cell_volume   300.82038156
_cell_formula_units_Z   1
loop_
 _symmetry_equiv_pos_site_id
 _symmetry_equiv_pos_as_xyz
  1  'x, y, z'
loop_
 _atom_site_type_symbol
 _atom_site_label
 _atom_site_symmetry_multiplicity
 _atom_site_fract_x
 _atom_site_fract_y
 _atom_site_fract_z
 _atom_site_occupancy
  La  La0  1  0.000060  0.000017  0.499968  1
  La  La1  1  0.000060  0.000017  0.000032  1
  Tb  Tb2  1  0.516472  0.064614  0.250000  1
  Tb  Tb3  1  0.935508  0.483651  0.750000  1
  Tb  Tb4  1  0.483557  0.935335  0.750000  1
  Y  Y5  1  0.063253  0.516145  0.250000  1
  Ir  Ir6  1  0.500018  0.500041  0.499903  1
  Ir  Ir7  1  0.500018  0.500041  0.000097  1
  O  O8  1  0.442397  0.182582  0.534518  1
  O  O9  1  0.817455  0.557669  0.465520  1
  O  O10  1  0.442397  0.182582  0.965482  1
  O  O11  1  0.817455  0.557669  0.034480  1
  O  O12  1  0.557689  0.817462  0.465454  1
  O  O13  1  0.182700  0.442603  0.534129  1
  O  O14  1  0.557689  0.817462  0.034546  1
  O  O15  1  0.182700  0.442603  0.965871  1
  O  O16  1  0.160332  0.878887  0.250000  1
  O  O17  1  0.120120  0.839991  0.750000  1
  O  O18  1  0.839714  0.119807  0.750000  1
  O  O19  1  0.880450  0.160825  0.250000  1
  O  O20  1  0.409765  0.409807  0.250000  1
  O  O21  1  0.590192  0.590192  0.750000  1
