# generated using pymatgen
data_Sr2TbC2(O2F)3
_symmetry_space_group_name_H-M   'P 1'
_cell_length_a   9.47251000
_cell_length_b   6.77129200
_cell_length_c   11.33877300
_cell_angle_alpha   90.00000000
_cell_angle_beta   90.00000000
_cell_angle_gamma   90.00000000
_symmetry_Int_Tables_number   1
_chemical_formula_structural   Sr2TbC2(O2F)3
_chemical_formula_sum   'Sr8 Tb4 C8 O24 F12'
_cell_volume   727.28172645
_cell_formula_units_Z   4
loop_
 _symmetry_equiv_pos_site_id
 _symmetry_equiv_pos_as_xyz
  1  'x, y, z'
loop_
 _atom_site_type_symbol
 _atom_site_label
 _atom_site_symmetry_multiplicity
 _atom_site_fract_x
 _atom_site_fract_y
 _atom_site_fract_z
 _atom_site_occupancy
  Sr  Sr0  1  0.382166  0.238120  0.071119  1
  Sr  Sr1  1  0.117833  0.738121  0.071119  1
  Sr  Sr2  1  0.617833  0.238120  0.428881  1
  Sr  Sr3  1  0.882167  0.738121  0.428881  1
  Sr  Sr4  1  0.117833  0.261879  0.571119  1
  Sr  Sr5  1  0.382166  0.761879  0.571119  1
  Sr  Sr6  1  0.882167  0.261879  0.928880  1
  Sr  Sr7  1  0.617833  0.761879  0.928880  1
  Tb  Tb8  1  0.000000  0.273995  0.250000  1
  Tb  Tb9  1  0.500000  0.773994  0.250000  1
  Tb  Tb10  1  0.500000  0.226006  0.750000  1
  Tb  Tb11  1  0.000000  0.726006  0.750000  1
  C  C12  1  0.694364  0.475744  0.175344  1
  C  C13  1  0.805636  0.975744  0.175344  1
  C  C14  1  0.305637  0.475744  0.324655  1
  C  C15  1  0.194363  0.975744  0.324655  1
  C  C16  1  0.805636  0.024257  0.675344  1
  C  C17  1  0.694364  0.524256  0.675344  1
  C  C18  1  0.194363  0.024257  0.824655  1
  C  C19  1  0.305637  0.524256  0.824655  1
  O  O20  1  0.913956  0.017096  0.108830  1
  O  O21  1  0.586044  0.517095  0.108830  1
  O  O22  1  0.800209  0.379900  0.135086  1
  O  O23  1  0.699792  0.879899  0.135086  1
  O  O24  1  0.189777  0.037132  0.215070  1
  O  O25  1  0.310223  0.537132  0.215070  1
  O  O26  1  0.810222  0.037132  0.284930  1
  O  O27  1  0.689777  0.537132  0.284930  1
  O  O28  1  0.199792  0.379900  0.364913  1
  O  O29  1  0.300208  0.879899  0.364913  1
  O  O30  1  0.086044  0.017096  0.391170  1
  O  O31  1  0.413956  0.517095  0.391170  1
  O  O32  1  0.586044  0.482904  0.608830  1
  O  O33  1  0.913956  0.982905  0.608830  1
  O  O34  1  0.699792  0.120100  0.635086  1
  O  O35  1  0.800209  0.620101  0.635086  1
  O  O36  1  0.310223  0.462869  0.715070  1
  O  O37  1  0.189777  0.962868  0.715070  1
  O  O38  1  0.689777  0.462869  0.784930  1
  O  O39  1  0.810222  0.962868  0.784930  1
  O  O40  1  0.300208  0.120100  0.864913  1
  O  O41  1  0.199792  0.620101  0.864913  1
  O  O42  1  0.413956  0.482904  0.891171  1
  O  O43  1  0.086044  0.982905  0.891171  1
  F  F44  1  0.096571  0.356565  0.069817  1
  F  F45  1  0.403429  0.856564  0.069817  1
  F  F46  1  0.500000  0.117997  0.250000  1
  F  F47  1  0.000000  0.617997  0.250000  1
  F  F48  1  0.903428  0.356565  0.430183  1
  F  F49  1  0.596571  0.856564  0.430183  1
  F  F50  1  0.403429  0.143436  0.569817  1
  F  F51  1  0.096571  0.643436  0.569817  1
  F  F52  1  0.000000  0.382004  0.750000  1
  F  F53  1  0.500000  0.882003  0.750000  1
  F  F54  1  0.596571  0.143436  0.930182  1
  F  F55  1  0.903428  0.643436  0.930182  1
