# generated using pymatgen
data_LuThB6Mo
_symmetry_space_group_name_H-M   'P 1'
_cell_length_a   3.76637200
_cell_length_b   9.22939900
_cell_length_c   11.67584700
_cell_angle_alpha   90.00000000
_cell_angle_beta   90.00000000
_cell_angle_gamma   90.00000000
_symmetry_Int_Tables_number   1
_chemical_formula_structural   LuThB6Mo
_chemical_formula_sum   'Lu4 Th4 B24 Mo4'
_cell_volume   405.86820377
_cell_formula_units_Z   4
loop_
 _symmetry_equiv_pos_site_id
 _symmetry_equiv_pos_as_xyz
  1  'x, y, z'
loop_
 _atom_site_type_symbol
 _atom_site_label
 _atom_site_symmetry_multiplicity
 _atom_site_fract_x
 _atom_site_fract_y
 _atom_site_fract_z
 _atom_site_occupancy
  Lu  Lu0  1  0.000000  0.943659  0.370248  1
  Lu  Lu1  1  0.000000  0.056341  0.629752  1
  Lu  Lu2  1  0.000000  0.443659  0.129752  1
  Lu  Lu3  1  0.000000  0.556341  0.870248  1
  Th  Th4  1  0.000000  0.321735  0.414636  1
  Th  Th5  1  0.000000  0.678265  0.585364  1
  Th  Th6  1  0.000000  0.821735  0.085364  1
  Th  Th7  1  0.000000  0.178265  0.914636  1
  B  B8  1  0.500000  0.555084  0.430750  1
  B  B9  1  0.500000  0.444916  0.569250  1
  B  B10  1  0.500000  0.055084  0.069250  1
  B  B11  1  0.500000  0.944916  0.930750  1
  B  B12  1  0.500000  0.752739  0.416307  1
  B  B13  1  0.500000  0.247261  0.583693  1
  B  B14  1  0.500000  0.252739  0.083693  1
  B  B15  1  0.500000  0.747261  0.916307  1
  B  B16  1  0.500000  0.793673  0.265558  1
  B  B17  1  0.500000  0.206327  0.734442  1
  B  B18  1  0.500000  0.293673  0.234442  1
  B  B19  1  0.500000  0.706327  0.765558  1
  B  B20  1  0.500000  0.629013  0.184546  1
  B  B21  1  0.500000  0.370987  0.815454  1
  B  B22  1  0.500000  0.129013  0.315454  1
  B  B23  1  0.500000  0.870987  0.684546  1
  B  B24  1  0.500000  0.982598  0.214459  1
  B  B25  1  0.500000  0.017402  0.785541  1
  B  B26  1  0.500000  0.482598  0.285541  1
  B  B27  1  0.500000  0.517402  0.714459  1
  B  B28  1  0.500000  0.596348  0.026669  1
  B  B29  1  0.500000  0.403652  0.973331  1
  B  B30  1  0.500000  0.096348  0.473331  1
  B  B31  1  0.500000  0.903652  0.526669  1
  Mo  Mo32  1  0.000000  0.640034  0.319149  1
  Mo  Mo33  1  0.000000  0.359966  0.680851  1
  Mo  Mo34  1  0.000000  0.140034  0.180851  1
  Mo  Mo35  1  0.000000  0.859966  0.819149  1
