# generated using pymatgen
data_Ca3Ce(Ru2O7)2
_symmetry_space_group_name_H-M   'P 1'
_cell_length_a   7.29542665
_cell_length_b   7.28085931
_cell_length_c   7.29542700
_cell_angle_alpha   59.93379583
_cell_angle_beta   60.00000296
_cell_angle_gamma   59.93379747
_symmetry_Int_Tables_number   1
_chemical_formula_structural   Ca3Ce(Ru2O7)2
_chemical_formula_sum   'Ca3 Ce1 Ru4 O14'
_cell_volume   273.73715819
_cell_formula_units_Z   1
loop_
 _symmetry_equiv_pos_site_id
 _symmetry_equiv_pos_as_xyz
  1  'x, y, z'
loop_
 _atom_site_type_symbol
 _atom_site_label
 _atom_site_symmetry_multiplicity
 _atom_site_fract_x
 _atom_site_fract_y
 _atom_site_fract_z
 _atom_site_occupancy
  Ca  Ca0  1  0.625000  0.625000  0.125000  1
  Ca  Ca1  1  0.125000  0.625000  0.625000  1
  Ca  Ca2  1  0.625000  0.625000  0.625000  1
  Ce  Ce3  1  0.625000  0.125000  0.625000  1
  Ru  Ru4  1  0.625000  0.125000  0.125000  1
  Ru  Ru5  1  0.125000  0.625000  0.125000  1
  Ru  Ru6  1  0.125000  0.125000  0.625000  1
  Ru  Ru7  1  0.125000  0.125000  0.125000  1
  O  O8  1  0.203900  0.201390  0.797355  1
  O  O9  1  0.196836  0.804663  0.196836  1
  O  O10  1  0.452645  0.048610  0.046100  1
  O  O11  1  0.196836  0.804663  0.801665  1
  O  O12  1  0.053164  0.445337  0.448335  1
  O  O13  1  0.801665  0.804663  0.196836  1
  O  O14  1  0.448335  0.445337  0.053164  1
  O  O15  1  0.506848  0.479455  0.506848  1
  O  O16  1  0.046100  0.048610  0.452645  1
  O  O17  1  0.452645  0.048610  0.452645  1
  O  O18  1  0.053164  0.445337  0.053164  1
  O  O19  1  0.743152  0.770545  0.743152  1
  O  O20  1  0.797355  0.201390  0.797355  1
  O  O21  1  0.797355  0.201390  0.203900  1
