# generated using pymatgen
data_Ce2GaRhF14
_symmetry_space_group_name_H-M   'P 1'
_cell_length_a   5.69391982
_cell_length_b   5.93087001
_cell_length_c   8.12540784
_cell_angle_alpha   78.93744755
_cell_angle_beta   89.88133665
_cell_angle_gamma   90.03515483
_symmetry_Int_Tables_number   1
_chemical_formula_structural   Ce2GaRhF14
_chemical_formula_sum   'Ce2 Ga1 Rh1 F14'
_cell_volume   269.29476085
_cell_formula_units_Z   1
loop_
 _symmetry_equiv_pos_site_id
 _symmetry_equiv_pos_as_xyz
  1  'x, y, z'
loop_
 _atom_site_type_symbol
 _atom_site_label
 _atom_site_symmetry_multiplicity
 _atom_site_fract_x
 _atom_site_fract_y
 _atom_site_fract_z
 _atom_site_occupancy
  Ce  Ce0  1  0.245355  0.833185  0.199523  1
  Ce  Ce1  1  0.745642  0.167785  0.806630  1
  Ga  Ga2  1  0.751907  0.308887  0.274932  1
  Rh  Rh3  1  0.253928  0.691403  0.728770  1
  F  F4  1  0.467729  0.431213  0.729941  1
  F  F5  1  0.040481  0.957939  0.708883  1
  F  F6  1  0.991216  0.470595  0.738093  1
  F  F7  1  0.027264  0.111336  0.283896  1
  F  F8  1  0.968206  0.562804  0.268560  1
  F  F9  1  0.416932  0.053067  0.977954  1
  F  F10  1  0.920269  0.941608  0.019052  1
  F  F11  1  0.248824  0.737299  0.481879  1
  F  F12  1  0.533622  0.891928  0.711279  1
  F  F13  1  0.541212  0.053415  0.287065  1
  F  F14  1  0.501853  0.535123  0.260546  1
  F  F15  1  0.748238  0.263379  0.513407  1
  F  F16  1  0.756858  0.358470  0.034216  1
  F  F17  1  0.260069  0.630563  0.975374  1
