# generated using pymatgen
data_Nb12Al8ZnRe3C4
_symmetry_space_group_name_H-M   'P 1'
_cell_length_a   8.35848340
_cell_length_b   8.39397041
_cell_length_c   8.39396900
_cell_angle_alpha   60.00000161
_cell_angle_beta   59.85945773
_cell_angle_gamma   59.85945616
_symmetry_Int_Tables_number   1
_chemical_formula_structural   Nb12Al8ZnRe3C4
_chemical_formula_sum   'Nb12 Al8 Zn1 Re3 C4'
_cell_volume   415.54823089
_cell_formula_units_Z   1
loop_
 _symmetry_equiv_pos_site_id
 _symmetry_equiv_pos_as_xyz
  1  'x, y, z'
loop_
 _atom_site_type_symbol
 _atom_site_label
 _atom_site_symmetry_multiplicity
 _atom_site_fract_x
 _atom_site_fract_y
 _atom_site_fract_z
 _atom_site_occupancy
  Nb  Nb0  1  0.552617  0.940098  0.567186  1
  Nb  Nb1  1  0.305473  0.694503  0.694503  1
  Nb  Nb2  1  0.697383  0.309902  0.309902  1
  Nb  Nb3  1  0.305473  0.694503  0.305521  1
  Nb  Nb4  1  0.697383  0.682814  0.309902  1
  Nb  Nb5  1  0.305473  0.305521  0.694503  1
  Nb  Nb6  1  0.552617  0.567186  0.940098  1
  Nb  Nb7  1  0.944527  0.555497  0.555497  1
  Nb  Nb8  1  0.552617  0.940098  0.940098  1
  Nb  Nb9  1  0.944527  0.944479  0.555497  1
  Nb  Nb10  1  0.697383  0.309902  0.682814  1
  Nb  Nb11  1  0.944527  0.555497  0.944479  1
  Al  Al12  1  0.914689  0.914314  0.914314  1
  Al  Al13  1  0.002153  0.332616  0.332616  1
  Al  Al14  1  0.335311  0.993316  0.335686  1
  Al  Al15  1  0.335311  0.335686  0.993316  1
  Al  Al16  1  0.914689  0.256684  0.914314  1
  Al  Al17  1  0.914689  0.914314  0.256684  1
  Al  Al18  1  0.247847  0.917384  0.917384  1
  Al  Al19  1  0.335311  0.335686  0.335686  1
  Zn  Zn20  1  0.625000  0.125000  0.125000  1
  Re  Re21  1  0.125000  0.125000  0.125000  1
  Re  Re22  1  0.125000  0.625000  0.125000  1
  Re  Re23  1  0.125000  0.125000  0.625000  1
  C  C24  1  0.625000  0.625000  0.625000  1
  C  C25  1  0.125000  0.625000  0.625000  1
  C  C26  1  0.625000  0.125000  0.625000  1
  C  C27  1  0.625000  0.625000  0.125000  1
