# generated using pymatgen
data_HoTm15In4(IrRu)2
_symmetry_space_group_name_H-M   'P 1'
_cell_length_a   9.55285203
_cell_length_b   9.56418134
_cell_length_c   9.56879659
_cell_angle_alpha   59.83573998
_cell_angle_beta   59.76104274
_cell_angle_gamma   59.78335451
_symmetry_Int_Tables_number   1
_chemical_formula_structural   HoTm15In4(IrRu)2
_chemical_formula_sum   'Ho1 Tm15 In4 Ir2 Ru2'
_cell_volume   615.29142592
_cell_formula_units_Z   1
loop_
 _symmetry_equiv_pos_site_id
 _symmetry_equiv_pos_as_xyz
  1  'x, y, z'
loop_
 _atom_site_type_symbol
 _atom_site_label
 _atom_site_symmetry_multiplicity
 _atom_site_fract_x
 _atom_site_fract_y
 _atom_site_fract_z
 _atom_site_occupancy
  Ho  Ho0  1  0.438477  0.060780  0.441812  1
  Tm  Tm1  1  0.439320  0.442987  0.059416  1
  Tm  Tm2  1  0.651784  0.651818  0.042822  1
  Tm  Tm3  1  0.194481  0.808980  0.191242  1
  Tm  Tm4  1  0.058197  0.442430  0.059063  1
  Tm  Tm5  1  0.192291  0.808644  0.809097  1
  Tm  Tm6  1  0.059123  0.441337  0.440952  1
  Tm  Tm7  1  0.808325  0.193189  0.193007  1
  Tm  Tm8  1  0.649392  0.651765  0.651708  1
  Tm  Tm9  1  0.807849  0.191471  0.807742  1
  Tm  Tm10  1  0.194117  0.191286  0.809501  1
  Tm  Tm11  1  0.045538  0.651760  0.652048  1
  Tm  Tm12  1  0.442550  0.057583  0.057061  1
  Tm  Tm13  1  0.057464  0.058897  0.442600  1
  Tm  Tm14  1  0.651611  0.042717  0.651926  1
  Tm  Tm15  1  0.808164  0.807642  0.191320  1
  In  In16  1  0.418920  0.416755  0.416559  1
  In  In17  1  0.416029  0.415896  0.751184  1
  In  In18  1  0.416104  0.750105  0.416220  1
  In  In19  1  0.748213  0.417030  0.417117  1
  Ir  Ir20  1  0.859622  0.420624  0.857827  1
  Ir  Ir21  1  0.860375  0.857688  0.420345  1
  Ru  Ru22  1  0.419816  0.858376  0.859127  1
  Ru  Ru23  1  0.862239  0.860244  0.860306  1
