# generated using pymatgen
data_Tb16Hf4Ir11Rh
_symmetry_space_group_name_H-M   'P 1'
_cell_length_a   10.88678700
_cell_length_b   10.88678700
_cell_length_c   6.27713300
_cell_angle_alpha   90.00000000
_cell_angle_beta   90.00000000
_cell_angle_gamma   90.00000000
_symmetry_Int_Tables_number   1
_chemical_formula_structural   Tb16Hf4Ir11Rh
_chemical_formula_sum   'Tb16 Hf4 Ir11 Rh1'
_cell_volume   743.97918088
_cell_formula_units_Z   1
loop_
 _symmetry_equiv_pos_site_id
 _symmetry_equiv_pos_as_xyz
  1  'x, y, z'
loop_
 _atom_site_type_symbol
 _atom_site_label
 _atom_site_symmetry_multiplicity
 _atom_site_fract_x
 _atom_site_fract_y
 _atom_site_fract_z
 _atom_site_occupancy
  Tb  Tb0  1  0.288609  0.085651  0.376705  1
  Tb  Tb1  1  0.288288  0.914197  0.874684  1
  Tb  Tb2  1  0.711712  0.085803  0.874684  1
  Tb  Tb3  1  0.711391  0.914349  0.376705  1
  Tb  Tb4  1  0.585803  0.788288  0.874684  1
  Tb  Tb5  1  0.585651  0.211391  0.376705  1
  Tb  Tb6  1  0.414349  0.788609  0.376705  1
  Tb  Tb7  1  0.414197  0.211712  0.874684  1
  Tb  Tb8  1  0.211100  0.414305  0.624472  1
  Tb  Tb9  1  0.211050  0.585951  0.124459  1
  Tb  Tb10  1  0.788950  0.414049  0.124459  1
  Tb  Tb11  1  0.788900  0.585695  0.624472  1
  Tb  Tb12  1  0.914049  0.711050  0.124459  1
  Tb  Tb13  1  0.914305  0.288900  0.624472  1
  Tb  Tb14  1  0.085695  0.711100  0.624472  1
  Tb  Tb15  1  0.085951  0.288950  0.124459  1
  Hf  Hf16  1  0.000000  0.000000  0.499976  1
  Hf  Hf17  1  0.000000  0.000000  0.000061  1
  Hf  Hf18  1  0.500000  0.500000  0.000061  1
  Hf  Hf19  1  0.500000  0.500000  0.499976  1
  Ir  Ir20  1  0.857428  0.141819  0.249718  1
  Ir  Ir21  1  0.857640  0.858094  0.749915  1
  Ir  Ir22  1  0.142360  0.141906  0.749915  1
  Ir  Ir23  1  0.142572  0.858181  0.249718  1
  Ir  Ir24  1  0.641906  0.357640  0.749915  1
  Ir  Ir25  1  0.641819  0.642572  0.249718  1
  Ir  Ir26  1  0.358181  0.357428  0.249718  1
  Ir  Ir27  1  0.358094  0.642360  0.749915  1
  Ir  Ir28  1  0.500000  0.000000  0.621899  1
  Ir  Ir29  1  0.000000  0.500000  0.878993  1
  Ir  Ir30  1  0.000000  0.500000  0.378939  1
  Rh  Rh31  1  0.500000  0.000000  0.120284  1
