# generated using pymatgen
data_Dy16MgAg3Ir3Rh
_symmetry_space_group_name_H-M   'P 1'
_cell_length_a   9.52414912
_cell_length_b   9.55417313
_cell_length_c   9.55417390
_cell_angle_alpha   60.56901152
_cell_angle_beta   60.54734785
_cell_angle_gamma   60.54735148
_symmetry_Int_Tables_number   1
_chemical_formula_structural   Dy16MgAg3Ir3Rh
_chemical_formula_sum   'Dy16 Mg1 Ag3 Ir3 Rh1'
_cell_volume   622.45041600
_cell_formula_units_Z   1
loop_
 _symmetry_equiv_pos_site_id
 _symmetry_equiv_pos_as_xyz
  1  'x, y, z'
loop_
 _atom_site_type_symbol
 _atom_site_label
 _atom_site_symmetry_multiplicity
 _atom_site_fract_x
 _atom_site_fract_y
 _atom_site_fract_z
 _atom_site_occupancy
  Dy  Dy0  1  0.350067  0.348212  0.348212  1
  Dy  Dy1  1  0.349794  0.349033  0.953118  1
  Dy  Dy2  1  0.349794  0.953118  0.349033  1
  Dy  Dy3  1  0.939960  0.353978  0.353978  1
  Dy  Dy4  1  0.809666  0.189018  0.189018  1
  Dy  Dy5  1  0.185801  0.812736  0.812736  1
  Dy  Dy6  1  0.186451  0.812314  0.187267  1
  Dy  Dy7  1  0.808687  0.189787  0.809975  1
  Dy  Dy8  1  0.186451  0.187267  0.812314  1
  Dy  Dy9  1  0.808687  0.809975  0.189787  1
  Dy  Dy10  1  0.934507  0.563087  0.563087  1
  Dy  Dy11  1  0.565697  0.936109  0.936109  1
  Dy  Dy12  1  0.562501  0.936959  0.563204  1
  Dy  Dy13  1  0.934739  0.564826  0.937554  1
  Dy  Dy14  1  0.562501  0.563204  0.936959  1
  Dy  Dy15  1  0.934739  0.937554  0.564826  1
  Mg  Mg16  1  0.287765  0.571057  0.571057  1
  Ag  Ag17  1  0.582521  0.584356  0.584356  1
  Ag  Ag18  1  0.582641  0.585280  0.249419  1
  Ag  Ag19  1  0.582641  0.249419  0.585280  1
  Ir  Ir20  1  0.140411  0.144228  0.573021  1
  Ir  Ir21  1  0.140411  0.573021  0.144228  1
  Ir  Ir22  1  0.574093  0.142347  0.142347  1
  Rh  Rh23  1  0.139475  0.143114  0.143114  1
