# generated using pymatgen
data_Pr2Nd6Sc11Si16Tc
_symmetry_space_group_name_H-M   'P 1'
_cell_length_a   7.16204782
_cell_length_b   7.50865250
_cell_length_c   14.09303714
_cell_angle_alpha   89.99518274
_cell_angle_beta   90.01512872
_cell_angle_gamma   90.05986027
_symmetry_Int_Tables_number   1
_chemical_formula_structural   Pr2Nd6Sc11Si16Tc
_chemical_formula_sum   'Pr2 Nd6 Sc11 Si16 Tc1'
_cell_volume   757.88544186
_cell_formula_units_Z   1
loop_
 _symmetry_equiv_pos_site_id
 _symmetry_equiv_pos_as_xyz
  1  'x, y, z'
loop_
 _atom_site_type_symbol
 _atom_site_label
 _atom_site_symmetry_multiplicity
 _atom_site_fract_x
 _atom_site_fract_y
 _atom_site_fract_z
 _atom_site_occupancy
  Pr  Pr0  1  0.512728  0.326859  0.094832  1
  Pr  Pr1  1  0.011855  0.172820  0.095978  1
  Nd  Nd2  1  0.012152  0.173365  0.403745  1
  Nd  Nd3  1  0.512840  0.326175  0.404930  1
  Nd  Nd4  1  0.492751  0.677835  0.898664  1
  Nd  Nd5  1  0.492584  0.677932  0.601098  1
  Nd  Nd6  1  0.984928  0.829797  0.601212  1
  Nd  Nd7  1  0.985020  0.829822  0.898503  1
  Sc  Sc8  1  0.328321  0.170175  0.627575  1
  Sc  Sc9  1  0.672979  0.825240  0.377121  1
  Sc  Sc10  1  0.172729  0.675773  0.375591  1
  Sc  Sc11  1  0.825843  0.321071  0.873128  1
  Sc  Sc12  1  0.825772  0.320961  0.626756  1
  Sc  Sc13  1  0.842113  0.500507  0.250244  1
  Sc  Sc14  1  0.342364  0.999726  0.250200  1
  Sc  Sc15  1  0.328352  0.170012  0.872308  1
  Sc  Sc16  1  0.172787  0.675749  0.124594  1
  Sc  Sc17  1  0.672929  0.825261  0.123151  1
  Sc  Sc18  1  0.158631  0.497181  0.750005  1
  Si  Si19  1  0.296496  0.882606  0.749946  1
  Si  Si20  1  0.470273  0.624094  0.250291  1
  Si  Si21  1  0.022404  0.117260  0.749950  1
  Si  Si22  1  0.531857  0.367916  0.749953  1
  Si  Si23  1  0.152584  0.465240  0.540662  1
  Si  Si24  1  0.968155  0.874977  0.250289  1
  Si  Si25  1  0.711888  0.118207  0.250662  1
  Si  Si26  1  0.851214  0.537881  0.036961  1
  Si  Si27  1  0.348777  0.962167  0.037029  1
  Si  Si28  1  0.152485  0.465956  0.959026  1
  Si  Si29  1  0.649765  0.036333  0.548667  1
  Si  Si30  1  0.348104  0.963297  0.462664  1
  Si  Si31  1  0.850646  0.536735  0.462700  1
  Si  Si32  1  0.790277  0.613443  0.749953  1
  Si  Si33  1  0.213686  0.381555  0.250637  1
  Si  Si34  1  0.649700  0.035756  0.951041  1
  Tc  Tc35  1  0.644012  0.020318  0.749933  1
