# generated using pymatgen
data_Tb6Al24Os2Ru5Pt
_symmetry_space_group_name_H-M   'P 1'
_cell_length_a   8.81572117
_cell_length_b   8.82930154
_cell_length_c   9.58605931
_cell_angle_alpha   89.95685981
_cell_angle_beta   89.93452191
_cell_angle_gamma   120.01324949
_symmetry_Int_Tables_number   1
_chemical_formula_structural   Tb6Al24Os2Ru5Pt
_chemical_formula_sum   'Tb6 Al24 Os2 Ru5 Pt1'
_cell_volume   646.09465512
_cell_formula_units_Z   1
loop_
 _symmetry_equiv_pos_site_id
 _symmetry_equiv_pos_as_xyz
  1  'x, y, z'
loop_
 _atom_site_type_symbol
 _atom_site_label
 _atom_site_symmetry_multiplicity
 _atom_site_fract_x
 _atom_site_fract_y
 _atom_site_fract_z
 _atom_site_occupancy
  Tb  Tb0  1  0.196015  0.386421  0.251400  1
  Tb  Tb1  1  0.803985  0.613579  0.748600  1
  Tb  Tb2  1  0.612266  0.804071  0.252044  1
  Tb  Tb3  1  0.387734  0.195929  0.747956  1
  Tb  Tb4  1  0.193473  0.808377  0.250479  1
  Tb  Tb5  1  0.806527  0.191623  0.749521  1
  Al  Al6  1  0.338345  0.670198  0.018038  1
  Al  Al7  1  0.661655  0.329802  0.981962  1
  Al  Al8  1  0.667183  0.332516  0.517706  1
  Al  Al9  1  0.332817  0.667484  0.482294  1
  Al  Al10  1  0.162897  0.326268  0.576298  1
  Al  Al11  1  0.837103  0.673732  0.423702  1
  Al  Al12  1  0.673226  0.836445  0.576715  1
  Al  Al13  1  0.832933  0.675492  0.077985  1
  Al  Al14  1  0.326774  0.163555  0.423285  1
  Al  Al15  1  0.167067  0.324508  0.922015  1
  Al  Al16  1  0.162409  0.837094  0.576464  1
  Al  Al17  1  0.325658  0.163302  0.077873  1
  Al  Al18  1  0.837591  0.162906  0.423536  1
  Al  Al19  1  0.674342  0.836698  0.922127  1
  Al  Al20  1  0.833248  0.157270  0.077785  1
  Al  Al21  1  0.166752  0.842730  0.922215  1
  Al  Al22  1  0.561458  0.122470  0.249847  1
  Al  Al23  1  0.438542  0.877530  0.750153  1
  Al  Al24  1  0.875759  0.437719  0.253155  1
  Al  Al25  1  0.124241  0.562281  0.746845  1
  Al  Al26  1  0.562598  0.437545  0.249785  1
  Al  Al27  1  0.437402  0.562455  0.750215  1
  Al  Al28  1  0.000831  0.001164  0.250143  1
  Al  Al29  1  0.999169  0.998836  0.749857  1
  Os  Os30  1  0.500000  0.500000  0.000000  1
  Os  Os31  1  0.500000  0.500000  0.500000  1
  Ru  Ru32  1  0.500000  0.000000  0.000000  1
  Ru  Ru33  1  0.500000  0.000000  0.500000  1
  Ru  Ru34  1  0.000000  0.500000  0.500000  1
  Ru  Ru35  1  0.000000  0.000000  0.000000  1
  Ru  Ru36  1  0.000000  0.000000  0.500000  1
  Pt  Pt37  1  0.000000  0.500000  0.000000  1
