# generated using pymatgen
data_Bi2P4S13
_symmetry_space_group_name_H-M   'P 1'
_cell_length_a   10.17766745
_cell_length_b   10.48159264
_cell_length_c   13.04736590
_cell_angle_alpha   69.44190111
_cell_angle_beta   69.29698308
_cell_angle_gamma   67.76673115
_symmetry_Int_Tables_number   1
_chemical_formula_structural   Bi2P4S13
_chemical_formula_sum   'Bi4 P8 S26'
_cell_volume   1166.58633848
_cell_formula_units_Z   2
loop_
 _symmetry_equiv_pos_site_id
 _symmetry_equiv_pos_as_xyz
  1  'x, y, z'
loop_
 _atom_site_type_symbol
 _atom_site_label
 _atom_site_symmetry_multiplicity
 _atom_site_fract_x
 _atom_site_fract_y
 _atom_site_fract_z
 _atom_site_occupancy
  Bi  Bi0  1  0.603132  0.013236  0.612491  1
  Bi  Bi1  1  0.105712  0.510551  0.111746  1
  Bi  Bi2  1  0.396868  0.986764  0.387509  1
  Bi  Bi3  1  0.894288  0.489449  0.888254  1
  P  P4  1  0.247337  0.573033  0.276347  1
  P  P5  1  0.495727  0.268831  0.383665  1
  P  P6  1  0.752663  0.426967  0.723653  1
  P  P7  1  0.222873  0.931083  0.243739  1
  P  P8  1  0.139888  0.221291  0.025730  1
  P  P9  1  0.860112  0.778709  0.974270  1
  P  P10  1  0.504273  0.731169  0.616335  1
  P  P11  1  0.777127  0.068917  0.756261  1
  S  S12  1  0.150908  0.000597  0.093358  1
  S  S13  1  0.849092  0.999403  0.906642  1
  S  S14  1  0.876609  0.237831  0.664997  1
  S  S15  1  0.939199  0.337991  0.110111  1
  S  S16  1  0.521565  0.211395  0.244707  1
  S  S17  1  0.319043  0.768369  0.571656  1
  S  S18  1  0.442583  0.866996  0.211562  1
  S  S19  1  0.880670  0.932600  0.656348  1
  S  S20  1  0.478435  0.788605  0.755293  1
  S  S21  1  0.349514  0.177748  0.521857  1
  S  S22  1  0.103522  0.458616  0.341769  1
  S  S23  1  0.416042  0.494750  0.362271  1
  S  S24  1  0.123391  0.762169  0.335003  1
  S  S25  1  0.060801  0.662009  0.889889  1
  S  S26  1  0.557417  0.133004  0.788438  1
  S  S27  1  0.650486  0.822252  0.478143  1
  S  S28  1  0.672040  0.389870  0.892485  1
  S  S29  1  0.680957  0.231631  0.428344  1
  S  S30  1  0.693170  0.734111  0.959500  1
  S  S31  1  0.133365  0.243890  0.866795  1
  S  S32  1  0.896478  0.541384  0.658231  1
  S  S33  1  0.327960  0.610130  0.107515  1
  S  S34  1  0.866635  0.756110  0.133205  1
  S  S35  1  0.306830  0.265889  0.040500  1
  S  S36  1  0.583958  0.505250  0.637729  1
  S  S37  1  0.119330  0.067400  0.343652  1
