# generated using pymatgen
data_Li6CeSc5Pt12
_symmetry_space_group_name_H-M   'P 1'
_cell_length_a   4.31715400
_cell_length_b   7.01215700
_cell_length_c   12.87131801
_cell_angle_alpha   89.99957688
_cell_angle_beta   90.00415397
_cell_angle_gamma   89.99657405
_symmetry_Int_Tables_number   1
_chemical_formula_structural   Li6CeSc5Pt12
_chemical_formula_sum   'Li6 Ce1 Sc5 Pt12'
_cell_volume   389.64776670
_cell_formula_units_Z   1
loop_
 _symmetry_equiv_pos_site_id
 _symmetry_equiv_pos_as_xyz
  1  'x, y, z'
loop_
 _atom_site_type_symbol
 _atom_site_label
 _atom_site_symmetry_multiplicity
 _atom_site_fract_x
 _atom_site_fract_y
 _atom_site_fract_z
 _atom_site_occupancy
  Li  Li0  1  0.999992  0.000008  0.000008  1
  Li  Li1  1  0.500023  0.499987  0.173525  1
  Li  Li2  1  0.999997  0.999998  0.337030  1
  Li  Li3  1  0.499991  0.499996  0.500003  1
  Li  Li4  1  0.999983  0.000004  0.662965  1
  Li  Li5  1  0.499970  0.499994  0.826463  1
  Ce  Ce6  1  0.999981  0.500006  0.999951  1
  Sc  Sc7  1  0.500056  0.000008  0.174611  1
  Sc  Sc8  1  0.999987  0.499982  0.335327  1
  Sc  Sc9  1  0.500042  0.000003  0.500013  1
  Sc  Sc10  1  0.000031  0.499988  0.664650  1
  Sc  Sc11  1  0.500038  0.000034  0.825486  1
  Pt  Pt12  1  0.499980  0.231325  0.000014  1
  Pt  Pt13  1  0.499983  0.768694  0.000011  1
  Pt  Pt14  1  0.000000  0.241737  0.171595  1
  Pt  Pt15  1  0.000014  0.758256  0.171609  1
  Pt  Pt16  1  0.500018  0.253421  0.336189  1
  Pt  Pt17  1  0.499980  0.746570  0.336188  1
  Pt  Pt18  1  0.999999  0.248886  0.499992  1
  Pt  Pt19  1  0.000006  0.751108  0.499988  1
  Pt  Pt20  1  0.500010  0.253409  0.663815  1
  Pt  Pt21  1  0.499999  0.746581  0.663817  1
  Pt  Pt22  1  0.999957  0.241704  0.828380  1
  Pt  Pt23  1  0.999957  0.758303  0.828371  1
