# generated using pymatgen
data_Cs3Re2Br10N
_symmetry_space_group_name_H-M   'P 1'
_cell_length_a   7.78585200
_cell_length_b   7.78585200
_cell_length_c   19.79187800
_cell_angle_alpha   90.00000000
_cell_angle_beta   90.00000000
_cell_angle_gamma   90.00000000
_symmetry_Int_Tables_number   1
_chemical_formula_structural   Cs3Re2Br10N
_chemical_formula_sum   'Cs6 Re4 Br20 N2'
_cell_volume   1199.77357754
_cell_formula_units_Z   2
loop_
 _symmetry_equiv_pos_site_id
 _symmetry_equiv_pos_as_xyz
  1  'x, y, z'
loop_
 _atom_site_type_symbol
 _atom_site_label
 _atom_site_symmetry_multiplicity
 _atom_site_fract_x
 _atom_site_fract_y
 _atom_site_fract_z
 _atom_site_occupancy
  Cs  Cs0  1  0.500000  0.500000  0.000000  1
  Cs  Cs1  1  0.000000  0.000000  0.500000  1
  Cs  Cs2  1  0.000000  0.500000  0.250000  1
  Cs  Cs3  1  0.500000  0.000000  0.750000  1
  Cs  Cs4  1  0.500000  0.000000  0.250000  1
  Cs  Cs5  1  0.000000  0.500000  0.750000  1
  Re  Re6  1  0.500000  0.500000  0.407945  1
  Re  Re7  1  0.000000  0.000000  0.907945  1
  Re  Re8  1  0.500000  0.500000  0.592055  1
  Re  Re9  1  0.000000  0.000000  0.092055  1
  Br  Br10  1  0.769591  0.678731  0.398975  1
  Br  Br11  1  0.230409  0.321269  0.398975  1
  Br  Br12  1  0.730409  0.178731  0.898975  1
  Br  Br13  1  0.269591  0.821269  0.898975  1
  Br  Br14  1  0.678731  0.230409  0.398975  1
  Br  Br15  1  0.321269  0.769591  0.398975  1
  Br  Br16  1  0.178731  0.269591  0.898975  1
  Br  Br17  1  0.821269  0.730409  0.898975  1
  Br  Br18  1  0.230409  0.321269  0.601025  1
  Br  Br19  1  0.769591  0.678731  0.601025  1
  Br  Br20  1  0.269591  0.821269  0.101025  1
  Br  Br21  1  0.730409  0.178731  0.101025  1
  Br  Br22  1  0.321269  0.769591  0.601025  1
  Br  Br23  1  0.678731  0.230409  0.601025  1
  Br  Br24  1  0.821269  0.730409  0.101025  1
  Br  Br25  1  0.178731  0.269591  0.101025  1
  Br  Br26  1  0.500000  0.500000  0.271379  1
  Br  Br27  1  0.000000  0.000000  0.771379  1
  Br  Br28  1  0.500000  0.500000  0.728621  1
  Br  Br29  1  0.000000  0.000000  0.228621  1
  N  N30  1  0.500000  0.500000  0.500000  1
  N  N31  1  0.000000  0.000000  0.000000  1
