# generated using pymatgen
data_Er3LuCoSi4Ru3
_symmetry_space_group_name_H-M   'P 1'
_cell_length_a   4.24302300
_cell_length_b   6.88842779
_cell_length_c   7.09572898
_cell_angle_alpha   89.72144546
_cell_angle_beta   90.00000000
_cell_angle_gamma   90.00000000
_symmetry_Int_Tables_number   1
_chemical_formula_structural   Er3LuCoSi4Ru3
_chemical_formula_sum   'Er3 Lu1 Co1 Si4 Ru3'
_cell_volume   207.38979541
_cell_formula_units_Z   1
loop_
 _symmetry_equiv_pos_site_id
 _symmetry_equiv_pos_as_xyz
  1  'x, y, z'
loop_
 _atom_site_type_symbol
 _atom_site_label
 _atom_site_symmetry_multiplicity
 _atom_site_fract_x
 _atom_site_fract_y
 _atom_site_fract_z
 _atom_site_occupancy
  Er  Er0  1  0.750000  0.014304  0.808792  1
  Er  Er1  1  0.250000  0.490719  0.317488  1
  Er  Er2  1  0.250000  0.993612  0.191444  1
  Lu  Lu3  1  0.750000  0.515414  0.689154  1
  Co  Co4  1  0.250000  0.149108  0.565284  1
  Si  Si5  1  0.750000  0.201077  0.401149  1
  Si  Si6  1  0.250000  0.298158  0.885958  1
  Si  Si7  1  0.750000  0.696476  0.105273  1
  Si  Si8  1  0.250000  0.806263  0.607597  1
  Ru  Ru9  1  0.750000  0.340175  0.063060  1
  Ru  Ru10  1  0.250000  0.650843  0.929619  1
  Ru  Ru11  1  0.750000  0.843852  0.435183  1
