# generated using pymatgen
data_Lu12Os2PtSe
_symmetry_space_group_name_H-M   'P 1'
_cell_length_a   7.28116910
_cell_length_b   8.95714200
_cell_length_c   6.23316267
_cell_angle_alpha   90.00000000
_cell_angle_beta   90.96752173
_cell_angle_gamma   90.00000000
_symmetry_Int_Tables_number   1
_chemical_formula_structural   Lu12Os2PtSe
_chemical_formula_sum   'Lu12 Os2 Pt1 Se1'
_cell_volume   406.45934670
_cell_formula_units_Z   1
loop_
 _symmetry_equiv_pos_site_id
 _symmetry_equiv_pos_as_xyz
  1  'x, y, z'
loop_
 _atom_site_type_symbol
 _atom_site_label
 _atom_site_symmetry_multiplicity
 _atom_site_fract_x
 _atom_site_fract_y
 _atom_site_fract_z
 _atom_site_occupancy
  Lu  Lu0  1  0.666499  0.053399  0.348245  1
  Lu  Lu1  1  0.192058  0.440642  0.164359  1
  Lu  Lu2  1  0.324950  0.558861  0.663452  1
  Lu  Lu3  1  0.817518  0.936157  0.824729  1
  Lu  Lu4  1  0.324950  0.941139  0.663452  1
  Lu  Lu5  1  0.817518  0.563843  0.824729  1
  Lu  Lu6  1  0.666499  0.446601  0.348245  1
  Lu  Lu7  1  0.192058  0.059358  0.164359  1
  Lu  Lu8  1  0.516111  0.250000  0.871489  1
  Lu  Lu9  1  0.052232  0.250000  0.629069  1
  Lu  Lu10  1  0.478713  0.750000  0.116018  1
  Lu  Lu11  1  0.956243  0.750000  0.369325  1
  Os  Os12  1  0.382895  0.250000  0.453962  1
  Os  Os13  1  0.614961  0.750000  0.538857  1
  Pt  Pt14  1  0.119083  0.750000  0.955823  1
  Se  Se15  1  0.877712  0.250000  0.063889  1
