# generated using pymatgen
data_Tb3TmCdRu
_symmetry_space_group_name_H-M   'P 1'
_cell_length_a   9.63505081
_cell_length_b   9.63505069
_cell_length_c   9.63505100
_cell_angle_alpha   60.00000237
_cell_angle_beta   60.00000277
_cell_angle_gamma   59.99999946
_symmetry_Int_Tables_number   1
_chemical_formula_structural   Tb3TmCdRu
_chemical_formula_sum   'Tb12 Tm4 Cd4 Ru4'
_cell_volume   632.48036567
_cell_formula_units_Z   4
loop_
 _symmetry_equiv_pos_site_id
 _symmetry_equiv_pos_as_xyz
  1  'x, y, z'
loop_
 _atom_site_type_symbol
 _atom_site_label
 _atom_site_symmetry_multiplicity
 _atom_site_fract_x
 _atom_site_fract_y
 _atom_site_fract_z
 _atom_site_occupancy
  Tb  Tb0  1  0.561031  0.561031  0.938969  1
  Tb  Tb1  1  0.938969  0.561031  0.938969  1
  Tb  Tb2  1  0.561031  0.938969  0.938969  1
  Tb  Tb3  1  0.938969  0.938969  0.561031  1
  Tb  Tb4  1  0.561031  0.938969  0.561031  1
  Tb  Tb5  1  0.938969  0.561031  0.561031  1
  Tb  Tb6  1  0.189380  0.189380  0.810620  1
  Tb  Tb7  1  0.810620  0.189380  0.810620  1
  Tb  Tb8  1  0.189379  0.810621  0.810620  1
  Tb  Tb9  1  0.810620  0.810621  0.189380  1
  Tb  Tb10  1  0.189379  0.810620  0.189379  1
  Tb  Tb11  1  0.810620  0.189380  0.189380  1
  Tm  Tm12  1  0.345015  0.345015  0.964955  1
  Tm  Tm13  1  0.345015  0.964955  0.345015  1
  Tm  Tm14  1  0.964955  0.345015  0.345015  1
  Tm  Tm15  1  0.345015  0.345015  0.345015  1
  Cd  Cd16  1  0.579944  0.579944  0.260167  1
  Cd  Cd17  1  0.579944  0.260167  0.579944  1
  Cd  Cd18  1  0.260167  0.579944  0.579944  1
  Cd  Cd19  1  0.579944  0.579944  0.579944  1
  Ru  Ru20  1  0.140086  0.140086  0.579740  1
  Ru  Ru21  1  0.140086  0.579740  0.140086  1
  Ru  Ru22  1  0.579740  0.140086  0.140086  1
  Ru  Ru23  1  0.140086  0.140086  0.140086  1
