# generated using pymatgen
data_TbEr4In2(HgPd)2
_symmetry_space_group_name_H-M   'P 1'
_cell_length_a   3.60186200
_cell_length_b   7.99229800
_cell_length_c   18.30277800
_cell_angle_alpha   90.00000000
_cell_angle_beta   90.00000000
_cell_angle_gamma   90.00000000
_symmetry_Int_Tables_number   1
_chemical_formula_structural   TbEr4In2(HgPd)2
_chemical_formula_sum   'Tb2 Er8 In4 Hg4 Pd4'
_cell_volume   526.88489731
_cell_formula_units_Z   2
loop_
 _symmetry_equiv_pos_site_id
 _symmetry_equiv_pos_as_xyz
  1  'x, y, z'
loop_
 _atom_site_type_symbol
 _atom_site_label
 _atom_site_symmetry_multiplicity
 _atom_site_fract_x
 _atom_site_fract_y
 _atom_site_fract_z
 _atom_site_occupancy
  Tb  Tb0  1  0.000000  0.500000  0.500000  1
  Tb  Tb1  1  0.000000  0.000000  0.000000  1
  Er  Er2  1  0.000000  0.742163  0.283408  1
  Er  Er3  1  0.000000  0.257837  0.716592  1
  Er  Er4  1  0.000000  0.757837  0.783408  1
  Er  Er5  1  0.000000  0.242163  0.216592  1
  Er  Er6  1  0.000000  0.608467  0.083862  1
  Er  Er7  1  0.000000  0.391533  0.916138  1
  Er  Er8  1  0.000000  0.891533  0.583862  1
  Er  Er9  1  0.000000  0.108467  0.416138  1
  In  In10  1  0.500000  0.580800  0.649249  1
  In  In11  1  0.500000  0.419200  0.350751  1
  In  In12  1  0.500000  0.919200  0.149249  1
  In  In13  1  0.500000  0.080800  0.850751  1
  Hg  Hg14  1  0.500000  0.712698  0.932562  1
  Hg  Hg15  1  0.500000  0.287302  0.067438  1
  Hg  Hg16  1  0.500000  0.787302  0.432562  1
  Hg  Hg17  1  0.500000  0.212698  0.567438  1
  Pd  Pd18  1  0.500000  0.528634  0.197343  1
  Pd  Pd19  1  0.500000  0.471366  0.802657  1
  Pd  Pd20  1  0.500000  0.971366  0.697343  1
  Pd  Pd21  1  0.500000  0.028634  0.302657  1
