# generated using pymatgen
data_Dy6Er6ZnGaCo4
_symmetry_space_group_name_H-M   'P 1'
_cell_length_a   8.24631156
_cell_length_b   8.23315939
_cell_length_c   8.23315965
_cell_angle_alpha   111.84564024
_cell_angle_beta   109.68233582
_cell_angle_gamma   106.86312432
_symmetry_Int_Tables_number   1
_chemical_formula_structural   Dy6Er6ZnGaCo4
_chemical_formula_sum   'Dy6 Er6 Zn1 Ga1 Co4'
_cell_volume   429.80704841
_cell_formula_units_Z   1
loop_
 _symmetry_equiv_pos_site_id
 _symmetry_equiv_pos_as_xyz
  1  'x, y, z'
loop_
 _atom_site_type_symbol
 _atom_site_label
 _atom_site_symmetry_multiplicity
 _atom_site_fract_x
 _atom_site_fract_y
 _atom_site_fract_z
 _atom_site_occupancy
  Dy  Dy0  1  0.567079  0.262601  0.304478  1
  Dy  Dy1  1  0.432921  0.737399  0.695522  1
  Dy  Dy2  1  0.179888  0.780014  0.960663  1
  Dy  Dy3  1  0.820112  0.780776  0.600127  1
  Dy  Dy4  1  0.179888  0.219224  0.399873  1
  Dy  Dy5  1  0.820112  0.219986  0.039337  1
  Er  Er6  1  0.958648  0.262633  0.696014  1
  Er  Er7  1  0.041352  0.737367  0.303986  1
  Er  Er8  1  0.673979  0.861249  0.188490  1
  Er  Er9  1  0.326021  0.514513  0.187270  1
  Er  Er10  1  0.326021  0.138751  0.811510  1
  Er  Er11  1  0.673979  0.485487  0.812730  1
  Zn  Zn12  1  0.000000  0.500000  0.500000  1
  Ga  Ga13  1  0.500000  0.000000  0.500000  1
  Co  Co14  1  0.114781  0.115790  0.998991  1
  Co  Co15  1  0.885219  0.884210  0.001009  1
  Co  Co16  1  0.662779  0.500273  0.162505  1
  Co  Co17  1  0.337221  0.499727  0.837495  1
