# generated using pymatgen
data_Ho4ZrPd14Au
_symmetry_space_group_name_H-M   'P 1'
_cell_length_a   4.12926800
_cell_length_b   4.08976100
_cell_length_c   20.56731900
_cell_angle_alpha   90.00000000
_cell_angle_beta   90.00000000
_cell_angle_gamma   90.00000000
_symmetry_Int_Tables_number   1
_chemical_formula_structural   Ho4ZrPd14Au
_chemical_formula_sum   'Ho4 Zr1 Pd14 Au1'
_cell_volume   347.33510848
_cell_formula_units_Z   1
loop_
 _symmetry_equiv_pos_site_id
 _symmetry_equiv_pos_as_xyz
  1  'x, y, z'
loop_
 _atom_site_type_symbol
 _atom_site_label
 _atom_site_symmetry_multiplicity
 _atom_site_fract_x
 _atom_site_fract_y
 _atom_site_fract_z
 _atom_site_occupancy
  Ho  Ho0  1  0.000000  0.000000  0.198246  1
  Ho  Ho1  1  0.000000  0.000000  0.395267  1
  Ho  Ho2  1  0.000000  0.000000  0.604733  1
  Ho  Ho3  1  0.000000  0.000000  0.801754  1
  Zr  Zr4  1  0.000000  0.000000  0.000000  1
  Pd  Pd5  1  0.500000  0.500000  0.000000  1
  Pd  Pd6  1  0.500000  0.500000  0.196788  1
  Pd  Pd7  1  0.500000  0.500000  0.398460  1
  Pd  Pd8  1  0.500000  0.500000  0.601540  1
  Pd  Pd9  1  0.500000  0.500000  0.803212  1
  Pd  Pd10  1  0.500000  0.000000  0.095373  1
  Pd  Pd11  1  0.500000  0.000000  0.298079  1
  Pd  Pd12  1  0.500000  0.000000  0.701921  1
  Pd  Pd13  1  0.500000  0.000000  0.904627  1
  Pd  Pd14  1  0.000000  0.500000  0.095326  1
  Pd  Pd15  1  0.000000  0.500000  0.297989  1
  Pd  Pd16  1  0.000000  0.500000  0.500000  1
  Pd  Pd17  1  0.000000  0.500000  0.702011  1
  Pd  Pd18  1  0.000000  0.500000  0.904674  1
  Au  Au19  1  0.500000  0.000000  0.500000  1
