# generated using pymatgen
data_Lu10Al5GeC8
_symmetry_space_group_name_H-M   'P 1'
_cell_length_a   10.61374700
_cell_length_b   10.61374700
_cell_length_c   3.44786600
_cell_angle_alpha   90.00000000
_cell_angle_beta   90.00000000
_cell_angle_gamma   90.00000000
_symmetry_Int_Tables_number   1
_chemical_formula_structural   Lu10Al5GeC8
_chemical_formula_sum   'Lu10 Al5 Ge1 C8'
_cell_volume   388.40770899
_cell_formula_units_Z   1
loop_
 _symmetry_equiv_pos_site_id
 _symmetry_equiv_pos_as_xyz
  1  'x, y, z'
loop_
 _atom_site_type_symbol
 _atom_site_label
 _atom_site_symmetry_multiplicity
 _atom_site_fract_x
 _atom_site_fract_y
 _atom_site_fract_z
 _atom_site_occupancy
  Lu  Lu0  1  0.549925  0.728277  0.500000  1
  Lu  Lu1  1  0.450075  0.271723  0.500000  1
  Lu  Lu2  1  0.051087  0.767501  0.500000  1
  Lu  Lu3  1  0.948913  0.232499  0.500000  1
  Lu  Lu4  1  0.271723  0.549925  0.500000  1
  Lu  Lu5  1  0.728277  0.450075  0.500000  1
  Lu  Lu6  1  0.232499  0.051087  0.500000  1
  Lu  Lu7  1  0.767501  0.948913  0.500000  1
  Lu  Lu8  1  0.500000  0.000000  0.000000  1
  Lu  Lu9  1  0.000000  0.500000  0.000000  1
  Al  Al10  1  0.710016  0.195991  0.000000  1
  Al  Al11  1  0.289984  0.804009  0.000000  1
  Al  Al12  1  0.195991  0.289984  0.000000  1
  Al  Al13  1  0.804009  0.710016  0.000000  1
  Al  Al14  1  0.000000  0.000000  0.000000  1
  Ge  Ge15  1  0.500000  0.500000  0.000000  1
  C  C16  1  0.626771  0.130570  0.500000  1
  C  C17  1  0.373229  0.869430  0.500000  1
  C  C18  1  0.130570  0.373229  0.500000  1
  C  C19  1  0.869430  0.626771  0.500000  1
  C  C20  1  0.163388  0.659859  0.000000  1
  C  C21  1  0.836612  0.340141  0.000000  1
  C  C22  1  0.659859  0.836612  0.000000  1
  C  C23  1  0.340141  0.163388  0.000000  1
