# generated using pymatgen
data_Tm5LuFe3Si6Rh
_symmetry_space_group_name_H-M   'P 1'
_cell_length_a   5.58151398
_cell_length_b   5.58151383
_cell_length_c   13.46825429
_cell_angle_alpha   89.90482205
_cell_angle_beta   90.09517735
_cell_angle_gamma   137.05980285
_symmetry_Int_Tables_number   1
_chemical_formula_structural   Tm5LuFe3Si6Rh
_chemical_formula_sum   'Tm5 Lu1 Fe3 Si6 Rh1'
_cell_volume   285.83233458
_cell_formula_units_Z   1
loop_
 _symmetry_equiv_pos_site_id
 _symmetry_equiv_pos_as_xyz
  1  'x, y, z'
loop_
 _atom_site_type_symbol
 _atom_site_label
 _atom_site_symmetry_multiplicity
 _atom_site_fract_x
 _atom_site_fract_y
 _atom_site_fract_z
 _atom_site_occupancy
  Tm  Tm0  1  0.362280  0.637720  0.750110  1
  Tm  Tm1  1  0.919105  0.080895  0.111796  1
  Tm  Tm2  1  0.077839  0.922161  0.890299  1
  Tm  Tm3  1  0.081552  0.918448  0.614078  1
  Tm  Tm4  1  0.920926  0.079074  0.383274  1
  Lu  Lu5  1  0.638342  0.361658  0.248686  1
  Fe  Fe6  1  0.214536  0.785464  0.417920  1
  Fe  Fe7  1  0.212251  0.787749  0.081542  1
  Fe  Fe8  1  0.784934  0.215066  0.920770  1
  Si  Si9  1  0.325325  0.674675  0.248155  1
  Si  Si10  1  0.669207  0.330793  0.756384  1
  Si  Si11  1  0.622411  0.377589  0.040460  1
  Si  Si12  1  0.374594  0.625406  0.961011  1
  Si  Si13  1  0.389230  0.610770  0.534035  1
  Si  Si14  1  0.617987  0.382013  0.457368  1
  Rh  Rh15  1  0.789481  0.210519  0.584111  1
