# generated using pymatgen
data_Sm3Tm(CI)2
_symmetry_space_group_name_H-M   'P 1'
_cell_length_a   3.80930700
_cell_length_b   3.80930670
_cell_length_c   15.09741000
_cell_angle_alpha   90.00000000
_cell_angle_beta   90.00000000
_cell_angle_gamma   120.00001127
_symmetry_Int_Tables_number   1
_chemical_formula_structural   Sm3Tm(CI)2
_chemical_formula_sum   'Sm3 Tm1 C2 I2'
_cell_volume   189.72516852
_cell_formula_units_Z   1
loop_
 _symmetry_equiv_pos_site_id
 _symmetry_equiv_pos_as_xyz
  1  'x, y, z'
loop_
 _atom_site_type_symbol
 _atom_site_label
 _atom_site_symmetry_multiplicity
 _atom_site_fract_x
 _atom_site_fract_y
 _atom_site_fract_z
 _atom_site_occupancy
  Sm  Sm0  1  0.333333  0.666667  0.588822  1
  Sm  Sm1  1  0.666667  0.333333  0.413243  1
  Sm  Sm2  1  0.666667  0.333333  0.083930  1
  Tm  Tm3  1  0.333333  0.666667  0.915655  1
  C  C4  1  0.000000  0.000000  0.991562  1
  C  C5  1  0.000000  0.000000  0.501259  1
  I  I6  1  0.333333  0.666667  0.247913  1
  I  I7  1  0.666667  0.333333  0.757617  1
