# generated using pymatgen
data_Nb4Fe(CoSe6)2
_symmetry_space_group_name_H-M   'P 1'
_cell_length_a   7.16543317
_cell_length_b   7.16543264
_cell_length_c   19.19653582
_cell_angle_alpha   70.27930340
_cell_angle_beta   70.27930547
_cell_angle_gamma   27.46574810
_symmetry_Int_Tables_number   1
_chemical_formula_structural   Nb4Fe(CoSe6)2
_chemical_formula_sum   'Nb4 Fe1 Co2 Se12'
_cell_volume   426.27707046
_cell_formula_units_Z   1
loop_
 _symmetry_equiv_pos_site_id
 _symmetry_equiv_pos_as_xyz
  1  'x, y, z'
loop_
 _atom_site_type_symbol
 _atom_site_label
 _atom_site_symmetry_multiplicity
 _atom_site_fract_x
 _atom_site_fract_y
 _atom_site_fract_z
 _atom_site_occupancy
  Nb  Nb0  1  0.740515  0.740515  0.592919  1
  Nb  Nb1  1  0.259485  0.259485  0.407081  1
  Nb  Nb2  1  0.615325  0.615325  0.856181  1
  Nb  Nb3  1  0.384675  0.384675  0.143819  1
  Fe  Fe4  1  0.000000  0.000000  0.000000  1
  Co  Co5  1  0.774363  0.774363  0.280082  1
  Co  Co6  1  0.225637  0.225637  0.719918  1
  Se  Se7  1  0.870216  0.870216  0.451778  1
  Se  Se8  1  0.036349  0.036349  0.112127  1
  Se  Se9  1  0.801782  0.801782  0.768648  1
  Se  Se10  1  0.398212  0.398212  0.277594  1
  Se  Se11  1  0.180126  0.180126  0.933168  1
  Se  Se12  1  0.601788  0.601788  0.722406  1
  Se  Se13  1  0.129784  0.129784  0.548222  1
  Se  Se14  1  0.819874  0.819874  0.066832  1
  Se  Se15  1  0.369712  0.369712  0.610191  1
  Se  Se16  1  0.963651  0.963651  0.887873  1
  Se  Se17  1  0.198218  0.198218  0.231352  1
  Se  Se18  1  0.630288  0.630288  0.389809  1
