# generated using pymatgen
data_Dy3Y9Co3Si8Ni
_symmetry_space_group_name_H-M   'P 1'
_cell_length_a   4.10056900
_cell_length_b   11.21064840
_cell_length_c   11.34767241
_cell_angle_alpha   90.00006322
_cell_angle_beta   90.00000000
_cell_angle_gamma   90.00000000
_symmetry_Int_Tables_number   1
_chemical_formula_structural   Dy3Y9Co3Si8Ni
_chemical_formula_sum   'Dy3 Y9 Co3 Si8 Ni1'
_cell_volume   521.65292414
_cell_formula_units_Z   1
loop_
 _symmetry_equiv_pos_site_id
 _symmetry_equiv_pos_as_xyz
  1  'x, y, z'
loop_
 _atom_site_type_symbol
 _atom_site_label
 _atom_site_symmetry_multiplicity
 _atom_site_fract_x
 _atom_site_fract_y
 _atom_site_fract_z
 _atom_site_occupancy
  Dy  Dy0  1  0.250000  0.698909  0.217522  1
  Dy  Dy1  1  0.750000  0.199260  0.282497  1
  Dy  Dy2  1  0.750000  0.301023  0.783028  1
  Y  Y3  1  0.250000  0.060645  0.881612  1
  Y  Y4  1  0.250000  0.440286  0.382234  1
  Y  Y5  1  0.750000  0.941316  0.118787  1
  Y  Y6  1  0.750000  0.559232  0.618262  1
  Y  Y7  1  0.250000  0.124740  0.557611  1
  Y  Y8  1  0.250000  0.373571  0.057744  1
  Y  Y9  1  0.750000  0.873751  0.441940  1
  Y  Y10  1  0.750000  0.623506  0.943359  1
  Y  Y11  1  0.250000  0.803889  0.713896  1
  Co  Co12  1  0.250000  0.363602  0.631942  1
  Co  Co13  1  0.250000  0.135722  0.131387  1
  Co  Co14  1  0.750000  0.635071  0.368398  1
  Si  Si15  1  0.250000  0.815001  0.973898  1
  Si  Si16  1  0.250000  0.684098  0.474004  1
  Si  Si17  1  0.750000  0.183887  0.025501  1
  Si  Si18  1  0.750000  0.316002  0.526469  1
  Si  Si19  1  0.250000  0.494147  0.801197  1
  Si  Si20  1  0.250000  0.005913  0.301433  1
  Si  Si21  1  0.750000  0.505742  0.198693  1
  Si  Si22  1  0.750000  0.995357  0.697604  1
  Ni  Ni23  1  0.750000  0.865332  0.870979  1
