# generated using pymatgen
data_CaPrAl20(OsRh)2
_symmetry_space_group_name_H-M   'P 1'
_cell_length_a   6.87622708
_cell_length_b   6.90951252
_cell_length_c   9.20580300
_cell_angle_alpha   90.00000000
_cell_angle_beta   90.00000000
_cell_angle_gamma   96.77611084
_symmetry_Int_Tables_number   1
_chemical_formula_structural   CaPrAl20(OsRh)2
_chemical_formula_sum   'Ca1 Pr1 Al20 Os2 Rh2'
_cell_volume   434.32518415
_cell_formula_units_Z   1
loop_
 _symmetry_equiv_pos_site_id
 _symmetry_equiv_pos_as_xyz
  1  'x, y, z'
loop_
 _atom_site_type_symbol
 _atom_site_label
 _atom_site_symmetry_multiplicity
 _atom_site_fract_x
 _atom_site_fract_y
 _atom_site_fract_z
 _atom_site_occupancy
  Ca  Ca0  1  0.871786  0.124138  0.750000  1
  Pr  Pr1  1  0.126403  0.876319  0.250000  1
  Al  Al2  1  0.620615  0.375658  0.549565  1
  Al  Al3  1  0.380722  0.623029  0.448935  1
  Al  Al4  1  0.380722  0.623029  0.051065  1
  Al  Al5  1  0.620615  0.375658  0.950435  1
  Al  Al6  1  0.225290  0.225611  0.499708  1
  Al  Al7  1  0.773556  0.776291  0.502362  1
  Al  Al8  1  0.773556  0.776291  0.997638  1
  Al  Al9  1  0.225290  0.225611  0.000292  1
  Al  Al10  1  0.840899  0.157875  0.101623  1
  Al  Al11  1  0.159531  0.840934  0.897161  1
  Al  Al12  1  0.159531  0.840934  0.602839  1
  Al  Al13  1  0.840899  0.157875  0.398377  1
  Al  Al14  1  0.855594  0.586556  0.750000  1
  Al  Al15  1  0.142614  0.411488  0.250000  1
  Al  Al16  1  0.412109  0.142693  0.750000  1
  Al  Al17  1  0.590941  0.858786  0.250000  1
  Al  Al18  1  0.224319  0.479735  0.750000  1
  Al  Al19  1  0.774355  0.516968  0.250000  1
  Al  Al20  1  0.520301  0.782210  0.750000  1
  Al  Al21  1  0.483516  0.220064  0.250000  1
  Os  Os22  1  0.498762  0.000073  0.999684  1
  Os  Os23  1  0.498762  0.000073  0.500316  1
  Rh  Rh24  1  0.999656  0.501051  0.500175  1
  Rh  Rh25  1  0.999656  0.501051  0.999825  1
