# generated using pymatgen
data_La7Nd(CdIr)2
_symmetry_space_group_name_H-M   'P 1'
_cell_length_a   10.10996523
_cell_length_b   10.10996541
_cell_length_c   10.10491000
_cell_angle_alpha   60.01653334
_cell_angle_beta   60.01653274
_cell_angle_gamma   59.96693088
_symmetry_Int_Tables_number   1
_chemical_formula_structural   La7Nd(CdIr)2
_chemical_formula_sum   'La14 Nd2 Cd4 Ir4'
_cell_volume   730.32565451
_cell_formula_units_Z   2
loop_
 _symmetry_equiv_pos_site_id
 _symmetry_equiv_pos_as_xyz
  1  'x, y, z'
loop_
 _atom_site_type_symbol
 _atom_site_label
 _atom_site_symmetry_multiplicity
 _atom_site_fract_x
 _atom_site_fract_y
 _atom_site_fract_z
 _atom_site_occupancy
  La  La0  1  0.347873  0.347873  0.347617  1
  La  La1  1  0.347873  0.347873  0.956637  1
  La  La2  1  0.347617  0.956637  0.347873  1
  La  La3  1  0.956637  0.347617  0.347873  1
  La  La4  1  0.809653  0.190347  0.190347  1
  La  La5  1  0.190347  0.809653  0.809653  1
  La  La6  1  0.190347  0.809653  0.190347  1
  La  La7  1  0.809653  0.190347  0.809653  1
  La  La8  1  0.189801  0.189801  0.810199  1
  La  La9  1  0.810199  0.810199  0.189801  1
  La  La10  1  0.938083  0.561917  0.561917  1
  La  La11  1  0.561917  0.938083  0.938083  1
  La  La12  1  0.561917  0.938083  0.561917  1
  La  La13  1  0.938083  0.561917  0.938083  1
  Nd  Nd14  1  0.561543  0.561543  0.938457  1
  Nd  Nd15  1  0.938457  0.938457  0.561543  1
  Cd  Cd16  1  0.579196  0.579196  0.580265  1
  Cd  Cd17  1  0.579196  0.579196  0.261342  1
  Cd  Cd18  1  0.580265  0.261342  0.579196  1
  Cd  Cd19  1  0.261342  0.580265  0.579196  1
  Ir  Ir20  1  0.141170  0.141170  0.141279  1
  Ir  Ir21  1  0.141170  0.141170  0.576380  1
  Ir  Ir22  1  0.141279  0.576380  0.141170  1
  Ir  Ir23  1  0.576380  0.141279  0.141170  1
