# generated using pymatgen
data_Tb5Y3Au4
_symmetry_space_group_name_H-M   'P 1'
_cell_length_a   4.97107900
_cell_length_b   7.17723183
_cell_length_c   9.00224230
_cell_angle_alpha   90.08188519
_cell_angle_beta   90.00000000
_cell_angle_gamma   90.00000000
_symmetry_Int_Tables_number   1
_chemical_formula_structural   Tb5Y3Au4
_chemical_formula_sum   'Tb5 Y3 Au4'
_cell_volume   321.18695199
_cell_formula_units_Z   1
loop_
 _symmetry_equiv_pos_site_id
 _symmetry_equiv_pos_as_xyz
  1  'x, y, z'
loop_
 _atom_site_type_symbol
 _atom_site_label
 _atom_site_symmetry_multiplicity
 _atom_site_fract_x
 _atom_site_fract_y
 _atom_site_fract_z
 _atom_site_occupancy
  Tb  Tb0  1  0.250000  0.148014  0.580515  1
  Tb  Tb1  1  0.750000  0.485073  0.675793  1
  Tb  Tb2  1  0.750000  0.985008  0.824202  1
  Tb  Tb3  1  0.250000  0.647980  0.919280  1
  Tb  Tb4  1  0.750000  0.352040  0.080786  1
  Y  Y5  1  0.250000  0.014950  0.176062  1
  Y  Y6  1  0.250000  0.515042  0.323803  1
  Y  Y7  1  0.750000  0.851725  0.419555  1
  Au  Au8  1  0.250000  0.742813  0.599921  1
  Au  Au9  1  0.250000  0.242768  0.900072  1
  Au  Au10  1  0.750000  0.757125  0.099919  1
  Au  Au11  1  0.750000  0.257462  0.400092  1
