# generated using pymatgen
data_Ta3Nb2Ga2GeB
_symmetry_space_group_name_H-M   'P 1'
_cell_length_a   7.79441521
_cell_length_b   7.79441570
_cell_length_c   5.34524700
_cell_angle_alpha   90.00000000
_cell_angle_beta   90.00000000
_cell_angle_gamma   120.02027151
_symmetry_Int_Tables_number   1
_chemical_formula_structural   Ta3Nb2Ga2GeB
_chemical_formula_sum   'Ta6 Nb4 Ga4 Ge2 B2'
_cell_volume   281.17503783
_cell_formula_units_Z   2
loop_
 _symmetry_equiv_pos_site_id
 _symmetry_equiv_pos_as_xyz
  1  'x, y, z'
loop_
 _atom_site_type_symbol
 _atom_site_label
 _atom_site_symmetry_multiplicity
 _atom_site_fract_x
 _atom_site_fract_y
 _atom_site_fract_z
 _atom_site_occupancy
  Ta  Ta0  1  0.757186  0.757186  0.250000  1
  Ta  Ta1  1  0.242478  0.999492  0.250000  1
  Ta  Ta2  1  0.999492  0.242478  0.250000  1
  Ta  Ta3  1  0.241469  0.241469  0.750000  1
  Ta  Ta4  1  0.759158  0.001161  0.750000  1
  Ta  Ta5  1  0.001161  0.759158  0.750000  1
  Nb  Nb6  1  0.666637  0.332544  0.498631  1
  Nb  Nb7  1  0.332544  0.666637  0.498631  1
  Nb  Nb8  1  0.332544  0.666637  0.001369  1
  Nb  Nb9  1  0.666637  0.332544  0.001369  1
  Ga  Ga10  1  0.401350  0.401350  0.250000  1
  Ga  Ga11  1  0.599552  0.999128  0.250000  1
  Ga  Ga12  1  0.999128  0.599552  0.250000  1
  Ga  Ga13  1  0.598460  0.598460  0.750000  1
  Ge  Ge14  1  0.403041  0.000085  0.750000  1
  Ge  Ge15  1  0.000085  0.403041  0.750000  1
  B  B16  1  0.999538  0.999538  0.499357  1
  B  B17  1  0.999538  0.999538  0.000643  1
