# generated using pymatgen
data_Hf10Zr6CoIr7N4
_symmetry_space_group_name_H-M   'P 1'
_cell_length_a   8.77479395
_cell_length_b   8.77479602
_cell_length_c   8.77479637
_cell_angle_alpha   59.45114736
_cell_angle_beta   59.45113737
_cell_angle_gamma   59.45114550
_symmetry_Int_Tables_number   1
_chemical_formula_structural   Hf10Zr6CoIr7N4
_chemical_formula_sum   'Hf10 Zr6 Co1 Ir7 N4'
_cell_volume   471.77963946
_cell_formula_units_Z   1
loop_
 _symmetry_equiv_pos_site_id
 _symmetry_equiv_pos_as_xyz
  1  'x, y, z'
loop_
 _atom_site_type_symbol
 _atom_site_label
 _atom_site_symmetry_multiplicity
 _atom_site_fract_x
 _atom_site_fract_y
 _atom_site_fract_z
 _atom_site_occupancy
  Hf  Hf0  1  0.100659  0.638494  0.638494  1
  Hf  Hf1  1  0.638494  0.100659  0.638494  1
  Hf  Hf2  1  0.638494  0.638494  0.100659  1
  Hf  Hf3  1  0.618751  0.618751  0.618751  1
  Hf  Hf4  1  0.818607  0.818607  0.180497  1
  Hf  Hf5  1  0.187007  0.187007  0.815718  1
  Hf  Hf6  1  0.818607  0.180497  0.818607  1
  Hf  Hf7  1  0.187007  0.815718  0.187007  1
  Hf  Hf8  1  0.180497  0.818607  0.818607  1
  Hf  Hf9  1  0.815718  0.187007  0.187007  1
  Zr  Zr10  1  0.437804  0.437804  0.066136  1
  Zr  Zr11  1  0.067927  0.067927  0.435756  1
  Zr  Zr12  1  0.437804  0.066136  0.437804  1
  Zr  Zr13  1  0.067927  0.435756  0.067927  1
  Zr  Zr14  1  0.066136  0.437804  0.437804  1
  Zr  Zr15  1  0.435756  0.067927  0.067927  1
  Co  Co16  1  0.852438  0.852438  0.852438  1
  Ir  Ir17  1  0.758954  0.405503  0.405503  1
  Ir  Ir18  1  0.405503  0.758954  0.405503  1
  Ir  Ir19  1  0.405503  0.405503  0.758954  1
  Ir  Ir20  1  0.416308  0.416308  0.416308  1
  Ir  Ir21  1  0.477138  0.832261  0.832261  1
  Ir  Ir22  1  0.832261  0.477138  0.832261  1
  Ir  Ir23  1  0.832261  0.832261  0.477138  1
  N  N24  1  0.629658  0.125191  0.125191  1
  N  N25  1  0.125191  0.629658  0.125191  1
  N  N26  1  0.125191  0.125191  0.629658  1
  N  N27  1  0.122400  0.122400  0.122400  1
