# generated using pymatgen
data_KRb3HgCl6
_symmetry_space_group_name_H-M   'P 1'
_cell_length_a   8.99794323
_cell_length_b   8.99794359
_cell_length_c   8.99794351
_cell_angle_alpha   90.68863208
_cell_angle_beta   90.68863803
_cell_angle_gamma   90.68862727
_symmetry_Int_Tables_number   1
_chemical_formula_structural   KRb3HgCl6
_chemical_formula_sum   'K2 Rb6 Hg2 Cl12'
_cell_volume   728.34124453
_cell_formula_units_Z   2
loop_
 _symmetry_equiv_pos_site_id
 _symmetry_equiv_pos_as_xyz
  1  'x, y, z'
loop_
 _atom_site_type_symbol
 _atom_site_label
 _atom_site_symmetry_multiplicity
 _atom_site_fract_x
 _atom_site_fract_y
 _atom_site_fract_z
 _atom_site_occupancy
  K  K0  1  0.248049  0.248049  0.248049  1
  K  K1  1  0.748049  0.748049  0.748049  1
  Rb  Rb2  1  0.746788  0.371959  0.123818  1
  Rb  Rb3  1  0.623818  0.871959  0.246787  1
  Rb  Rb4  1  0.123819  0.746787  0.371960  1
  Rb  Rb5  1  0.871960  0.246787  0.623819  1
  Rb  Rb6  1  0.371960  0.123819  0.746787  1
  Rb  Rb7  1  0.246787  0.623818  0.871959  1
  Hg  Hg8  1  0.498105  0.498105  0.498105  1
  Hg  Hg9  1  0.998106  0.998105  0.998106  1
  Cl  Cl10  1  0.922160  0.708202  0.050716  1
  Cl  Cl11  1  0.287144  0.944740  0.074621  1
  Cl  Cl12  1  0.422161  0.550715  0.208202  1
  Cl  Cl13  1  0.944740  0.074621  0.287143  1
  Cl  Cl14  1  0.550715  0.208202  0.422161  1
  Cl  Cl15  1  0.787143  0.574621  0.444740  1
  Cl  Cl16  1  0.208202  0.422161  0.550715  1
  Cl  Cl17  1  0.444740  0.787143  0.574621  1
  Cl  Cl18  1  0.050716  0.922161  0.708201  1
  Cl  Cl19  1  0.574621  0.444740  0.787144  1
  Cl  Cl20  1  0.708202  0.050715  0.922161  1
  Cl  Cl21  1  0.074622  0.287143  0.944740  1
