# generated using pymatgen
data_Yb3(ZnAu2)2
_symmetry_space_group_name_H-M   'P 1'
_cell_length_a   3.89408000
_cell_length_b   7.71005989
_cell_length_c   7.50296827
_cell_angle_alpha   120.91732194
_cell_angle_beta   90.00000000
_cell_angle_gamma   90.00000000
_symmetry_Int_Tables_number   1
_chemical_formula_structural   Yb3(ZnAu2)2
_chemical_formula_sum   'Yb3 Zn2 Au4'
_cell_volume   193.25790329
_cell_formula_units_Z   1
loop_
 _symmetry_equiv_pos_site_id
 _symmetry_equiv_pos_as_xyz
  1  'x, y, z'
loop_
 _atom_site_type_symbol
 _atom_site_label
 _atom_site_symmetry_multiplicity
 _atom_site_fract_x
 _atom_site_fract_y
 _atom_site_fract_z
 _atom_site_occupancy
  Yb  Yb0  1  0.000000  0.413233  0.000000  1
  Yb  Yb1  1  0.000000  0.605879  0.627046  1
  Yb  Yb2  1  0.000000  0.978834  0.372954  1
  Zn  Zn3  1  0.500000  0.268126  0.262842  1
  Zn  Zn4  1  0.500000  0.005284  0.737158  1
  Au  Au5  1  0.500000  0.660575  0.356428  1
  Au  Au6  1  0.500000  0.304147  0.643572  1
  Au  Au7  1  0.000000  0.032730  0.000000  1
  Au  Au8  1  0.500000  0.731291  0.000000  1
