# generated using pymatgen
data_NdSmGa7Ni2Ag
_symmetry_space_group_name_H-M   'P 1'
_cell_length_a   4.19961163
_cell_length_b   6.49066179
_cell_length_c   8.14267712
_cell_angle_alpha   90.80425818
_cell_angle_beta   104.94411419
_cell_angle_gamma   89.99998974
_symmetry_Int_Tables_number   1
_chemical_formula_structural   NdSmGa7Ni2Ag
_chemical_formula_sum   'Nd1 Sm1 Ga7 Ni2 Ag1'
_cell_volume   214.42555845
_cell_formula_units_Z   1
loop_
 _symmetry_equiv_pos_site_id
 _symmetry_equiv_pos_as_xyz
  1  'x, y, z'
loop_
 _atom_site_type_symbol
 _atom_site_label
 _atom_site_symmetry_multiplicity
 _atom_site_fract_x
 _atom_site_fract_y
 _atom_site_fract_z
 _atom_site_occupancy
  Nd  Nd0  1  0.120413  0.238134  0.240827  1
  Sm  Sm1  1  0.879541  0.761890  0.759081  1
  Ga  Ga2  1  0.499385  0.999017  0.998769  1
  Ga  Ga3  1  0.071180  0.739443  0.142360  1
  Ga  Ga4  1  0.928292  0.260583  0.856583  1
  Ga  Ga5  1  0.686743  0.546890  0.373487  1
  Ga  Ga6  1  0.313967  0.454296  0.627932  1
  Ga  Ga7  1  0.688637  0.944268  0.377276  1
  Ga  Ga8  1  0.312275  0.054375  0.624548  1
  Ni  Ni9  1  0.221334  0.750045  0.442668  1
  Ni  Ni10  1  0.778889  0.249813  0.557777  1
  Ag  Ag11  1  0.499345  0.501246  0.998690  1
