# generated using pymatgen
data_Ho8Re2TcB24Rh
_symmetry_space_group_name_H-M   'P 1'
_cell_length_a   3.67095200
_cell_length_b   9.14641268
_cell_length_c   11.52510535
_cell_angle_alpha   90.19652183
_cell_angle_beta   90.00000000
_cell_angle_gamma   90.00000000
_symmetry_Int_Tables_number   1
_chemical_formula_structural   Ho8Re2TcB24Rh
_chemical_formula_sum   'Ho8 Re2 Tc1 B24 Rh1'
_cell_volume   386.96514396
_cell_formula_units_Z   1
loop_
 _symmetry_equiv_pos_site_id
 _symmetry_equiv_pos_as_xyz
  1  'x, y, z'
loop_
 _atom_site_type_symbol
 _atom_site_label
 _atom_site_symmetry_multiplicity
 _atom_site_fract_x
 _atom_site_fract_y
 _atom_site_fract_z
 _atom_site_occupancy
  Ho  Ho0  1  0.000000  0.322073  0.408897  1
  Ho  Ho1  1  0.000000  0.681430  0.584203  1
  Ho  Ho2  1  0.000000  0.822920  0.087089  1
  Ho  Ho3  1  0.000000  0.173167  0.918767  1
  Ho  Ho4  1  0.000000  0.943049  0.370798  1
  Ho  Ho5  1  0.000000  0.056751  0.629769  1
  Ho  Ho6  1  0.000000  0.443765  0.129005  1
  Ho  Ho7  1  0.000000  0.558751  0.871031  1
  Re  Re8  1  0.000000  0.138366  0.179162  1
  Re  Re9  1  0.000000  0.861827  0.820031  1
  Tc  Tc10  1  0.000000  0.637428  0.322316  1
  B  B11  1  0.500000  0.553281  0.433469  1
  B  B12  1  0.500000  0.446051  0.566156  1
  B  B13  1  0.500000  0.052964  0.067157  1
  B  B14  1  0.500000  0.946733  0.933488  1
  B  B15  1  0.500000  0.749026  0.418940  1
  B  B16  1  0.500000  0.250945  0.579724  1
  B  B17  1  0.500000  0.248550  0.081117  1
  B  B18  1  0.500000  0.750811  0.918827  1
  B  B19  1  0.500000  0.791235  0.265677  1
  B  B20  1  0.500000  0.208852  0.735017  1
  B  B21  1  0.500000  0.291873  0.234468  1
  B  B22  1  0.500000  0.708164  0.764678  1
  B  B23  1  0.500000  0.630760  0.185860  1
  B  B24  1  0.500000  0.368145  0.815972  1
  B  B25  1  0.500000  0.131354  0.314739  1
  B  B26  1  0.500000  0.869168  0.684873  1
  B  B27  1  0.500000  0.982375  0.212741  1
  B  B28  1  0.500000  0.017343  0.788014  1
  B  B29  1  0.500000  0.482016  0.287864  1
  B  B30  1  0.500000  0.516754  0.711932  1
  B  B31  1  0.500000  0.602971  0.028082  1
  B  B32  1  0.500000  0.396259  0.970839  1
  B  B33  1  0.500000  0.104838  0.471556  1
  B  B34  1  0.500000  0.897901  0.528868  1
  Rh  Rh35  1  0.000000  0.362104  0.678873  1
