# generated using pymatgen
data_Nd8Cd2TcNi
_symmetry_space_group_name_H-M   'P 1'
_cell_length_a   9.89268046
_cell_length_b   9.89268040
_cell_length_c   10.04128100
_cell_angle_alpha   59.50184052
_cell_angle_beta   59.50184075
_cell_angle_gamma   59.36605897
_symmetry_Int_Tables_number   1
_chemical_formula_structural   Nd8Cd2TcNi
_chemical_formula_sum   'Nd16 Cd4 Tc2 Ni2'
_cell_volume   686.27501616
_cell_formula_units_Z   2
loop_
 _symmetry_equiv_pos_site_id
 _symmetry_equiv_pos_as_xyz
  1  'x, y, z'
loop_
 _atom_site_type_symbol
 _atom_site_label
 _atom_site_symmetry_multiplicity
 _atom_site_fract_x
 _atom_site_fract_y
 _atom_site_fract_z
 _atom_site_occupancy
  Nd  Nd0  1  0.598920  0.598920  0.594167  1
  Nd  Nd1  1  0.598920  0.598920  0.207993  1
  Nd  Nd2  1  0.598274  0.209798  0.595964  1
  Nd  Nd3  1  0.209798  0.598274  0.595964  1
  Nd  Nd4  1  0.059534  0.439124  0.441094  1
  Nd  Nd5  1  0.439124  0.059534  0.060248  1
  Nd  Nd6  1  0.439124  0.059534  0.441094  1
  Nd  Nd7  1  0.059534  0.439124  0.060248  1
  Nd  Nd8  1  0.441093  0.441093  0.058907  1
  Nd  Nd9  1  0.057711  0.057711  0.442289  1
  Nd  Nd10  1  0.188441  0.805823  0.815254  1
  Nd  Nd11  1  0.805823  0.188441  0.190481  1
  Nd  Nd12  1  0.805823  0.188441  0.815254  1
  Nd  Nd13  1  0.188441  0.805823  0.190481  1
  Nd  Nd14  1  0.813762  0.813762  0.186238  1
  Nd  Nd15  1  0.192610  0.192610  0.807390  1
  Cd  Cd16  1  0.829348  0.829348  0.830245  1
  Cd  Cd17  1  0.829348  0.829348  0.511059  1
  Cd  Cd18  1  0.829316  0.510077  0.830304  1
  Cd  Cd19  1  0.510077  0.829316  0.830304  1
  Tc  Tc20  1  0.391260  0.391260  0.382458  1
  Tc  Tc21  1  0.391260  0.391260  0.835021  1
  Ni  Ni22  1  0.394813  0.827645  0.388771  1
  Ni  Ni23  1  0.827645  0.394813  0.388771  1
