# generated using pymatgen
data_NdY7(Si3Pt)4
_symmetry_space_group_name_H-M   'P 1'
_cell_length_a   8.15261800
_cell_length_b   8.15261724
_cell_length_c   8.25932400
_cell_angle_alpha   90.00000000
_cell_angle_beta   90.00000000
_cell_angle_gamma   119.99999495
_symmetry_Int_Tables_number   1
_chemical_formula_structural   NdY7(Si3Pt)4
_chemical_formula_sum   'Nd1 Y7 Si12 Pt4'
_cell_volume   475.41108471
_cell_formula_units_Z   1
loop_
 _symmetry_equiv_pos_site_id
 _symmetry_equiv_pos_as_xyz
  1  'x, y, z'
loop_
 _atom_site_type_symbol
 _atom_site_label
 _atom_site_symmetry_multiplicity
 _atom_site_fract_x
 _atom_site_fract_y
 _atom_site_fract_z
 _atom_site_occupancy
  Nd  Nd0  1  0.000000  0.000000  0.250000  1
  Y  Y1  1  0.498993  0.501007  0.750000  1
  Y  Y2  1  0.501048  0.498952  0.250000  1
  Y  Y3  1  0.002014  0.501007  0.750000  1
  Y  Y4  1  0.997903  0.498952  0.250000  1
  Y  Y5  1  0.498993  0.997986  0.750000  1
  Y  Y6  1  0.501048  0.002097  0.250000  1
  Y  Y7  1  0.000000  0.000000  0.750000  1
  Si  Si8  1  0.833972  0.166028  0.996793  1
  Si  Si9  1  0.166037  0.833963  0.998042  1
  Si  Si10  1  0.332055  0.166028  0.996793  1
  Si  Si11  1  0.166037  0.833963  0.501958  1
  Si  Si12  1  0.667925  0.833963  0.998042  1
  Si  Si13  1  0.833972  0.166028  0.503207  1
  Si  Si14  1  0.833972  0.667945  0.996793  1
  Si  Si15  1  0.667925  0.833963  0.501958  1
  Si  Si16  1  0.166037  0.332075  0.998042  1
  Si  Si17  1  0.332055  0.166028  0.503207  1
  Si  Si18  1  0.166037  0.332075  0.501958  1
  Si  Si19  1  0.833972  0.667945  0.503207  1
  Pt  Pt20  1  0.666667  0.333333  0.998031  1
  Pt  Pt21  1  0.333333  0.666667  0.002560  1
  Pt  Pt22  1  0.333333  0.666667  0.497440  1
  Pt  Pt23  1  0.666667  0.333333  0.501969  1
