# generated using pymatgen
data_TbLu3Ga5Ru3
_symmetry_space_group_name_H-M   'P 1'
_cell_length_a   5.34194291
_cell_length_b   5.35929715
_cell_length_c   8.77075000
_cell_angle_alpha   90.00000133
_cell_angle_beta   90.10620778
_cell_angle_gamma   120.10754506
_symmetry_Int_Tables_number   1
_chemical_formula_structural   TbLu3Ga5Ru3
_chemical_formula_sum   'Tb1 Lu3 Ga5 Ru3'
_cell_volume   217.22098743
_cell_formula_units_Z   1
loop_
 _symmetry_equiv_pos_site_id
 _symmetry_equiv_pos_as_xyz
  1  'x, y, z'
loop_
 _atom_site_type_symbol
 _atom_site_label
 _atom_site_symmetry_multiplicity
 _atom_site_fract_x
 _atom_site_fract_y
 _atom_site_fract_z
 _atom_site_occupancy
  Tb  Tb0  1  0.340222  0.670111  0.054117  1
  Lu  Lu1  1  0.339912  0.669957  0.447234  1
  Lu  Lu2  1  0.660048  0.330023  0.559423  1
  Lu  Lu3  1  0.660467  0.330233  0.939766  1
  Ga  Ga4  1  0.837632  0.168627  0.250799  1
  Ga  Ga5  1  0.837632  0.669005  0.250799  1
  Ga  Ga6  1  0.333521  0.166760  0.250886  1
  Ga  Ga7  1  0.162914  0.830747  0.749162  1
  Ga  Ga8  1  0.162914  0.332168  0.749162  1
  Ru  Ru9  1  0.005822  0.002911  0.498398  1
  Ru  Ru10  1  0.004986  0.002493  0.001078  1
  Ru  Ru11  1  0.653928  0.826964  0.749175  1
