# generated using pymatgen
data_TbNp3(B6Ru)2
_symmetry_space_group_name_H-M   'P 1'
_cell_length_a   3.57606500
_cell_length_b   9.33833483
_cell_length_c   11.38059100
_cell_angle_alpha   90.04813411
_cell_angle_beta   90.00000000
_cell_angle_gamma   90.00000000
_symmetry_Int_Tables_number   1
_chemical_formula_structural   TbNp3(B6Ru)2
_chemical_formula_sum   'Tb2 Np6 B24 Ru4'
_cell_volume   380.04892479
_cell_formula_units_Z   2
loop_
 _symmetry_equiv_pos_site_id
 _symmetry_equiv_pos_as_xyz
  1  'x, y, z'
loop_
 _atom_site_type_symbol
 _atom_site_label
 _atom_site_symmetry_multiplicity
 _atom_site_fract_x
 _atom_site_fract_y
 _atom_site_fract_z
 _atom_site_occupancy
  Tb  Tb0  1  0.000000  0.338362  0.406884  1
  Tb  Tb1  1  0.000000  0.661638  0.593116  1
  Np  Np2  1  0.000000  0.838216  0.093610  1
  Np  Np3  1  0.000000  0.161784  0.906390  1
  Np  Np4  1  0.000000  0.958988  0.400943  1
  Np  Np5  1  0.000000  0.041012  0.599057  1
  Np  Np6  1  0.000000  0.459990  0.098172  1
  Np  Np7  1  0.000000  0.540010  0.901828  1
  B  B8  1  0.500000  0.553040  0.431188  1
  B  B9  1  0.500000  0.446960  0.568812  1
  B  B10  1  0.500000  0.051871  0.067959  1
  B  B11  1  0.500000  0.948129  0.932041  1
  B  B12  1  0.500000  0.743980  0.422986  1
  B  B13  1  0.500000  0.256020  0.577014  1
  B  B14  1  0.500000  0.242960  0.076209  1
  B  B15  1  0.500000  0.757040  0.923791  1
  B  B16  1  0.500000  0.806255  0.274237  1
  B  B17  1  0.500000  0.193745  0.725763  1
  B  B18  1  0.500000  0.305569  0.224759  1
  B  B19  1  0.500000  0.694431  0.775241  1
  B  B20  1  0.500000  0.647190  0.188733  1
  B  B21  1  0.500000  0.352810  0.811267  1
  B  B22  1  0.500000  0.145586  0.311436  1
  B  B23  1  0.500000  0.854414  0.688564  1
  B  B24  1  0.500000  0.988996  0.220666  1
  B  B25  1  0.500000  0.011004  0.779334  1
  B  B26  1  0.500000  0.489962  0.278863  1
  B  B27  1  0.500000  0.510038  0.721137  1
  B  B28  1  0.500000  0.644780  0.040176  1
  B  B29  1  0.500000  0.355220  0.959824  1
  B  B30  1  0.500000  0.143316  0.460151  1
  B  B31  1  0.500000  0.856684  0.539849  1
  Ru  Ru32  1  0.000000  0.645600  0.319150  1
  Ru  Ru33  1  0.000000  0.354400  0.680850  1
  Ru  Ru34  1  0.000000  0.148232  0.180179  1
  Ru  Ru35  1  0.000000  0.851768  0.819821  1
