# generated using pymatgen
data_Li2ThP2
_symmetry_space_group_name_H-M   'P 1'
_cell_length_a   4.19396800
_cell_length_b   4.19396815
_cell_length_c   6.75970100
_cell_angle_alpha   90.00000000
_cell_angle_beta   90.00000000
_cell_angle_gamma   119.99999884
_symmetry_Int_Tables_number   1
_chemical_formula_structural   Li2ThP2
_chemical_formula_sum   'Li2 Th1 P2'
_cell_volume   102.96944294
_cell_formula_units_Z   1
loop_
 _symmetry_equiv_pos_site_id
 _symmetry_equiv_pos_as_xyz
  1  'x, y, z'
loop_
 _atom_site_type_symbol
 _atom_site_label
 _atom_site_symmetry_multiplicity
 _atom_site_fract_x
 _atom_site_fract_y
 _atom_site_fract_z
 _atom_site_occupancy
  Li  Li0  1  0.666666  0.333332  0.378234  1
  Li  Li1  1  0.333334  0.666668  0.621765  1
  Th  Th2  1  0.000000  0.000000  0.000000  1
  P  P3  1  0.333334  0.666668  0.236889  1
  P  P4  1  0.666666  0.333332  0.763111  1
