# generated using pymatgen
data_Ho3Pu(AlB4)4
_symmetry_space_group_name_H-M   'P 1'
_cell_length_a   3.56591000
_cell_length_b   5.94682018
_cell_length_c   11.53152035
_cell_angle_alpha   90.02831860
_cell_angle_beta   90.00000000
_cell_angle_gamma   90.00000000
_symmetry_Int_Tables_number   1
_chemical_formula_structural   Ho3Pu(AlB4)4
_chemical_formula_sum   'Ho3 Pu1 Al4 B16'
_cell_volume   244.53537909
_cell_formula_units_Z   1
loop_
 _symmetry_equiv_pos_site_id
 _symmetry_equiv_pos_as_xyz
  1  'x, y, z'
loop_
 _atom_site_type_symbol
 _atom_site_label
 _atom_site_symmetry_multiplicity
 _atom_site_fract_x
 _atom_site_fract_y
 _atom_site_fract_z
 _atom_site_occupancy
  Ho  Ho0  1  0.500000  0.627752  0.849965  1
  Ho  Ho1  1  0.500000  0.128172  0.650228  1
  Ho  Ho2  1  0.500000  0.871680  0.349774  1
  Pu  Pu3  1  0.500000  0.370583  0.150008  1
  Al  Al4  1  0.500000  0.362918  0.408269  1
  Al  Al5  1  0.500000  0.637832  0.589786  1
  Al  Al6  1  0.500000  0.138494  0.911130  1
  Al  Al7  1  0.500000  0.861786  0.091002  1
  B  B8  1  0.000000  0.113226  0.046788  1
  B  B9  1  0.000000  0.885681  0.952593  1
  B  B10  1  0.000000  0.386482  0.546525  1
  B  B11  1  0.000000  0.614651  0.453304  1
  B  B12  1  0.000000  0.133561  0.469479  1
  B  B13  1  0.000000  0.866611  0.531486  1
  B  B14  1  0.000000  0.366673  0.969083  1
  B  B15  1  0.000000  0.633233  0.031407  1
  B  B16  1  0.000000  0.028586  0.192862  1
  B  B17  1  0.000000  0.973992  0.807476  1
  B  B18  1  0.000000  0.473577  0.692453  1
  B  B19  1  0.000000  0.526812  0.307222  1
  B  B20  1  0.000000  0.211258  0.312287  1
  B  B21  1  0.000000  0.788751  0.687446  1
  B  B22  1  0.000000  0.288509  0.812265  1
  B  B23  1  0.000000  0.709180  0.187162  1
