# generated using pymatgen
data_Ho4Hf2MoO12
_symmetry_space_group_name_H-M   'P 1'
_cell_length_a   6.26422130
_cell_length_b   6.36671406
_cell_length_c   6.56286604
_cell_angle_alpha   100.56208876
_cell_angle_beta   98.13084124
_cell_angle_gamma   99.47352063
_symmetry_Int_Tables_number   1
_chemical_formula_structural   Ho4Hf2MoO12
_chemical_formula_sum   'Ho4 Hf2 Mo1 O12'
_cell_volume   249.79340082
_cell_formula_units_Z   1
loop_
 _symmetry_equiv_pos_site_id
 _symmetry_equiv_pos_as_xyz
  1  'x, y, z'
loop_
 _atom_site_type_symbol
 _atom_site_label
 _atom_site_symmetry_multiplicity
 _atom_site_fract_x
 _atom_site_fract_y
 _atom_site_fract_z
 _atom_site_occupancy
  Ho  Ho0  1  0.385631  0.699389  0.866527  1
  Ho  Ho1  1  0.700797  0.866482  0.391084  1
  Ho  Ho2  1  0.614369  0.300611  0.133473  1
  Ho  Ho3  1  0.299203  0.133518  0.608916  1
  Hf  Hf4  1  0.846859  0.397755  0.667978  1
  Hf  Hf5  1  0.153141  0.602245  0.332022  1
  Mo  Mo6  1  0.000000  0.000000  0.000000  1
  O  O7  1  0.018755  0.681227  0.884112  1
  O  O8  1  0.688786  0.933052  0.058481  1
  O  O9  1  0.923708  0.093057  0.696115  1
  O  O10  1  0.981245  0.318773  0.115888  1
  O  O11  1  0.311214  0.066948  0.941519  1
  O  O12  1  0.076292  0.906943  0.303885  1
  O  O13  1  0.590218  0.189497  0.433950  1
  O  O14  1  0.171175  0.431127  0.574590  1
  O  O15  1  0.414587  0.583417  0.178914  1
  O  O16  1  0.409782  0.810503  0.566050  1
  O  O17  1  0.828825  0.568873  0.425410  1
  O  O18  1  0.585413  0.416583  0.821086  1
