# generated using pymatgen
data_CeU(Tl2Se3)2
_symmetry_space_group_name_H-M   'P 1'
_cell_length_a   7.66476369
_cell_length_b   7.66476454
_cell_length_c   8.06934200
_cell_angle_alpha   80.80732764
_cell_angle_beta   80.80733418
_cell_angle_gamma   120.11846465
_symmetry_Int_Tables_number   1
_chemical_formula_structural   CeU(Tl2Se3)2
_chemical_formula_sum   'Ce1 U1 Tl4 Se6'
_cell_volume   388.48587298
_cell_formula_units_Z   1
loop_
 _symmetry_equiv_pos_site_id
 _symmetry_equiv_pos_as_xyz
  1  'x, y, z'
loop_
 _atom_site_type_symbol
 _atom_site_label
 _atom_site_symmetry_multiplicity
 _atom_site_fract_x
 _atom_site_fract_y
 _atom_site_fract_z
 _atom_site_occupancy
  Ce  Ce0  1  0.832009  0.167991  0.000000  1
  U  U1  1  0.167219  0.832781  0.000000  1
  Tl  Tl2  1  0.499723  0.500277  0.000000  1
  Tl  Tl3  1  0.656699  0.343301  0.500000  1
  Tl  Tl4  1  0.342030  0.657970  0.500000  1
  Tl  Tl5  1  0.001794  0.998206  0.500000  1
  Se  Se6  1  0.812658  0.795321  0.202648  1
  Se  Se7  1  0.204679  0.187342  0.797352  1
  Se  Se8  1  0.410196  0.045423  0.213292  1
  Se  Se9  1  0.554541  0.936126  0.789890  1
  Se  Se10  1  0.954577  0.589804  0.786708  1
  Se  Se11  1  0.063874  0.445459  0.210110  1
