# generated using pymatgen
data_Pr6In7Sn3
_symmetry_space_group_name_H-M   'P 1'
_cell_length_a   6.66504522
_cell_length_b   6.69324458
_cell_length_c   10.47599900
_cell_angle_alpha   90.00000000
_cell_angle_beta   90.00000000
_cell_angle_gamma   102.68658929
_symmetry_Int_Tables_number   1
_chemical_formula_structural   Pr6In7Sn3
_chemical_formula_sum   'Pr6 In7 Sn3'
_cell_volume   455.93275282
_cell_formula_units_Z   1
loop_
 _symmetry_equiv_pos_site_id
 _symmetry_equiv_pos_as_xyz
  1  'x, y, z'
loop_
 _atom_site_type_symbol
 _atom_site_label
 _atom_site_symmetry_multiplicity
 _atom_site_fract_x
 _atom_site_fract_y
 _atom_site_fract_z
 _atom_site_occupancy
  Pr  Pr0  1  0.634807  0.630356  0.250000  1
  Pr  Pr1  1  0.363999  0.367711  0.750000  1
  Pr  Pr2  1  0.203805  0.792263  0.502472  1
  Pr  Pr3  1  0.203805  0.792263  0.997528  1
  Pr  Pr4  1  0.797316  0.208329  0.501651  1
  Pr  Pr5  1  0.797316  0.208329  0.998349  1
  In  In6  1  0.013472  0.019316  0.250000  1
  In  In7  1  0.978899  0.980394  0.750000  1
  In  In8  1  0.310749  0.303805  0.051996  1
  In  In9  1  0.691398  0.696647  0.952472  1
  In  In10  1  0.310749  0.303805  0.448004  1
  In  In11  1  0.691398  0.696647  0.547528  1
  In  In12  1  0.501411  0.069356  0.250000  1
  Sn  Sn13  1  0.923219  0.503863  0.750000  1
  Sn  Sn14  1  0.501423  0.927460  0.750000  1
  Sn  Sn15  1  0.076233  0.499455  0.250000  1
