# generated using pymatgen
data_Dy5Y4Er11Bi12
_symmetry_space_group_name_H-M   'P 1'
_cell_length_a   8.23424938
_cell_length_b   9.46586506
_cell_length_c   12.04080202
_cell_angle_alpha   89.99700504
_cell_angle_beta   90.03390389
_cell_angle_gamma   89.99787802
_symmetry_Int_Tables_number   1
_chemical_formula_structural   Dy5Y4Er11Bi12
_chemical_formula_sum   'Dy5 Y4 Er11 Bi12'
_cell_volume   938.51164099
_cell_formula_units_Z   1
loop_
 _symmetry_equiv_pos_site_id
 _symmetry_equiv_pos_as_xyz
  1  'x, y, z'
loop_
 _atom_site_type_symbol
 _atom_site_label
 _atom_site_symmetry_multiplicity
 _atom_site_fract_x
 _atom_site_fract_y
 _atom_site_fract_z
 _atom_site_occupancy
  Dy  Dy0  1  0.186403  0.749972  0.718654  1
  Dy  Dy1  1  0.686403  0.749978  0.781347  1
  Dy  Dy2  1  0.813598  0.249814  0.281218  1
  Dy  Dy3  1  0.313534  0.249953  0.218568  1
  Dy  Dy4  1  0.806705  0.436686  0.559752  1
  Y  Y5  1  0.353935  0.749931  0.215510  1
  Y  Y6  1  0.853848  0.749806  0.284431  1
  Y  Y7  1  0.645605  0.249653  0.784590  1
  Y  Y8  1  0.146272  0.249664  0.715716  1
  Er  Er9  1  0.025553  0.749891  0.988758  1
  Er  Er10  1  0.525368  0.749989  0.511362  1
  Er  Er11  1  0.974507  0.249961  0.011268  1
  Er  Er12  1  0.474013  0.249744  0.488678  1
  Er  Er13  1  0.306629  0.435457  0.940346  1
  Er  Er14  1  0.806602  0.064504  0.559775  1
  Er  Er15  1  0.693419  0.935438  0.059676  1
  Er  Er16  1  0.193265  0.564633  0.440273  1
  Er  Er17  1  0.693355  0.564604  0.059700  1
  Er  Er18  1  0.193604  0.935547  0.440167  1
  Er  Er19  1  0.306580  0.064499  0.940390  1
  Bi  Bi20  1  0.433748  0.003611  0.673217  1
  Bi  Bi21  1  0.933955  0.496114  0.827068  1
  Bi  Bi22  1  0.566207  0.503635  0.326731  1
  Bi  Bi23  1  0.066270  0.996047  0.173073  1
  Bi  Bi24  1  0.566211  0.996123  0.326856  1
  Bi  Bi25  1  0.066346  0.503782  0.173000  1
  Bi  Bi26  1  0.433474  0.496094  0.673247  1
  Bi  Bi27  1  0.933816  0.003712  0.826978  1
  Bi  Bi28  1  0.408065  0.749993  0.957806  1
  Bi  Bi29  1  0.908629  0.751471  0.541899  1
  Bi  Bi30  1  0.591972  0.250028  0.042287  1
  Bi  Bi31  1  0.092109  0.249668  0.457662  1
