# generated using pymatgen
data_Dy3ScGa4Pt
_symmetry_space_group_name_H-M   'P 1'
_cell_length_a   7.06838500
_cell_length_b   7.06903950
_cell_length_c   4.35575700
_cell_angle_alpha   90.00000000
_cell_angle_beta   90.00000000
_cell_angle_gamma   119.99693263
_symmetry_Int_Tables_number   1
_chemical_formula_structural   Dy3ScGa4Pt
_chemical_formula_sum   'Dy3 Sc1 Ga4 Pt1'
_cell_volume   188.48999482
_cell_formula_units_Z   1
loop_
 _symmetry_equiv_pos_site_id
 _symmetry_equiv_pos_as_xyz
  1  'x, y, z'
loop_
 _atom_site_type_symbol
 _atom_site_label
 _atom_site_symmetry_multiplicity
 _atom_site_fract_x
 _atom_site_fract_y
 _atom_site_fract_z
 _atom_site_occupancy
  Dy  Dy0  1  0.593721  0.000000  0.000000  1
  Dy  Dy1  1  0.419039  0.420684  0.000000  1
  Dy  Dy2  1  0.998356  0.579316  0.000000  1
  Sc  Sc3  1  0.222648  0.000000  0.499999  1
  Ga  Ga4  1  0.002458  0.250015  0.499999  1
  Ga  Ga5  1  0.670598  0.332313  0.499999  1
  Ga  Ga6  1  0.338284  0.667687  0.499999  1
  Ga  Ga7  1  0.752443  0.749985  0.499999  1
  Pt  Pt8  1  0.002451  0.000000  0.000000  1
