# generated using pymatgen
data_Ti3Cu4Tc
_symmetry_space_group_name_H-M   'P 1'
_cell_length_a   3.15332900
_cell_length_b   3.15332900
_cell_length_c   11.17578700
_cell_angle_alpha   90.00000000
_cell_angle_beta   90.00000000
_cell_angle_gamma   90.00000000
_symmetry_Int_Tables_number   1
_chemical_formula_structural   Ti3Cu4Tc
_chemical_formula_sum   'Ti3 Cu4 Tc1'
_cell_volume   111.12625679
_cell_formula_units_Z   1
loop_
 _symmetry_equiv_pos_site_id
 _symmetry_equiv_pos_as_xyz
  1  'x, y, z'
loop_
 _atom_site_type_symbol
 _atom_site_label
 _atom_site_symmetry_multiplicity
 _atom_site_fract_x
 _atom_site_fract_y
 _atom_site_fract_z
 _atom_site_occupancy
  Ti  Ti0  1  0.499999  0.499999  0.131315  1
  Ti  Ti1  1  0.000000  0.000000  0.500000  1
  Ti  Ti2  1  0.499999  0.499999  0.868686  1
  Cu  Cu3  1  0.000000  0.000000  0.262641  1
  Cu  Cu4  1  0.499999  0.499999  0.375269  1
  Cu  Cu5  1  0.499999  0.499999  0.624731  1
  Cu  Cu6  1  0.000000  0.000000  0.737359  1
  Tc  Tc7  1  0.000000  0.000000  0.000000  1
