# generated using pymatgen
data_Dy4Er12InAg3Rh4
_symmetry_space_group_name_H-M   'P 1'
_cell_length_a   9.48486121
_cell_length_b   9.48280688
_cell_length_c   9.48177001
_cell_angle_alpha   60.16822490
_cell_angle_beta   60.15961167
_cell_angle_gamma   60.18399964
_symmetry_Int_Tables_number   1
_chemical_formula_structural   Dy4Er12InAg3Rh4
_chemical_formula_sum   'Dy4 Er12 In1 Ag3 Rh4'
_cell_volume   605.36478527
_cell_formula_units_Z   1
loop_
 _symmetry_equiv_pos_site_id
 _symmetry_equiv_pos_as_xyz
  1  'x, y, z'
loop_
 _atom_site_type_symbol
 _atom_site_label
 _atom_site_symmetry_multiplicity
 _atom_site_fract_x
 _atom_site_fract_y
 _atom_site_fract_z
 _atom_site_occupancy
  Dy  Dy0  1  0.189452  0.189738  0.810379  1
  Dy  Dy1  1  0.436086  0.063013  0.063242  1
  Dy  Dy2  1  0.435181  0.060690  0.435085  1
  Dy  Dy3  1  0.063011  0.436029  0.063667  1
  Er  Er4  1  0.649014  0.053094  0.648033  1
  Er  Er5  1  0.188771  0.812094  0.812430  1
  Er  Er6  1  0.062720  0.063164  0.436173  1
  Er  Er7  1  0.810243  0.189495  0.189786  1
  Er  Er8  1  0.812692  0.812226  0.188801  1
  Er  Er9  1  0.648307  0.648236  0.053334  1
  Er  Er10  1  0.648667  0.648407  0.648503  1
  Er  Er11  1  0.060340  0.435649  0.435186  1
  Er  Er12  1  0.053244  0.648846  0.647955  1
  Er  Er13  1  0.812257  0.188901  0.812143  1
  Er  Er14  1  0.435374  0.435696  0.060531  1
  Er  Er15  1  0.189438  0.810033  0.190061  1
  In  In16  1  0.421102  0.421289  0.420785  1
  Ag  Ag17  1  0.417216  0.748469  0.417683  1
  Ag  Ag18  1  0.417857  0.417864  0.748438  1
  Ag  Ag19  1  0.748907  0.417316  0.417814  1
  Rh  Rh20  1  0.855964  0.429865  0.856633  1
  Rh  Rh21  1  0.857115  0.856569  0.429262  1
  Rh  Rh22  1  0.429701  0.855812  0.857032  1
  Rh  Rh23  1  0.857340  0.857506  0.857044  1
