# generated using pymatgen
data_AcZn9Cu4
_symmetry_space_group_name_H-M   'P 1'
_cell_length_a   8.54924266
_cell_length_b   8.54453160
_cell_length_c   8.55247882
_cell_angle_alpha   60.00567753
_cell_angle_beta   60.21114513
_cell_angle_gamma   60.04328242
_symmetry_Int_Tables_number   1
_chemical_formula_structural   AcZn9Cu4
_chemical_formula_sum   'Ac2 Zn18 Cu8'
_cell_volume   442.63133864
_cell_formula_units_Z   2
loop_
 _symmetry_equiv_pos_site_id
 _symmetry_equiv_pos_as_xyz
  1  'x, y, z'
loop_
 _atom_site_type_symbol
 _atom_site_label
 _atom_site_symmetry_multiplicity
 _atom_site_fract_x
 _atom_site_fract_y
 _atom_site_fract_z
 _atom_site_occupancy
  Ac  Ac0  1  0.253673  0.246327  0.253673  1
  Ac  Ac1  1  0.746327  0.753673  0.746327  1
  Zn  Zn2  1  0.940645  0.305049  0.059355  1
  Zn  Zn3  1  0.059355  0.694951  0.940645  1
  Zn  Zn4  1  0.209002  0.794998  0.561112  1
  Zn  Zn5  1  0.790998  0.205002  0.438888  1
  Zn  Zn6  1  0.438888  0.565112  0.790998  1
  Zn  Zn7  1  0.561112  0.434888  0.209002  1
  Zn  Zn8  1  0.702610  0.295101  0.942681  1
  Zn  Zn9  1  0.297390  0.704899  0.057319  1
  Zn  Zn10  1  0.057319  0.940392  0.297390  1
  Zn  Zn11  1  0.942681  0.059608  0.702610  1
  Zn  Zn12  1  0.556407  0.204104  0.797006  1
  Zn  Zn13  1  0.443593  0.795896  0.202994  1
  Zn  Zn14  1  0.797006  0.442484  0.556407  1
  Zn  Zn15  1  0.202994  0.557516  0.443593  1
  Zn  Zn16  1  0.932576  0.709113  0.296660  1
  Zn  Zn17  1  0.067424  0.290887  0.703340  1
  Zn  Zn18  1  0.296660  0.061651  0.932576  1
  Zn  Zn19  1  0.703340  0.938349  0.067424  1
  Cu  Cu20  1  0.500000  0.500000  0.500000  1
  Cu  Cu21  1  0.000000  0.000000  0.000000  1
  Cu  Cu22  1  0.793989  0.563095  0.206011  1
  Cu  Cu23  1  0.206011  0.436905  0.793989  1
  Cu  Cu24  1  0.561384  0.796980  0.438616  1
  Cu  Cu25  1  0.438616  0.203020  0.561384  1
  Cu  Cu26  1  0.298968  0.938600  0.701032  1
  Cu  Cu27  1  0.701032  0.061400  0.298968  1
