# generated using pymatgen
data_Zr2VAs3O14
_symmetry_space_group_name_H-M   'P 1'
_cell_length_a   7.27866500
_cell_length_b   8.99836000
_cell_length_c   5.75260900
_cell_angle_alpha   90.00000000
_cell_angle_beta   90.00000000
_cell_angle_gamma   89.99767931
_symmetry_Int_Tables_number   1
_chemical_formula_structural   Zr2VAs3O14
_chemical_formula_sum   'Zr2 V1 As3 O14'
_cell_volume   376.77315503
_cell_formula_units_Z   1
loop_
 _symmetry_equiv_pos_site_id
 _symmetry_equiv_pos_as_xyz
  1  'x, y, z'
loop_
 _atom_site_type_symbol
 _atom_site_label
 _atom_site_symmetry_multiplicity
 _atom_site_fract_x
 _atom_site_fract_y
 _atom_site_fract_z
 _atom_site_occupancy
  Zr  Zr0  1  0.501038  0.997449  0.000000  1
  Zr  Zr1  1  0.995624  0.501069  0.499999  1
  V  V2  1  0.305132  0.387692  0.000000  1
  As  As3  1  0.699833  0.614525  0.000000  1
  As  As4  1  0.802766  0.112171  0.499999  1
  As  As5  1  0.197011  0.887221  0.499999  1
  O  O6  1  0.370391  0.205206  0.000000  1
  O  O7  1  0.506074  0.503960  0.000000  1
  O  O8  1  0.629970  0.792795  0.000000  1
  O  O9  1  0.179080  0.424781  0.244133  1
  O  O10  1  0.817002  0.574642  0.244609  1
  O  O11  1  0.684915  0.072759  0.255168  1
  O  O12  1  0.314279  0.927978  0.255279  1
  O  O13  1  0.999282  0.999011  0.499999  1
  O  O14  1  0.873972  0.290424  0.499999  1
  O  O15  1  0.128351  0.708157  0.499999  1
  O  O16  1  0.684915  0.072759  0.744832  1
  O  O17  1  0.314279  0.927978  0.744721  1
  O  O18  1  0.179080  0.424781  0.755868  1
  O  O19  1  0.817002  0.574642  0.755392  1
