# generated using pymatgen
data_La8Ho9Tm3Si16
_symmetry_space_group_name_H-M   'P 1'
_cell_length_a   7.55413006
_cell_length_b   7.84270006
_cell_length_c   14.90342200
_cell_angle_alpha   90.00000000
_cell_angle_beta   90.00000000
_cell_angle_gamma   89.98585164
_symmetry_Int_Tables_number   1
_chemical_formula_structural   La8Ho9Tm3Si16
_chemical_formula_sum   'La8 Ho9 Tm3 Si16'
_cell_volume   882.94987489
_cell_formula_units_Z   1
loop_
 _symmetry_equiv_pos_site_id
 _symmetry_equiv_pos_as_xyz
  1  'x, y, z'
loop_
 _atom_site_type_symbol
 _atom_site_label
 _atom_site_symmetry_multiplicity
 _atom_site_fract_x
 _atom_site_fract_y
 _atom_site_fract_z
 _atom_site_occupancy
  La  La0  1  0.976777  0.822084  0.098152  1
  La  La1  1  0.476779  0.677869  0.401829  1
  La  La2  1  0.523265  0.322044  0.901956  1
  La  La3  1  0.023164  0.178024  0.598058  1
  La  La4  1  0.023164  0.178024  0.901942  1
  La  La5  1  0.523265  0.322044  0.598044  1
  La  La6  1  0.476779  0.677869  0.098171  1
  La  La7  1  0.976777  0.822084  0.401848  1
  Ho  Ho8  1  0.350227  0.009313  0.750000  1
  Ho  Ho9  1  0.681228  0.822372  0.876514  1
  Ho  Ho10  1  0.180953  0.677477  0.623509  1
  Ho  Ho11  1  0.818877  0.322455  0.123526  1
  Ho  Ho12  1  0.318889  0.177530  0.376450  1
  Ho  Ho13  1  0.318889  0.177530  0.123550  1
  Ho  Ho14  1  0.818877  0.322455  0.376474  1
  Ho  Ho15  1  0.180953  0.677477  0.876491  1
  Ho  Ho16  1  0.681228  0.822372  0.623486  1
  Tm  Tm17  1  0.649802  0.990811  0.250000  1
  Tm  Tm18  1  0.149786  0.509207  0.250000  1
  Tm  Tm19  1  0.850234  0.490696  0.750000  1
  Si  Si20  1  0.770736  0.619674  0.250000  1
  Si  Si21  1  0.270690  0.880307  0.250000  1
  Si  Si22  1  0.729984  0.119692  0.750000  1
  Si  Si23  1  0.229308  0.380937  0.750000  1
  Si  Si24  1  0.023248  0.114975  0.250000  1
  Si  Si25  1  0.523262  0.385015  0.250000  1
  Si  Si26  1  0.476694  0.614854  0.750000  1
  Si  Si27  1  0.976066  0.884936  0.750000  1
  Si  Si28  1  0.857085  0.530916  0.959888  1
  Si  Si29  1  0.357130  0.969017  0.539914  1
  Si  Si30  1  0.642895  0.030889  0.040167  1
  Si  Si31  1  0.142938  0.469114  0.459863  1
  Si  Si32  1  0.142938  0.469114  0.040137  1
  Si  Si33  1  0.642895  0.030889  0.459833  1
  Si  Si34  1  0.357130  0.969017  0.960086  1
  Si  Si35  1  0.857085  0.530916  0.540112  1
