# generated using pymatgen
data_DyErNiOs3
_symmetry_space_group_name_H-M   'P 1'
_cell_length_a   5.25215555
_cell_length_b   5.25215652
_cell_length_c   5.31955717
_cell_angle_alpha   60.41826417
_cell_angle_beta   60.41825892
_cell_angle_gamma   60.00000060
_symmetry_Int_Tables_number   1
_chemical_formula_structural   DyErNiOs3
_chemical_formula_sum   'Dy1 Er1 Ni1 Os3'
_cell_volume   104.41252700
_cell_formula_units_Z   1
loop_
 _symmetry_equiv_pos_site_id
 _symmetry_equiv_pos_as_xyz
  1  'x, y, z'
loop_
 _atom_site_type_symbol
 _atom_site_label
 _atom_site_symmetry_multiplicity
 _atom_site_fract_x
 _atom_site_fract_y
 _atom_site_fract_z
 _atom_site_occupancy
  Dy  Dy0  1  0.997977  0.997977  0.006069  1
  Er  Er1  1  0.752285  0.752285  0.743144  1
  Ni  Ni2  1  0.375081  0.375081  0.874759  1
  Os  Os3  1  0.374925  0.874807  0.375343  1
  Os  Os4  1  0.374925  0.374925  0.375343  1
  Os  Os5  1  0.874807  0.374925  0.375343  1
