# generated using pymatgen
data_NdAgPt4
_symmetry_space_group_name_H-M   'P 1'
_cell_length_a   5.41738832
_cell_length_b   5.41738841
_cell_length_c   5.41738900
_cell_angle_alpha   60.00000249
_cell_angle_beta   60.00000196
_cell_angle_gamma   59.99999479
_symmetry_Int_Tables_number   1
_chemical_formula_structural   NdAgPt4
_chemical_formula_sum   'Nd1 Ag1 Pt4'
_cell_volume   112.42294621
_cell_formula_units_Z   1
loop_
 _symmetry_equiv_pos_site_id
 _symmetry_equiv_pos_as_xyz
  1  'x, y, z'
loop_
 _atom_site_type_symbol
 _atom_site_label
 _atom_site_symmetry_multiplicity
 _atom_site_fract_x
 _atom_site_fract_y
 _atom_site_fract_z
 _atom_site_occupancy
  Nd  Nd0  1  0.500000  0.500000  0.500000  1
  Ag  Ag1  1  0.750000  0.750000  0.750000  1
  Pt  Pt2  1  0.124451  0.626647  0.124451  1
  Pt  Pt3  1  0.124451  0.124451  0.626647  1
  Pt  Pt4  1  0.626647  0.124451  0.124451  1
  Pt  Pt5  1  0.124451  0.124451  0.124451  1
