# generated using pymatgen
data_Dy6Y2Sc12Si15Bi
_symmetry_space_group_name_H-M   'P 1'
_cell_length_a   7.17556857
_cell_length_b   7.42444969
_cell_length_c   14.08494612
_cell_angle_alpha   90.07305982
_cell_angle_beta   88.83114760
_cell_angle_gamma   90.18595264
_symmetry_Int_Tables_number   1
_chemical_formula_structural   Dy6Y2Sc12Si15Bi
_chemical_formula_sum   'Dy6 Y2 Sc12 Si15 Bi1'
_cell_volume   750.20990883
_cell_formula_units_Z   1
loop_
 _symmetry_equiv_pos_site_id
 _symmetry_equiv_pos_as_xyz
  1  'x, y, z'
loop_
 _atom_site_type_symbol
 _atom_site_label
 _atom_site_symmetry_multiplicity
 _atom_site_fract_x
 _atom_site_fract_y
 _atom_site_fract_z
 _atom_site_occupancy
  Dy  Dy0  1  0.488375  0.675577  0.903779  1
  Dy  Dy1  1  0.991530  0.831481  0.598531  1
  Dy  Dy2  1  0.512200  0.324474  0.097465  1
  Dy  Dy3  1  0.001121  0.169695  0.398815  1
  Dy  Dy4  1  0.512288  0.318152  0.397503  1
  Dy  Dy5  1  0.510553  0.685874  0.601311  1
  Y  Y6  1  0.012555  0.176503  0.096743  1
  Y  Y7  1  0.987843  0.824948  0.903976  1
  Sc  Sc8  1  0.163442  0.500999  0.756325  1
  Sc  Sc9  1  0.835798  0.498933  0.251340  1
  Sc  Sc10  1  0.336160  0.001685  0.250033  1
  Sc  Sc11  1  0.665561  0.998979  0.751369  1
  Sc  Sc12  1  0.347389  0.156146  0.632078  1
  Sc  Sc13  1  0.660356  0.827050  0.372373  1
  Sc  Sc14  1  0.156292  0.683573  0.369143  1
  Sc  Sc15  1  0.667966  0.822813  0.123824  1
  Sc  Sc16  1  0.824970  0.325984  0.625809  1
  Sc  Sc17  1  0.330083  0.175386  0.875398  1
  Sc  Sc18  1  0.830879  0.323568  0.875636  1
  Sc  Sc19  1  0.169046  0.676629  0.124795  1
  Si  Si20  1  0.035225  0.119946  0.750976  1
  Si  Si21  1  0.962092  0.884473  0.246219  1
  Si  Si22  1  0.462151  0.616987  0.247516  1
  Si  Si23  1  0.534832  0.383711  0.752977  1
  Si  Si24  1  0.288380  0.867607  0.752946  1
  Si  Si25  1  0.711598  0.125942  0.246603  1
  Si  Si26  1  0.210876  0.374230  0.249082  1
  Si  Si27  1  0.792462  0.627686  0.751588  1
  Si  Si28  1  0.814212  0.541340  0.456439  1
  Si  Si29  1  0.333062  0.963636  0.459988  1
  Si  Si30  1  0.843980  0.534503  0.039848  1
  Si  Si31  1  0.668245  0.038569  0.538474  1
  Si  Si32  1  0.155226  0.465236  0.961272  1
  Si  Si33  1  0.654588  0.034797  0.960266  1
  Si  Si34  1  0.344017  0.965907  0.040069  1
  Bi  Bi35  1  0.184642  0.456983  0.539492  1
