# generated using pymatgen
data_Er6Al24FeRu3Rh4
_symmetry_space_group_name_H-M   'P 1'
_cell_length_a   8.80666796
_cell_length_b   8.80666740
_cell_length_c   9.46124088
_cell_angle_alpha   89.95805509
_cell_angle_beta   90.04194629
_cell_angle_gamma   120.27489958
_symmetry_Int_Tables_number   1
_chemical_formula_structural   Er6Al24FeRu3Rh4
_chemical_formula_sum   'Er6 Al24 Fe1 Ru3 Rh4'
_cell_volume   633.71223177
_cell_formula_units_Z   1
loop_
 _symmetry_equiv_pos_site_id
 _symmetry_equiv_pos_as_xyz
  1  'x, y, z'
loop_
 _atom_site_type_symbol
 _atom_site_label
 _atom_site_symmetry_multiplicity
 _atom_site_fract_x
 _atom_site_fract_y
 _atom_site_fract_z
 _atom_site_occupancy
  Er  Er0  1  0.198416  0.389300  0.250915  1
  Er  Er1  1  0.801584  0.610700  0.749085  1
  Er  Er2  1  0.610700  0.801584  0.250915  1
  Er  Er3  1  0.389300  0.198416  0.749085  1
  Er  Er4  1  0.194433  0.805567  0.250745  1
  Er  Er5  1  0.805567  0.194433  0.749255  1
  Al  Al6  1  0.334303  0.665697  0.022762  1
  Al  Al7  1  0.665697  0.334303  0.977238  1
  Al  Al8  1  0.665645  0.334355  0.523676  1
  Al  Al9  1  0.334355  0.665645  0.476324  1
  Al  Al10  1  0.163365  0.325252  0.577274  1
  Al  Al11  1  0.836635  0.674748  0.422726  1
  Al  Al12  1  0.674748  0.836635  0.577274  1
  Al  Al13  1  0.838598  0.680053  0.075905  1
  Al  Al14  1  0.325252  0.163365  0.422726  1
  Al  Al15  1  0.161402  0.319947  0.924095  1
  Al  Al16  1  0.161456  0.838544  0.578082  1
  Al  Al17  1  0.319947  0.161402  0.075905  1
  Al  Al18  1  0.838544  0.161456  0.421918  1
  Al  Al19  1  0.680053  0.838598  0.924095  1
  Al  Al20  1  0.840930  0.159070  0.076740  1
  Al  Al21  1  0.159070  0.840930  0.923260  1
  Al  Al22  1  0.562331  0.122439  0.249546  1
  Al  Al23  1  0.437669  0.877561  0.750454  1
  Al  Al24  1  0.877561  0.437669  0.249546  1
  Al  Al25  1  0.122439  0.562331  0.750454  1
  Al  Al26  1  0.562212  0.437788  0.249754  1
  Al  Al27  1  0.437788  0.562212  0.750246  1
  Al  Al28  1  0.001023  0.998977  0.244395  1
  Al  Al29  1  0.998977  0.001023  0.755605  1
  Fe  Fe30  1  0.000000  0.000000  0.000000  1
  Ru  Ru31  1  0.500000  0.500000  0.000000  1
  Ru  Ru32  1  0.500000  0.500000  0.500000  1
  Ru  Ru33  1  0.000000  0.000000  0.500000  1
  Rh  Rh34  1  0.500000  0.000000  0.000000  1
  Rh  Rh35  1  0.000000  0.500000  0.000000  1
  Rh  Rh36  1  0.500000  0.000000  0.500000  1
  Rh  Rh37  1  0.000000  0.500000  0.500000  1
