# generated using pymatgen
data_CuTc12I25
_symmetry_space_group_name_H-M   'P 1'
_cell_length_a   10.61031462
_cell_length_b   11.79905475
_cell_length_c   12.96805803
_cell_angle_alpha   84.31119237
_cell_angle_beta   83.86594731
_cell_angle_gamma   95.93671931
_symmetry_Int_Tables_number   1
_chemical_formula_structural   CuTc12I25
_chemical_formula_sum   'Cu1 Tc12 I25'
_cell_volume   1595.54538588
_cell_formula_units_Z   1
loop_
 _symmetry_equiv_pos_site_id
 _symmetry_equiv_pos_as_xyz
  1  'x, y, z'
loop_
 _atom_site_type_symbol
 _atom_site_label
 _atom_site_symmetry_multiplicity
 _atom_site_fract_x
 _atom_site_fract_y
 _atom_site_fract_z
 _atom_site_occupancy
  Cu  Cu0  1  0.500000  0.000000  0.000000  1
  Tc  Tc1  1  0.804850  0.248722  0.119336  1
  Tc  Tc2  1  0.195150  0.751278  0.880664  1
  Tc  Tc3  1  0.741180  0.120383  0.255806  1
  Tc  Tc4  1  0.258820  0.879617  0.744194  1
  Tc  Tc5  1  0.035715  0.287626  0.190408  1
  Tc  Tc6  1  0.964285  0.712374  0.809592  1
  Tc  Tc7  1  0.845902  0.413945  0.248922  1
  Tc  Tc8  1  0.154098  0.586055  0.751078  1
  Tc  Tc9  1  0.779875  0.285212  0.385464  1
  Tc  Tc10  1  0.220125  0.714788  0.614536  1
  Tc  Tc11  1  0.972419  0.160123  0.328406  1
  Tc  Tc12  1  0.027581  0.839877  0.671594  1
  I  I13  1  0.901907  0.962214  0.259470  1
  I  I14  1  0.098093  0.037786  0.740530  1
  I  I15  1  0.974604  0.271551  0.495752  1
  I  I16  1  0.025396  0.728449  0.504248  1
  I  I17  1  0.647823  0.409791  0.138318  1
  I  I18  1  0.352177  0.590209  0.861682  1
  I  I19  1  0.086965  0.480140  0.278356  1
  I  I20  1  0.913035  0.519860  0.721644  1
  I  I21  1  0.000000  0.500000  0.000000  1
  I  I22  1  0.567826  0.956218  0.193084  1
  I  I23  1  0.432174  0.043782  0.806916  1
  I  I24  1  0.182436  0.065134  0.388049  1
  I  I25  1  0.817564  0.934866  0.611951  1
  I  I26  1  0.546598  0.196168  0.362137  1
  I  I27  1  0.453402  0.803832  0.637863  1
  I  I28  1  0.009445  0.168567  0.027971  1
  I  I29  1  0.990555  0.831433  0.972029  1
  I  I30  1  0.787042  0.625543  0.295745  1
  I  I31  1  0.212958  0.374457  0.704255  1
  I  I32  1  0.677877  0.182927  0.953193  1
  I  I33  1  0.322123  0.817073  0.046807  1
  I  I34  1  0.292281  0.292420  0.133565  1
  I  I35  1  0.707719  0.707580  0.866435  1
  I  I36  1  0.663591  0.386031  0.545147  1
  I  I37  1  0.336409  0.613969  0.454853  1
