# generated using pymatgen
data_Zr3In3Co2CuH2
_symmetry_space_group_name_H-M   'P 1'
_cell_length_a   7.32317000
_cell_length_b   7.32316978
_cell_length_c   3.57518400
_cell_angle_alpha   90.00000000
_cell_angle_beta   90.00000000
_cell_angle_gamma   120.00000100
_symmetry_Int_Tables_number   1
_chemical_formula_structural   Zr3In3Co2CuH2
_chemical_formula_sum   'Zr3 In3 Co2 Cu1 H2'
_cell_volume   166.04555118
_cell_formula_units_Z   1
loop_
 _symmetry_equiv_pos_site_id
 _symmetry_equiv_pos_as_xyz
  1  'x, y, z'
loop_
 _atom_site_type_symbol
 _atom_site_label
 _atom_site_symmetry_multiplicity
 _atom_site_fract_x
 _atom_site_fract_y
 _atom_site_fract_z
 _atom_site_occupancy
  Zr  Zr0  1  0.405063  0.405063  0.500000  1
  Zr  Zr1  1  0.594937  0.000000  0.500000  1
  Zr  Zr2  1  0.000000  0.594937  0.500000  1
  In  In3  1  0.733941  0.733941  0.000000  1
  In  In4  1  0.266059  0.000000  0.000000  1
  In  In5  1  0.000000  0.266059  0.000000  1
  Co  Co6  1  0.666667  0.333333  0.000000  1
  Co  Co7  1  0.333333  0.666667  0.000000  1
  Cu  Cu8  1  0.000000  0.000000  0.500000  1
  H  H9  1  0.333333  0.666667  0.500000  1
  H  H10  1  0.666667  0.333333  0.500000  1
