# generated using pymatgen
data_SrLa7(Y3Sn4)4
_symmetry_space_group_name_H-M   'P 1'
_cell_length_a   8.18026417
_cell_length_b   8.34614296
_cell_length_c   15.83704900
_cell_angle_alpha   89.85376973
_cell_angle_beta   90.03059412
_cell_angle_gamma   90.13683468
_symmetry_Int_Tables_number   1
_chemical_formula_structural   SrLa7(Y3Sn4)4
_chemical_formula_sum   'Sr1 La7 Y12 Sn16'
_cell_volume   1081.24645061
_cell_formula_units_Z   1
loop_
 _symmetry_equiv_pos_site_id
 _symmetry_equiv_pos_as_xyz
  1  'x, y, z'
loop_
 _atom_site_type_symbol
 _atom_site_label
 _atom_site_symmetry_multiplicity
 _atom_site_fract_x
 _atom_site_fract_y
 _atom_site_fract_z
 _atom_site_occupancy
  Sr  Sr0  1  0.003303  0.175440  0.906229  1
  La  La1  1  0.500823  0.323967  0.903061  1
  La  La2  1  0.000784  0.176153  0.594210  1
  La  La3  1  0.498021  0.675292  0.403652  1
  La  La4  1  0.998110  0.822935  0.096864  1
  La  La5  1  0.497456  0.674666  0.097334  1
  La  La6  1  0.998614  0.823542  0.403576  1
  La  La7  1  0.501192  0.324003  0.595427  1
  Y  Y8  1  0.338151  0.834451  0.874192  1
  Y  Y9  1  0.840531  0.666561  0.623416  1
  Y  Y10  1  0.659376  0.166667  0.375058  1
  Y  Y11  1  0.159820  0.332688  0.125054  1
  Y  Y12  1  0.660537  0.168862  0.125747  1
  Y  Y13  1  0.158443  0.332244  0.375334  1
  Y  Y14  1  0.341811  0.832357  0.624534  1
  Y  Y15  1  0.842210  0.666068  0.875021  1
  Y  Y16  1  0.173530  0.500010  0.749349  1
  Y  Y17  1  0.675495  0.000979  0.749996  1
  Y  Y18  1  0.825924  0.500444  0.250505  1
  Y  Y19  1  0.326616  0.000470  0.251386  1
  Sn  Sn20  1  0.328384  0.035934  0.043665  1
  Sn  Sn21  1  0.821599  0.461047  0.457372  1
  Sn  Sn22  1  0.677067  0.961231  0.541558  1
  Sn  Sn23  1  0.179007  0.543768  0.959948  1
  Sn  Sn24  1  0.670017  0.957903  0.960180  1
  Sn  Sn25  1  0.178733  0.538897  0.541354  1
  Sn  Sn26  1  0.322101  0.038413  0.458132  1
  Sn  Sn27  1  0.822403  0.465653  0.044252  1
  Sn  Sn28  1  0.538650  0.624104  0.750350  1
  Sn  Sn29  1  0.038512  0.874930  0.747454  1
  Sn  Sn30  1  0.460713  0.376360  0.250318  1
  Sn  Sn31  1  0.962550  0.122954  0.249366  1
  Sn  Sn32  1  0.309834  0.140647  0.747949  1
  Sn  Sn33  1  0.805379  0.360240  0.747744  1
  Sn  Sn34  1  0.692306  0.858260  0.250252  1
  Sn  Sn35  1  0.192002  0.641857  0.250162  1
