# generated using pymatgen
data_Tb3Ho(Er3Ru2)2
_symmetry_space_group_name_H-M   'P 1'
_cell_length_a   6.32003476
_cell_length_b   7.26995272
_cell_length_c   8.43907545
_cell_angle_alpha   96.75289595
_cell_angle_beta   112.05417718
_cell_angle_gamma   89.95671889
_symmetry_Int_Tables_number   1
_chemical_formula_structural   Tb3Ho(Er3Ru2)2
_chemical_formula_sum   'Tb3 Ho1 Er6 Ru4'
_cell_volume   356.48310339
_cell_formula_units_Z   1
loop_
 _symmetry_equiv_pos_site_id
 _symmetry_equiv_pos_as_xyz
  1  'x, y, z'
loop_
 _atom_site_type_symbol
 _atom_site_label
 _atom_site_symmetry_multiplicity
 _atom_site_fract_x
 _atom_site_fract_y
 _atom_site_fract_z
 _atom_site_occupancy
  Tb  Tb0  1  0.790522  0.583908  0.812520  1
  Tb  Tb1  1  0.977196  0.916108  0.187037  1
  Tb  Tb2  1  0.209684  0.415950  0.187127  1
  Ho  Ho3  1  0.022378  0.084092  0.812874  1
  Er  Er4  1  0.205444  0.685108  0.565676  1
  Er  Er5  1  0.640604  0.815371  0.435120  1
  Er  Er6  1  0.794753  0.314784  0.434791  1
  Er  Er7  1  0.359517  0.184911  0.565504  1
  Er  Er8  1  0.419102  0.749978  0.999737  1
  Er  Er9  1  0.580462  0.249969  0.999819  1
  Ru  Ru10  1  0.601781  0.924696  0.779002  1
  Ru  Ru11  1  0.822103  0.576249  0.220846  1
  Ru  Ru12  1  0.398747  0.075478  0.220733  1
  Ru  Ru13  1  0.177707  0.423398  0.779214  1
