# generated using pymatgen
data_Tb4TmLu5Ir4
_symmetry_space_group_name_H-M   'P 1'
_cell_length_a   6.44066208
_cell_length_b   7.18115806
_cell_length_c   8.41476950
_cell_angle_alpha   96.85489763
_cell_angle_beta   112.50101863
_cell_angle_gamma   89.99999651
_symmetry_Int_Tables_number   1
_chemical_formula_structural   Tb4TmLu5Ir4
_chemical_formula_sum   'Tb4 Tm1 Lu5 Ir4'
_cell_volume   356.55339480
_cell_formula_units_Z   1
loop_
 _symmetry_equiv_pos_site_id
 _symmetry_equiv_pos_as_xyz
  1  'x, y, z'
loop_
 _atom_site_type_symbol
 _atom_site_label
 _atom_site_symmetry_multiplicity
 _atom_site_fract_x
 _atom_site_fract_y
 _atom_site_fract_z
 _atom_site_occupancy
  Tb  Tb0  1  0.971337  0.919860  0.186041  1
  Tb  Tb1  1  0.785295  0.580140  0.813959  1
  Tb  Tb2  1  0.028828  0.079792  0.813778  1
  Tb  Tb3  1  0.215052  0.420208  0.186222  1
  Tm  Tm4  1  0.572884  0.250000  0.000000  1
  Lu  Lu5  1  0.650390  0.817569  0.440170  1
  Lu  Lu6  1  0.210219  0.682431  0.559830  1
  Lu  Lu7  1  0.349215  0.182209  0.559434  1
  Lu  Lu8  1  0.789782  0.317791  0.440566  1
  Lu  Lu9  1  0.427571  0.750000  0.000000  1
  Ir  Ir10  1  0.821064  0.573678  0.222162  1
  Ir  Ir11  1  0.598902  0.926322  0.777838  1
  Ir  Ir12  1  0.178662  0.427243  0.777861  1
  Ir  Ir13  1  0.400800  0.072757  0.222139  1
