# generated using pymatgen
data_Tb2Fe3P7Ru9
_symmetry_space_group_name_H-M   'P 1'
_cell_length_a   3.87549500
_cell_length_b   9.30389334
_cell_length_c   9.30337686
_cell_angle_alpha   120.01378214
_cell_angle_beta   90.00000000
_cell_angle_gamma   90.00000000
_symmetry_Int_Tables_number   1
_chemical_formula_structural   Tb2Fe3P7Ru9
_chemical_formula_sum   'Tb2 Fe3 P7 Ru9'
_cell_volume   290.47102576
_cell_formula_units_Z   1
loop_
 _symmetry_equiv_pos_site_id
 _symmetry_equiv_pos_as_xyz
  1  'x, y, z'
loop_
 _atom_site_type_symbol
 _atom_site_label
 _atom_site_symmetry_multiplicity
 _atom_site_fract_x
 _atom_site_fract_y
 _atom_site_fract_z
 _atom_site_occupancy
  Tb  Tb0  1  0.000000  0.666706  0.333497  1
  Tb  Tb1  1  0.500000  0.333336  0.666575  1
  Fe  Fe2  1  0.000000  0.890267  0.733294  1
  Fe  Fe3  1  0.000000  0.266510  0.156879  1
  Fe  Fe4  1  0.000000  0.843116  0.109632  1
  P  P5  1  0.000000  0.108270  0.695942  1
  P  P6  1  0.000000  0.304115  0.412383  1
  P  P7  1  0.000000  0.587601  0.891721  1
  P  P8  1  0.500000  0.719107  0.603384  1
  P  P9  1  0.500000  0.396626  0.115728  1
  P  P10  1  0.500000  0.884310  0.280928  1
  P  P11  1  0.000000  0.999971  0.999954  1
  Ru  Ru12  1  0.000000  0.361234  0.940260  1
  Ru  Ru13  1  0.000000  0.059677  0.421015  1
  Ru  Ru14  1  0.000000  0.579002  0.638728  1
  Ru  Ru15  1  0.500000  0.947961  0.562532  1
  Ru  Ru16  1  0.500000  0.437472  0.385444  1
  Ru  Ru17  1  0.500000  0.614635  0.052030  1
  Ru  Ru18  1  0.500000  0.117567  0.912255  1
  Ru  Ru19  1  0.500000  0.087808  0.205371  1
  Ru  Ru20  1  0.500000  0.794710  0.882448  1
