# generated using pymatgen
data_CaAl2SiAu
_symmetry_space_group_name_H-M   'P 1'
_cell_length_a   4.15827480
_cell_length_b   4.15827447
_cell_length_c   6.36081638
_cell_angle_alpha   70.92129789
_cell_angle_beta   70.92130236
_cell_angle_gamma   89.99999669
_symmetry_Int_Tables_number   1
_chemical_formula_structural   CaAl2SiAu
_chemical_formula_sum   'Ca1 Al2 Si1 Au1'
_cell_volume   97.52992418
_cell_formula_units_Z   1
loop_
 _symmetry_equiv_pos_site_id
 _symmetry_equiv_pos_as_xyz
  1  'x, y, z'
loop_
 _atom_site_type_symbol
 _atom_site_label
 _atom_site_symmetry_multiplicity
 _atom_site_fract_x
 _atom_site_fract_y
 _atom_site_fract_z
 _atom_site_occupancy
  Ca  Ca0  1  0.994998  0.994998  0.010003  1
  Al  Al1  1  0.749273  0.249273  0.501455  1
  Al  Al2  1  0.249273  0.749273  0.501455  1
  Si  Si3  1  0.392304  0.392304  0.215391  1
  Au  Au4  1  0.614151  0.614151  0.771698  1
