# generated using pymatgen
data_Li4Ho3ThSi8
_symmetry_space_group_name_H-M   'P 1'
_cell_length_a   3.78938900
_cell_length_b   7.65683301
_cell_length_c   10.24881504
_cell_angle_alpha   89.97186887
_cell_angle_beta   90.00000000
_cell_angle_gamma   90.00000000
_symmetry_Int_Tables_number   1
_chemical_formula_structural   Li4Ho3ThSi8
_chemical_formula_sum   'Li4 Ho3 Th1 Si8'
_cell_volume   297.36645016
_cell_formula_units_Z   1
loop_
 _symmetry_equiv_pos_site_id
 _symmetry_equiv_pos_as_xyz
  1  'x, y, z'
loop_
 _atom_site_type_symbol
 _atom_site_label
 _atom_site_symmetry_multiplicity
 _atom_site_fract_x
 _atom_site_fract_y
 _atom_site_fract_z
 _atom_site_occupancy
  Li  Li0  1  0.250000  0.989640  0.392785  1
  Li  Li1  1  0.250000  0.488856  0.104564  1
  Li  Li2  1  0.750000  0.011411  0.610285  1
  Li  Li3  1  0.750000  0.510627  0.893487  1
  Ho  Ho4  1  0.250000  0.137355  0.862097  1
  Ho  Ho5  1  0.250000  0.638674  0.636314  1
  Ho  Ho6  1  0.750000  0.862379  0.135987  1
  Th  Th7  1  0.750000  0.356819  0.361986  1
  Si  Si8  1  0.250000  0.234651  0.572000  1
  Si  Si9  1  0.250000  0.733428  0.932897  1
  Si  Si10  1  0.750000  0.772304  0.433023  1
  Si  Si11  1  0.750000  0.261199  0.063534  1
  Si  Si12  1  0.250000  0.660140  0.318736  1
  Si  Si13  1  0.250000  0.151979  0.177030  1
  Si  Si14  1  0.750000  0.345444  0.684449  1
  Si  Si15  1  0.750000  0.845093  0.820826  1
