# generated using pymatgen
data_LiHf6Zn5Pt12
_symmetry_space_group_name_H-M   'P 1'
_cell_length_a   4.08529600
_cell_length_b   7.78267900
_cell_length_c   12.23654600
_cell_angle_alpha   90.00000000
_cell_angle_beta   89.99982220
_cell_angle_gamma   90.00000000
_symmetry_Int_Tables_number   1
_chemical_formula_structural   LiHf6Zn5Pt12
_chemical_formula_sum   'Li1 Hf6 Zn5 Pt12'
_cell_volume   389.05544166
_cell_formula_units_Z   1
loop_
 _symmetry_equiv_pos_site_id
 _symmetry_equiv_pos_as_xyz
  1  'x, y, z'
loop_
 _atom_site_type_symbol
 _atom_site_label
 _atom_site_symmetry_multiplicity
 _atom_site_fract_x
 _atom_site_fract_y
 _atom_site_fract_z
 _atom_site_occupancy
  Li  Li0  1  0.499988  0.499999  0.833335  1
  Hf  Hf1  1  0.000000  0.499999  0.997063  1
  Hf  Hf2  1  0.500001  0.000000  0.166317  1
  Hf  Hf3  1  0.000003  0.499999  0.333335  1
  Hf  Hf4  1  0.500000  0.000000  0.500349  1
  Hf  Hf5  1  0.999997  0.499999  0.669600  1
  Hf  Hf6  1  0.499997  0.000000  0.833334  1
  Zn  Zn7  1  0.000001  0.000000  0.999677  1
  Zn  Zn8  1  0.500004  0.499999  0.165265  1
  Zn  Zn9  1  0.000002  0.000000  0.333332  1
  Zn  Zn10  1  0.500000  0.499999  0.501402  1
  Zn  Zn11  1  0.999999  0.000000  0.666992  1
  Pt  Pt12  1  0.500001  0.250544  0.999195  1
  Pt  Pt13  1  0.500001  0.749456  0.999195  1
  Pt  Pt14  1  0.000003  0.249443  0.166760  1
  Pt  Pt15  1  0.000003  0.750557  0.166760  1
  Pt  Pt16  1  0.500003  0.250300  0.333333  1
  Pt  Pt17  1  0.500003  0.749700  0.333333  1
  Pt  Pt18  1  0.000000  0.249442  0.499907  1
  Pt  Pt19  1  0.000000  0.750558  0.499907  1
  Pt  Pt20  1  0.499998  0.250539  0.667472  1
  Pt  Pt21  1  0.499998  0.749461  0.667472  1
  Pt  Pt22  1  0.999999  0.250987  0.833333  1
  Pt  Pt23  1  0.999999  0.749013  0.833333  1
