# generated using pymatgen
data_NdMg3P6N13
_symmetry_space_group_name_H-M   'P 1'
_cell_length_a   7.16874366
_cell_length_b   7.16874446
_cell_length_c   7.16874419
_cell_angle_alpha   109.16813518
_cell_angle_beta   109.16814556
_cell_angle_gamma   109.16813950
_symmetry_Int_Tables_number   1
_chemical_formula_structural   NdMg3P6N13
_chemical_formula_sum   'Nd1 Mg3 P6 N13'
_cell_volume   286.73893141
_cell_formula_units_Z   1
loop_
 _symmetry_equiv_pos_site_id
 _symmetry_equiv_pos_as_xyz
  1  'x, y, z'
loop_
 _atom_site_type_symbol
 _atom_site_label
 _atom_site_symmetry_multiplicity
 _atom_site_fract_x
 _atom_site_fract_y
 _atom_site_fract_z
 _atom_site_occupancy
  Nd  Nd0  1  0.279400  0.279400  0.279400  1
  Mg  Mg1  1  0.985973  0.687569  0.985973  1
  Mg  Mg2  1  0.687569  0.985973  0.985973  1
  Mg  Mg3  1  0.985973  0.985973  0.687569  1
  P  P4  1  0.506819  0.253826  0.759937  1
  P  P5  1  0.506819  0.759937  0.253826  1
  P  P6  1  0.759937  0.253826  0.506819  1
  P  P7  1  0.253826  0.506819  0.759937  1
  P  P8  1  0.759937  0.506819  0.253826  1
  P  P9  1  0.253826  0.759937  0.506819  1
  N  N10  1  0.967436  0.967436  0.967436  1
  N  N11  1  0.002923  0.734520  0.445693  1
  N  N12  1  0.275461  0.718778  0.275461  1
  N  N13  1  0.282490  0.567013  0.567013  1
  N  N14  1  0.567013  0.567013  0.282490  1
  N  N15  1  0.567013  0.282490  0.567013  1
  N  N16  1  0.734520  0.002923  0.445693  1
  N  N17  1  0.445693  0.002923  0.734520  1
  N  N18  1  0.734520  0.445693  0.002923  1
  N  N19  1  0.275461  0.275461  0.718778  1
  N  N20  1  0.718778  0.275461  0.275461  1
  N  N21  1  0.002923  0.445693  0.734520  1
  N  N22  1  0.445693  0.734520  0.002923  1
