# generated using pymatgen
data_Th2Mn11FeP7
_symmetry_space_group_name_H-M   'P 1'
_cell_length_a   9.31607687
_cell_length_b   9.24032276
_cell_length_c   3.71835900
_cell_angle_alpha   90.00000000
_cell_angle_beta   90.00000000
_cell_angle_gamma   119.93469241
_symmetry_Int_Tables_number   1
_chemical_formula_structural   Th2Mn11FeP7
_chemical_formula_sum   'Th2 Mn11 Fe1 P7'
_cell_volume   277.38794278
_cell_formula_units_Z   1
loop_
 _symmetry_equiv_pos_site_id
 _symmetry_equiv_pos_as_xyz
  1  'x, y, z'
loop_
 _atom_site_type_symbol
 _atom_site_label
 _atom_site_symmetry_multiplicity
 _atom_site_fract_x
 _atom_site_fract_y
 _atom_site_fract_z
 _atom_site_occupancy
  Th  Th0  1  0.331609  0.663590  0.000000  1
  Th  Th1  1  0.999628  0.003016  0.500000  1
  Mn  Mn2  1  0.717473  0.759592  0.000000  1
  Mn  Mn3  1  0.240090  0.957864  0.000000  1
  Mn  Mn4  1  0.546257  0.058790  0.000000  1
  Mn  Mn5  1  0.941151  0.485520  0.000000  1
  Mn  Mn6  1  0.513658  0.455197  0.000000  1
  Mn  Mn7  1  0.620568  0.896752  0.500000  1
  Mn  Mn8  1  0.103847  0.722318  0.500000  1
  Mn  Mn9  1  0.280658  0.380081  0.500000  1
  Mn  Mn10  1  0.783212  0.228522  0.500000  1
  Mn  Mn11  1  0.773642  0.558966  0.500000  1
  Mn  Mn12  1  0.440574  0.217049  0.500000  1
  Fe  Fe13  1  0.040670  0.280838  0.000000  1
  P  P14  1  0.780499  0.044092  0.000000  1
  P  P15  1  0.958978  0.738284  0.000000  1
  P  P16  1  0.259841  0.223688  0.000000  1
  P  P17  1  0.386123  0.934628  0.500000  1
  P  P18  1  0.065813  0.441986  0.500000  1
  P  P19  1  0.549266  0.614981  0.500000  1
  P  P20  1  0.666445  0.334244  0.000000  1
