# generated using pymatgen
data_Sc2CO5
_symmetry_space_group_name_H-M   'P 1'
_cell_length_a   3.98279434
_cell_length_b   3.43761256
_cell_length_c   7.33607023
_cell_angle_alpha   75.75147496
_cell_angle_beta   103.86261722
_cell_angle_gamma   89.88698403
_symmetry_Int_Tables_number   1
_chemical_formula_structural   Sc2CO5
_chemical_formula_sum   'Sc2 C1 O5'
_cell_volume   94.31659079
_cell_formula_units_Z   1
loop_
 _symmetry_equiv_pos_site_id
 _symmetry_equiv_pos_as_xyz
  1  'x, y, z'
loop_
 _atom_site_type_symbol
 _atom_site_label
 _atom_site_symmetry_multiplicity
 _atom_site_fract_x
 _atom_site_fract_y
 _atom_site_fract_z
 _atom_site_occupancy
  Sc  Sc0  1  0.748072  0.147296  0.183475  1
  Sc  Sc1  1  0.122902  0.802727  0.901619  1
  C  C2  1  0.882358  0.603566  0.517647  1
  O  O3  1  0.036031  0.412754  0.696326  1
  O  O4  1  0.982127  0.531243  0.371329  1
  O  O5  1  0.651172  0.885985  0.481514  1
  O  O6  1  0.661037  0.756135  0.987509  1
  O  O7  1  0.208172  0.208834  0.081894  1
