# generated using pymatgen
data_Nb4RhSe8
_symmetry_space_group_name_H-M   'P 1'
_cell_length_a   6.99693100
_cell_length_b   6.99693075
_cell_length_c   12.70591600
_cell_angle_alpha   90.00000000
_cell_angle_beta   90.00000000
_cell_angle_gamma   119.99999643
_symmetry_Int_Tables_number   1
_chemical_formula_structural   Nb4RhSe8
_chemical_formula_sum   'Nb8 Rh2 Se16'
_cell_volume   538.70597715
_cell_formula_units_Z   2
loop_
 _symmetry_equiv_pos_site_id
 _symmetry_equiv_pos_as_xyz
  1  'x, y, z'
loop_
 _atom_site_type_symbol
 _atom_site_label
 _atom_site_symmetry_multiplicity
 _atom_site_fract_x
 _atom_site_fract_y
 _atom_site_fract_z
 _atom_site_occupancy
  Nb  Nb0  1  0.000000  0.000000  0.250000  1
  Nb  Nb1  1  0.000000  0.000000  0.750000  1
  Nb  Nb2  1  0.511159  0.022317  0.250000  1
  Nb  Nb3  1  0.977683  0.488841  0.250000  1
  Nb  Nb4  1  0.511159  0.488841  0.250000  1
  Nb  Nb5  1  0.488841  0.977683  0.750000  1
  Nb  Nb6  1  0.022317  0.511159  0.750000  1
  Nb  Nb7  1  0.488841  0.511159  0.750000  1
  Rh  Rh8  1  0.000000  0.000000  0.500000  1
  Rh  Rh9  1  0.000000  0.000000  0.000000  1
  Se  Se10  1  0.333333  0.666667  0.889855  1
  Se  Se11  1  0.666667  0.333333  0.110145  1
  Se  Se12  1  0.666667  0.333333  0.389855  1
  Se  Se13  1  0.333333  0.666667  0.610145  1
  Se  Se14  1  0.831737  0.663474  0.879704  1
  Se  Se15  1  0.336526  0.168263  0.879704  1
  Se  Se16  1  0.831737  0.168263  0.879704  1
  Se  Se17  1  0.168263  0.336526  0.120296  1
  Se  Se18  1  0.663474  0.831737  0.120296  1
  Se  Se19  1  0.168263  0.831737  0.120296  1
  Se  Se20  1  0.168263  0.336526  0.379704  1
  Se  Se21  1  0.663474  0.831737  0.379704  1
  Se  Se22  1  0.168263  0.831737  0.379704  1
  Se  Se23  1  0.831737  0.663474  0.620296  1
  Se  Se24  1  0.336526  0.168263  0.620296  1
  Se  Se25  1  0.831737  0.168263  0.620296  1
