# generated using pymatgen
data_Ca4TbYb(Si3Ru)8
_symmetry_space_group_name_H-M   'P 1'
_cell_length_a   10.20000348
_cell_length_b   10.20000402
_cell_length_c   8.17871263
_cell_angle_alpha   89.95227316
_cell_angle_beta   90.04772833
_cell_angle_gamma   132.71949412
_symmetry_Int_Tables_number   1
_chemical_formula_structural   Ca4TbYb(Si3Ru)8
_chemical_formula_sum   'Ca4 Tb1 Yb1 Si24 Ru8'
_cell_volume   625.15240508
_cell_formula_units_Z   1
loop_
 _symmetry_equiv_pos_site_id
 _symmetry_equiv_pos_as_xyz
  1  'x, y, z'
loop_
 _atom_site_type_symbol
 _atom_site_label
 _atom_site_symmetry_multiplicity
 _atom_site_fract_x
 _atom_site_fract_y
 _atom_site_fract_z
 _atom_site_occupancy
  Ca  Ca0  1  0.499651  0.499598  0.499816  1
  Ca  Ca1  1  0.999598  0.999651  0.000184  1
  Ca  Ca2  1  0.999219  0.499219  0.250000  1
  Ca  Ca3  1  0.498236  0.998236  0.250000  1
  Tb  Tb4  1  0.000525  0.500525  0.750000  1
  Yb  Yb5  1  0.501534  0.001534  0.750000  1
  Si  Si6  1  0.794230  0.204379  0.498535  1
  Si  Si7  1  0.296030  0.706899  0.000053  1
  Si  Si8  1  0.206899  0.796030  0.499947  1
  Si  Si9  1  0.704379  0.294230  0.001465  1
  Si  Si10  1  0.333032  0.333963  0.832411  1
  Si  Si11  1  0.663163  0.667237  0.167574  1
  Si  Si12  1  0.167237  0.163163  0.332426  1
  Si  Si13  1  0.833963  0.833032  0.667589  1
  Si  Si14  1  0.125633  0.892550  0.730047  1
  Si  Si15  1  0.107976  0.875146  0.269271  1
  Si  Si16  1  0.607163  0.374439  0.231070  1
  Si  Si17  1  0.625168  0.392428  0.770388  1
  Si  Si18  1  0.874439  0.107163  0.268930  1
  Si  Si19  1  0.892428  0.125168  0.729612  1
  Si  Si20  1  0.392550  0.625633  0.769953  1
  Si  Si21  1  0.375146  0.607976  0.230729  1
  Si  Si22  1  0.347834  0.113864  0.508600  1
  Si  Si23  1  0.887213  0.654254  0.492871  1
  Si  Si24  1  0.386412  0.152845  0.007191  1
  Si  Si25  1  0.846353  0.613600  0.989747  1
  Si  Si26  1  0.652845  0.886412  0.492809  1
  Si  Si27  1  0.113600  0.346353  0.510253  1
  Si  Si28  1  0.613864  0.847834  0.991400  1
  Si  Si29  1  0.154254  0.387213  0.007129  1
  Ru  Ru30  1  0.671761  0.331360  0.501840  1
  Ru  Ru31  1  0.169146  0.829580  0.998284  1
  Ru  Ru32  1  0.329580  0.669146  0.501716  1
  Ru  Ru33  1  0.831360  0.171761  0.998160  1
  Ru  Ru34  1  0.126253  0.125787  0.624671  1
  Ru  Ru35  1  0.872345  0.873196  0.375365  1
  Ru  Ru36  1  0.373196  0.372345  0.124635  1
  Ru  Ru37  1  0.625787  0.626253  0.875329  1
