# generated using pymatgen
data_DyY6BeI12
_symmetry_space_group_name_H-M   'P 1'
_cell_length_a   9.68833162
_cell_length_b   9.68672780
_cell_length_c   9.69656598
_cell_angle_alpha   107.59390031
_cell_angle_beta   107.56199520
_cell_angle_gamma   107.56041162
_symmetry_Int_Tables_number   1
_chemical_formula_structural   DyY6BeI12
_chemical_formula_sum   'Dy1 Y6 Be1 I12'
_cell_volume   745.71777792
_cell_formula_units_Z   1
loop_
 _symmetry_equiv_pos_site_id
 _symmetry_equiv_pos_as_xyz
  1  'x, y, z'
loop_
 _atom_site_type_symbol
 _atom_site_label
 _atom_site_symmetry_multiplicity
 _atom_site_fract_x
 _atom_site_fract_y
 _atom_site_fract_z
 _atom_site_occupancy
  Dy  Dy0  1  0.701568  0.972690  0.902561  1
  Y  Y1  1  0.972562  0.901885  0.700509  1
  Y  Y2  1  0.499879  0.499926  0.499888  1
  Y  Y3  1  0.098042  0.299233  0.027707  1
  Y  Y4  1  0.299618  0.027715  0.097836  1
  Y  Y5  1  0.901909  0.700721  0.972304  1
  Y  Y6  1  0.027725  0.098104  0.299466  1
  Be  Be7  1  0.999781  0.999907  0.999901  1
  I  I8  1  0.073448  0.228049  0.680031  1
  I  I9  1  0.386077  0.153543  0.465567  1
  I  I10  1  0.613931  0.846651  0.535125  1
  I  I11  1  0.227822  0.680129  0.073732  1
  I  I12  1  0.771543  0.319098  0.926158  1
  I  I13  1  0.679683  0.073746  0.226759  1
  I  I14  1  0.533292  0.614368  0.845105  1
  I  I15  1  0.846010  0.533289  0.614560  1
  I  I16  1  0.926125  0.771811  0.319759  1
  I  I17  1  0.320335  0.925989  0.772777  1
  I  I18  1  0.466822  0.386564  0.154835  1
  I  I19  1  0.153828  0.466579  0.385418  1
