# generated using pymatgen
data_Eu4Ta3MoO14
_symmetry_space_group_name_H-M   'P 1'
_cell_length_a   7.52348114
_cell_length_b   7.52348133
_cell_length_c   7.52348113
_cell_angle_alpha   60.26470088
_cell_angle_beta   60.26469535
_cell_angle_gamma   60.26470189
_symmetry_Int_Tables_number   1
_chemical_formula_structural   Eu4Ta3MoO14
_chemical_formula_sum   'Eu4 Ta3 Mo1 O14'
_cell_volume   302.92543974
_cell_formula_units_Z   1
loop_
 _symmetry_equiv_pos_site_id
 _symmetry_equiv_pos_as_xyz
  1  'x, y, z'
loop_
 _atom_site_type_symbol
 _atom_site_label
 _atom_site_symmetry_multiplicity
 _atom_site_fract_x
 _atom_site_fract_y
 _atom_site_fract_z
 _atom_site_occupancy
  Eu  Eu0  1  0.625000  0.125000  0.125000  1
  Eu  Eu1  1  0.125000  0.625000  0.125000  1
  Eu  Eu2  1  0.125000  0.125000  0.625000  1
  Eu  Eu3  1  0.125000  0.125000  0.125000  1
  Ta  Ta4  1  0.125000  0.625000  0.625000  1
  Ta  Ta5  1  0.625000  0.125000  0.625000  1
  Ta  Ta6  1  0.625000  0.625000  0.125000  1
  Mo  Mo7  1  0.625000  0.625000  0.625000  1
  O  O8  1  0.248593  0.248593  0.248593  1
  O  O9  1  0.001407  0.001407  0.001407  1
  O  O10  1  0.707135  0.707135  0.279865  1
  O  O11  1  0.310984  0.310984  0.698621  1
  O  O12  1  0.707135  0.279865  0.707135  1
  O  O13  1  0.310984  0.698621  0.310984  1
  O  O14  1  0.279865  0.707135  0.707135  1
  O  O15  1  0.698621  0.310984  0.310984  1
  O  O16  1  0.542865  0.542865  0.970135  1
  O  O17  1  0.939016  0.939016  0.551379  1
  O  O18  1  0.542865  0.970135  0.542865  1
  O  O19  1  0.939016  0.551379  0.939016  1
  O  O20  1  0.970135  0.542865  0.542865  1
  O  O21  1  0.551379  0.939016  0.939016  1
