# generated using pymatgen
data_Ta5Nb3Co7Si14Rh
_symmetry_space_group_name_H-M   'P 1'
_cell_length_a   9.24728227
_cell_length_b   9.25667436
_cell_length_c   9.23141822
_cell_angle_alpha   94.27161144
_cell_angle_beta   94.21747155
_cell_angle_gamma   148.46294889
_symmetry_Int_Tables_number   1
_chemical_formula_structural   Ta5Nb3Co7Si14Rh
_chemical_formula_sum   'Ta5 Nb3 Co7 Si14 Rh1'
_cell_volume   397.68956510
_cell_formula_units_Z   1
loop_
 _symmetry_equiv_pos_site_id
 _symmetry_equiv_pos_as_xyz
  1  'x, y, z'
loop_
 _atom_site_type_symbol
 _atom_site_label
 _atom_site_symmetry_multiplicity
 _atom_site_fract_x
 _atom_site_fract_y
 _atom_site_fract_z
 _atom_site_occupancy
  Ta  Ta0  1  0.310312  0.499232  0.809715  1
  Ta  Ta1  1  0.690631  0.502055  0.191520  1
  Ta  Ta2  1  0.500889  0.689465  0.191520  1
  Ta  Ta3  1  0.499404  0.310483  0.809715  1
  Ta  Ta4  1  0.133559  0.133559  0.267116  1
  Nb  Nb5  1  0.866563  0.866563  0.733128  1
  Nb  Nb6  1  0.133419  0.868795  0.002082  1
  Nb  Nb7  1  0.868663  0.133287  0.002082  1
  Co  Co8  1  0.103593  0.603593  0.207188  1
  Co  Co9  1  0.898628  0.098045  0.496677  1
  Co  Co10  1  0.598049  0.398630  0.496677  1
  Co  Co11  1  0.599954  0.099954  0.199908  1
  Co  Co12  1  0.899198  0.399198  0.798395  1
  Co  Co13  1  0.101955  0.898996  0.499971  1
  Co  Co14  1  0.398017  0.600974  0.499971  1
  Si  Si15  1  0.291606  0.291606  0.583211  1
  Si  Si16  1  0.708274  0.708274  0.416548  1
  Si  Si17  1  0.283643  0.697221  0.005142  1
  Si  Si18  1  0.721499  0.307922  0.005142  1
  Si  Si19  1  0.073616  0.477098  0.588074  1
  Si  Si20  1  0.903342  0.498096  0.406546  1
  Si  Si21  1  0.503205  0.908451  0.406546  1
  Si  Si22  1  0.514460  0.110976  0.588074  1
  Si  Si23  1  0.249941  0.249647  0.000261  1
  Si  Si24  1  0.750320  0.750613  0.000261  1
  Si  Si25  1  0.298322  0.001413  0.296332  1
  Si  Si26  1  0.715873  0.006347  0.702630  1
  Si  Si27  1  0.986757  0.696284  0.702630  1
  Si  Si28  1  0.998011  0.294919  0.296332  1
  Rh  Rh29  1  0.398302  0.898302  0.796603  1
