# generated using pymatgen
data_Tb4Dy15MgIr12
_symmetry_space_group_name_H-M   'P 1'
_cell_length_a   10.88679601
_cell_length_b   10.88472501
_cell_length_c   6.32568200
_cell_angle_alpha   90.00000000
_cell_angle_beta   90.00000000
_cell_angle_gamma   89.99433661
_symmetry_Int_Tables_number   1
_chemical_formula_structural   Tb4Dy15MgIr12
_chemical_formula_sum   'Tb4 Dy15 Mg1 Ir12'
_cell_volume   749.59192726
_cell_formula_units_Z   1
loop_
 _symmetry_equiv_pos_site_id
 _symmetry_equiv_pos_as_xyz
  1  'x, y, z'
loop_
 _atom_site_type_symbol
 _atom_site_label
 _atom_site_symmetry_multiplicity
 _atom_site_fract_x
 _atom_site_fract_y
 _atom_site_fract_z
 _atom_site_occupancy
  Tb  Tb0  1  0.283902  0.084873  0.379890  1
  Tb  Tb1  1  0.290367  0.911680  0.879964  1
  Tb  Tb2  1  0.709633  0.088320  0.879964  1
  Tb  Tb3  1  0.716098  0.915127  0.379890  1
  Dy  Dy4  1  0.589121  0.791986  0.880830  1
  Dy  Dy5  1  0.587828  0.207937  0.378810  1
  Dy  Dy6  1  0.412172  0.792063  0.378810  1
  Dy  Dy7  1  0.410879  0.208014  0.880830  1
  Dy  Dy8  1  0.207761  0.412201  0.621228  1
  Dy  Dy9  1  0.207832  0.589067  0.119188  1
  Dy  Dy10  1  0.792168  0.410933  0.119188  1
  Dy  Dy11  1  0.792239  0.587799  0.621228  1
  Dy  Dy12  1  0.911860  0.709332  0.119753  1
  Dy  Dy13  1  0.915314  0.284169  0.619860  1
  Dy  Dy14  1  0.084686  0.715831  0.619860  1
  Dy  Dy15  1  0.088140  0.290668  0.119753  1
  Dy  Dy16  1  0.000000  0.000000  0.000079  1
  Dy  Dy17  1  0.500000  0.500000  0.000028  1
  Dy  Dy18  1  0.500000  0.500000  0.500057  1
  Mg  Mg19  1  0.000000  0.000000  0.500047  1
  Ir  Ir20  1  0.846878  0.154209  0.248081  1
  Ir  Ir21  1  0.846188  0.846461  0.752428  1
  Ir  Ir22  1  0.153812  0.153539  0.752428  1
  Ir  Ir23  1  0.153122  0.845791  0.248081  1
  Ir  Ir24  1  0.654509  0.346153  0.748027  1
  Ir  Ir25  1  0.653968  0.654394  0.251800  1
  Ir  Ir26  1  0.346032  0.345606  0.251800  1
  Ir  Ir27  1  0.345491  0.653847  0.748027  1
  Ir  Ir28  1  0.500000  0.000000  0.125169  1
  Ir  Ir29  1  0.500000  0.000000  0.621226  1
  Ir  Ir30  1  0.000000  0.500000  0.874881  1
  Ir  Ir31  1  0.000000  0.500000  0.378795  1
