# generated using pymatgen
data_Y2Ho3(CoO6)2
_symmetry_space_group_name_H-M   'P 1'
_cell_length_a   6.72897952
_cell_length_b   6.72897953
_cell_length_c   7.15866862
_cell_angle_alpha   74.61509832
_cell_angle_beta   74.61509962
_cell_angle_gamma   50.48694714
_symmetry_Int_Tables_number   1
_chemical_formula_structural   Y2Ho3(CoO6)2
_chemical_formula_sum   'Y2 Ho3 Co2 O12'
_cell_volume   239.06754664
_cell_formula_units_Z   1
loop_
 _symmetry_equiv_pos_site_id
 _symmetry_equiv_pos_as_xyz
  1  'x, y, z'
loop_
 _atom_site_type_symbol
 _atom_site_label
 _atom_site_symmetry_multiplicity
 _atom_site_fract_x
 _atom_site_fract_y
 _atom_site_fract_z
 _atom_site_occupancy
  Y  Y0  1  0.305860  0.305860  0.355973  1
  Y  Y1  1  0.999900  0.999900  0.500197  1
  Ho  Ho2  1  0.693995  0.693995  0.644691  1
  Ho  Ho3  1  0.307774  0.307774  0.835901  1
  Ho  Ho4  1  0.692294  0.692294  0.164078  1
  Co  Co5  1  0.755954  0.244449  0.999799  1
  Co  Co6  1  0.244449  0.755954  0.999799  1
  O  O7  1  0.901284  0.417349  0.921000  1
  O  O8  1  0.417349  0.901284  0.921000  1
  O  O9  1  0.098062  0.583594  0.077264  1
  O  O10  1  0.583594  0.098062  0.077264  1
  O  O11  1  0.095879  0.597875  0.578156  1
  O  O12  1  0.597875  0.095879  0.578156  1
  O  O13  1  0.901129  0.403426  0.423747  1
  O  O14  1  0.403426  0.901129  0.423747  1
  O  O15  1  0.001126  0.001126  0.828863  1
  O  O16  1  0.999343  0.999343  0.171378  1
  O  O17  1  0.500282  0.500282  0.823695  1
  O  O18  1  0.500424  0.500424  0.175291  1
