# generated using pymatgen
data_Th2Ni16PH3
_symmetry_space_group_name_H-M   'P 1'
_cell_length_a   6.30591864
_cell_length_b   6.28965764
_cell_length_c   6.28965871
_cell_angle_alpha   82.85538552
_cell_angle_beta   84.77098058
_cell_angle_gamma   84.77097523
_symmetry_Int_Tables_number   1
_chemical_formula_structural   Th2Ni16PH3
_chemical_formula_sum   'Th2 Ni16 P1 H3'
_cell_volume   245.68860608
_cell_formula_units_Z   1
loop_
 _symmetry_equiv_pos_site_id
 _symmetry_equiv_pos_as_xyz
  1  'x, y, z'
loop_
 _atom_site_type_symbol
 _atom_site_label
 _atom_site_symmetry_multiplicity
 _atom_site_fract_x
 _atom_site_fract_y
 _atom_site_fract_z
 _atom_site_occupancy
  Th  Th0  1  0.666415  0.656394  0.656394  1
  Th  Th1  1  0.333585  0.343606  0.343606  1
  Ni  Ni2  1  0.000000  0.000000  0.500000  1
  Ni  Ni3  1  0.000000  0.500000  0.000000  1
  Ni  Ni4  1  0.707171  0.286200  0.999517  1
  Ni  Ni5  1  0.000000  0.712812  0.287188  1
  Ni  Ni6  1  0.292829  0.000483  0.713800  1
  Ni  Ni7  1  0.000000  0.287188  0.712812  1
  Ni  Ni8  1  0.707171  0.999517  0.286200  1
  Ni  Ni9  1  0.292829  0.713800  0.000483  1
  Ni  Ni10  1  0.344574  0.340244  0.859912  1
  Ni  Ni11  1  0.843521  0.347718  0.347718  1
  Ni  Ni12  1  0.344574  0.859912  0.340244  1
  Ni  Ni13  1  0.655426  0.659756  0.140088  1
  Ni  Ni14  1  0.156479  0.652282  0.652282  1
  Ni  Ni15  1  0.655426  0.140088  0.659756  1
  Ni  Ni16  1  0.911318  0.894050  0.894050  1
  Ni  Ni17  1  0.088682  0.105950  0.105950  1
  P  P18  1  0.500000  0.000000  0.000000  1
  H  H19  1  0.500000  0.500000  0.000000  1
  H  H20  1  0.000000  0.500000  0.500000  1
  H  H21  1  0.500000  0.000000  0.500000  1
