# generated using pymatgen
data_Sm8InPdPt23
_symmetry_space_group_name_H-M   'P 1'
_cell_length_a   8.52179100
_cell_length_b   8.52179100
_cell_length_c   8.51181100
_cell_angle_alpha   90.00000000
_cell_angle_beta   90.00000000
_cell_angle_gamma   90.00000000
_symmetry_Int_Tables_number   1
_chemical_formula_structural   Sm8InPdPt23
_chemical_formula_sum   'Sm8 In1 Pd1 Pt23'
_cell_volume   618.13556141
_cell_formula_units_Z   1
loop_
 _symmetry_equiv_pos_site_id
 _symmetry_equiv_pos_as_xyz
  1  'x, y, z'
loop_
 _atom_site_type_symbol
 _atom_site_label
 _atom_site_symmetry_multiplicity
 _atom_site_fract_x
 _atom_site_fract_y
 _atom_site_fract_z
 _atom_site_occupancy
  Sm  Sm0  1  0.248978  0.248978  0.249485  1
  Sm  Sm1  1  0.750573  0.750573  0.750605  1
  Sm  Sm2  1  0.751022  0.751022  0.249485  1
  Sm  Sm3  1  0.750573  0.249427  0.750605  1
  Sm  Sm4  1  0.249427  0.249427  0.750605  1
  Sm  Sm5  1  0.248978  0.751022  0.249485  1
  Sm  Sm6  1  0.249427  0.750573  0.750605  1
  Sm  Sm7  1  0.751022  0.248978  0.249485  1
  In  In8  1  0.000000  0.000000  0.000228  1
  Pd  Pd9  1  0.500000  0.500000  0.743220  1
  Pt  Pt10  1  0.270021  0.500000  0.000723  1
  Pt  Pt11  1  0.729979  0.500000  0.000723  1
  Pt  Pt12  1  0.000000  0.270109  0.500045  1
  Pt  Pt13  1  0.500000  0.270021  0.000723  1
  Pt  Pt14  1  0.000000  0.729891  0.500045  1
  Pt  Pt15  1  0.500000  0.729979  0.000723  1
  Pt  Pt16  1  0.500000  0.000000  0.269557  1
  Pt  Pt17  1  0.270109  0.000000  0.500045  1
  Pt  Pt18  1  0.500000  0.000000  0.729583  1
  Pt  Pt19  1  0.729891  0.000000  0.500045  1
  Pt  Pt20  1  0.000000  0.500000  0.269557  1
  Pt  Pt21  1  0.000000  0.500000  0.729583  1
  Pt  Pt22  1  0.256954  0.500000  0.499467  1
  Pt  Pt23  1  0.743046  0.500000  0.499467  1
  Pt  Pt24  1  0.500000  0.256954  0.499467  1
  Pt  Pt25  1  0.500000  0.743046  0.499467  1
  Pt  Pt26  1  0.500000  0.500000  0.256669  1
  Pt  Pt27  1  0.321932  0.000000  0.999805  1
  Pt  Pt28  1  0.678068  0.000000  0.999805  1
  Pt  Pt29  1  0.000000  0.321932  0.999805  1
  Pt  Pt30  1  0.000000  0.678068  0.999805  1
  Pt  Pt31  1  0.000000  0.000000  0.322471  1
  Pt  Pt32  1  0.000000  0.000000  0.678615  1
