# generated using pymatgen
data_Hf6Al2Ga4Pd5Pt
_symmetry_space_group_name_H-M   'P 1'
_cell_length_a   7.18445146
_cell_length_b   7.23110602
_cell_length_c   7.00211660
_cell_angle_alpha   90.00581895
_cell_angle_beta   90.27145898
_cell_angle_gamma   120.24920883
_symmetry_Int_Tables_number   1
_chemical_formula_structural   Hf6Al2Ga4Pd5Pt
_chemical_formula_sum   'Hf6 Al2 Ga4 Pd5 Pt1'
_cell_volume   314.23572192
_cell_formula_units_Z   1
loop_
 _symmetry_equiv_pos_site_id
 _symmetry_equiv_pos_as_xyz
  1  'x, y, z'
loop_
 _atom_site_type_symbol
 _atom_site_label
 _atom_site_symmetry_multiplicity
 _atom_site_fract_x
 _atom_site_fract_y
 _atom_site_fract_z
 _atom_site_occupancy
  Hf  Hf0  1  0.611583  0.590859  0.249678  1
  Hf  Hf1  1  0.023693  0.413537  0.749592  1
  Hf  Hf2  1  0.408796  0.019605  0.249770  1
  Hf  Hf3  1  0.979682  0.391040  0.249802  1
  Hf  Hf4  1  0.387750  0.976074  0.749670  1
  Hf  Hf5  1  0.589218  0.612031  0.750630  1
  Al  Al6  1  0.257330  0.258960  0.499047  1
  Al  Al7  1  0.744357  0.004864  0.499393  1
  Ga  Ga8  1  0.996749  0.733580  0.499284  1
  Ga  Ga9  1  0.729399  0.001809  0.999123  1
  Ga  Ga10  1  0.271365  0.271567  0.999092  1
  Ga  Ga11  1  0.999156  0.729417  0.999136  1
  Pd  Pd12  1  0.000129  0.001016  0.753437  1
  Pd  Pd13  1  0.999981  0.001034  0.244894  1
  Pd  Pd14  1  0.333012  0.666430  0.037097  1
  Pd  Pd15  1  0.661627  0.328474  0.530487  1
  Pd  Pd16  1  0.667248  0.333211  0.967379  1
  Pt  Pt17  1  0.338926  0.666491  0.472486  1
