# generated using pymatgen
data_NpCuBr6
_symmetry_space_group_name_H-M   'P 1'
_cell_length_a   7.74092966
_cell_length_b   7.74093048
_cell_length_c   7.88437507
_cell_angle_alpha   94.23056299
_cell_angle_beta   94.23055684
_cell_angle_gamma   129.54029058
_symmetry_Int_Tables_number   1
_chemical_formula_structural   NpCuBr6
_chemical_formula_sum   'Np1 Cu1 Br6'
_cell_volume   358.84278965
_cell_formula_units_Z   1
loop_
 _symmetry_equiv_pos_site_id
 _symmetry_equiv_pos_as_xyz
  1  'x, y, z'
loop_
 _atom_site_type_symbol
 _atom_site_label
 _atom_site_symmetry_multiplicity
 _atom_site_fract_x
 _atom_site_fract_y
 _atom_site_fract_z
 _atom_site_occupancy
  Np  Np0  1  0.176063  0.823938  0.000000  1
  Cu  Cu1  1  0.749051  0.250950  0.000000  1
  Br  Br2  1  0.912885  0.567000  0.235873  1
  Br  Br3  1  0.572527  0.933883  0.161965  1
  Br  Br4  1  0.261437  0.171077  0.196266  1
  Br  Br5  1  0.828923  0.738563  0.803735  1
  Br  Br6  1  0.432999  0.087115  0.764127  1
  Br  Br7  1  0.066117  0.427472  0.838035  1
