# generated using pymatgen
data_Sc7(SbTe3)2
_symmetry_space_group_name_H-M   'P 1'
_cell_length_a   7.99467438
_cell_length_b   7.99467294
_cell_length_c   9.93346671
_cell_angle_alpha   54.27642596
_cell_angle_beta   54.27643072
_cell_angle_gamma   62.94292370
_symmetry_Int_Tables_number   1
_chemical_formula_structural   Sc7(SbTe3)2
_chemical_formula_sum   'Sc7 Sb2 Te6'
_cell_volume   412.14976387
_cell_formula_units_Z   1
loop_
 _symmetry_equiv_pos_site_id
 _symmetry_equiv_pos_as_xyz
  1  'x, y, z'
loop_
 _atom_site_type_symbol
 _atom_site_label
 _atom_site_symmetry_multiplicity
 _atom_site_fract_x
 _atom_site_fract_y
 _atom_site_fract_z
 _atom_site_occupancy
  Sc  Sc0  1  0.744133  0.255867  0.500000  1
  Sc  Sc1  1  0.255867  0.744133  0.500000  1
  Sc  Sc2  1  0.500000  0.000000  0.500000  1
  Sc  Sc3  1  0.000000  0.500000  0.500000  1
  Sc  Sc4  1  0.751444  0.751444  0.000400  1
  Sc  Sc5  1  0.248556  0.248556  0.999600  1
  Sc  Sc6  1  0.000000  0.000000  0.000000  1
  Sb  Sb7  1  0.959207  0.959207  0.333274  1
  Sb  Sb8  1  0.040793  0.040793  0.666726  1
  Te  Te9  1  0.541053  0.044239  0.165470  1
  Te  Te10  1  0.458947  0.955761  0.834530  1
  Te  Te11  1  0.955761  0.458947  0.834530  1
  Te  Te12  1  0.044239  0.541053  0.165470  1
  Te  Te13  1  0.458021  0.458021  0.326515  1
  Te  Te14  1  0.541979  0.541979  0.673485  1
