# generated using pymatgen
data_Tb2YEr(Al3Rh)6
_symmetry_space_group_name_H-M   'P 1'
_cell_length_a   7.55300653
_cell_length_b   7.55641201
_cell_length_c   9.47520100
_cell_angle_alpha   90.00000000
_cell_angle_beta   90.00000000
_cell_angle_gamma   119.30254284
_symmetry_Int_Tables_number   1
_chemical_formula_structural   Tb2YEr(Al3Rh)6
_chemical_formula_sum   'Tb2 Y1 Er1 Al18 Rh6'
_cell_volume   471.58945879
_cell_formula_units_Z   1
loop_
 _symmetry_equiv_pos_site_id
 _symmetry_equiv_pos_as_xyz
  1  'x, y, z'
loop_
 _atom_site_type_symbol
 _atom_site_label
 _atom_site_symmetry_multiplicity
 _atom_site_fract_x
 _atom_site_fract_y
 _atom_site_fract_z
 _atom_site_occupancy
  Tb  Tb0  1  0.005460  0.328264  0.250000  1
  Tb  Tb1  1  0.671578  0.994281  0.750000  1
  Y  Y2  1  0.994348  0.671499  0.750000  1
  Er  Er3  1  0.328273  0.005391  0.250000  1
  Al  Al4  1  0.128595  0.128625  0.750000  1
  Al  Al5  1  0.872075  0.871797  0.250000  1
  Al  Al6  1  0.001377  0.335675  0.574540  1
  Al  Al7  1  0.999385  0.664881  0.424455  1
  Al  Al8  1  0.999385  0.664881  0.075545  1
  Al  Al9  1  0.335458  0.001196  0.926133  1
  Al  Al10  1  0.001377  0.335675  0.925460  1
  Al  Al11  1  0.663663  0.998844  0.075477  1
  Al  Al12  1  0.663663  0.998844  0.424523  1
  Al  Al13  1  0.335458  0.001196  0.573867  1
  Al  Al14  1  0.333191  0.332703  0.050606  1
  Al  Al15  1  0.666968  0.666867  0.951153  1
  Al  Al16  1  0.666968  0.666867  0.548847  1
  Al  Al17  1  0.333191  0.332703  0.449394  1
  Al  Al18  1  0.339717  0.549861  0.750000  1
  Al  Al19  1  0.659726  0.449501  0.250000  1
  Al  Al20  1  0.549671  0.339075  0.750000  1
  Al  Al21  1  0.450030  0.660977  0.250000  1
  Rh  Rh22  1  0.671896  0.327844  0.499639  1
  Rh  Rh23  1  0.327861  0.672070  0.499670  1
  Rh  Rh24  1  0.327861  0.672070  0.000330  1
  Rh  Rh25  1  0.671896  0.327844  0.000361  1
  Rh  Rh26  1  0.000466  0.000285  0.499447  1
  Rh  Rh27  1  0.000466  0.000285  0.000553  1
