# generated using pymatgen
data_La8Zn6Hg2PdRh7
_symmetry_space_group_name_H-M   'P 1'
_cell_length_a   4.05562900
_cell_length_b   7.63385240
_cell_length_c   16.93587279
_cell_angle_alpha   90.87653222
_cell_angle_beta   90.00000000
_cell_angle_gamma   90.00000000
_symmetry_Int_Tables_number   1
_chemical_formula_structural   La8Zn6Hg2PdRh7
_chemical_formula_sum   'La8 Zn6 Hg2 Pd1 Rh7'
_cell_volume   524.27450441
_cell_formula_units_Z   1
loop_
 _symmetry_equiv_pos_site_id
 _symmetry_equiv_pos_as_xyz
  1  'x, y, z'
loop_
 _atom_site_type_symbol
 _atom_site_label
 _atom_site_symmetry_multiplicity
 _atom_site_fract_x
 _atom_site_fract_y
 _atom_site_fract_z
 _atom_site_occupancy
  La  La0  1  0.750000  0.323847  0.440521  1
  La  La1  1  0.250000  0.052935  0.707897  1
  La  La2  1  0.250000  0.562185  0.780108  1
  La  La3  1  0.250000  0.674060  0.557019  1
  La  La4  1  0.750000  0.816851  0.061564  1
  La  La5  1  0.250000  0.176931  0.945322  1
  La  La6  1  0.750000  0.449871  0.219601  1
  La  La7  1  0.750000  0.943267  0.288815  1
  Zn  Zn8  1  0.250000  0.997646  0.442357  1
  Zn  Zn9  1  0.750000  0.001020  0.555561  1
  Zn  Zn10  1  0.250000  0.498689  0.062520  1
  Zn  Zn11  1  0.750000  0.381805  0.646642  1
  Zn  Zn12  1  0.750000  0.502838  0.938941  1
  Zn  Zn13  1  0.250000  0.621681  0.351679  1
  Hg  Hg14  1  0.250000  0.116874  0.153321  1
  Hg  Hg15  1  0.750000  0.886416  0.848135  1
  Pd  Pd16  1  0.750000  0.272009  0.810181  1
  Rh  Rh17  1  0.250000  0.246042  0.322029  1
  Rh  Rh18  1  0.250000  0.728391  0.941956  1
  Rh  Rh19  1  0.250000  0.238146  0.566345  1
  Rh  Rh20  1  0.250000  0.727843  0.189900  1
  Rh  Rh21  1  0.750000  0.758289  0.433796  1
  Rh  Rh22  1  0.750000  0.268868  0.057447  1
  Rh  Rh23  1  0.750000  0.753499  0.678341  1
