# generated using pymatgen
data_Tc2Pd4W
_symmetry_space_group_name_H-M   'P 1'
_cell_length_a   7.44774876
_cell_length_b   7.45503086
_cell_length_c   4.41978000
_cell_angle_alpha   90.00000000
_cell_angle_beta   90.00000000
_cell_angle_gamma   60.08202197
_symmetry_Int_Tables_number   1
_chemical_formula_structural   Tc2Pd4W
_chemical_formula_sum   'Tc4 Pd8 W2'
_cell_volume   212.69834071
_cell_formula_units_Z   2
loop_
 _symmetry_equiv_pos_site_id
 _symmetry_equiv_pos_as_xyz
  1  'x, y, z'
loop_
 _atom_site_type_symbol
 _atom_site_label
 _atom_site_symmetry_multiplicity
 _atom_site_fract_x
 _atom_site_fract_y
 _atom_site_fract_z
 _atom_site_occupancy
  Tc  Tc0  1  0.426660  0.842719  0.000000  1
  Tc  Tc1  1  0.525661  0.392963  0.500000  1
  Tc  Tc2  1  0.649656  0.672551  0.500000  1
  Tc  Tc3  1  0.251333  0.797749  0.500000  1
  Pd  Pd4  1  0.572697  0.144187  0.000000  1
  Pd  Pd5  1  0.142963  0.286327  0.000000  1
  Pd  Pd6  1  0.853322  0.715217  0.000000  1
  Pd  Pd7  1  0.003630  0.996084  0.000000  1
  Pd  Pd8  1  0.381381  0.090832  0.500000  1
  Pd  Pd9  1  0.949757  0.241193  0.500000  1
  Pd  Pd10  1  0.096719  0.524235  0.500000  1
  Pd  Pd11  1  0.809886  0.952583  0.500000  1
  W  W12  1  0.707167  0.440682  0.000000  1
  W  W13  1  0.295729  0.569243  0.000000  1
