# generated using pymatgen
data_Dy6Er10MgHg3Ir4
_symmetry_space_group_name_H-M   'P 1'
_cell_length_a   9.56904587
_cell_length_b   9.56602468
_cell_length_c   9.56602700
_cell_angle_alpha   60.00000235
_cell_angle_beta   60.01044592
_cell_angle_gamma   60.01044097
_symmetry_Int_Tables_number   1
_chemical_formula_structural   Dy6Er10MgHg3Ir4
_chemical_formula_sum   'Dy6 Er10 Mg1 Hg3 Ir4'
_cell_volume   619.27747300
_cell_formula_units_Z   1
loop_
 _symmetry_equiv_pos_site_id
 _symmetry_equiv_pos_as_xyz
  1  'x, y, z'
loop_
 _atom_site_type_symbol
 _atom_site_label
 _atom_site_symmetry_multiplicity
 _atom_site_fract_x
 _atom_site_fract_y
 _atom_site_fract_z
 _atom_site_occupancy
  Dy  Dy0  1  0.936348  0.562669  0.562669  1
  Dy  Dy1  1  0.561798  0.937608  0.937608  1
  Dy  Dy2  1  0.561798  0.937608  0.562988  1
  Dy  Dy3  1  0.936348  0.562669  0.938313  1
  Dy  Dy4  1  0.561798  0.562988  0.937608  1
  Dy  Dy5  1  0.936348  0.938313  0.562669  1
  Er  Er6  1  0.350414  0.348371  0.348371  1
  Er  Er7  1  0.350414  0.348371  0.952843  1
  Er  Er8  1  0.350414  0.952843  0.348371  1
  Er  Er9  1  0.943597  0.352134  0.352134  1
  Er  Er10  1  0.810196  0.189657  0.189657  1
  Er  Er11  1  0.185822  0.813187  0.813187  1
  Er  Er12  1  0.185822  0.813187  0.187803  1
  Er  Er13  1  0.810196  0.189657  0.810491  1
  Er  Er14  1  0.185822  0.187803  0.813187  1
  Er  Er15  1  0.810196  0.810491  0.189657  1
  Mg  Mg16  1  0.285233  0.571589  0.571589  1
  Hg  Hg17  1  0.580764  0.586303  0.586303  1
  Hg  Hg18  1  0.580764  0.586303  0.246629  1
  Hg  Hg19  1  0.580764  0.246629  0.586303  1
  Ir  Ir20  1  0.140321  0.143248  0.143248  1
  Ir  Ir21  1  0.140321  0.143248  0.573182  1
  Ir  Ir22  1  0.140321  0.573182  0.143248  1
  Ir  Ir23  1  0.574180  0.141940  0.141940  1
