# generated using pymatgen
data_Li2Dy16In2PtRh3
_symmetry_space_group_name_H-M   'P 1'
_cell_length_a   9.66316133
_cell_length_b   9.71948208
_cell_length_c   9.66316134
_cell_angle_alpha   59.85801574
_cell_angle_beta   59.91118460
_cell_angle_gamma   59.85802197
_symmetry_Int_Tables_number   1
_chemical_formula_structural   Li2Dy16In2PtRh3
_chemical_formula_sum   'Li2 Dy16 In2 Pt1 Rh3'
_cell_volume   639.94128668
_cell_formula_units_Z   1
loop_
 _symmetry_equiv_pos_site_id
 _symmetry_equiv_pos_as_xyz
  1  'x, y, z'
loop_
 _atom_site_type_symbol
 _atom_site_label
 _atom_site_symmetry_multiplicity
 _atom_site_fract_x
 _atom_site_fract_y
 _atom_site_fract_z
 _atom_site_occupancy
  Li  Li0  1  0.925356  0.928862  0.219046  1
  Li  Li1  1  0.219046  0.928862  0.925356  1
  Dy  Dy2  1  0.693596  0.312083  0.310072  1
  Dy  Dy3  1  0.689798  0.687342  0.313250  1
  Dy  Dy4  1  0.316093  0.686943  0.316093  1
  Dy  Dy5  1  0.934326  0.933544  0.563919  1
  Dy  Dy6  1  0.144797  0.148212  0.552551  1
  Dy  Dy7  1  0.561331  0.937526  0.561331  1
  Dy  Dy8  1  0.153946  0.156147  0.153946  1
  Dy  Dy9  1  0.310072  0.312083  0.693596  1
  Dy  Dy10  1  0.937241  0.561747  0.563593  1
  Dy  Dy11  1  0.563593  0.561747  0.937241  1
  Dy  Dy12  1  0.563919  0.933544  0.934326  1
  Dy  Dy13  1  0.935300  0.564052  0.935300  1
  Dy  Dy14  1  0.148264  0.546658  0.148264  1
  Dy  Dy15  1  0.313250  0.687342  0.689798  1
  Dy  Dy16  1  0.692688  0.307325  0.692688  1
  Dy  Dy17  1  0.552551  0.148212  0.144797  1
  In  In18  1  0.920698  0.245828  0.920698  1
  In  In19  1  0.919685  0.914070  0.919685  1
  Pt  Pt20  1  0.357504  0.355807  0.357504  1
  Rh  Rh21  1  0.927071  0.357622  0.359546  1
  Rh  Rh22  1  0.359546  0.357622  0.927071  1
  Rh  Rh23  1  0.360331  0.926826  0.360331  1
