# generated using pymatgen
data_SmTm2Fe(Co4P3)2
_symmetry_space_group_name_H-M   'P 1'
_cell_length_a   3.69818400
_cell_length_b   10.53525100
_cell_length_c   12.19370000
_cell_angle_alpha   90.00000000
_cell_angle_beta   90.00000000
_cell_angle_gamma   90.00000000
_symmetry_Int_Tables_number   1
_chemical_formula_structural   SmTm2Fe(Co4P3)2
_chemical_formula_sum   'Sm2 Tm4 Fe2 Co16 P12'
_cell_volume   475.08236338
_cell_formula_units_Z   2
loop_
 _symmetry_equiv_pos_site_id
 _symmetry_equiv_pos_as_xyz
  1  'x, y, z'
loop_
 _atom_site_type_symbol
 _atom_site_label
 _atom_site_symmetry_multiplicity
 _atom_site_fract_x
 _atom_site_fract_y
 _atom_site_fract_z
 _atom_site_occupancy
  Sm  Sm0  1  0.000000  0.500000  0.522281  1
  Sm  Sm1  1  0.500000  0.000000  0.477719  1
  Tm  Tm2  1  0.500000  0.818266  0.204184  1
  Tm  Tm3  1  0.500000  0.181734  0.204184  1
  Tm  Tm4  1  0.000000  0.681734  0.795816  1
  Tm  Tm5  1  0.000000  0.318266  0.795816  1
  Fe  Fe6  1  0.500000  0.500000  0.155738  1
  Fe  Fe7  1  0.000000  0.000000  0.844262  1
  Co  Co8  1  0.500000  0.500000  0.704945  1
  Co  Co9  1  0.000000  0.000000  0.295055  1
  Co  Co10  1  0.000000  0.500000  0.986627  1
  Co  Co11  1  0.500000  0.000000  0.013373  1
  Co  Co12  1  0.500000  0.332819  0.994022  1
  Co  Co13  1  0.500000  0.667181  0.994022  1
  Co  Co14  1  0.000000  0.167181  0.005978  1
  Co  Co15  1  0.000000  0.832819  0.005978  1
  Co  Co16  1  0.500000  0.296058  0.429454  1
  Co  Co17  1  0.500000  0.703942  0.429454  1
  Co  Co18  1  0.000000  0.203942  0.570546  1
  Co  Co19  1  0.000000  0.796058  0.570546  1
  Co  Co20  1  0.500000  0.878432  0.711362  1
  Co  Co21  1  0.500000  0.121568  0.711362  1
  Co  Co22  1  0.000000  0.621568  0.288638  1
  Co  Co23  1  0.000000  0.378432  0.288638  1
  P  P24  1  0.500000  0.500000  0.882703  1
  P  P25  1  0.000000  0.000000  0.117297  1
  P  P26  1  0.500000  0.500000  0.340040  1
  P  P27  1  0.000000  0.000000  0.659960  1
  P  P28  1  0.500000  0.308989  0.618020  1
  P  P29  1  0.500000  0.691011  0.618020  1
  P  P30  1  0.000000  0.191011  0.381980  1
  P  P31  1  0.000000  0.808989  0.381980  1
  P  P32  1  0.500000  0.846470  0.892880  1
  P  P33  1  0.500000  0.153530  0.892880  1
  P  P34  1  0.000000  0.653530  0.107120  1
  P  P35  1  0.000000  0.346470  0.107120  1
