# generated using pymatgen
data_CsP2OsPd
_symmetry_space_group_name_H-M   'P 1'
_cell_length_a   7.87807451
_cell_length_b   7.87807479
_cell_length_c   7.87807627
_cell_angle_alpha   150.61901655
_cell_angle_beta   150.61901957
_cell_angle_gamma   42.03350489
_symmetry_Int_Tables_number   1
_chemical_formula_structural   CsP2OsPd
_chemical_formula_sum   'Cs1 P2 Os1 Pd1'
_cell_volume   117.41212676
_cell_formula_units_Z   1
loop_
 _symmetry_equiv_pos_site_id
 _symmetry_equiv_pos_as_xyz
  1  'x, y, z'
loop_
 _atom_site_type_symbol
 _atom_site_label
 _atom_site_symmetry_multiplicity
 _atom_site_fract_x
 _atom_site_fract_y
 _atom_site_fract_z
 _atom_site_occupancy
  Cs  Cs0  1  0.000000  0.000000  0.000000  1
  P  P1  1  0.337698  0.337698  0.000000  1
  P  P2  1  0.662302  0.662302  0.000000  1
  Os  Os3  1  0.750000  0.250000  0.500000  1
  Pd  Pd4  1  0.250000  0.750000  0.500000  1
