# generated using pymatgen
data_NdHoZn5Ge
_symmetry_space_group_name_H-M   'P 1'
_cell_length_a   8.29064645
_cell_length_b   8.29064585
_cell_length_c   8.83311900
_cell_angle_alpha   90.00000000
_cell_angle_beta   90.00000000
_cell_angle_gamma   149.60001369
_symmetry_Int_Tables_number   1
_chemical_formula_structural   NdHoZn5Ge
_chemical_formula_sum   'Nd2 Ho2 Zn10 Ge2'
_cell_volume   307.23462526
_cell_formula_units_Z   2
loop_
 _symmetry_equiv_pos_site_id
 _symmetry_equiv_pos_as_xyz
  1  'x, y, z'
loop_
 _atom_site_type_symbol
 _atom_site_label
 _atom_site_symmetry_multiplicity
 _atom_site_fract_x
 _atom_site_fract_y
 _atom_site_fract_z
 _atom_site_occupancy
  Nd  Nd0  1  0.000000  0.000000  0.500000  1
  Nd  Nd1  1  0.000000  0.000000  0.000000  1
  Ho  Ho2  1  0.200452  0.799548  0.250000  1
  Ho  Ho3  1  0.799548  0.200452  0.750000  1
  Zn  Zn4  1  0.812252  0.187748  0.391981  1
  Zn  Zn5  1  0.187748  0.812252  0.608019  1
  Zn  Zn6  1  0.812252  0.187748  0.108019  1
  Zn  Zn7  1  0.187748  0.812252  0.891981  1
  Zn  Zn8  1  0.653194  0.346806  0.476156  1
  Zn  Zn9  1  0.346806  0.653194  0.523844  1
  Zn  Zn10  1  0.653194  0.346806  0.023844  1
  Zn  Zn11  1  0.346806  0.653194  0.976156  1
  Zn  Zn12  1  0.399506  0.600494  0.250000  1
  Zn  Zn13  1  0.600494  0.399506  0.750000  1
  Ge  Ge14  1  0.556553  0.443447  0.250000  1
  Ge  Ge15  1  0.443447  0.556553  0.750000  1
