# generated using pymatgen
data_NdSn3PdPt
_symmetry_space_group_name_H-M   'P 1'
_cell_length_a   6.14716300
_cell_length_b   6.38562800
_cell_length_c   14.01479100
_cell_angle_alpha   90.00000000
_cell_angle_beta   90.00000000
_cell_angle_gamma   90.00000000
_symmetry_Int_Tables_number   1
_chemical_formula_structural   NdSn3PdPt
_chemical_formula_sum   'Nd4 Sn12 Pd4 Pt4'
_cell_volume   550.12954489
_cell_formula_units_Z   4
loop_
 _symmetry_equiv_pos_site_id
 _symmetry_equiv_pos_as_xyz
  1  'x, y, z'
loop_
 _atom_site_type_symbol
 _atom_site_label
 _atom_site_symmetry_multiplicity
 _atom_site_fract_x
 _atom_site_fract_y
 _atom_site_fract_z
 _atom_site_occupancy
  Nd  Nd0  1  0.250000  0.514179  0.800674  1
  Nd  Nd1  1  0.750000  0.485821  0.199326  1
  Nd  Nd2  1  0.750000  0.985821  0.800674  1
  Nd  Nd3  1  0.250000  0.014179  0.199326  1
  Sn  Sn4  1  0.250000  0.020202  0.694336  1
  Sn  Sn5  1  0.750000  0.979798  0.305664  1
  Sn  Sn6  1  0.750000  0.479798  0.694336  1
  Sn  Sn7  1  0.250000  0.520202  0.305664  1
  Sn  Sn8  1  0.250000  0.893666  0.437590  1
  Sn  Sn9  1  0.750000  0.106334  0.562410  1
  Sn  Sn10  1  0.750000  0.606334  0.437590  1
  Sn  Sn11  1  0.250000  0.393666  0.562410  1
  Sn  Sn12  1  0.500000  0.750000  0.996154  1
  Sn  Sn13  1  0.000000  0.250000  0.003846  1
  Sn  Sn14  1  0.500000  0.250000  0.003846  1
  Sn  Sn15  1  0.000000  0.750000  0.996154  1
  Pd  Pd16  1  0.500000  0.750000  0.592929  1
  Pd  Pd17  1  0.000000  0.250000  0.407071  1
  Pd  Pd18  1  0.500000  0.250000  0.407071  1
  Pd  Pd19  1  0.000000  0.750000  0.592929  1
  Pt  Pt20  1  0.250000  0.013609  0.882839  1
  Pt  Pt21  1  0.750000  0.986391  0.117161  1
  Pt  Pt22  1  0.750000  0.486391  0.882839  1
  Pt  Pt23  1  0.250000  0.513609  0.117161  1
