# generated using pymatgen
data_Ce2Pr(ZnPt)3
_symmetry_space_group_name_H-M   'P 1'
_cell_length_a   7.44320500
_cell_length_b   7.47965274
_cell_length_c   3.92200100
_cell_angle_alpha   90.00000000
_cell_angle_beta   90.00000000
_cell_angle_gamma   119.83893123
_symmetry_Int_Tables_number   1
_chemical_formula_structural   Ce2Pr(ZnPt)3
_chemical_formula_sum   'Ce2 Pr1 Zn3 Pt3'
_cell_volume   189.40103032
_cell_formula_units_Z   1
loop_
 _symmetry_equiv_pos_site_id
 _symmetry_equiv_pos_as_xyz
  1  'x, y, z'
loop_
 _atom_site_type_symbol
 _atom_site_label
 _atom_site_symmetry_multiplicity
 _atom_site_fract_x
 _atom_site_fract_y
 _atom_site_fract_z
 _atom_site_occupancy
  Ce  Ce0  1  0.592395  0.592183  0.500000  1
  Ce  Ce1  1  0.000213  0.407817  0.500000  1
  Pr  Pr2  1  0.407886  0.000000  0.500000  1
  Zn  Zn3  1  0.001398  0.756025  0.000000  1
  Zn  Zn4  1  0.751075  0.000000  0.000000  1
  Zn  Zn5  1  0.245373  0.243975  0.000000  1
  Pt  Pt6  1  0.992006  0.000000  0.500000  1
  Pt  Pt7  1  0.679256  0.348859  0.000000  1
  Pt  Pt8  1  0.330397  0.651141  0.000000  1
