# generated using pymatgen
data_Dy3AgPt2
_symmetry_space_group_name_H-M   'P 1'
_cell_length_a   4.62311700
_cell_length_b   5.63145315
_cell_length_c   10.63330200
_cell_angle_alpha   83.15924250
_cell_angle_beta   90.00000000
_cell_angle_gamma   90.00000000
_symmetry_Int_Tables_number   1
_chemical_formula_structural   Dy3AgPt2
_chemical_formula_sum   'Dy6 Ag2 Pt4'
_cell_volume   274.86580948
_cell_formula_units_Z   2
loop_
 _symmetry_equiv_pos_site_id
 _symmetry_equiv_pos_as_xyz
  1  'x, y, z'
loop_
 _atom_site_type_symbol
 _atom_site_label
 _atom_site_symmetry_multiplicity
 _atom_site_fract_x
 _atom_site_fract_y
 _atom_site_fract_z
 _atom_site_occupancy
  Dy  Dy0  1  0.250000  0.408814  0.797498  1
  Dy  Dy1  1  0.750000  0.591186  0.202502  1
  Dy  Dy2  1  0.250000  0.122078  0.116493  1
  Dy  Dy3  1  0.750000  0.877922  0.883507  1
  Dy  Dy4  1  0.250000  0.244005  0.450335  1
  Dy  Dy5  1  0.750000  0.755995  0.549665  1
  Ag  Ag6  1  0.250000  0.765794  0.356420  1
  Ag  Ag7  1  0.750000  0.234206  0.643580  1
  Pt  Pt8  1  0.250000  0.653279  0.031349  1
  Pt  Pt9  1  0.750000  0.346721  0.968651  1
  Pt  Pt10  1  0.250000  0.917068  0.692560  1
  Pt  Pt11  1  0.750000  0.082932  0.307440  1
