# generated using pymatgen
data_Yb12Y8Si15Sn
_symmetry_space_group_name_H-M   'P 1'
_cell_length_a   7.44424302
_cell_length_b   7.86627823
_cell_length_c   15.22819043
_cell_angle_alpha   89.66967183
_cell_angle_beta   90.32041870
_cell_angle_gamma   90.04852429
_symmetry_Int_Tables_number   1
_chemical_formula_structural   Yb12Y8Si15Sn
_chemical_formula_sum   'Yb12 Y8 Si15 Sn1'
_cell_volume   891.71072918
_cell_formula_units_Z   1
loop_
 _symmetry_equiv_pos_site_id
 _symmetry_equiv_pos_as_xyz
  1  'x, y, z'
loop_
 _atom_site_type_symbol
 _atom_site_label
 _atom_site_symmetry_multiplicity
 _atom_site_fract_x
 _atom_site_fract_y
 _atom_site_fract_z
 _atom_site_occupancy
  Yb  Yb0  1  0.974502  0.818592  0.401005  1
  Yb  Yb1  1  0.470391  0.685249  0.096417  1
  Yb  Yb2  1  0.517182  0.308956  0.597568  1
  Yb  Yb3  1  0.029503  0.185184  0.904292  1
  Yb  Yb4  1  0.030943  0.180129  0.597082  1
  Yb  Yb5  1  0.529309  0.314841  0.903954  1
  Yb  Yb6  1  0.474255  0.685006  0.402976  1
  Yb  Yb7  1  0.970431  0.814194  0.096317  1
  Yb  Yb8  1  0.351915  0.022049  0.752455  1
  Yb  Yb9  1  0.853544  0.480154  0.753197  1
  Yb  Yb10  1  0.147054  0.520395  0.249833  1
  Yb  Yb11  1  0.645643  0.977770  0.248968  1
  Y  Y12  1  0.314079  0.176935  0.120412  1
  Y  Y13  1  0.816448  0.315463  0.374092  1
  Y  Y14  1  0.186834  0.677201  0.879404  1
  Y  Y15  1  0.679655  0.837013  0.625931  1
  Y  Y16  1  0.316693  0.175847  0.376812  1
  Y  Y17  1  0.813148  0.323463  0.120449  1
  Y  Y18  1  0.192121  0.678266  0.621671  1
  Y  Y19  1  0.686985  0.823339  0.879781  1
  Si  Si20  1  0.358793  0.967721  0.961499  1
  Si  Si21  1  0.641809  0.032645  0.461061  1
  Si  Si22  1  0.141020  0.467619  0.038846  1
  Si  Si23  1  0.154428  0.465694  0.459011  1
  Si  Si24  1  0.641484  0.032281  0.038667  1
  Si  Si25  1  0.358115  0.967621  0.537153  1
  Si  Si26  1  0.859149  0.532464  0.961461  1
  Si  Si27  1  0.978509  0.885187  0.751143  1
  Si  Si28  1  0.478858  0.616237  0.751745  1
  Si  Si29  1  0.521961  0.384080  0.247996  1
  Si  Si30  1  0.022712  0.113325  0.248519  1
  Si  Si31  1  0.250154  0.395582  0.750771  1
  Si  Si32  1  0.750951  0.108030  0.752237  1
  Si  Si33  1  0.250431  0.893713  0.249076  1
  Si  Si34  1  0.749954  0.604623  0.249125  1
  Sn  Sn35  1  0.841039  0.533129  0.539076  1
