# generated using pymatgen
data_TbPr3Ho12(CdIr)4
_symmetry_space_group_name_H-M   'P 1'
_cell_length_a   9.68107373
_cell_length_b   9.68398792
_cell_length_c   9.67127321
_cell_angle_alpha   60.02385177
_cell_angle_beta   59.92885696
_cell_angle_gamma   59.92261115
_symmetry_Int_Tables_number   1
_chemical_formula_structural   TbPr3Ho12(CdIr)4
_chemical_formula_sum   'Tb1 Pr3 Ho12 Cd4 Ir4'
_cell_volume   640.52494056
_cell_formula_units_Z   1
loop_
 _symmetry_equiv_pos_site_id
 _symmetry_equiv_pos_as_xyz
  1  'x, y, z'
loop_
 _atom_site_type_symbol
 _atom_site_label
 _atom_site_symmetry_multiplicity
 _atom_site_fract_x
 _atom_site_fract_y
 _atom_site_fract_z
 _atom_site_occupancy
  Tb  Tb0  1  0.560877  0.939125  0.560883  1
  Pr  Pr1  1  0.937815  0.562185  0.937831  1
  Pr  Pr2  1  0.562602  0.565099  0.935504  1
  Pr  Pr3  1  0.935500  0.936789  0.562607  1
  Ho  Ho4  1  0.351089  0.345827  0.347467  1
  Ho  Ho5  1  0.348166  0.350379  0.955682  1
  Ho  Ho6  1  0.347468  0.955609  0.351096  1
  Ho  Ho7  1  0.955692  0.345774  0.348154  1
  Ho  Ho8  1  0.812803  0.185785  0.187450  1
  Ho  Ho9  1  0.187455  0.813963  0.812799  1
  Ho  Ho10  1  0.188773  0.811226  0.188778  1
  Ho  Ho11  1  0.811404  0.188595  0.811396  1
  Ho  Ho12  1  0.189897  0.188368  0.810310  1
  Ho  Ho13  1  0.810321  0.811430  0.189887  1
  Ho  Ho14  1  0.944544  0.555930  0.552783  1
  Ho  Ho15  1  0.552777  0.946736  0.944558  1
  Cd  Cd16  1  0.582492  0.581335  0.577914  1
  Cd  Cd17  1  0.578341  0.582643  0.260846  1
  Cd  Cd18  1  0.577912  0.258256  0.582498  1
  Cd  Cd19  1  0.260835  0.578176  0.578345  1
  Ir  Ir20  1  0.147151  0.138820  0.138623  1
  Ir  Ir21  1  0.141911  0.144949  0.575535  1
  Ir  Ir22  1  0.138636  0.575406  0.147141  1
  Ir  Ir23  1  0.575539  0.137593  0.141911  1
