# generated using pymatgen
data_Lu3Mg3AgSn2
_symmetry_space_group_name_H-M   'P 1'
_cell_length_a   7.39448900
_cell_length_b   7.39448711
_cell_length_c   4.47763600
_cell_angle_alpha   90.00000000
_cell_angle_beta   90.00000000
_cell_angle_gamma   119.99999506
_symmetry_Int_Tables_number   1
_chemical_formula_structural   Lu3Mg3AgSn2
_chemical_formula_sum   'Lu3 Mg3 Ag1 Sn2'
_cell_volume   212.02919384
_cell_formula_units_Z   1
loop_
 _symmetry_equiv_pos_site_id
 _symmetry_equiv_pos_as_xyz
  1  'x, y, z'
loop_
 _atom_site_type_symbol
 _atom_site_label
 _atom_site_symmetry_multiplicity
 _atom_site_fract_x
 _atom_site_fract_y
 _atom_site_fract_z
 _atom_site_occupancy
  Lu  Lu0  1  0.581187  0.000000  0.000000  1
  Lu  Lu1  1  0.000000  0.581187  0.000000  1
  Lu  Lu2  1  0.418813  0.418813  0.000000  1
  Mg  Mg3  1  0.236141  0.000000  0.500000  1
  Mg  Mg4  1  0.000000  0.236141  0.500000  1
  Mg  Mg5  1  0.763859  0.763859  0.500000  1
  Ag  Ag6  1  0.000000  0.000000  0.000000  1
  Sn  Sn7  1  0.333333  0.666667  0.500000  1
  Sn  Sn8  1  0.666667  0.333333  0.500000  1
