# generated using pymatgen
data_Tb5Dy5Sn5Sb
_symmetry_space_group_name_H-M   'P 1'
_cell_length_a   9.00220737
_cell_length_b   8.99466386
_cell_length_c   6.51835800
_cell_angle_alpha   90.00000000
_cell_angle_beta   90.00000000
_cell_angle_gamma   119.99502922
_symmetry_Int_Tables_number   1
_chemical_formula_structural   Tb5Dy5Sn5Sb
_chemical_formula_sum   'Tb5 Dy5 Sn5 Sb1'
_cell_volume   457.11402118
_cell_formula_units_Z   1
loop_
 _symmetry_equiv_pos_site_id
 _symmetry_equiv_pos_as_xyz
  1  'x, y, z'
loop_
 _atom_site_type_symbol
 _atom_site_label
 _atom_site_symmetry_multiplicity
 _atom_site_fract_x
 _atom_site_fract_y
 _atom_site_fract_z
 _atom_site_occupancy
  Tb  Tb0  1  0.998102  0.759833  0.750000  1
  Tb  Tb1  1  0.000749  0.239383  0.250000  1
  Tb  Tb2  1  0.761234  0.760527  0.250000  1
  Tb  Tb3  1  0.761476  0.000064  0.750000  1
  Tb  Tb4  1  0.239407  0.000049  0.250000  1
  Dy  Dy5  1  0.238337  0.240312  0.750000  1
  Dy  Dy6  1  0.333187  0.665699  0.500016  1
  Dy  Dy7  1  0.667436  0.334253  0.999978  1
  Dy  Dy8  1  0.667436  0.334253  0.500022  1
  Dy  Dy9  1  0.333187  0.665699  0.999984  1
  Sn  Sn10  1  0.395764  0.395046  0.250000  1
  Sn  Sn11  1  0.000688  0.604945  0.250000  1
  Sn  Sn12  1  0.000040  0.395606  0.750000  1
  Sn  Sn13  1  0.604034  0.604143  0.750000  1
  Sn  Sn14  1  0.605150  0.000021  0.250000  1
  Sb  Sb15  1  0.393772  0.000166  0.750000  1
