# generated using pymatgen
data_Ho7Er3(FeSb2)2
_symmetry_space_group_name_H-M   'P 1'
_cell_length_a   7.82199200
_cell_length_b   8.77996412
_cell_length_c   12.15667016
_cell_angle_alpha   90.01856915
_cell_angle_beta   90.00000000
_cell_angle_gamma   90.00000000
_symmetry_Int_Tables_number   1
_chemical_formula_structural   Ho7Er3(FeSb2)2
_chemical_formula_sum   'Ho14 Er6 Fe4 Sb8'
_cell_volume   834.88127163
_cell_formula_units_Z   2
loop_
 _symmetry_equiv_pos_site_id
 _symmetry_equiv_pos_as_xyz
  1  'x, y, z'
loop_
 _atom_site_type_symbol
 _atom_site_label
 _atom_site_symmetry_multiplicity
 _atom_site_fract_x
 _atom_site_fract_y
 _atom_site_fract_z
 _atom_site_occupancy
  Ho  Ho0  1  0.156347  0.750137  0.204744  1
  Ho  Ho1  1  0.656347  0.249863  0.295256  1
  Ho  Ho2  1  0.843730  0.249938  0.795152  1
  Ho  Ho3  1  0.343730  0.750062  0.704848  1
  Ho  Ho4  1  0.449220  0.750082  0.995875  1
  Ho  Ho5  1  0.949220  0.249918  0.504125  1
  Ho  Ho6  1  0.550478  0.249798  0.004039  1
  Ho  Ho7  1  0.050478  0.750202  0.495961  1
  Ho  Ho8  1  0.623547  0.750158  0.308199  1
  Ho  Ho9  1  0.123547  0.249842  0.191801  1
  Ho  Ho10  1  0.376649  0.249783  0.691863  1
  Ho  Ho11  1  0.876649  0.750217  0.808137  1
  Ho  Ho12  1  0.824398  0.535476  0.063990  1
  Ho  Ho13  1  0.324398  0.464524  0.436010  1
  Er  Er14  1  0.824858  0.964224  0.064097  1
  Er  Er15  1  0.324858  0.035776  0.435903  1
  Er  Er16  1  0.175337  0.464305  0.935822  1
  Er  Er17  1  0.675337  0.535695  0.564178  1
  Er  Er18  1  0.174941  0.035706  0.935915  1
  Er  Er19  1  0.674941  0.964294  0.564085  1
  Fe  Fe20  1  0.428566  0.750080  0.489250  1
  Fe  Fe21  1  0.928566  0.249920  0.010750  1
  Fe  Fe22  1  0.572019  0.249769  0.510849  1
  Fe  Fe23  1  0.072019  0.750231  0.989151  1
  Sb  Sb24  1  0.930778  0.993295  0.327768  1
  Sb  Sb25  1  0.430778  0.006705  0.172232  1
  Sb  Sb26  1  0.069326  0.493295  0.672238  1
  Sb  Sb27  1  0.569326  0.506705  0.827762  1
  Sb  Sb28  1  0.069255  0.006732  0.672228  1
  Sb  Sb29  1  0.569255  0.993268  0.827772  1
  Sb  Sb30  1  0.930552  0.506752  0.327771  1
  Sb  Sb31  1  0.430552  0.493248  0.172229  1
