# generated using pymatgen
data_TbNdTmTaO7
_symmetry_space_group_name_H-M   'P 1'
_cell_length_a   6.49570179
_cell_length_b   6.48672420
_cell_length_c   7.59669000
_cell_angle_alpha   90.00000000
_cell_angle_beta   90.00000000
_cell_angle_gamma   109.28053348
_symmetry_Int_Tables_number   1
_chemical_formula_structural   TbNdTmTaO7
_chemical_formula_sum   'Tb2 Nd2 Tm2 Ta2 O14'
_cell_volume   302.13982378
_cell_formula_units_Z   2
loop_
 _symmetry_equiv_pos_site_id
 _symmetry_equiv_pos_as_xyz
  1  'x, y, z'
loop_
 _atom_site_type_symbol
 _atom_site_label
 _atom_site_symmetry_multiplicity
 _atom_site_fract_x
 _atom_site_fract_y
 _atom_site_fract_z
 _atom_site_occupancy
  Tb  Tb0  1  0.534998  0.000533  0.750000  1
  Tb  Tb1  1  0.465002  0.999467  0.250000  1
  Nd  Nd2  1  0.500000  0.500000  0.500000  1
  Nd  Nd3  1  0.500000  0.500000  0.000000  1
  Tm  Tm4  1  0.001615  0.531475  0.250000  1
  Tm  Tm5  1  0.998385  0.468525  0.750000  1
  Ta  Ta6  1  0.000000  0.000000  0.500000  1
  Ta  Ta7  1  0.000000  0.000000  0.000000  1
  O  O8  1  0.937367  0.067406  0.750000  1
  O  O9  1  0.062633  0.932594  0.250000  1
  O  O10  1  0.353393  0.639810  0.250000  1
  O  O11  1  0.646607  0.360190  0.750000  1
  O  O12  1  0.357939  0.631595  0.750000  1
  O  O13  1  0.642061  0.368405  0.250000  1
  O  O14  1  0.321223  0.073520  0.968672  1
  O  O15  1  0.678777  0.926480  0.468672  1
  O  O16  1  0.321223  0.073520  0.531328  1
  O  O17  1  0.678777  0.926480  0.031328  1
  O  O18  1  0.064084  0.319654  0.465728  1
  O  O19  1  0.935916  0.680346  0.965728  1
  O  O20  1  0.935916  0.680346  0.534272  1
  O  O21  1  0.064084  0.319654  0.034272  1
