# generated using pymatgen
data_NdHo4In4PdPt
_symmetry_space_group_name_H-M   'P 1'
_cell_length_a   3.62917400
_cell_length_b   8.20970580
_cell_length_c   18.38510805
_cell_angle_alpha   90.07594292
_cell_angle_beta   90.00000000
_cell_angle_gamma   90.00000000
_symmetry_Int_Tables_number   1
_chemical_formula_structural   NdHo4In4PdPt
_chemical_formula_sum   'Nd2 Ho8 In8 Pd2 Pt2'
_cell_volume   547.77371657
_cell_formula_units_Z   2
loop_
 _symmetry_equiv_pos_site_id
 _symmetry_equiv_pos_as_xyz
  1  'x, y, z'
loop_
 _atom_site_type_symbol
 _atom_site_label
 _atom_site_symmetry_multiplicity
 _atom_site_fract_x
 _atom_site_fract_y
 _atom_site_fract_z
 _atom_site_occupancy
  Nd  Nd0  1  0.000000  0.000000  0.000000  1
  Nd  Nd1  1  0.000000  0.500000  0.500000  1
  Ho  Ho2  1  0.000000  0.120829  0.414981  1
  Ho  Ho3  1  0.000000  0.879171  0.585019  1
  Ho  Ho4  1  0.000000  0.380153  0.914330  1
  Ho  Ho5  1  0.000000  0.619847  0.085670  1
  Ho  Ho6  1  0.000000  0.245818  0.218522  1
  Ho  Ho7  1  0.000000  0.754182  0.781478  1
  Ho  Ho8  1  0.000000  0.262784  0.719726  1
  Ho  Ho9  1  0.000000  0.737216  0.280274  1
  In  In10  1  0.500000  0.419663  0.348280  1
  In  In11  1  0.500000  0.580337  0.651720  1
  In  In12  1  0.500000  0.077552  0.847342  1
  In  In13  1  0.500000  0.922448  0.152658  1
  In  In14  1  0.500000  0.299685  0.067453  1
  In  In15  1  0.500000  0.700315  0.932547  1
  In  In16  1  0.500000  0.199402  0.568070  1
  In  In17  1  0.500000  0.800598  0.431930  1
  Pd  Pd18  1  0.500000  0.024405  0.303861  1
  Pd  Pd19  1  0.500000  0.975595  0.696139  1
  Pt  Pt20  1  0.500000  0.475173  0.803596  1
  Pt  Pt21  1  0.500000  0.524827  0.196404  1
