# generated using pymatgen
data_Tb7Dy13Sn15Sb
_symmetry_space_group_name_H-M   'P 1'
_cell_length_a   8.07455003
_cell_length_b   8.19707518
_cell_length_c   15.50017800
_cell_angle_alpha   90.05780552
_cell_angle_beta   90.19555485
_cell_angle_gamma   89.99751706
_symmetry_Int_Tables_number   1
_chemical_formula_structural   Tb7Dy13Sn15Sb
_chemical_formula_sum   'Tb7 Dy13 Sn15 Sb1'
_cell_volume   1025.91453424
_cell_formula_units_Z   1
loop_
 _symmetry_equiv_pos_site_id
 _symmetry_equiv_pos_as_xyz
  1  'x, y, z'
loop_
 _atom_site_type_symbol
 _atom_site_label
 _atom_site_symmetry_multiplicity
 _atom_site_fract_x
 _atom_site_fract_y
 _atom_site_fract_z
 _atom_site_occupancy
  Tb  Tb0  1  0.020946  0.178817  0.597900  1
  Tb  Tb1  1  0.478910  0.678492  0.402075  1
  Tb  Tb2  1  0.975243  0.821241  0.098857  1
  Tb  Tb3  1  0.478483  0.677302  0.097974  1
  Tb  Tb4  1  0.978967  0.821262  0.402079  1
  Tb  Tb5  1  0.520970  0.321293  0.597757  1
  Tb  Tb6  1  0.020942  0.179194  0.901276  1
  Dy  Dy7  1  0.369224  0.836745  0.878740  1
  Dy  Dy8  1  0.867501  0.663326  0.622361  1
  Dy  Dy9  1  0.632478  0.163198  0.377519  1
  Dy  Dy10  1  0.131029  0.337561  0.121893  1
  Dy  Dy11  1  0.632382  0.163299  0.121247  1
  Dy  Dy12  1  0.132985  0.336831  0.377561  1
  Dy  Dy13  1  0.367350  0.836903  0.622334  1
  Dy  Dy14  1  0.867917  0.663072  0.877953  1
  Dy  Dy15  1  0.523928  0.323579  0.901253  1
  Dy  Dy16  1  0.198525  0.501895  0.749837  1
  Dy  Dy17  1  0.698243  0.997696  0.750505  1
  Dy  Dy18  1  0.801348  0.497868  0.250510  1
  Dy  Dy19  1  0.301573  0.001755  0.251040  1
  Sn  Sn20  1  0.792971  0.463681  0.458101  1
  Sn  Sn21  1  0.707012  0.963585  0.541857  1
  Sn  Sn22  1  0.209080  0.535003  0.957985  1
  Sn  Sn23  1  0.711903  0.965009  0.957888  1
  Sn  Sn24  1  0.206857  0.536504  0.541803  1
  Sn  Sn25  1  0.293357  0.036200  0.458141  1
  Sn  Sn26  1  0.791750  0.464291  0.041936  1
  Sn  Sn27  1  0.565378  0.619456  0.749917  1
  Sn  Sn28  1  0.065993  0.880856  0.750937  1
  Sn  Sn29  1  0.434604  0.380314  0.249084  1
  Sn  Sn30  1  0.934574  0.119091  0.249146  1
  Sn  Sn31  1  0.330798  0.146881  0.750191  1
  Sn  Sn32  1  0.830181  0.353355  0.749797  1
  Sn  Sn33  1  0.668841  0.853261  0.249879  1
  Sn  Sn34  1  0.169376  0.646876  0.249786  1
  Sb  Sb35  1  0.288382  0.034312  0.042884  1
