# generated using pymatgen
data_DyTm(Si7Rh3)2
_symmetry_space_group_name_H-M   'P 1'
_cell_length_a   7.97982383
_cell_length_b   7.97982422
_cell_length_c   7.97982542
_cell_angle_alpha   57.06917492
_cell_angle_beta   57.06917008
_cell_angle_gamma   57.06917082
_symmetry_Int_Tables_number   1
_chemical_formula_structural   DyTm(Si7Rh3)2
_chemical_formula_sum   'Dy1 Tm1 Si14 Rh6'
_cell_volume   335.03351879
_cell_formula_units_Z   1
loop_
 _symmetry_equiv_pos_site_id
 _symmetry_equiv_pos_as_xyz
  1  'x, y, z'
loop_
 _atom_site_type_symbol
 _atom_site_label
 _atom_site_symmetry_multiplicity
 _atom_site_fract_x
 _atom_site_fract_y
 _atom_site_fract_z
 _atom_site_occupancy
  Dy  Dy0  1  0.000000  0.000000  0.000000  1
  Tm  Tm1  1  0.500000  0.500000  0.500000  1
  Si  Si2  1  0.749954  0.749954  0.749954  1
  Si  Si3  1  0.250046  0.250046  0.250046  1
  Si  Si4  1  0.851334  0.065504  0.672136  1
  Si  Si5  1  0.672136  0.851334  0.065504  1
  Si  Si6  1  0.065504  0.672136  0.851334  1
  Si  Si7  1  0.648248  0.827568  0.434848  1
  Si  Si8  1  0.434848  0.648248  0.827568  1
  Si  Si9  1  0.827568  0.434848  0.648248  1
  Si  Si10  1  0.172432  0.565152  0.351752  1
  Si  Si11  1  0.565152  0.351752  0.172432  1
  Si  Si12  1  0.351752  0.172432  0.565152  1
  Si  Si13  1  0.934496  0.327864  0.148666  1
  Si  Si14  1  0.327864  0.148666  0.934496  1
  Si  Si15  1  0.148666  0.934496  0.327864  1
  Rh  Rh16  1  0.071002  0.429884  0.749332  1
  Rh  Rh17  1  0.250668  0.928998  0.570116  1
  Rh  Rh18  1  0.570116  0.250668  0.928998  1
  Rh  Rh19  1  0.928998  0.570116  0.250668  1
  Rh  Rh20  1  0.429884  0.749332  0.071002  1
  Rh  Rh21  1  0.749332  0.071002  0.429884  1
