# generated using pymatgen
data_LiBe2Pd3
_symmetry_space_group_name_H-M   'P 1'
_cell_length_a   4.04320900
_cell_length_b   4.04320950
_cell_length_c   9.97521600
_cell_angle_alpha   90.00000000
_cell_angle_beta   90.00000000
_cell_angle_gamma   120.00000406
_symmetry_Int_Tables_number   1
_chemical_formula_structural   LiBe2Pd3
_chemical_formula_sum   'Li2 Be4 Pd6'
_cell_volume   141.22297600
_cell_formula_units_Z   2
loop_
 _symmetry_equiv_pos_site_id
 _symmetry_equiv_pos_as_xyz
  1  'x, y, z'
loop_
 _atom_site_type_symbol
 _atom_site_label
 _atom_site_symmetry_multiplicity
 _atom_site_fract_x
 _atom_site_fract_y
 _atom_site_fract_z
 _atom_site_occupancy
  Li  Li0  1  0.333333  0.666667  0.668331  1
  Li  Li1  1  0.666667  0.333333  0.331669  1
  Be  Be2  1  0.000000  0.000000  0.500000  1
  Be  Be3  1  0.333333  0.666667  0.170205  1
  Be  Be4  1  0.666667  0.333333  0.829795  1
  Be  Be5  1  0.000000  0.000000  0.000000  1
  Pd  Pd6  1  0.333333  0.666667  0.415702  1
  Pd  Pd7  1  0.666667  0.333333  0.077038  1
  Pd  Pd8  1  0.000000  0.000000  0.758936  1
  Pd  Pd9  1  0.000000  0.000000  0.241064  1
  Pd  Pd10  1  0.333333  0.666667  0.922962  1
  Pd  Pd11  1  0.666667  0.333333  0.584298  1
