# generated using pymatgen
data_Er2HgPtPb
_symmetry_space_group_name_H-M   'P 1'
_cell_length_a   8.14715500
_cell_length_b   8.07403100
_cell_length_c   3.71186500
_cell_angle_alpha   90.00000000
_cell_angle_beta   90.00000000
_cell_angle_gamma   90.00000000
_symmetry_Int_Tables_number   1
_chemical_formula_structural   Er2HgPtPb
_chemical_formula_sum   'Er4 Hg2 Pt2 Pb2'
_cell_volume   244.16789775
_cell_formula_units_Z   2
loop_
 _symmetry_equiv_pos_site_id
 _symmetry_equiv_pos_as_xyz
  1  'x, y, z'
loop_
 _atom_site_type_symbol
 _atom_site_label
 _atom_site_symmetry_multiplicity
 _atom_site_fract_x
 _atom_site_fract_y
 _atom_site_fract_z
 _atom_site_occupancy
  Er  Er0  1  0.689515  0.164425  0.500000  1
  Er  Er1  1  0.134102  0.325049  0.500000  1
  Er  Er2  1  0.810485  0.664425  0.500000  1
  Er  Er3  1  0.365898  0.825049  0.500000  1
  Hg  Hg4  1  0.373413  0.133210  0.000000  1
  Hg  Hg5  1  0.126587  0.633210  0.000000  1
  Pt  Pt6  1  0.628891  0.878477  0.000000  1
  Pt  Pt7  1  0.871109  0.378477  0.000000  1
  Pb  Pb8  1  0.993785  0.998838  0.000000  1
  Pb  Pb9  1  0.506215  0.498838  0.000000  1
