# generated using pymatgen
data_Nd3Si2Ir3
_symmetry_space_group_name_H-M   'P 1'
_cell_length_a   5.72609400
_cell_length_b   7.78964900
_cell_length_c   15.01452600
_cell_angle_alpha   90.00000000
_cell_angle_beta   90.00000000
_cell_angle_gamma   90.00000000
_symmetry_Int_Tables_number   1
_chemical_formula_structural   Nd3Si2Ir3
_chemical_formula_sum   'Nd12 Si8 Ir12'
_cell_volume   669.71185753
_cell_formula_units_Z   4
loop_
 _symmetry_equiv_pos_site_id
 _symmetry_equiv_pos_as_xyz
  1  'x, y, z'
loop_
 _atom_site_type_symbol
 _atom_site_label
 _atom_site_symmetry_multiplicity
 _atom_site_fract_x
 _atom_site_fract_y
 _atom_site_fract_z
 _atom_site_occupancy
  Nd  Nd0  1  0.135260  0.473322  0.890973  1
  Nd  Nd1  1  0.364740  0.973322  0.890973  1
  Nd  Nd2  1  0.599667  0.329762  0.750000  1
  Nd  Nd3  1  0.400333  0.670238  0.250000  1
  Nd  Nd4  1  0.635260  0.026678  0.390973  1
  Nd  Nd5  1  0.864740  0.526678  0.109027  1
  Nd  Nd6  1  0.864740  0.526678  0.390973  1
  Nd  Nd7  1  0.364740  0.973322  0.609027  1
  Nd  Nd8  1  0.900333  0.829762  0.750000  1
  Nd  Nd9  1  0.135260  0.473322  0.609027  1
  Nd  Nd10  1  0.635260  0.026678  0.109027  1
  Nd  Nd11  1  0.099667  0.170238  0.250000  1
  Si  Si12  1  0.374516  0.372546  0.098867  1
  Si  Si13  1  0.625484  0.627454  0.901133  1
  Si  Si14  1  0.874516  0.127454  0.901133  1
  Si  Si15  1  0.374516  0.372546  0.401133  1
  Si  Si16  1  0.874516  0.127454  0.598867  1
  Si  Si17  1  0.625484  0.627454  0.598867  1
  Si  Si18  1  0.125484  0.872546  0.401133  1
  Si  Si19  1  0.125484  0.872546  0.098867  1
  Ir  Ir20  1  0.571765  0.321887  0.250000  1
  Ir  Ir21  1  0.071765  0.178113  0.750000  1
  Ir  Ir22  1  0.428235  0.678113  0.750000  1
  Ir  Ir23  1  0.928235  0.821887  0.250000  1
  Ir  Ir24  1  0.605773  0.336837  0.960336  1
  Ir  Ir25  1  0.394227  0.663163  0.039664  1
  Ir  Ir26  1  0.394227  0.663163  0.460336  1
  Ir  Ir27  1  0.105773  0.163163  0.460336  1
  Ir  Ir28  1  0.105773  0.163163  0.039664  1
  Ir  Ir29  1  0.605773  0.336837  0.539664  1
  Ir  Ir30  1  0.894227  0.836837  0.539664  1
  Ir  Ir31  1  0.894227  0.836837  0.960336  1
