# generated using pymatgen
data_Ac8Ga(Si4Ag)3
_symmetry_space_group_name_H-M   'P 1'
_cell_length_a   11.86993470
_cell_length_b   10.19874302
_cell_length_c   8.54827076
_cell_angle_alpha   78.02022596
_cell_angle_beta   57.24778915
_cell_angle_gamma   44.78731335
_symmetry_Int_Tables_number   1
_chemical_formula_structural   Ac8Ga(Si4Ag)3
_chemical_formula_sum   'Ac8 Ga1 Si12 Ag3'
_cell_volume   585.31435334
_cell_formula_units_Z   1
loop_
 _symmetry_equiv_pos_site_id
 _symmetry_equiv_pos_as_xyz
  1  'x, y, z'
loop_
 _atom_site_type_symbol
 _atom_site_label
 _atom_site_symmetry_multiplicity
 _atom_site_fract_x
 _atom_site_fract_y
 _atom_site_fract_z
 _atom_site_occupancy
  Ac  Ac0  1  0.377530  0.378485  0.621735  1
  Ac  Ac1  1  0.621735  0.622250  0.377530  1
  Ac  Ac2  1  0.872914  0.874569  0.629356  1
  Ac  Ac3  1  0.629356  0.623160  0.872914  1
  Ac  Ac4  1  0.875290  0.878496  0.119111  1
  Ac  Ac5  1  0.119111  0.127103  0.875290  1
  Ac  Ac6  1  0.380785  0.370515  0.122383  1
  Ac  Ac7  1  0.122383  0.126316  0.380785  1
  Ga  Ga8  1  0.832801  0.167199  0.832801  1
  Si  Si9  1  0.663926  0.336074  0.663926  1
  Si  Si10  1  0.336711  0.663289  0.336711  1
  Si  Si11  1  0.587463  0.912537  0.587463  1
  Si  Si12  1  0.912741  0.587259  0.912741  1
  Si  Si13  1  0.335552  0.661154  0.828096  1
  Si  Si14  1  0.175479  0.828847  0.661583  1
  Si  Si15  1  0.828096  0.175197  0.335552  1
  Si  Si16  1  0.661583  0.334090  0.175479  1
  Si  Si17  1  0.915094  0.589328  0.421981  1
  Si  Si18  1  0.074649  0.425329  0.587189  1
  Si  Si19  1  0.421981  0.073597  0.915094  1
  Si  Si20  1  0.587189  0.912834  0.074649  1
  Ag  Ag21  1  0.167220  0.832780  0.167220  1
  Ag  Ag22  1  0.417341  0.082659  0.417341  1
  Ag  Ag23  1  0.083069  0.416931  0.083069  1
