# generated using pymatgen
data_NpU5N11
_symmetry_space_group_name_H-M   'P 1'
_cell_length_a   6.50064256
_cell_length_b   6.49917048
_cell_length_c   6.50274172
_cell_angle_alpha   80.37253777
_cell_angle_beta   80.28144012
_cell_angle_gamma   119.88143673
_symmetry_Int_Tables_number   1
_chemical_formula_structural   NpU5N11
_chemical_formula_sum   'Np1 U5 N11'
_cell_volume   224.40709473
_cell_formula_units_Z   1
loop_
 _symmetry_equiv_pos_site_id
 _symmetry_equiv_pos_as_xyz
  1  'x, y, z'
loop_
 _atom_site_type_symbol
 _atom_site_label
 _atom_site_symmetry_multiplicity
 _atom_site_fract_x
 _atom_site_fract_y
 _atom_site_fract_z
 _atom_site_occupancy
  Np  Np0  1  0.165959  0.835879  0.496255  1
  U  U1  1  0.835466  0.165774  0.495646  1
  U  U2  1  0.313068  0.669687  0.993977  1
  U  U3  1  0.018492  0.018218  0.995048  1
  U  U4  1  0.494860  0.495521  0.519739  1
  U  U5  1  0.668510  0.312658  0.994600  1
  N  N6  1  0.440793  0.797935  0.630362  1
  N  N7  1  0.991564  0.697573  0.903328  1
  N  N8  1  0.700517  0.994589  0.899431  1
  N  N9  1  0.791401  0.429955  0.631847  1
  N  N10  1  0.856761  0.860248  0.369484  1
  N  N11  1  0.293569  0.963588  0.109021  1
  N  N12  1  0.244608  0.547178  0.346918  1
  N  N13  1  0.403912  0.404650  0.892831  1
  N  N14  1  0.555565  0.248381  0.347527  1
  N  N15  1  0.961481  0.290364  0.115307  1
  N  N16  1  0.138477  0.142803  0.633684  1
