# generated using pymatgen
data_Ca7Lu3(Si3H)2
_symmetry_space_group_name_H-M   'P 1'
_cell_length_a   8.84409261
_cell_length_b   8.84642050
_cell_length_c   8.85165277
_cell_angle_alpha   129.55339084
_cell_angle_beta   129.54592153
_cell_angle_gamma   74.07344181
_symmetry_Int_Tables_number   1
_chemical_formula_structural   Ca7Lu3(Si3H)2
_chemical_formula_sum   'Ca7 Lu3 Si6 H2'
_cell_volume   401.62705734
_cell_formula_units_Z   1
loop_
 _symmetry_equiv_pos_site_id
 _symmetry_equiv_pos_as_xyz
  1  'x, y, z'
loop_
 _atom_site_type_symbol
 _atom_site_label
 _atom_site_symmetry_multiplicity
 _atom_site_fract_x
 _atom_site_fract_y
 _atom_site_fract_z
 _atom_site_occupancy
  Ca  Ca0  1  0.503238  0.502307  0.005250  1
  Ca  Ca1  1  0.998028  0.996951  0.994677  1
  Ca  Ca2  1  0.680695  0.519611  0.499996  1
  Ca  Ca3  1  0.478993  0.977969  0.165376  1
  Ca  Ca4  1  0.813643  0.312635  0.834666  1
  Ca  Ca5  1  0.981675  0.813197  0.500015  1
  Ca  Ca6  1  0.313345  0.480833  0.500032  1
  Lu  Lu7  1  0.523390  0.026313  0.840144  1
  Lu  Lu8  1  0.183242  0.686165  0.159851  1
  Lu  Lu9  1  0.021920  0.186313  0.499998  1
  Si  Si10  1  0.247369  0.252650  0.983843  1
  Si  Si11  1  0.763527  0.768808  0.016160  1
  Si  Si12  1  0.879474  0.372371  0.265033  1
  Si  Si13  1  0.114433  0.607334  0.734958  1
  Si  Si14  1  0.372616  0.110053  0.499998  1
  Si  Si15  1  0.599932  0.881270  0.500002  1
  H  H16  1  0.262739  0.759952  0.499997  1
  H  H17  1  0.761743  0.245267  0.500005  1
