# generated using pymatgen
data_Th4HgGeH8
_symmetry_space_group_name_H-M   'P 1'
_cell_length_a   6.29605840
_cell_length_b   6.29605877
_cell_length_c   6.29605844
_cell_angle_alpha   105.89184250
_cell_angle_beta   105.89183827
_cell_angle_gamma   116.89490321
_symmetry_Int_Tables_number   1
_chemical_formula_structural   Th4HgGeH8
_chemical_formula_sum   'Th4 Hg1 Ge1 H8'
_cell_volume   189.67654039
_cell_formula_units_Z   1
loop_
 _symmetry_equiv_pos_site_id
 _symmetry_equiv_pos_as_xyz
  1  'x, y, z'
loop_
 _atom_site_type_symbol
 _atom_site_label
 _atom_site_symmetry_multiplicity
 _atom_site_fract_x
 _atom_site_fract_y
 _atom_site_fract_z
 _atom_site_occupancy
  Th  Th0  1  0.836098  0.663902  0.500000  1
  Th  Th1  1  0.663902  0.163902  0.827803  1
  Th  Th2  1  0.163902  0.336098  0.500000  1
  Th  Th3  1  0.336098  0.836098  0.172197  1
  Hg  Hg4  1  0.750000  0.750000  0.000000  1
  Ge  Ge5  1  0.250000  0.250000  0.000000  1
  H  H6  1  0.222503  0.974564  0.500201  1
  H  H7  1  0.474362  0.722302  0.499799  1
  H  H8  1  0.722302  0.222503  0.247940  1
  H  H9  1  0.974564  0.474362  0.752060  1
  H  H10  1  0.277497  0.777698  0.752060  1
  H  H11  1  0.525436  0.277497  0.499799  1
  H  H12  1  0.025638  0.525436  0.247940  1
  H  H13  1  0.777698  0.025638  0.500201  1
