# generated using pymatgen
data_Rb2VOF4
_symmetry_space_group_name_H-M   'P 1'
_cell_length_a   5.97465400
_cell_length_b   7.79503100
_cell_length_c   12.14449900
_cell_angle_alpha   90.00000000
_cell_angle_beta   90.00000000
_cell_angle_gamma   90.00000000
_symmetry_Int_Tables_number   1
_chemical_formula_structural   Rb2VOF4
_chemical_formula_sum   'Rb8 V4 O4 F16'
_cell_volume   565.60105376
_cell_formula_units_Z   4
loop_
 _symmetry_equiv_pos_site_id
 _symmetry_equiv_pos_as_xyz
  1  'x, y, z'
loop_
 _atom_site_type_symbol
 _atom_site_label
 _atom_site_symmetry_multiplicity
 _atom_site_fract_x
 _atom_site_fract_y
 _atom_site_fract_z
 _atom_site_occupancy
  Rb  Rb0  1  0.003458  0.234305  0.222692  1
  Rb  Rb1  1  0.996542  0.734305  0.277308  1
  Rb  Rb2  1  0.503458  0.265695  0.777308  1
  Rb  Rb3  1  0.496542  0.765695  0.722692  1
  Rb  Rb4  1  0.006065  0.920454  0.911506  1
  Rb  Rb5  1  0.993935  0.420454  0.588494  1
  Rb  Rb6  1  0.506065  0.579546  0.088494  1
  Rb  Rb7  1  0.493935  0.079546  0.411506  1
  V  V8  1  0.029779  0.431488  0.933825  1
  V  V9  1  0.970221  0.931488  0.566175  1
  V  V10  1  0.529779  0.068512  0.066175  1
  V  V11  1  0.470221  0.568512  0.433825  1
  O  O12  1  0.227341  0.561810  0.887034  1
  O  O13  1  0.772659  0.061810  0.612966  1
  O  O14  1  0.727341  0.938190  0.112966  1
  O  O15  1  0.272659  0.438190  0.387034  1
  F  F16  1  0.992350  0.522168  0.083645  1
  F  F17  1  0.007650  0.022168  0.416355  1
  F  F18  1  0.492350  0.977832  0.916355  1
  F  F19  1  0.507650  0.477832  0.583645  1
  F  F20  1  0.229541  0.253543  0.998280  1
  F  F21  1  0.770459  0.753543  0.501720  1
  F  F22  1  0.729541  0.246457  0.001720  1
  F  F23  1  0.270459  0.746457  0.498280  1
  F  F24  1  0.990190  0.278255  0.810915  1
  F  F25  1  0.009810  0.778255  0.689085  1
  F  F26  1  0.490190  0.221745  0.189085  1
  F  F27  1  0.509810  0.721745  0.310915  1
  F  F28  1  0.265088  0.943442  0.110812  1
  F  F29  1  0.734912  0.443442  0.389188  1
  F  F30  1  0.765088  0.556558  0.889188  1
  F  F31  1  0.234912  0.056558  0.610812  1
