# generated using pymatgen
data_ErLu3(Si4Os3)2
_symmetry_space_group_name_H-M   'P 1'
_cell_length_a   10.02926779
_cell_length_b   10.02926763
_cell_length_c   13.49222800
_cell_angle_alpha   53.64640361
_cell_angle_beta   53.64640428
_cell_angle_gamma   31.29657997
_symmetry_Int_Tables_number   1
_chemical_formula_structural   ErLu3(Si4Os3)2
_chemical_formula_sum   'Er2 Lu6 Si16 Os12'
_cell_volume   555.58040786
_cell_formula_units_Z   2
loop_
 _symmetry_equiv_pos_site_id
 _symmetry_equiv_pos_as_xyz
  1  'x, y, z'
loop_
 _atom_site_type_symbol
 _atom_site_label
 _atom_site_symmetry_multiplicity
 _atom_site_fract_x
 _atom_site_fract_y
 _atom_site_fract_z
 _atom_site_occupancy
  Er  Er0  1  0.036978  0.290499  0.640229  1
  Er  Er1  1  0.709501  0.963022  0.859771  1
  Lu  Lu2  1  0.962605  0.710536  0.359996  1
  Lu  Lu3  1  0.289464  0.037395  0.140004  1
  Lu  Lu4  1  0.301379  0.556010  0.643715  1
  Lu  Lu5  1  0.443990  0.698621  0.856285  1
  Lu  Lu6  1  0.699948  0.444596  0.355071  1
  Lu  Lu7  1  0.555404  0.300052  0.144929  1
  Si  Si8  1  0.978050  0.247890  0.895275  1
  Si  Si9  1  0.752110  0.021950  0.604725  1
  Si  Si10  1  0.020342  0.752011  0.106181  1
  Si  Si11  1  0.247989  0.979658  0.393819  1
  Si  Si12  1  0.142396  0.382748  0.899958  1
  Si  Si13  1  0.617252  0.857604  0.600042  1
  Si  Si14  1  0.857689  0.616757  0.099755  1
  Si  Si15  1  0.383243  0.142311  0.400245  1
  Si  Si16  1  0.082568  0.574661  0.567442  1
  Si  Si17  1  0.425339  0.917432  0.932558  1
  Si  Si18  1  0.918194  0.426242  0.431953  1
  Si  Si19  1  0.573758  0.081806  0.068047  1
  Si  Si20  1  0.617626  0.382374  0.750000  1
  Si  Si21  1  0.382120  0.617880  0.250000  1
  Si  Si22  1  0.130669  0.869331  0.750000  1
  Si  Si23  1  0.869942  0.130058  0.250000  1
  Os  Os24  1  0.895760  0.141510  0.586974  1
  Os  Os25  1  0.858490  0.104240  0.913026  1
  Os  Os26  1  0.105355  0.858716  0.412090  1
  Os  Os27  1  0.141284  0.894645  0.087910  1
  Os  Os28  1  0.832511  0.642381  0.783751  1
  Os  Os29  1  0.357619  0.167489  0.716249  1
  Os  Os30  1  0.166512  0.356832  0.215931  1
  Os  Os31  1  0.643168  0.833488  0.284069  1
  Os  Os32  1  0.246651  0.506647  0.931268  1
  Os  Os33  1  0.493353  0.753349  0.568732  1
  Os  Os34  1  0.753716  0.492973  0.068863  1
  Os  Os35  1  0.507027  0.246284  0.431137  1
