# generated using pymatgen
data_Sm8Lu9Sc2Si16Ag
_symmetry_space_group_name_H-M   'P 1'
_cell_length_a   7.23003388
_cell_length_b   7.63842932
_cell_length_c   14.45626500
_cell_angle_alpha   90.00000000
_cell_angle_beta   90.00000000
_cell_angle_gamma   89.94891141
_symmetry_Int_Tables_number   1
_chemical_formula_structural   Sm8Lu9Sc2Si16Ag
_chemical_formula_sum   'Sm8 Lu9 Sc2 Si16 Ag1'
_cell_volume   798.36285844
_cell_formula_units_Z   1
loop_
 _symmetry_equiv_pos_site_id
 _symmetry_equiv_pos_as_xyz
  1  'x, y, z'
loop_
 _atom_site_type_symbol
 _atom_site_label
 _atom_site_symmetry_multiplicity
 _atom_site_fract_x
 _atom_site_fract_y
 _atom_site_fract_z
 _atom_site_occupancy
  Sm  Sm0  1  0.016301  0.175992  0.097296  1
  Sm  Sm1  1  0.985547  0.811510  0.899114  1
  Sm  Sm2  1  0.478137  0.675477  0.899352  1
  Sm  Sm3  1  0.985547  0.811510  0.600886  1
  Sm  Sm4  1  0.514078  0.321253  0.097131  1
  Sm  Sm5  1  0.016301  0.175992  0.402704  1
  Sm  Sm6  1  0.514078  0.321253  0.402869  1
  Sm  Sm7  1  0.478137  0.675477  0.600648  1
  Lu  Lu8  1  0.842339  0.491833  0.250000  1
  Lu  Lu9  1  0.320926  0.184610  0.627376  1
  Lu  Lu10  1  0.675559  0.824801  0.376066  1
  Lu  Lu11  1  0.176847  0.680538  0.374475  1
  Lu  Lu12  1  0.675559  0.824801  0.123934  1
  Lu  Lu13  1  0.833939  0.327063  0.627233  1
  Lu  Lu14  1  0.320926  0.184610  0.872624  1
  Lu  Lu15  1  0.833939  0.327063  0.872767  1
  Lu  Lu16  1  0.176847  0.680538  0.125525  1
  Sc  Sc17  1  0.343735  0.008721  0.250000  1
  Sc  Sc18  1  0.651885  0.993192  0.750000  1
  Si  Si19  1  0.018790  0.089486  0.750000  1
  Si  Si20  1  0.976456  0.893366  0.250000  1
  Si  Si21  1  0.472234  0.615266  0.250000  1
  Si  Si22  1  0.533201  0.391095  0.750000  1
  Si  Si23  1  0.283682  0.884665  0.750000  1
  Si  Si24  1  0.715562  0.125202  0.250000  1
  Si  Si25  1  0.219391  0.370195  0.250000  1
  Si  Si26  1  0.769160  0.629007  0.750000  1
  Si  Si27  1  0.156399  0.461632  0.531231  1
  Si  Si28  1  0.848048  0.532697  0.461389  1
  Si  Si29  1  0.349083  0.967608  0.463647  1
  Si  Si30  1  0.848048  0.532697  0.038611  1
  Si  Si31  1  0.652959  0.031472  0.542223  1
  Si  Si32  1  0.156399  0.461632  0.968769  1
  Si  Si33  1  0.652959  0.031472  0.957777  1
  Si  Si34  1  0.349083  0.967608  0.036353  1
  Ag  Ag35  1  0.157918  0.518673  0.750000  1
