# generated using pymatgen
data_Nd8AlSi12Pt2Rh
_symmetry_space_group_name_H-M   'P 1'
_cell_length_a   8.25244000
_cell_length_b   8.25244027
_cell_length_c   8.55615300
_cell_angle_alpha   90.00000000
_cell_angle_beta   90.00000000
_cell_angle_gamma   119.99999890
_symmetry_Int_Tables_number   1
_chemical_formula_structural   Nd8AlSi12Pt2Rh
_chemical_formula_sum   'Nd8 Al1 Si12 Pt2 Rh1'
_cell_volume   504.63102050
_cell_formula_units_Z   1
loop_
 _symmetry_equiv_pos_site_id
 _symmetry_equiv_pos_as_xyz
  1  'x, y, z'
loop_
 _atom_site_type_symbol
 _atom_site_label
 _atom_site_symmetry_multiplicity
 _atom_site_fract_x
 _atom_site_fract_y
 _atom_site_fract_z
 _atom_site_occupancy
  Nd  Nd0  1  0.000000  0.000000  0.749360  1
  Nd  Nd1  1  0.000000  0.000000  0.250774  1
  Nd  Nd2  1  0.497626  0.502374  0.750226  1
  Nd  Nd3  1  0.497626  0.995253  0.750226  1
  Nd  Nd4  1  0.004747  0.502374  0.750226  1
  Nd  Nd5  1  0.499091  0.500909  0.249669  1
  Nd  Nd6  1  0.001818  0.500909  0.249669  1
  Nd  Nd7  1  0.499091  0.998182  0.249669  1
  Al  Al8  1  0.666667  0.333333  0.996519  1
  Si  Si9  1  0.838330  0.161670  0.000007  1
  Si  Si10  1  0.838330  0.676661  0.000007  1
  Si  Si11  1  0.323339  0.161670  0.000007  1
  Si  Si12  1  0.833742  0.166258  0.500801  1
  Si  Si13  1  0.833742  0.667483  0.500801  1
  Si  Si14  1  0.332517  0.166258  0.500801  1
  Si  Si15  1  0.166225  0.833775  0.499221  1
  Si  Si16  1  0.667551  0.833775  0.499221  1
  Si  Si17  1  0.166225  0.332449  0.499221  1
  Si  Si18  1  0.170023  0.829977  0.000391  1
  Si  Si19  1  0.659954  0.829977  0.000391  1
  Si  Si20  1  0.170023  0.340046  0.000391  1
  Pt  Pt21  1  0.666667  0.333333  0.501827  1
  Pt  Pt22  1  0.333333  0.666667  0.498408  1
  Rh  Rh23  1  0.333333  0.666667  0.002166  1
