# generated using pymatgen
data_Li8Y7HoTl5Bi3
_symmetry_space_group_name_H-M   'P 1'
_cell_length_a   9.50558903
_cell_length_b   9.50297084
_cell_length_c   7.37135901
_cell_angle_alpha   89.99770202
_cell_angle_beta   90.00790375
_cell_angle_gamma   119.99695701
_symmetry_Int_Tables_number   1
_chemical_formula_structural   Li8Y7HoTl5Bi3
_chemical_formula_sum   'Li8 Y7 Ho1 Tl5 Bi3'
_cell_volume   576.67342411
_cell_formula_units_Z   1
loop_
 _symmetry_equiv_pos_site_id
 _symmetry_equiv_pos_as_xyz
  1  'x, y, z'
loop_
 _atom_site_type_symbol
 _atom_site_label
 _atom_site_symmetry_multiplicity
 _atom_site_fract_x
 _atom_site_fract_y
 _atom_site_fract_z
 _atom_site_occupancy
  Li  Li0  1  0.167104  0.334001  0.278077  1
  Li  Li1  1  0.167095  0.832930  0.278436  1
  Li  Li2  1  0.665998  0.832942  0.278134  1
  Li  Li3  1  0.831027  0.662172  0.786709  1
  Li  Li4  1  0.831051  0.168908  0.787284  1
  Li  Li5  1  0.337901  0.169059  0.786846  1
  Li  Li6  1  0.333288  0.666580  0.674112  1
  Li  Li7  1  0.666630  0.333315  0.183349  1
  Y  Y8  1  0.513423  0.026728  0.487112  1
  Y  Y9  1  0.513211  0.486729  0.487102  1
  Y  Y10  1  0.973399  0.486619  0.487075  1
  Y  Y11  1  0.488453  0.977109  0.002922  1
  Y  Y12  1  0.488604  0.511491  0.002874  1
  Y  Y13  1  0.022938  0.511563  0.002905  1
  Y  Y14  1  0.000034  0.000034  0.489356  1
  Ho  Ho15  1  0.999980  0.999946  0.014343  1
  Tl  Tl16  1  0.832727  0.665555  0.230356  1
  Tl  Tl17  1  0.832796  0.167149  0.230296  1
  Tl  Tl18  1  0.334420  0.167192  0.230403  1
  Tl  Tl19  1  0.333396  0.666639  0.261818  1
  Tl  Tl20  1  0.666576  0.333267  0.768109  1
  Bi  Bi21  1  0.166101  0.332292  0.731393  1
  Bi  Bi22  1  0.166189  0.833906  0.731575  1
  Bi  Bi23  1  0.667659  0.833874  0.731385  1
