# generated using pymatgen
data_Er4Re7Mo
_symmetry_space_group_name_H-M   'P 1'
_cell_length_a   5.43204300
_cell_length_b   5.43204305
_cell_length_c   8.84089800
_cell_angle_alpha   90.00000000
_cell_angle_beta   90.00000000
_cell_angle_gamma   120.00000579
_symmetry_Int_Tables_number   1
_chemical_formula_structural   Er4Re7Mo
_chemical_formula_sum   'Er4 Re7 Mo1'
_cell_volume   225.91932852
_cell_formula_units_Z   1
loop_
 _symmetry_equiv_pos_site_id
 _symmetry_equiv_pos_as_xyz
  1  'x, y, z'
loop_
 _atom_site_type_symbol
 _atom_site_label
 _atom_site_symmetry_multiplicity
 _atom_site_fract_x
 _atom_site_fract_y
 _atom_site_fract_z
 _atom_site_occupancy
  Er  Er0  1  0.333333  0.666667  0.436459  1
  Er  Er1  1  0.666667  0.333333  0.563541  1
  Er  Er2  1  0.666667  0.333333  0.937472  1
  Er  Er3  1  0.333333  0.666667  0.062528  1
  Re  Re4  1  0.000000  0.000000  0.000000  1
  Re  Re5  1  0.828162  0.171838  0.248860  1
  Re  Re6  1  0.828162  0.656323  0.248860  1
  Re  Re7  1  0.343677  0.171838  0.248860  1
  Re  Re8  1  0.171838  0.828162  0.751140  1
  Re  Re9  1  0.171838  0.343677  0.751140  1
  Re  Re10  1  0.656323  0.828162  0.751140  1
  Mo  Mo11  1  0.000000  0.000000  0.500000  1
