# generated using pymatgen
data_Y2Lu10Co5Sb
_symmetry_space_group_name_H-M   'P 1'
_cell_length_a   8.18144489
_cell_length_b   8.18144563
_cell_length_c   8.13754800
_cell_angle_alpha   111.12604719
_cell_angle_beta   110.74342037
_cell_angle_gamma   106.81183862
_symmetry_Int_Tables_number   1
_chemical_formula_structural   Y2Lu10Co5Sb
_chemical_formula_sum   'Y2 Lu10 Co5 Sb1'
_cell_volume   417.37794953
_cell_formula_units_Z   1
loop_
 _symmetry_equiv_pos_site_id
 _symmetry_equiv_pos_as_xyz
  1  'x, y, z'
loop_
 _atom_site_type_symbol
 _atom_site_label
 _atom_site_symmetry_multiplicity
 _atom_site_fract_x
 _atom_site_fract_y
 _atom_site_fract_z
 _atom_site_occupancy
  Y  Y0  1  0.285804  0.185896  0.471702  1
  Y  Y1  1  0.714196  0.814104  0.528298  1
  Lu  Lu2  1  0.287162  0.814334  0.101495  1
  Lu  Lu3  1  0.712838  0.185666  0.898505  1
  Lu  Lu4  1  0.621353  0.310509  0.308029  1
  Lu  Lu5  1  0.378647  0.689491  0.691971  1
  Lu  Lu6  1  0.002480  0.313326  0.691971  1
  Lu  Lu7  1  0.997520  0.686674  0.308029  1
  Lu  Lu8  1  0.208338  0.404921  0.191989  1
  Lu  Lu9  1  0.791662  0.595079  0.808011  1
  Lu  Lu10  1  0.212933  0.016350  0.808011  1
  Lu  Lu11  1  0.787067  0.983650  0.191989  1
  Co  Co12  1  0.998483  0.374153  0.372637  1
  Co  Co13  1  0.001517  0.625847  0.627363  1
  Co  Co14  1  0.387426  0.887426  0.500000  1
  Co  Co15  1  0.612574  0.112574  0.500000  1
  Co  Co16  1  0.000000  0.000000  0.000000  1
  Sb  Sb17  1  0.500000  0.500000  0.000000  1
