# generated using pymatgen
data_Dy16Ho4Si13Te3
_symmetry_space_group_name_H-M   'P 1'
_cell_length_a   7.56543445
_cell_length_b   7.63338692
_cell_length_c   14.56368600
_cell_angle_alpha   89.87704503
_cell_angle_beta   89.13635402
_cell_angle_gamma   90.01539342
_symmetry_Int_Tables_number   1
_chemical_formula_structural   Dy16Ho4Si13Te3
_chemical_formula_sum   'Dy16 Ho4 Si13 Te3'
_cell_volume   840.95372134
_cell_formula_units_Z   1
loop_
 _symmetry_equiv_pos_site_id
 _symmetry_equiv_pos_as_xyz
  1  'x, y, z'
loop_
 _atom_site_type_symbol
 _atom_site_label
 _atom_site_symmetry_multiplicity
 _atom_site_fract_x
 _atom_site_fract_y
 _atom_site_fract_z
 _atom_site_occupancy
  Dy  Dy0  1  0.056517  0.820105  0.111906  1
  Dy  Dy1  1  0.533542  0.671363  0.396074  1
  Dy  Dy2  1  0.441845  0.321004  0.889571  1
  Dy  Dy3  1  0.956530  0.184032  0.606053  1
  Dy  Dy4  1  0.972206  0.173501  0.888202  1
  Dy  Dy5  1  0.473210  0.331473  0.601554  1
  Dy  Dy6  1  0.526536  0.675240  0.111295  1
  Dy  Dy7  1  0.018477  0.813012  0.395386  1
  Dy  Dy8  1  0.599458  0.836592  0.872729  1
  Dy  Dy9  1  0.111978  0.653712  0.619423  1
  Dy  Dy10  1  0.904018  0.335208  0.125569  1
  Dy  Dy11  1  0.390215  0.178569  0.375792  1
  Dy  Dy12  1  0.378012  0.171795  0.120626  1
  Dy  Dy13  1  0.882671  0.331194  0.381391  1
  Dy  Dy14  1  0.123397  0.671582  0.880274  1
  Dy  Dy15  1  0.630429  0.830325  0.620402  1
  Ho  Ho16  1  0.711541  0.994932  0.259264  1
  Ho  Ho17  1  0.213209  0.504878  0.254031  1
  Ho  Ho18  1  0.785900  0.496177  0.742887  1
  Ho  Ho19  1  0.286313  0.004816  0.753601  1
  Si  Si20  1  0.828607  0.627590  0.249488  1
  Si  Si21  1  0.331205  0.874032  0.252757  1
  Si  Si22  1  0.665746  0.132000  0.749038  1
  Si  Si23  1  0.166610  0.370701  0.747939  1
  Si  Si24  1  0.090102  0.110582  0.251873  1
  Si  Si25  1  0.593380  0.387460  0.246808  1
  Si  Si26  1  0.410596  0.613319  0.747563  1
  Si  Si27  1  0.913032  0.885071  0.749863  1
  Si  Si28  1  0.219607  0.471657  0.456024  1
  Si  Si29  1  0.228447  0.481236  0.046697  1
  Si  Si30  1  0.721735  0.027678  0.456733  1
  Si  Si31  1  0.273229  0.980414  0.954427  1
  Si  Si32  1  0.781527  0.528109  0.543243  1
  Te  Te33  1  0.770285  0.519814  0.956683  1
  Te  Te34  1  0.280157  0.972095  0.541140  1
  Te  Te35  1  0.729735  0.018731  0.043697  1
