# generated using pymatgen
data_Nd11YB2(CCl6)2
_symmetry_space_group_name_H-M   'P 1'
_cell_length_a   9.69430598
_cell_length_b   9.69430550
_cell_length_c   9.75472415
_cell_angle_alpha   109.54083211
_cell_angle_beta   109.54082502
_cell_angle_gamma   108.95622890
_symmetry_Int_Tables_number   1
_chemical_formula_structural   Nd11YB2(CCl6)2
_chemical_formula_sum   'Nd11 Y1 B2 C2 Cl12'
_cell_volume   708.94586458
_cell_formula_units_Z   1
loop_
 _symmetry_equiv_pos_site_id
 _symmetry_equiv_pos_as_xyz
  1  'x, y, z'
loop_
 _atom_site_type_symbol
 _atom_site_label
 _atom_site_symmetry_multiplicity
 _atom_site_fract_x
 _atom_site_fract_y
 _atom_site_fract_z
 _atom_site_occupancy
  Nd  Nd0  1  0.471064  0.480451  0.236186  1
  Nd  Nd1  1  0.743450  0.233086  0.261853  1
  Nd  Nd2  1  0.744553  0.012134  0.480911  1
  Nd  Nd3  1  0.236871  0.468263  0.481386  1
  Nd  Nd4  1  0.266914  0.756550  0.238147  1
  Nd  Nd5  1  0.031737  0.263129  0.018614  1
  Nd  Nd6  1  0.019549  0.028936  0.263814  1
  Nd  Nd7  1  0.487866  0.755447  0.019089  1
  Nd  Nd8  1  0.483821  0.232294  0.465653  1
  Nd  Nd9  1  0.012207  0.487793  0.750000  1
  Nd  Nd10  1  0.267706  0.016179  0.034347  1
  Y  Y11  1  0.233308  0.266692  0.750000  1
  B  B12  1  0.002254  0.250066  0.501691  1
  B  B13  1  0.249934  0.497746  0.998309  1
  C  C14  1  0.249473  0.250527  0.250000  1
  C  C15  1  0.500866  0.999134  0.250000  1
  Cl  Cl16  1  0.252187  0.757190  0.746142  1
  Cl  Cl17  1  0.504227  0.496048  0.754073  1
  Cl  Cl18  1  0.988030  0.745977  0.993492  1
  Cl  Cl19  1  0.742810  0.247813  0.753858  1
  Cl  Cl20  1  0.003952  0.995773  0.745927  1
  Cl  Cl21  1  0.254141  0.002691  0.514693  1
  Cl  Cl22  1  0.754023  0.511970  0.506508  1
  Cl  Cl23  1  0.497309  0.245859  0.985307  1
  Cl  Cl24  1  0.756078  0.743922  0.250000  1
  Cl  Cl25  1  0.745343  0.994242  0.989322  1
  Cl  Cl26  1  0.994569  0.505431  0.250000  1
  Cl  Cl27  1  0.505758  0.754657  0.510678  1
