# generated using pymatgen
data_Tb11HoCo4NiSn
_symmetry_space_group_name_H-M   'P 1'
_cell_length_a   8.32130109
_cell_length_b   8.32422991
_cell_length_c   8.32422907
_cell_angle_alpha   110.77164709
_cell_angle_beta   110.51617469
_cell_angle_gamma   107.16418629
_symmetry_Int_Tables_number   1
_chemical_formula_structural   Tb11HoCo4NiSn
_chemical_formula_sum   'Tb11 Ho1 Co4 Ni1 Sn1'
_cell_volume   443.25463555
_cell_formula_units_Z   1
loop_
 _symmetry_equiv_pos_site_id
 _symmetry_equiv_pos_as_xyz
  1  'x, y, z'
loop_
 _atom_site_type_symbol
 _atom_site_label
 _atom_site_symmetry_multiplicity
 _atom_site_fract_x
 _atom_site_fract_y
 _atom_site_fract_z
 _atom_site_occupancy
  Tb  Tb0  1  0.596145  0.790983  0.805163  1
  Tb  Tb1  1  0.014548  0.208821  0.805727  1
  Tb  Tb2  1  0.986013  0.790710  0.195303  1
  Tb  Tb3  1  0.185711  0.293224  0.478425  1
  Tb  Tb4  1  0.813735  0.705588  0.519875  1
  Tb  Tb5  1  0.185711  0.707288  0.892487  1
  Tb  Tb6  1  0.813735  0.293859  0.108146  1
  Tb  Tb7  1  0.315469  0.621111  0.306304  1
  Tb  Tb8  1  0.684259  0.378069  0.693178  1
  Tb  Tb9  1  0.315469  0.009166  0.694358  1
  Tb  Tb10  1  0.684259  0.991081  0.306190  1
  Ho  Ho11  1  0.405479  0.209854  0.195625  1
  Co  Co12  1  0.375268  0.000478  0.374790  1
  Co  Co13  1  0.622997  0.999658  0.623340  1
  Co  Co14  1  0.112747  0.612341  0.500405  1
  Co  Co15  1  0.885880  0.387343  0.498537  1
  Ni  Ni16  1  0.002584  0.000741  0.001843  1
  Sn  Sn17  1  0.499990  0.499685  0.000305  1
