# generated using pymatgen
data_BaOs5O13
_symmetry_space_group_name_H-M   'P 1'
_cell_length_a   5.57555438
_cell_length_b   5.57555523
_cell_length_c   16.74537900
_cell_angle_alpha   90.00000000
_cell_angle_beta   90.00000000
_cell_angle_gamma   108.58606233
_symmetry_Int_Tables_number   1
_chemical_formula_structural   BaOs5O13
_chemical_formula_sum   'Ba2 Os10 O26'
_cell_volume   493.41111475
_cell_formula_units_Z   2
loop_
 _symmetry_equiv_pos_site_id
 _symmetry_equiv_pos_as_xyz
  1  'x, y, z'
loop_
 _atom_site_type_symbol
 _atom_site_label
 _atom_site_symmetry_multiplicity
 _atom_site_fract_x
 _atom_site_fract_y
 _atom_site_fract_z
 _atom_site_occupancy
  Ba  Ba0  1  0.876297  0.135729  0.750000  1
  Ba  Ba1  1  0.135729  0.876297  0.250000  1
  Os  Os2  1  0.382109  0.619963  0.070924  1
  Os  Os3  1  0.619963  0.382109  0.929076  1
  Os  Os4  1  0.000998  0.000998  0.000000  1
  Os  Os5  1  0.382109  0.619963  0.429076  1
  Os  Os6  1  0.619963  0.382109  0.570924  1
  Os  Os7  1  0.000998  0.000998  0.500000  1
  Os  Os8  1  0.761439  0.241451  0.363458  1
  Os  Os9  1  0.761439  0.241451  0.136542  1
  Os  Os10  1  0.241451  0.761439  0.863458  1
  Os  Os11  1  0.241451  0.761439  0.636542  1
  O  O12  1  0.524484  0.070080  0.868321  1
  O  O13  1  0.070080  0.524484  0.368321  1
  O  O14  1  0.070080  0.524484  0.131679  1
  O  O15  1  0.524484  0.070080  0.631679  1
  O  O16  1  0.306107  0.306107  0.000000  1
  O  O17  1  0.306107  0.306107  0.500000  1
  O  O18  1  0.030142  0.972928  0.615744  1
  O  O19  1  0.222878  0.778169  0.750000  1
  O  O20  1  0.224775  0.777824  0.986071  1
  O  O21  1  0.224775  0.777824  0.513929  1
  O  O22  1  0.453617  0.547860  0.639093  1
  O  O23  1  0.547860  0.453617  0.139093  1
  O  O24  1  0.777824  0.224775  0.486071  1
  O  O25  1  0.972928  0.030142  0.384256  1
  O  O26  1  0.547860  0.453617  0.360907  1
  O  O27  1  0.972928  0.030142  0.115744  1
  O  O28  1  0.778169  0.222878  0.250000  1
  O  O29  1  0.777824  0.224775  0.013929  1
  O  O30  1  0.030142  0.972928  0.884256  1
  O  O31  1  0.453617  0.547860  0.860907  1
  O  O32  1  0.695765  0.695765  0.500000  1
  O  O33  1  0.695765  0.695765  0.000000  1
  O  O34  1  0.478981  0.932464  0.368786  1
  O  O35  1  0.932464  0.478981  0.631214  1
  O  O36  1  0.932464  0.478981  0.868786  1
  O  O37  1  0.478981  0.932464  0.131214  1
