# generated using pymatgen
data_La20Si3NiSb8
_symmetry_space_group_name_H-M   'P 1'
_cell_length_a   8.31790198
_cell_length_b   9.43976800
_cell_length_c   12.79629300
_cell_angle_alpha   90.00000000
_cell_angle_beta   89.22394615
_cell_angle_gamma   90.00000000
_symmetry_Int_Tables_number   1
_chemical_formula_structural   La20Si3NiSb8
_chemical_formula_sum   'La20 Si3 Ni1 Sb8'
_cell_volume   1004.66079760
_cell_formula_units_Z   1
loop_
 _symmetry_equiv_pos_site_id
 _symmetry_equiv_pos_as_xyz
  1  'x, y, z'
loop_
 _atom_site_type_symbol
 _atom_site_label
 _atom_site_symmetry_multiplicity
 _atom_site_fract_x
 _atom_site_fract_y
 _atom_site_fract_z
 _atom_site_occupancy
  La  La0  1  0.147006  0.750000  0.201491  1
  La  La1  1  0.654979  0.250000  0.288732  1
  La  La2  1  0.841044  0.250000  0.786118  1
  La  La3  1  0.341150  0.750000  0.716432  1
  La  La4  1  0.470445  0.750000  0.002687  1
  La  La5  1  0.972704  0.250000  0.496963  1
  La  La6  1  0.530226  0.250000  0.000604  1
  La  La7  1  0.045565  0.750000  0.500142  1
  La  La8  1  0.630214  0.750000  0.293185  1
  La  La9  1  0.132072  0.250000  0.206089  1
  La  La10  1  0.361820  0.250000  0.710346  1
  La  La11  1  0.866237  0.750000  0.795916  1
  La  La12  1  0.812014  0.958212  0.058076  1
  La  La13  1  0.303582  0.040308  0.438379  1
  La  La14  1  0.186926  0.472124  0.939996  1
  La  La15  1  0.698635  0.537908  0.563322  1
  La  La16  1  0.186926  0.027876  0.939996  1
  La  La17  1  0.698635  0.962092  0.563322  1
  La  La18  1  0.812014  0.541788  0.058076  1
  La  La19  1  0.303582  0.459692  0.438379  1
  Si  Si20  1  0.438679  0.750000  0.490105  1
  Si  Si21  1  0.930688  0.250000  0.013559  1
  Si  Si22  1  0.565690  0.250000  0.517354  1
  Ni  Ni23  1  0.081424  0.750000  0.977733  1
  Sb  Sb24  1  0.920331  0.990850  0.325714  1
  Sb  Sb25  1  0.422210  0.007350  0.175363  1
  Sb  Sb26  1  0.075801  0.491896  0.673529  1
  Sb  Sb27  1  0.575529  0.507283  0.826895  1
  Sb  Sb28  1  0.075801  0.008104  0.673529  1
  Sb  Sb29  1  0.575529  0.992717  0.826895  1
  Sb  Sb30  1  0.920331  0.509150  0.325714  1
  Sb  Sb31  1  0.422210  0.492650  0.175363  1
