# generated using pymatgen
data_Er5Mn3(P3Ir4)4
_symmetry_space_group_name_H-M   'P 1'
_cell_length_a   12.55660600
_cell_length_b   12.55660532
_cell_length_c   3.94412200
_cell_angle_alpha   90.00000000
_cell_angle_beta   90.00000000
_cell_angle_gamma   120.00000178
_symmetry_Int_Tables_number   1
_chemical_formula_structural   Er5Mn3(P3Ir4)4
_chemical_formula_sum   'Er5 Mn3 P12 Ir16'
_cell_volume   538.54931154
_cell_formula_units_Z   1
loop_
 _symmetry_equiv_pos_site_id
 _symmetry_equiv_pos_as_xyz
  1  'x, y, z'
loop_
 _atom_site_type_symbol
 _atom_site_label
 _atom_site_symmetry_multiplicity
 _atom_site_fract_x
 _atom_site_fract_y
 _atom_site_fract_z
 _atom_site_occupancy
  Er  Er0  1  0.666667  0.333333  0.000000  1
  Er  Er1  1  0.333333  0.666667  0.000000  1
  Er  Er2  1  0.819707  0.819707  0.500000  1
  Er  Er3  1  0.180293  0.000000  0.500000  1
  Er  Er4  1  0.000000  0.180293  0.500000  1
  Mn  Mn5  1  0.289710  0.289710  0.500000  1
  Mn  Mn6  1  0.710290  0.000000  0.500000  1
  Mn  Mn7  1  0.000000  0.710290  0.500000  1
  P  P8  1  0.688475  0.164569  0.500000  1
  P  P9  1  0.835431  0.523906  0.500000  1
  P  P10  1  0.476094  0.311525  0.500000  1
  P  P11  1  0.164569  0.688475  0.500000  1
  P  P12  1  0.523906  0.835431  0.500000  1
  P  P13  1  0.311525  0.476094  0.500000  1
  P  P14  1  0.641137  0.641137  0.000000  1
  P  P15  1  0.358863  0.000000  0.000000  1
  P  P16  1  0.000000  0.358863  0.000000  1
  P  P17  1  0.182416  0.182416  0.000000  1
  P  P18  1  0.817584  0.000000  0.000000  1
  P  P19  1  0.000000  0.817584  0.000000  1
  Ir  Ir20  1  0.805112  0.179417  0.000000  1
  Ir  Ir21  1  0.820583  0.625695  0.000000  1
  Ir  Ir22  1  0.374305  0.194888  0.000000  1
  Ir  Ir23  1  0.179417  0.805112  0.000000  1
  Ir  Ir24  1  0.625695  0.820583  0.000000  1
  Ir  Ir25  1  0.194888  0.374305  0.000000  1
  Ir  Ir26  1  0.454873  0.454873  0.000000  1
  Ir  Ir27  1  0.545127  0.000000  0.000000  1
  Ir  Ir28  1  0.000000  0.545127  0.000000  1
  Ir  Ir29  1  0.868255  0.361136  0.500000  1
  Ir  Ir30  1  0.638864  0.507120  0.500000  1
  Ir  Ir31  1  0.492880  0.131745  0.500000  1
  Ir  Ir32  1  0.361136  0.868255  0.500000  1
  Ir  Ir33  1  0.507120  0.638864  0.500000  1
  Ir  Ir34  1  0.131745  0.492880  0.500000  1
  Ir  Ir35  1  0.000000  0.000000  0.000000  1
