# generated using pymatgen
data_Ta16BeGa3Te16
_symmetry_space_group_name_H-M   'P 1'
_cell_length_a   4.83012400
_cell_length_b   11.11700066
_cell_length_c   19.29509518
_cell_angle_alpha   89.83416427
_cell_angle_beta   90.00000000
_cell_angle_gamma   90.00000000
_symmetry_Int_Tables_number   1
_chemical_formula_structural   Ta16BeGa3Te16
_chemical_formula_sum   'Ta16 Be1 Ga3 Te16'
_cell_volume   1036.07457791
_cell_formula_units_Z   1
loop_
 _symmetry_equiv_pos_site_id
 _symmetry_equiv_pos_as_xyz
  1  'x, y, z'
loop_
 _atom_site_type_symbol
 _atom_site_label
 _atom_site_symmetry_multiplicity
 _atom_site_fract_x
 _atom_site_fract_y
 _atom_site_fract_z
 _atom_site_occupancy
  Ta  Ta0  1  0.492473  0.562556  0.385245  1
  Ta  Ta1  1  0.492473  0.437444  0.614755  1
  Ta  Ta2  1  0.499961  0.065874  0.118145  1
  Ta  Ta3  1  0.499961  0.934126  0.881855  1
  Ta  Ta4  1  0.492182  0.699547  0.535439  1
  Ta  Ta5  1  0.492182  0.300453  0.464561  1
  Ta  Ta6  1  0.499943  0.206551  0.964125  1
  Ta  Ta7  1  0.499943  0.793449  0.035875  1
  Ta  Ta8  1  0.007475  0.686233  0.443410  1
  Ta  Ta9  1  0.007475  0.313767  0.556590  1
  Ta  Ta10  1  0.000020  0.191108  0.058171  1
  Ta  Ta11  1  0.000020  0.808892  0.941829  1
  Ta  Ta12  1  0.008000  0.402862  0.393113  1
  Ta  Ta13  1  0.008000  0.597138  0.606887  1
  Ta  Ta14  1  0.000029  0.900473  0.109816  1
  Ta  Ta15  1  0.000029  0.099527  0.890184  1
  Be  Be16  1  0.249456  0.500000  0.500000  1
  Ga  Ga17  1  0.750045  0.000000  0.000000  1
  Ga  Ga18  1  0.751442  0.500000  0.500000  1
  Ga  Ga19  1  0.249941  0.000000  0.000000  1
  Te  Te20  1  0.998410  0.841853  0.561010  1
  Te  Te21  1  0.998410  0.158147  0.438990  1
  Te  Te22  1  0.999964  0.344220  0.937974  1
  Te  Te23  1  0.999964  0.655780  0.062026  1
  Te  Te24  1  0.501694  0.334659  0.317802  1
  Te  Te25  1  0.501694  0.665341  0.682198  1
  Te  Te26  1  0.499855  0.833308  0.182863  1
  Te  Te27  1  0.499855  0.166692  0.817137  1
  Te  Te28  1  0.500742  0.817825  0.403584  1
  Te  Te29  1  0.500742  0.182175  0.596416  1
  Te  Te30  1  0.499992  0.321646  0.097160  1
  Te  Te31  1  0.499992  0.678354  0.902840  1
  Te  Te32  1  0.998609  0.606678  0.302922  1
  Te  Te33  1  0.998609  0.393322  0.697078  1
  Te  Te34  1  0.000209  0.106569  0.198816  1
  Te  Te35  1  0.000209  0.893431  0.801184  1
