# generated using pymatgen
data_Th7Re2Ru
_symmetry_space_group_name_H-M   'P 1'
_cell_length_a   10.02439527
_cell_length_b   9.98251288
_cell_length_c   6.34187468
_cell_angle_alpha   90.00000066
_cell_angle_beta   89.70576181
_cell_angle_gamma   119.86188358
_symmetry_Int_Tables_number   1
_chemical_formula_structural   Th7Re2Ru
_chemical_formula_sum   'Th14 Re4 Ru2'
_cell_volume   550.35318523
_cell_formula_units_Z   2
loop_
 _symmetry_equiv_pos_site_id
 _symmetry_equiv_pos_as_xyz
  1  'x, y, z'
loop_
 _atom_site_type_symbol
 _atom_site_label
 _atom_site_symmetry_multiplicity
 _atom_site_fract_x
 _atom_site_fract_y
 _atom_site_fract_z
 _atom_site_occupancy
  Th  Th0  1  0.459246  0.536172  0.297449  1
  Th  Th1  1  0.077370  0.538685  0.295903  1
  Th  Th2  1  0.920717  0.460359  0.798352  1
  Th  Th3  1  0.253048  0.126524  0.506912  1
  Th  Th4  1  0.541574  0.077860  0.798039  1
  Th  Th5  1  0.749563  0.874781  0.008430  1
  Th  Th6  1  0.666479  0.333239  0.283586  1
  Th  Th7  1  0.126011  0.874353  0.004194  1
  Th  Th8  1  0.459246  0.923074  0.297449  1
  Th  Th9  1  0.541574  0.463715  0.798039  1
  Th  Th10  1  0.873999  0.125337  0.507111  1
  Th  Th11  1  0.126011  0.251658  0.004194  1
  Th  Th12  1  0.873999  0.748663  0.507111  1
  Th  Th13  1  0.332637  0.666319  0.784092  1
  Re  Re14  1  0.817051  0.630498  0.050695  1
  Re  Re15  1  0.817051  0.186553  0.050695  1
  Re  Re16  1  0.625146  0.812572  0.551487  1
  Re  Re17  1  0.369210  0.184606  0.047794  1
  Ru  Ru18  1  0.185034  0.373089  0.546233  1
  Ru  Ru19  1  0.185034  0.811944  0.546233  1
