# generated using pymatgen
data_Re4As6SeS2
_symmetry_space_group_name_H-M   'P 1'
_cell_length_a   7.10477215
_cell_length_b   7.11916876
_cell_length_c   7.10476988
_cell_angle_alpha   59.95040076
_cell_angle_beta   59.90242358
_cell_angle_gamma   59.95039852
_symmetry_Int_Tables_number   1
_chemical_formula_structural   Re4As6SeS2
_chemical_formula_sum   'Re4 As6 Se1 S2'
_cell_volume   253.72756512
_cell_formula_units_Z   1
loop_
 _symmetry_equiv_pos_site_id
 _symmetry_equiv_pos_as_xyz
  1  'x, y, z'
loop_
 _atom_site_type_symbol
 _atom_site_label
 _atom_site_symmetry_multiplicity
 _atom_site_fract_x
 _atom_site_fract_y
 _atom_site_fract_z
 _atom_site_occupancy
  Re  Re0  1  0.398739  0.403233  0.398739  1
  Re  Re1  1  0.398236  0.797933  0.398236  1
  Re  Re2  1  0.797597  0.402071  0.396292  1
  Re  Re3  1  0.396292  0.402071  0.797597  1
  As  As4  1  0.999325  0.001853  0.999325  1
  As  As5  1  0.142750  0.145758  0.142750  1
  As  As6  1  0.141686  0.571127  0.141686  1
  As  As7  1  0.566260  0.144638  0.143342  1
  As  As8  1  0.143342  0.144638  0.566260  1
  As  As9  1  0.639713  0.639158  0.639713  1
  Se  Se10  1  0.638777  0.084763  0.638777  1
  S  S11  1  0.107514  0.631380  0.629770  1
  S  S12  1  0.629770  0.631380  0.107514  1
