# generated using pymatgen
data_Pr3HgPd3Au2
_symmetry_space_group_name_H-M   'P 1'
_cell_length_a   7.80466154
_cell_length_b   7.72224618
_cell_length_c   3.93910300
_cell_angle_alpha   90.00000000
_cell_angle_beta   90.00000000
_cell_angle_gamma   119.65128763
_symmetry_Int_Tables_number   1
_chemical_formula_structural   Pr3HgPd3Au2
_chemical_formula_sum   'Pr3 Hg1 Pd3 Au2'
_cell_volume   206.31986004
_cell_formula_units_Z   1
loop_
 _symmetry_equiv_pos_site_id
 _symmetry_equiv_pos_as_xyz
  1  'x, y, z'
loop_
 _atom_site_type_symbol
 _atom_site_label
 _atom_site_symmetry_multiplicity
 _atom_site_fract_x
 _atom_site_fract_y
 _atom_site_fract_z
 _atom_site_occupancy
  Pr  Pr0  1  0.400589  0.391527  0.500000  1
  Pr  Pr1  1  0.599411  0.990938  0.500000  1
  Pr  Pr2  1  0.000000  0.621135  0.500000  1
  Hg  Hg3  1  0.000000  0.266444  0.000000  1
  Pd  Pd4  1  0.668507  0.331312  0.000000  1
  Pd  Pd5  1  0.331493  0.662806  0.000000  1
  Pd  Pd6  1  0.000000  0.004173  0.500000  1
  Au  Au7  1  0.731564  0.731615  0.000000  1
  Au  Au8  1  0.268436  0.000050  0.000000  1
