# generated using pymatgen
data_LuMg7(CoB6)4
_symmetry_space_group_name_H-M   'P 1'
_cell_length_a   8.78779900
_cell_length_b   11.07643600
_cell_length_c   3.28550400
_cell_angle_alpha   90.00000000
_cell_angle_beta   90.00000000
_cell_angle_gamma   89.99763781
_symmetry_Int_Tables_number   1
_chemical_formula_structural   LuMg7(CoB6)4
_chemical_formula_sum   'Lu1 Mg7 Co4 B24'
_cell_volume   319.80272314
_cell_formula_units_Z   1
loop_
 _symmetry_equiv_pos_site_id
 _symmetry_equiv_pos_as_xyz
  1  'x, y, z'
loop_
 _atom_site_type_symbol
 _atom_site_label
 _atom_site_symmetry_multiplicity
 _atom_site_fract_x
 _atom_site_fract_y
 _atom_site_fract_z
 _atom_site_occupancy
  Lu  Lu0  1  0.822551  0.085360  0.000000  1
  Mg  Mg1  1  0.443431  0.128329  0.000000  1
  Mg  Mg2  1  0.943735  0.371671  0.000000  1
  Mg  Mg3  1  0.323915  0.415776  0.000000  1
  Mg  Mg4  1  0.675352  0.585590  0.000000  1
  Mg  Mg5  1  0.057633  0.629878  0.000000  1
  Mg  Mg6  1  0.555118  0.870561  0.000000  1
  Mg  Mg7  1  0.178605  0.913962  0.000000  1
  Co  Co8  1  0.141116  0.182116  0.000000  1
  Co  Co9  1  0.641405  0.319134  0.000000  1
  Co  Co10  1  0.358989  0.680663  0.000000  1
  Co  Co11  1  0.859382  0.817763  0.000000  1
  B  B12  1  0.595821  0.025897  0.499999  1
  B  B13  1  0.057055  0.066442  0.499999  1
  B  B14  1  0.252672  0.080201  0.499999  1
  B  B15  1  0.628623  0.183796  0.499999  1
  B  B16  1  0.984462  0.213091  0.499999  1
  B  B17  1  0.293298  0.236891  0.499999  1
  B  B18  1  0.792504  0.265161  0.499999  1
  B  B19  1  0.481936  0.288373  0.499999  1
  B  B20  1  0.130593  0.318287  0.499999  1
  B  B21  1  0.751955  0.420752  0.499999  1
  B  B22  1  0.555632  0.433919  0.499999  1
  B  B23  1  0.096878  0.474335  0.499999  1
  B  B24  1  0.903371  0.526533  0.499999  1
  B  B25  1  0.444294  0.565968  0.499999  1
  B  B26  1  0.248039  0.580301  0.499999  1
  B  B27  1  0.869845  0.682540  0.499999  1
  B  B28  1  0.516915  0.711285  0.499999  1
  B  B29  1  0.207152  0.736808  0.499999  1
  B  B30  1  0.705836  0.762269  0.499999  1
  B  B31  1  0.018068  0.787298  0.499999  1
  B  B32  1  0.369307  0.817248  0.499999  1
  B  B33  1  0.747147  0.916916  0.499999  1
  B  B34  1  0.945156  0.931534  0.499999  1
  B  B35  1  0.402219  0.973349  0.499999  1
