# generated using pymatgen
data_Sc8V12Si15As
_symmetry_space_group_name_H-M   'P 1'
_cell_length_a   6.64082940
_cell_length_b   6.64165148
_cell_length_c   12.28440103
_cell_angle_alpha   89.93438632
_cell_angle_beta   90.00410975
_cell_angle_gamma   90.03959170
_symmetry_Int_Tables_number   1
_chemical_formula_structural   Sc8V12Si15As
_chemical_formula_sum   'Sc8 V12 Si15 As1'
_cell_volume   541.81622005
_cell_formula_units_Z   1
loop_
 _symmetry_equiv_pos_site_id
 _symmetry_equiv_pos_as_xyz
  1  'x, y, z'
loop_
 _atom_site_type_symbol
 _atom_site_label
 _atom_site_symmetry_multiplicity
 _atom_site_fract_x
 _atom_site_fract_y
 _atom_site_fract_z
 _atom_site_occupancy
  Sc  Sc0  1  0.003145  0.661899  0.029141  1
  Sc  Sc1  1  0.837691  0.502226  0.280158  1
  Sc  Sc2  1  0.160961  0.496803  0.779055  1
  Sc  Sc3  1  0.501852  0.837922  0.720095  1
  Sc  Sc4  1  0.499716  0.164287  0.221636  1
  Sc  Sc5  1  0.998384  0.337721  0.530064  1
  Sc  Sc6  1  0.662158  0.001664  0.969815  1
  Sc  Sc7  1  0.337907  0.998216  0.470110  1
  V  V8  1  0.331959  0.334850  0.000152  1
  V  V9  1  0.167876  0.831354  0.251137  1
  V  V10  1  0.831777  0.168316  0.750060  1
  V  V11  1  0.668390  0.668828  0.500097  1
  V  V12  1  0.002603  0.159224  0.127830  1
  V  V13  1  0.342972  0.507853  0.376638  1
  V  V14  1  0.659318  0.491097  0.876185  1
  V  V15  1  0.507126  0.342808  0.623429  1
  V  V16  1  0.492895  0.655915  0.122904  1
  V  V17  1  0.992103  0.842947  0.626436  1
  V  V18  1  0.156257  0.005221  0.872651  1
  V  V19  1  0.843071  0.992426  0.373711  1
  Si  Si20  1  0.540380  0.794162  0.314975  1
  Si  Si21  1  0.459692  0.206187  0.814411  1
  Si  Si22  1  0.793832  0.540130  0.684906  1
  Si  Si23  1  0.205444  0.460126  0.185888  1
  Si  Si24  1  0.705807  0.040371  0.564747  1
  Si  Si25  1  0.960288  0.293697  0.935174  1
  Si  Si26  1  0.040122  0.706071  0.435684  1
  Si  Si27  1  0.704257  0.371225  0.070245  1
  Si  Si28  1  0.129077  0.204487  0.320816  1
  Si  Si29  1  0.870022  0.795778  0.819906  1
  Si  Si30  1  0.203788  0.129132  0.679728  1
  Si  Si31  1  0.796200  0.869239  0.180173  1
  Si  Si32  1  0.296666  0.629594  0.570202  1
  Si  Si33  1  0.372757  0.697402  0.925715  1
  Si  Si34  1  0.629856  0.296862  0.430321  1
  As  As35  1  0.293649  0.963958  0.065806  1
