# generated using pymatgen
data_Hf18TaNb(CoRe3)2
_symmetry_space_group_name_H-M   'P 1'
_cell_length_a   8.66281800
_cell_length_b   8.66281624
_cell_length_c   8.46189500
_cell_angle_alpha   90.00000000
_cell_angle_beta   90.00000000
_cell_angle_gamma   119.99999909
_symmetry_Int_Tables_number   1
_chemical_formula_structural   Hf18TaNb(CoRe3)2
_chemical_formula_sum   'Hf18 Ta1 Nb1 Co2 Re6'
_cell_volume   549.94158366
_cell_formula_units_Z   1
loop_
 _symmetry_equiv_pos_site_id
 _symmetry_equiv_pos_as_xyz
  1  'x, y, z'
loop_
 _atom_site_type_symbol
 _atom_site_label
 _atom_site_symmetry_multiplicity
 _atom_site_fract_x
 _atom_site_fract_y
 _atom_site_fract_z
 _atom_site_occupancy
  Hf  Hf0  1  0.201371  0.798629  0.440476  1
  Hf  Hf1  1  0.201371  0.402743  0.440476  1
  Hf  Hf2  1  0.597257  0.798629  0.440476  1
  Hf  Hf3  1  0.798629  0.201371  0.559524  1
  Hf  Hf4  1  0.798629  0.597257  0.559524  1
  Hf  Hf5  1  0.402743  0.201371  0.559524  1
  Hf  Hf6  1  0.798490  0.201510  0.940355  1
  Hf  Hf7  1  0.798490  0.596978  0.940355  1
  Hf  Hf8  1  0.403022  0.201510  0.940355  1
  Hf  Hf9  1  0.201510  0.798490  0.059645  1
  Hf  Hf10  1  0.201510  0.403022  0.059645  1
  Hf  Hf11  1  0.596978  0.798490  0.059645  1
  Hf  Hf12  1  0.542001  0.457999  0.249924  1
  Hf  Hf13  1  0.542001  0.084003  0.249924  1
  Hf  Hf14  1  0.915997  0.457999  0.249924  1
  Hf  Hf15  1  0.457999  0.542001  0.750076  1
  Hf  Hf16  1  0.457999  0.915997  0.750076  1
  Hf  Hf17  1  0.084003  0.542001  0.750076  1
  Ta  Ta18  1  0.000000  0.000000  0.500000  1
  Nb  Nb19  1  0.000000  0.000000  0.000000  1
  Co  Co20  1  0.333333  0.666667  0.249846  1
  Co  Co21  1  0.666667  0.333333  0.750154  1
  Re  Re22  1  0.885705  0.114295  0.250184  1
  Re  Re23  1  0.885705  0.771410  0.250184  1
  Re  Re24  1  0.228590  0.114295  0.250184  1
  Re  Re25  1  0.114295  0.885705  0.749816  1
  Re  Re26  1  0.114295  0.228590  0.749816  1
  Re  Re27  1  0.771410  0.885705  0.749816  1
