# generated using pymatgen
data_Ho4Lu2GaNiRu
_symmetry_space_group_name_H-M   'P 1'
_cell_length_a   8.25901976
_cell_length_b   8.25901937
_cell_length_c   8.25901888
_cell_angle_alpha   113.08101042
_cell_angle_beta   110.61839695
_cell_angle_gamma   104.82250615
_symmetry_Int_Tables_number   1
_chemical_formula_structural   Ho4Lu2GaNiRu
_chemical_formula_sum   'Ho8 Lu4 Ga2 Ni2 Ru2'
_cell_volume   431.33823912
_cell_formula_units_Z   2
loop_
 _symmetry_equiv_pos_site_id
 _symmetry_equiv_pos_as_xyz
  1  'x, y, z'
loop_
 _atom_site_type_symbol
 _atom_site_label
 _atom_site_symmetry_multiplicity
 _atom_site_fract_x
 _atom_site_fract_y
 _atom_site_fract_z
 _atom_site_occupancy
  Ho  Ho0  1  0.435939  0.242949  0.192991  1
  Ho  Ho1  1  0.564061  0.757051  0.807009  1
  Ho  Ho2  1  0.049958  0.242949  0.807009  1
  Ho  Ho3  1  0.950042  0.757051  0.192991  1
  Ho  Ho4  1  0.179717  0.280364  0.460081  1
  Ho  Ho5  1  0.820283  0.719636  0.539919  1
  Ho  Ho6  1  0.179717  0.719636  0.899353  1
  Ho  Ho7  1  0.820283  0.280364  0.100647  1
  Lu  Lu8  1  0.330826  0.644075  0.313250  1
  Lu  Lu9  1  0.669174  0.355925  0.686750  1
  Lu  Lu10  1  0.330826  0.017577  0.686750  1
  Lu  Lu11  1  0.669174  0.982423  0.313250  1
  Ga  Ga12  1  0.500000  0.500000  0.000000  1
  Ga  Ga13  1  0.000000  0.000000  0.000000  1
  Ni  Ni14  1  0.121362  0.621362  0.500000  1
  Ni  Ni15  1  0.878638  0.378638  0.500000  1
  Ru  Ru16  1  0.329851  0.000000  0.329851  1
  Ru  Ru17  1  0.670149  0.000000  0.670149  1
