# generated using pymatgen
data_Pr20Ir5Rh7
_symmetry_space_group_name_H-M   'P 1'
_cell_length_a   11.31668101
_cell_length_b   11.31668101
_cell_length_c   6.66690211
_cell_angle_alpha   90.01452369
_cell_angle_beta   90.01452369
_cell_angle_gamma   90.14384763
_symmetry_Int_Tables_number   1
_chemical_formula_structural   Pr20Ir5Rh7
_chemical_formula_sum   'Pr20 Ir5 Rh7'
_cell_volume   853.80919987
_cell_formula_units_Z   1
loop_
 _symmetry_equiv_pos_site_id
 _symmetry_equiv_pos_as_xyz
  1  'x, y, z'
loop_
 _atom_site_type_symbol
 _atom_site_label
 _atom_site_symmetry_multiplicity
 _atom_site_fract_x
 _atom_site_fract_y
 _atom_site_fract_z
 _atom_site_occupancy
  Pr  Pr0  1  0.291529  0.089944  0.381257  1
  Pr  Pr1  1  0.291544  0.907865  0.883456  1
  Pr  Pr2  1  0.707667  0.091511  0.882035  1
  Pr  Pr3  1  0.707499  0.908246  0.381450  1
  Pr  Pr4  1  0.589311  0.790244  0.883058  1
  Pr  Pr5  1  0.588959  0.209372  0.382755  1
  Pr  Pr6  1  0.408982  0.790958  0.383274  1
  Pr  Pr7  1  0.410739  0.209466  0.882885  1
  Pr  Pr8  1  0.209756  0.410689  0.616942  1
  Pr  Pr9  1  0.209042  0.591018  0.116726  1
  Pr  Pr10  1  0.790628  0.411041  0.117245  1
  Pr  Pr11  1  0.790534  0.589261  0.617115  1
  Pr  Pr12  1  0.910056  0.708471  0.118743  1
  Pr  Pr13  1  0.908489  0.292333  0.617965  1
  Pr  Pr14  1  0.092135  0.708456  0.616544  1
  Pr  Pr15  1  0.091754  0.292501  0.118550  1
  Pr  Pr16  1  0.999795  0.999722  0.500664  1
  Pr  Pr17  1  0.000278  0.000205  0.999336  1
  Pr  Pr18  1  0.499854  0.499867  0.000481  1
  Pr  Pr19  1  0.500133  0.500146  0.499519  1
  Ir  Ir20  1  0.153462  0.846538  0.250000  1
  Ir  Ir21  1  0.654713  0.345287  0.750000  1
  Ir  Ir22  1  0.654885  0.654504  0.249906  1
  Ir  Ir23  1  0.345496  0.345115  0.250094  1
  Ir  Ir24  1  0.345793  0.654207  0.750000  1
  Rh  Rh25  1  0.846517  0.153483  0.250000  1
  Rh  Rh26  1  0.846013  0.846186  0.749756  1
  Rh  Rh27  1  0.153814  0.153987  0.750244  1
  Rh  Rh28  1  0.500777  0.000246  0.115621  1
  Rh  Rh29  1  0.500310  0.000219  0.615878  1
  Rh  Rh30  1  0.999781  0.499690  0.884122  1
  Rh  Rh31  1  0.999754  0.499223  0.384379  1
