# generated using pymatgen
data_TbY6Co4Sn23Os2
_symmetry_space_group_name_H-M   'P 1'
_cell_length_a   9.75525729
_cell_length_b   9.75525763
_cell_length_c   10.03801801
_cell_angle_alpha   90.45977225
_cell_angle_beta   89.54022104
_cell_angle_gamma   119.85578132
_symmetry_Int_Tables_number   1
_chemical_formula_structural   TbY6Co4Sn23Os2
_chemical_formula_sum   'Tb1 Y6 Co4 Sn23 Os2'
_cell_volume   828.45076795
_cell_formula_units_Z   1
loop_
 _symmetry_equiv_pos_site_id
 _symmetry_equiv_pos_as_xyz
  1  'x, y, z'
loop_
 _atom_site_type_symbol
 _atom_site_label
 _atom_site_symmetry_multiplicity
 _atom_site_fract_x
 _atom_site_fract_y
 _atom_site_fract_z
 _atom_site_occupancy
  Tb  Tb0  1  0.000000  0.000000  0.000000  1
  Y  Y1  1  0.480033  0.519967  0.306443  1
  Y  Y2  1  0.519967  0.480033  0.693557  1
  Y  Y3  1  0.480971  0.959230  0.304980  1
  Y  Y4  1  0.519029  0.040770  0.695020  1
  Y  Y5  1  0.040770  0.519029  0.304980  1
  Y  Y6  1  0.959230  0.480971  0.695020  1
  Co  Co7  1  0.830782  0.662947  0.198098  1
  Co  Co8  1  0.169218  0.337053  0.801902  1
  Co  Co9  1  0.337053  0.169218  0.198098  1
  Co  Co10  1  0.662947  0.830782  0.801902  1
  Sn  Sn11  1  0.349313  0.003246  0.004256  1
  Sn  Sn12  1  0.650687  0.996754  0.995744  1
  Sn  Sn13  1  0.003246  0.349313  0.995744  1
  Sn  Sn14  1  0.996754  0.650687  0.004256  1
  Sn  Sn15  1  0.654153  0.654153  0.000000  1
  Sn  Sn16  1  0.345847  0.345847  0.000000  1
  Sn  Sn17  1  0.334511  0.665489  0.818820  1
  Sn  Sn18  1  0.665489  0.334511  0.181180  1
  Sn  Sn19  1  0.000000  0.000000  0.500000  1
  Sn  Sn20  1  0.780581  0.219419  0.457859  1
  Sn  Sn21  1  0.219419  0.780581  0.542141  1
  Sn  Sn22  1  0.782130  0.564211  0.451539  1
  Sn  Sn23  1  0.217870  0.435789  0.548461  1
  Sn  Sn24  1  0.435789  0.217870  0.451539  1
  Sn  Sn25  1  0.564211  0.782130  0.548461  1
  Sn  Sn26  1  0.333909  0.666091  0.116395  1
  Sn  Sn27  1  0.666091  0.333909  0.883605  1
  Sn  Sn28  1  0.116979  0.883021  0.271416  1
  Sn  Sn29  1  0.883021  0.116979  0.728584  1
  Sn  Sn30  1  0.123296  0.235721  0.275862  1
  Sn  Sn31  1  0.876704  0.764279  0.724138  1
  Sn  Sn32  1  0.764279  0.876704  0.275862  1
  Sn  Sn33  1  0.235721  0.123296  0.724138  1
  Os  Os34  1  0.832303  0.167697  0.198730  1
  Os  Os35  1  0.167697  0.832303  0.801270  1
