# generated using pymatgen
data_Er2B6Ir
_symmetry_space_group_name_H-M   'P 1'
_cell_length_a   3.62156600
_cell_length_b   9.15009800
_cell_length_c   11.48484700
_cell_angle_alpha   90.00000000
_cell_angle_beta   90.00000000
_cell_angle_gamma   90.00000000
_symmetry_Int_Tables_number   1
_chemical_formula_structural   Er2B6Ir
_chemical_formula_sum   'Er8 B24 Ir4'
_cell_volume   380.58122853
_cell_formula_units_Z   4
loop_
 _symmetry_equiv_pos_site_id
 _symmetry_equiv_pos_as_xyz
  1  'x, y, z'
loop_
 _atom_site_type_symbol
 _atom_site_label
 _atom_site_symmetry_multiplicity
 _atom_site_fract_x
 _atom_site_fract_y
 _atom_site_fract_z
 _atom_site_occupancy
  Er  Er0  1  0.000000  0.321687  0.413173  1
  Er  Er1  1  0.000000  0.678313  0.586827  1
  Er  Er2  1  0.000000  0.821687  0.086827  1
  Er  Er3  1  0.000000  0.178313  0.913173  1
  Er  Er4  1  0.000000  0.944433  0.374334  1
  Er  Er5  1  0.000000  0.055567  0.625666  1
  Er  Er6  1  0.000000  0.444433  0.125666  1
  Er  Er7  1  0.000000  0.555567  0.874334  1
  B  B8  1  0.500000  0.553454  0.434319  1
  B  B9  1  0.500000  0.446546  0.565681  1
  B  B10  1  0.500000  0.053454  0.065681  1
  B  B11  1  0.500000  0.946546  0.934319  1
  B  B12  1  0.500000  0.749722  0.421074  1
  B  B13  1  0.500000  0.250278  0.578926  1
  B  B14  1  0.500000  0.249722  0.078926  1
  B  B15  1  0.500000  0.750278  0.921074  1
  B  B16  1  0.500000  0.793742  0.264978  1
  B  B17  1  0.500000  0.206258  0.735022  1
  B  B18  1  0.500000  0.293742  0.235022  1
  B  B19  1  0.500000  0.706258  0.764978  1
  B  B20  1  0.500000  0.632496  0.184041  1
  B  B21  1  0.500000  0.367504  0.815959  1
  B  B22  1  0.500000  0.132496  0.315959  1
  B  B23  1  0.500000  0.867504  0.684041  1
  B  B24  1  0.500000  0.981845  0.213095  1
  B  B25  1  0.500000  0.018155  0.786905  1
  B  B26  1  0.500000  0.481845  0.286905  1
  B  B27  1  0.500000  0.518155  0.713095  1
  B  B28  1  0.500000  0.610116  0.030125  1
  B  B29  1  0.500000  0.389884  0.969875  1
  B  B30  1  0.500000  0.110116  0.469875  1
  B  B31  1  0.500000  0.889884  0.530125  1
  Ir  Ir32  1  0.000000  0.638716  0.321416  1
  Ir  Ir33  1  0.000000  0.361284  0.678584  1
  Ir  Ir34  1  0.000000  0.138716  0.178584  1
  Ir  Ir35  1  0.000000  0.861284  0.821416  1
