# generated using pymatgen
data_Er8Co3Si12Pd
_symmetry_space_group_name_H-M   'P 1'
_cell_length_a   8.01652800
_cell_length_b   8.01695663
_cell_length_c   7.82986900
_cell_angle_alpha   89.99999653
_cell_angle_beta   90.00028929
_cell_angle_gamma   120.00177391
_symmetry_Int_Tables_number   1
_chemical_formula_structural   Er8Co3Si12Pd
_chemical_formula_sum   'Er8 Co3 Si12 Pd1'
_cell_volume   435.78593802
_cell_formula_units_Z   1
loop_
 _symmetry_equiv_pos_site_id
 _symmetry_equiv_pos_as_xyz
  1  'x, y, z'
loop_
 _atom_site_type_symbol
 _atom_site_label
 _atom_site_symmetry_multiplicity
 _atom_site_fract_x
 _atom_site_fract_y
 _atom_site_fract_z
 _atom_site_occupancy
  Er  Er0  1  0.510224  0.020474  0.245689  1
  Er  Er1  1  0.494896  0.989779  0.752064  1
  Er  Er2  1  0.979546  0.489773  0.245720  1
  Er  Er3  1  0.010243  0.505121  0.752059  1
  Er  Er4  1  0.510224  0.489751  0.245689  1
  Er  Er5  1  0.494896  0.505116  0.752064  1
  Er  Er6  1  0.999997  0.999999  0.249319  1
  Er  Er7  1  0.999994  0.999996  0.752548  1
  Co  Co8  1  0.333333  0.666667  0.033511  1
  Co  Co9  1  0.666630  0.333314  0.963206  1
  Co  Co10  1  0.666661  0.333330  0.538759  1
  Si  Si11  1  0.172057  0.344146  0.002681  1
  Si  Si12  1  0.829118  0.658256  0.997155  1
  Si  Si13  1  0.655821  0.827910  0.002693  1
  Si  Si14  1  0.827062  0.654123  0.501026  1
  Si  Si15  1  0.341710  0.170856  0.997148  1
  Si  Si16  1  0.163864  0.327728  0.501450  1
  Si  Si17  1  0.172057  0.827911  0.002681  1
  Si  Si18  1  0.345834  0.172917  0.501030  1
  Si  Si19  1  0.829118  0.170862  0.997155  1
  Si  Si20  1  0.672209  0.836104  0.501451  1
  Si  Si21  1  0.827062  0.172939  0.501026  1
  Si  Si22  1  0.163864  0.836136  0.501450  1
  Pd  Pd23  1  0.333584  0.666792  0.462426  1
