# generated using pymatgen
data_Ho3ZnCd4Pt
_symmetry_space_group_name_H-M   'P 1'
_cell_length_a   7.91803800
_cell_length_b   7.91803832
_cell_length_c   3.68652400
_cell_angle_alpha   90.00000000
_cell_angle_beta   90.00000000
_cell_angle_gamma   119.99999032
_symmetry_Int_Tables_number   1
_chemical_formula_structural   Ho3ZnCd4Pt
_chemical_formula_sum   'Ho3 Zn1 Cd4 Pt1'
_cell_volume   200.16259391
_cell_formula_units_Z   1
loop_
 _symmetry_equiv_pos_site_id
 _symmetry_equiv_pos_as_xyz
  1  'x, y, z'
loop_
 _atom_site_type_symbol
 _atom_site_label
 _atom_site_symmetry_multiplicity
 _atom_site_fract_x
 _atom_site_fract_y
 _atom_site_fract_z
 _atom_site_occupancy
  Ho  Ho0  1  0.700802  0.947460  0.500000  1
  Ho  Ho1  1  0.246659  0.299198  0.500000  1
  Ho  Ho2  1  0.052540  0.753341  0.500000  1
  Zn  Zn3  1  0.666667  0.333333  0.500000  1
  Cd  Cd4  1  0.932308  0.342491  0.000000  1
  Cd  Cd5  1  0.410184  0.067692  0.000000  1
  Cd  Cd6  1  0.657509  0.589816  0.000000  1
  Cd  Cd7  1  0.333333  0.666667  0.000000  1
  Pt  Pt8  1  0.000000  0.000000  0.000000  1
