# generated using pymatgen
data_Pr20Co4Bi3Pb5
_symmetry_space_group_name_H-M   'P 1'
_cell_length_a   8.46356574
_cell_length_b   9.17878873
_cell_length_c   12.87336921
_cell_angle_alpha   89.69146862
_cell_angle_beta   90.02824324
_cell_angle_gamma   89.93269367
_symmetry_Int_Tables_number   1
_chemical_formula_structural   Pr20Co4Bi3Pb5
_chemical_formula_sum   'Pr20 Co4 Bi3 Pb5'
_cell_volume   1000.05600071
_cell_formula_units_Z   1
loop_
 _symmetry_equiv_pos_site_id
 _symmetry_equiv_pos_as_xyz
  1  'x, y, z'
loop_
 _atom_site_type_symbol
 _atom_site_label
 _atom_site_symmetry_multiplicity
 _atom_site_fract_x
 _atom_site_fract_y
 _atom_site_fract_z
 _atom_site_occupancy
  Pr  Pr0  1  0.348521  0.748115  0.701413  1
  Pr  Pr1  1  0.653015  0.250625  0.296953  1
  Pr  Pr2  1  0.848831  0.251996  0.799801  1
  Pr  Pr3  1  0.153329  0.748915  0.201836  1
  Pr  Pr4  1  0.877589  0.747361  0.808019  1
  Pr  Pr5  1  0.123307  0.251139  0.190640  1
  Pr  Pr6  1  0.376888  0.252178  0.692175  1
  Pr  Pr7  1  0.619243  0.748531  0.308057  1
  Pr  Pr8  1  0.678210  0.531386  0.568044  1
  Pr  Pr9  1  0.321886  0.467888  0.431870  1
  Pr  Pr10  1  0.178777  0.469517  0.932296  1
  Pr  Pr11  1  0.324832  0.030795  0.431690  1
  Pr  Pr12  1  0.822212  0.531276  0.068215  1
  Pr  Pr13  1  0.678126  0.970381  0.565808  1
  Pr  Pr14  1  0.821520  0.969127  0.066494  1
  Pr  Pr15  1  0.176880  0.030463  0.935377  1
  Pr  Pr16  1  0.051357  0.745476  0.497757  1
  Pr  Pr17  1  0.949592  0.254046  0.502961  1
  Pr  Pr18  1  0.546877  0.252336  0.003366  1
  Pr  Pr19  1  0.450254  0.748331  0.998275  1
  Co  Co20  1  0.071104  0.750987  0.990895  1
  Co  Co21  1  0.928229  0.248744  0.008733  1
  Co  Co22  1  0.572166  0.249003  0.508607  1
  Co  Co23  1  0.427177  0.751600  0.491748  1
  Bi  Bi24  1  0.573091  0.993947  0.826522  1
  Bi  Bi25  1  0.926847  0.992961  0.327408  1
  Bi  Bi26  1  0.072528  0.006369  0.673130  1
  Pb  Pb27  1  0.571939  0.506186  0.827397  1
  Pb  Pb28  1  0.427989  0.493789  0.172638  1
  Pb  Pb29  1  0.071530  0.493421  0.673675  1
  Pb  Pb30  1  0.427850  0.006654  0.171640  1
  Pb  Pb31  1  0.928305  0.506461  0.326562  1
