# generated using pymatgen
data_Y3Tm(Os3W)2
_symmetry_space_group_name_H-M   'P 1'
_cell_length_a   5.51595705
_cell_length_b   5.51595679
_cell_length_c   8.45741800
_cell_angle_alpha   90.00007947
_cell_angle_beta   89.99991780
_cell_angle_gamma   119.99968121
_symmetry_Int_Tables_number   1
_chemical_formula_structural   Y3Tm(Os3W)2
_chemical_formula_sum   'Y3 Tm1 Os6 W2'
_cell_volume   222.84944330
_cell_formula_units_Z   1
loop_
 _symmetry_equiv_pos_site_id
 _symmetry_equiv_pos_as_xyz
  1  'x, y, z'
loop_
 _atom_site_type_symbol
 _atom_site_label
 _atom_site_symmetry_multiplicity
 _atom_site_fract_x
 _atom_site_fract_y
 _atom_site_fract_z
 _atom_site_occupancy
  Y  Y0  1  0.666668  0.333332  0.565211  1
  Y  Y1  1  0.333333  0.666667  0.435333  1
  Y  Y2  1  0.333332  0.666668  0.064356  1
  Tm  Tm3  1  0.666670  0.333330  0.935892  1
  Os  Os4  1  0.172431  0.344882  0.750684  1
  Os  Os5  1  0.172455  0.827545  0.750684  1
  Os  Os6  1  0.655118  0.827569  0.750684  1
  Os  Os7  1  0.827369  0.654697  0.249116  1
  Os  Os8  1  0.827325  0.172675  0.249110  1
  Os  Os9  1  0.345303  0.172631  0.249116  1
  W  W10  1  0.999998  0.000002  0.499995  1
  W  W11  1  0.999997  0.000003  0.999818  1
