# generated using pymatgen
data_Lu12Th4Cd4Ir3Rh
_symmetry_space_group_name_H-M   'P 1'
_cell_length_a   9.61385968
_cell_length_b   9.61385916
_cell_length_c   9.61385982
_cell_angle_alpha   59.84130044
_cell_angle_beta   59.84130615
_cell_angle_gamma   59.84129939
_symmetry_Int_Tables_number   1
_chemical_formula_structural   Lu12Th4Cd4Ir3Rh
_chemical_formula_sum   'Lu12 Th4 Cd4 Ir3 Rh1'
_cell_volume   626.05331459
_cell_formula_units_Z   1
loop_
 _symmetry_equiv_pos_site_id
 _symmetry_equiv_pos_as_xyz
  1  'x, y, z'
loop_
 _atom_site_type_symbol
 _atom_site_label
 _atom_site_symmetry_multiplicity
 _atom_site_fract_x
 _atom_site_fract_y
 _atom_site_fract_z
 _atom_site_occupancy
  Lu  Lu0  1  0.812278  0.187141  0.187141  1
  Lu  Lu1  1  0.186549  0.813331  0.813331  1
  Lu  Lu2  1  0.187141  0.812278  0.187141  1
  Lu  Lu3  1  0.813331  0.186549  0.813331  1
  Lu  Lu4  1  0.187141  0.187141  0.812278  1
  Lu  Lu5  1  0.813331  0.813331  0.186549  1
  Lu  Lu6  1  0.934871  0.566168  0.566168  1
  Lu  Lu7  1  0.567658  0.933759  0.933759  1
  Lu  Lu8  1  0.566168  0.934871  0.566168  1
  Lu  Lu9  1  0.933759  0.567658  0.933759  1
  Lu  Lu10  1  0.566168  0.566168  0.934871  1
  Lu  Lu11  1  0.933759  0.933759  0.567658  1
  Th  Th12  1  0.350680  0.350680  0.350680  1
  Th  Th13  1  0.352420  0.352420  0.945277  1
  Th  Th14  1  0.352420  0.945277  0.352420  1
  Th  Th15  1  0.945277  0.352420  0.352420  1
  Cd  Cd16  1  0.584141  0.584141  0.584141  1
  Cd  Cd17  1  0.583363  0.583363  0.247379  1
  Cd  Cd18  1  0.583363  0.247379  0.583363  1
  Cd  Cd19  1  0.247379  0.583363  0.583363  1
  Ir  Ir20  1  0.141197  0.141197  0.573845  1
  Ir  Ir21  1  0.141197  0.573845  0.141197  1
  Ir  Ir22  1  0.573845  0.141197  0.141197  1
  Rh  Rh23  1  0.142558  0.142558  0.142558  1
