# generated using pymatgen
data_Nd3Lu2P12Ru16Pt3
_symmetry_space_group_name_H-M   'P 1'
_cell_length_a   12.63005500
_cell_length_b   12.63005533
_cell_length_c   4.00679800
_cell_angle_alpha   90.00000000
_cell_angle_beta   90.00000000
_cell_angle_gamma   120.00000698
_symmetry_Int_Tables_number   1
_chemical_formula_structural   Nd3Lu2P12Ru16Pt3
_chemical_formula_sum   'Nd3 Lu2 P12 Ru16 Pt3'
_cell_volume   553.52666183
_cell_formula_units_Z   1
loop_
 _symmetry_equiv_pos_site_id
 _symmetry_equiv_pos_as_xyz
  1  'x, y, z'
loop_
 _atom_site_type_symbol
 _atom_site_label
 _atom_site_symmetry_multiplicity
 _atom_site_fract_x
 _atom_site_fract_y
 _atom_site_fract_z
 _atom_site_occupancy
  Nd  Nd0  1  0.000000  0.182766  0.500000  1
  Nd  Nd1  1  0.817234  0.817234  0.500000  1
  Nd  Nd2  1  0.182766  0.000000  0.500000  1
  Lu  Lu3  1  0.666667  0.333333  0.000000  1
  Lu  Lu4  1  0.333333  0.666667  0.000000  1
  P  P5  1  0.000000  0.811203  0.000000  1
  P  P6  1  0.188797  0.188797  0.000000  1
  P  P7  1  0.811203  0.000000  0.000000  1
  P  P8  1  0.700731  0.183141  0.500000  1
  P  P9  1  0.816859  0.517591  0.500000  1
  P  P10  1  0.482409  0.299269  0.500000  1
  P  P11  1  0.183141  0.700731  0.500000  1
  P  P12  1  0.517591  0.816859  0.500000  1
  P  P13  1  0.299269  0.482409  0.500000  1
  P  P14  1  0.000000  0.367345  0.000000  1
  P  P15  1  0.632655  0.632655  0.000000  1
  P  P16  1  0.367345  0.000000  0.000000  1
  Ru  Ru17  1  0.000000  0.707410  0.500000  1
  Ru  Ru18  1  0.292590  0.292590  0.500000  1
  Ru  Ru19  1  0.707410  0.000000  0.500000  1
  Ru  Ru20  1  0.803138  0.186388  0.000000  1
  Ru  Ru21  1  0.813612  0.616750  0.000000  1
  Ru  Ru22  1  0.383250  0.196862  0.000000  1
  Ru  Ru23  1  0.186388  0.803138  0.000000  1
  Ru  Ru24  1  0.616750  0.813612  0.000000  1
  Ru  Ru25  1  0.196862  0.383250  0.000000  1
  Ru  Ru26  1  0.874478  0.370831  0.500000  1
  Ru  Ru27  1  0.629169  0.503646  0.500000  1
  Ru  Ru28  1  0.496354  0.125522  0.500000  1
  Ru  Ru29  1  0.370831  0.874478  0.500000  1
  Ru  Ru30  1  0.503646  0.629169  0.500000  1
  Ru  Ru31  1  0.125522  0.496354  0.500000  1
  Ru  Ru32  1  0.000000  0.000000  0.000000  1
  Pt  Pt33  1  0.000000  0.551433  0.000000  1
  Pt  Pt34  1  0.448567  0.448567  0.000000  1
  Pt  Pt35  1  0.551433  0.000000  0.000000  1
