# generated using pymatgen
data_LuU(AlC)6
_symmetry_space_group_name_H-M   'P 1'
_cell_length_a   3.39550800
_cell_length_b   3.39550784
_cell_length_c   17.22884500
_cell_angle_alpha   90.00000000
_cell_angle_beta   90.00000000
_cell_angle_gamma   120.00000158
_symmetry_Int_Tables_number   1
_chemical_formula_structural   LuU(AlC)6
_chemical_formula_sum   'Lu1 U1 Al6 C6'
_cell_volume   172.02686863
_cell_formula_units_Z   1
loop_
 _symmetry_equiv_pos_site_id
 _symmetry_equiv_pos_as_xyz
  1  'x, y, z'
loop_
 _atom_site_type_symbol
 _atom_site_label
 _atom_site_symmetry_multiplicity
 _atom_site_fract_x
 _atom_site_fract_y
 _atom_site_fract_z
 _atom_site_occupancy
  Lu  Lu0  1  0.000000  0.000000  0.003228  1
  U  U1  1  0.000000  0.000000  0.503099  1
  Al  Al2  1  0.333333  0.666667  0.133213  1
  Al  Al3  1  0.666667  0.333333  0.873289  1
  Al  Al4  1  0.666667  0.333333  0.638868  1
  Al  Al5  1  0.333333  0.666667  0.761631  1
  Al  Al6  1  0.333333  0.666667  0.367468  1
  Al  Al7  1  0.666667  0.333333  0.245083  1
  C  C8  1  0.333333  0.666667  0.595801  1
  C  C9  1  0.666667  0.333333  0.410350  1
  C  C10  1  0.333333  0.666667  0.911026  1
  C  C11  1  0.666667  0.333333  0.095245  1
  C  C12  1  0.666667  0.333333  0.755159  1
  C  C13  1  0.333333  0.666667  0.251140  1
