# generated using pymatgen
data_Tb16Dy4Ir11Au
_symmetry_space_group_name_H-M   'P 1'
_cell_length_a   11.02145659
_cell_length_b   11.02145406
_cell_length_c   6.38338159
_cell_angle_alpha   89.98669291
_cell_angle_beta   89.98692774
_cell_angle_gamma   89.57390859
_symmetry_Int_Tables_number   1
_chemical_formula_structural   Tb16Dy4Ir11Au
_chemical_formula_sum   'Tb16 Dy4 Ir11 Au1'
_cell_volume   775.38369342
_cell_formula_units_Z   1
loop_
 _symmetry_equiv_pos_site_id
 _symmetry_equiv_pos_as_xyz
  1  'x, y, z'
loop_
 _atom_site_type_symbol
 _atom_site_label
 _atom_site_symmetry_multiplicity
 _atom_site_fract_x
 _atom_site_fract_y
 _atom_site_fract_z
 _atom_site_occupancy
  Tb  Tb0  1  0.289437  0.087979  0.377330  1
  Tb  Tb1  1  0.292612  0.910513  0.877041  1
  Tb  Tb2  1  0.704094  0.084500  0.865707  1
  Tb  Tb3  1  0.705090  0.904002  0.381074  1
  Tb  Tb4  1  0.588156  0.790523  0.879990  1
  Tb  Tb5  1  0.579179  0.210314  0.378934  1
  Tb  Tb6  1  0.410358  0.790655  0.378718  1
  Tb  Tb7  1  0.409302  0.207981  0.878710  1
  Tb  Tb8  1  0.209477  0.411844  0.620010  1
  Tb  Tb9  1  0.209345  0.589642  0.121282  1
  Tb  Tb10  1  0.789687  0.420821  0.121066  1
  Tb  Tb11  1  0.792019  0.590698  0.621289  1
  Tb  Tb12  1  0.912021  0.710563  0.122671  1
  Tb  Tb13  1  0.915500  0.295906  0.634293  1
  Tb  Tb14  1  0.089487  0.707388  0.622960  1
  Tb  Tb15  1  0.095998  0.294910  0.118926  1
  Dy  Dy16  1  0.003028  0.995437  0.501094  1
  Dy  Dy17  1  0.004563  0.996972  0.998906  1
  Dy  Dy18  1  0.498917  0.498877  0.998631  1
  Dy  Dy19  1  0.501123  0.501083  0.501370  1
  Ir  Ir20  1  0.847314  0.848830  0.749625  1
  Ir  Ir21  1  0.151170  0.152685  0.750376  1
  Ir  Ir22  1  0.154926  0.845075  0.250000  1
  Ir  Ir23  1  0.654893  0.345107  0.750000  1
  Ir  Ir24  1  0.653287  0.651556  0.248334  1
  Ir  Ir25  1  0.348444  0.346714  0.251667  1
  Ir  Ir26  1  0.346940  0.653060  0.749999  1
  Ir  Ir27  1  0.500409  0.999841  0.125756  1
  Ir  Ir28  1  0.499300  0.000171  0.621415  1
  Ir  Ir29  1  0.999829  0.500701  0.878585  1
  Ir  Ir30  1  0.000159  0.499592  0.374244  1
  Au  Au31  1  0.843938  0.156062  0.250000  1
