# generated using pymatgen
data_Hf4Al3Re2Tc3
_symmetry_space_group_name_H-M   'P 1'
_cell_length_a   5.23905338
_cell_length_b   5.23648246
_cell_length_c   8.59402700
_cell_angle_alpha   90.00000000
_cell_angle_beta   90.00000000
_cell_angle_gamma   119.85260556
_symmetry_Int_Tables_number   1
_chemical_formula_structural   Hf4Al3Re2Tc3
_chemical_formula_sum   'Hf4 Al3 Re2 Tc3'
_cell_volume   204.48569925
_cell_formula_units_Z   1
loop_
 _symmetry_equiv_pos_site_id
 _symmetry_equiv_pos_as_xyz
  1  'x, y, z'
loop_
 _atom_site_type_symbol
 _atom_site_label
 _atom_site_symmetry_multiplicity
 _atom_site_fract_x
 _atom_site_fract_y
 _atom_site_fract_z
 _atom_site_occupancy
  Hf  Hf0  1  0.331423  0.667095  0.437643  1
  Hf  Hf1  1  0.663165  0.337173  0.567560  1
  Hf  Hf2  1  0.663165  0.337173  0.932440  1
  Hf  Hf3  1  0.331423  0.667095  0.062357  1
  Al  Al4  1  0.002614  0.997042  0.497013  1
  Al  Al5  1  0.002614  0.997042  0.002987  1
  Al  Al6  1  0.830460  0.169750  0.250000  1
  Re  Re7  1  0.173640  0.827431  0.750000  1
  Re  Re8  1  0.168772  0.337365  0.750000  1
  Tc  Tc9  1  0.826502  0.658214  0.250000  1
  Tc  Tc10  1  0.341651  0.172720  0.250000  1
  Tc  Tc11  1  0.664571  0.831901  0.750000  1
