# generated using pymatgen
data_Dy6Ho4Si5Sn
_symmetry_space_group_name_H-M   'P 1'
_cell_length_a   8.50933200
_cell_length_b   8.53494875
_cell_length_c   6.38196400
_cell_angle_alpha   90.00000000
_cell_angle_beta   90.00000000
_cell_angle_gamma   119.90077197
_symmetry_Int_Tables_number   1
_chemical_formula_structural   Dy6Ho4Si5Sn
_chemical_formula_sum   'Dy6 Ho4 Si5 Sn1'
_cell_volume   401.80445310
_cell_formula_units_Z   1
loop_
 _symmetry_equiv_pos_site_id
 _symmetry_equiv_pos_as_xyz
  1  'x, y, z'
loop_
 _atom_site_type_symbol
 _atom_site_label
 _atom_site_symmetry_multiplicity
 _atom_site_fract_x
 _atom_site_fract_y
 _atom_site_fract_z
 _atom_site_occupancy
  Dy  Dy0  1  0.989520  0.748803  0.750000  1
  Dy  Dy1  1  0.998779  0.242797  0.250000  1
  Dy  Dy2  1  0.755982  0.757203  0.250000  1
  Dy  Dy3  1  0.764954  0.000000  0.750000  1
  Dy  Dy4  1  0.240718  0.251197  0.750000  1
  Dy  Dy5  1  0.241438  0.000000  0.250000  1
  Ho  Ho6  1  0.331517  0.657979  0.496920  1
  Ho  Ho7  1  0.673539  0.342021  0.003080  1
  Ho  Ho8  1  0.673539  0.342021  0.496920  1
  Ho  Ho9  1  0.331517  0.657979  0.003080  1
  Si  Si10  1  0.393807  0.392475  0.250000  1
  Si  Si11  1  0.001331  0.607525  0.250000  1
  Si  Si12  1  0.998686  0.394526  0.750000  1
  Si  Si13  1  0.604161  0.605474  0.750000  1
  Si  Si14  1  0.605343  0.000000  0.250000  1
  Sn  Sn15  1  0.395166  0.000000  0.750000  1
