# generated using pymatgen
data_Dy4TaRu6W
_symmetry_space_group_name_H-M   'P 1'
_cell_length_a   5.61487138
_cell_length_b   5.18790515
_cell_length_c   9.19559500
_cell_angle_alpha   90.00000000
_cell_angle_beta   90.00000000
_cell_angle_gamma   122.91707388
_symmetry_Int_Tables_number   1
_chemical_formula_structural   Dy4TaRu6W
_chemical_formula_sum   'Dy4 Ta1 Ru6 W1'
_cell_volume   224.85918311
_cell_formula_units_Z   1
loop_
 _symmetry_equiv_pos_site_id
 _symmetry_equiv_pos_as_xyz
  1  'x, y, z'
loop_
 _atom_site_type_symbol
 _atom_site_label
 _atom_site_symmetry_multiplicity
 _atom_site_fract_x
 _atom_site_fract_y
 _atom_site_fract_z
 _atom_site_occupancy
  Dy  Dy0  1  0.669103  0.338727  0.568471  1
  Dy  Dy1  1  0.328733  0.657343  0.435611  1
  Dy  Dy2  1  0.328733  0.657343  0.064389  1
  Dy  Dy3  1  0.669103  0.338727  0.931529  1
  Ta  Ta4  1  0.850640  0.700104  0.250000  1
  Ru  Ru5  1  0.001535  0.003902  0.503266  1
  Ru  Ru6  1  0.001535  0.003902  0.996734  1
  Ru  Ru7  1  0.168383  0.811125  0.750000  1
  Ru  Ru8  1  0.642602  0.811324  0.750000  1
  Ru  Ru9  1  0.828879  0.186646  0.250000  1
  Ru  Ru10  1  0.358356  0.186637  0.250000  1
  W  W11  1  0.152397  0.304219  0.750000  1
