# generated using pymatgen
data_CeTh7(GeRh)8
_symmetry_space_group_name_H-M   'P 1'
_cell_length_a   5.83640013
_cell_length_b   7.75551734
_cell_length_c   10.83053300
_cell_angle_alpha   88.26598685
_cell_angle_beta   89.98773860
_cell_angle_gamma   89.83538442
_symmetry_Int_Tables_number   1
_chemical_formula_structural   CeTh7(GeRh)8
_chemical_formula_sum   'Ce1 Th7 Ge8 Rh8'
_cell_volume   490.01000241
_cell_formula_units_Z   1
loop_
 _symmetry_equiv_pos_site_id
 _symmetry_equiv_pos_as_xyz
  1  'x, y, z'
loop_
 _atom_site_type_symbol
 _atom_site_label
 _atom_site_symmetry_multiplicity
 _atom_site_fract_x
 _atom_site_fract_y
 _atom_site_fract_z
 _atom_site_occupancy
  Ce  Ce0  1  0.341848  0.955532  0.140538  1
  Th  Th1  1  0.630640  0.323834  0.369870  1
  Th  Th2  1  0.129638  0.174508  0.628936  1
  Th  Th3  1  0.367771  0.676370  0.629083  1
  Th  Th4  1  0.870726  0.824852  0.370447  1
  Th  Th5  1  0.156879  0.456414  0.139882  1
  Th  Th6  1  0.654578  0.041739  0.862223  1
  Th  Th7  1  0.844241  0.542719  0.859805  1
  Ge  Ge8  1  0.637049  0.035543  0.579437  1
  Ge  Ge9  1  0.140258  0.463100  0.422077  1
  Ge  Ge10  1  0.363941  0.964822  0.418359  1
  Ge  Ge11  1  0.858143  0.536620  0.577596  1
  Ge  Ge12  1  0.831812  0.110631  0.149985  1
  Ge  Ge13  1  0.334355  0.386718  0.850486  1
  Ge  Ge14  1  0.166962  0.888679  0.850699  1
  Ge  Ge15  1  0.664993  0.616126  0.148698  1
  Rh  Rh16  1  0.928498  0.826657  0.047974  1
  Rh  Rh17  1  0.418181  0.671512  0.954082  1
  Rh  Rh18  1  0.078067  0.173327  0.954670  1
  Rh  Rh19  1  0.585253  0.330715  0.045317  1
  Rh  Rh20  1  0.900807  0.822081  0.673586  1
  Rh  Rh21  1  0.401160  0.676501  0.327368  1
  Rh  Rh22  1  0.097547  0.178366  0.327101  1
  Rh  Rh23  1  0.596652  0.322633  0.671782  1
