# generated using pymatgen
data_Co2Si7Ni3(Mo6C)2
_symmetry_space_group_name_H-M   'P 1'
_cell_length_a   7.74796369
_cell_length_b   7.75337123
_cell_length_c   7.75337033
_cell_angle_alpha   60.25277464
_cell_angle_beta   60.31819929
_cell_angle_gamma   60.31820123
_symmetry_Int_Tables_number   1
_chemical_formula_structural   Co2Si7Ni3(Mo6C)2
_chemical_formula_sum   'Co2 Si7 Ni3 Mo12 C2'
_cell_volume   331.55571367
_cell_formula_units_Z   1
loop_
 _symmetry_equiv_pos_site_id
 _symmetry_equiv_pos_as_xyz
  1  'x, y, z'
loop_
 _atom_site_type_symbol
 _atom_site_label
 _atom_site_symmetry_multiplicity
 _atom_site_fract_x
 _atom_site_fract_y
 _atom_site_fract_z
 _atom_site_occupancy
  Co  Co0  1  0.143682  0.616554  0.616554  1
  Co  Co1  1  0.627654  0.627450  0.627450  1
  Si  Si2  1  0.414136  0.417167  0.758599  1
  Si  Si3  1  0.414136  0.758599  0.417167  1
  Si  Si4  1  0.760171  0.415854  0.415854  1
  Si  Si5  1  0.410550  0.413588  0.413588  1
  Si  Si6  1  0.840660  0.835591  0.499079  1
  Si  Si7  1  0.840660  0.499079  0.835591  1
  Si  Si8  1  0.498821  0.837471  0.837471  1
  Ni  Ni9  1  0.828102  0.827989  0.827989  1
  Ni  Ni10  1  0.617566  0.617139  0.141378  1
  Ni  Ni11  1  0.617566  0.141378  0.617139  1
  Mo  Mo12  1  0.055690  0.055049  0.447673  1
  Mo  Mo13  1  0.442475  0.057063  0.443688  1
  Mo  Mo14  1  0.056797  0.443617  0.443617  1
  Mo  Mo15  1  0.442475  0.443688  0.057063  1
  Mo  Mo16  1  0.055690  0.447673  0.055049  1
  Mo  Mo17  1  0.446946  0.056246  0.056246  1
  Mo  Mo18  1  0.189980  0.189034  0.808931  1
  Mo  Mo19  1  0.806574  0.188169  0.806633  1
  Mo  Mo20  1  0.186885  0.806684  0.806684  1
  Mo  Mo21  1  0.806574  0.806633  0.188169  1
  Mo  Mo22  1  0.189980  0.808931  0.189034  1
  Mo  Mo23  1  0.808911  0.189814  0.189814  1
  C  C24  1  0.249600  0.251899  0.251899  1
  C  C25  1  0.997716  0.997639  0.997639  1
