# generated using pymatgen
data_Th10CuSn4Sb3
_symmetry_space_group_name_H-M   'P 1'
_cell_length_a   9.58990101
_cell_length_b   9.58649844
_cell_length_c   6.57447401
_cell_angle_alpha   89.99733932
_cell_angle_beta   90.00532545
_cell_angle_gamma   120.01173836
_symmetry_Int_Tables_number   1
_chemical_formula_structural   Th10CuSn4Sb3
_chemical_formula_sum   'Th10 Cu1 Sn4 Sb3'
_cell_volume   523.37670736
_cell_formula_units_Z   1
loop_
 _symmetry_equiv_pos_site_id
 _symmetry_equiv_pos_as_xyz
  1  'x, y, z'
loop_
 _atom_site_type_symbol
 _atom_site_label
 _atom_site_symmetry_multiplicity
 _atom_site_fract_x
 _atom_site_fract_y
 _atom_site_fract_z
 _atom_site_occupancy
  Th  Th0  1  0.999592  0.726006  0.759347  1
  Th  Th1  1  0.273586  0.273994  0.759347  1
  Th  Th2  1  0.332805  0.666387  0.498875  1
  Th  Th3  1  0.666419  0.333613  0.498875  1
  Th  Th4  1  0.726557  0.726267  0.239998  1
  Th  Th5  1  0.728366  0.000000  0.759912  1
  Th  Th6  1  0.000290  0.273733  0.239998  1
  Th  Th7  1  0.273361  0.000000  0.240599  1
  Th  Th8  1  0.333224  0.666692  0.000968  1
  Th  Th9  1  0.666533  0.333308  0.000968  1
  Cu  Cu10  1  0.000150  0.000000  0.001531  1
  Sn  Sn11  1  0.380274  0.000000  0.747481  1
  Sn  Sn12  1  0.619532  0.000000  0.252064  1
  Sn  Sn13  1  0.380093  0.379685  0.252159  1
  Sn  Sn14  1  0.000407  0.620315  0.252159  1
  Sb  Sb15  1  0.618982  0.619282  0.747931  1
  Sb  Sb16  1  0.999700  0.380718  0.747931  1
  Sb  Sb17  1  0.000128  0.000000  0.499857  1
