# generated using pymatgen
data_La10Pr3Nd3(CdPd)4
_symmetry_space_group_name_H-M   'P 1'
_cell_length_a   10.17517360
_cell_length_b   10.18459992
_cell_length_c   10.16832013
_cell_angle_alpha   60.05048100
_cell_angle_beta   60.18820105
_cell_angle_gamma   59.90282002
_symmetry_Int_Tables_number   1
_chemical_formula_structural   La10Pr3Nd3(CdPd)4
_chemical_formula_sum   'La10 Pr3 Nd3 Cd4 Pd4'
_cell_volume   745.89669260
_cell_formula_units_Z   1
loop_
 _symmetry_equiv_pos_site_id
 _symmetry_equiv_pos_as_xyz
  1  'x, y, z'
loop_
 _atom_site_type_symbol
 _atom_site_label
 _atom_site_symmetry_multiplicity
 _atom_site_fract_x
 _atom_site_fract_y
 _atom_site_fract_z
 _atom_site_occupancy
  La  La0  1  0.350499  0.351150  0.351059  1
  La  La1  1  0.350859  0.350692  0.947234  1
  La  La2  1  0.351123  0.947307  0.350497  1
  La  La3  1  0.947245  0.351122  0.350959  1
  La  La4  1  0.805711  0.194534  0.194136  1
  La  La5  1  0.194132  0.805563  0.805719  1
  La  La6  1  0.194239  0.805757  0.194194  1
  La  La7  1  0.805461  0.194529  0.805404  1
  La  La8  1  0.194245  0.194827  0.805508  1
  La  La9  1  0.805506  0.805477  0.194250  1
  Pr  Pr10  1  0.933500  0.566480  0.567142  1
  Pr  Pr11  1  0.567127  0.932854  0.933546  1
  Pr  Pr12  1  0.566284  0.933722  0.566311  1
  Nd  Nd13  1  0.934018  0.565954  0.934052  1
  Nd  Nd14  1  0.565826  0.565145  0.934738  1
  Nd  Nd15  1  0.934765  0.934276  0.565797  1
  Cd  Cd16  1  0.580619  0.580429  0.581191  1
  Cd  Cd17  1  0.581171  0.580475  0.257146  1
  Cd  Cd18  1  0.581198  0.257771  0.580608  1
  Cd  Cd19  1  0.257079  0.581303  0.581142  1
  Pd  Pd20  1  0.141948  0.143510  0.143629  1
  Pd  Pd21  1  0.142973  0.142038  0.571042  1
  Pd  Pd22  1  0.143512  0.570892  0.141940  1
  Pd  Pd23  1  0.570960  0.144190  0.142758  1
