# generated using pymatgen
data_Er7Tm13(Cd3Ru)2
_symmetry_space_group_name_H-M   'P 1'
_cell_length_a   9.45807604
_cell_length_b   9.45807603
_cell_length_c   9.73684704
_cell_angle_alpha   89.99140554
_cell_angle_beta   90.00859683
_cell_angle_gamma   120.00525944
_symmetry_Int_Tables_number   1
_chemical_formula_structural   Er7Tm13(Cd3Ru)2
_chemical_formula_sum   'Er7 Tm13 Cd6 Ru2'
_cell_volume   754.27819948
_cell_formula_units_Z   1
loop_
 _symmetry_equiv_pos_site_id
 _symmetry_equiv_pos_as_xyz
  1  'x, y, z'
loop_
 _atom_site_type_symbol
 _atom_site_label
 _atom_site_symmetry_multiplicity
 _atom_site_fract_x
 _atom_site_fract_y
 _atom_site_fract_z
 _atom_site_occupancy
  Er  Er0  1  0.209959  0.790041  0.440865  1
  Er  Er1  1  0.540828  0.459172  0.250043  1
  Er  Er2  1  0.541020  0.081853  0.249962  1
  Er  Er3  1  0.918147  0.458980  0.249962  1
  Er  Er4  1  0.459124  0.540876  0.749943  1
  Er  Er5  1  0.459194  0.918360  0.750079  1
  Er  Er6  1  0.081640  0.540806  0.750079  1
  Tm  Tm7  1  0.999913  0.000087  0.500009  1
  Tm  Tm8  1  0.000016  0.999984  0.000036  1
  Tm  Tm9  1  0.209961  0.419768  0.440840  1
  Tm  Tm10  1  0.580232  0.790039  0.440840  1
  Tm  Tm11  1  0.789992  0.210008  0.559181  1
  Tm  Tm12  1  0.789910  0.579982  0.559235  1
  Tm  Tm13  1  0.420018  0.210090  0.559235  1
  Tm  Tm14  1  0.790002  0.209998  0.940817  1
  Tm  Tm15  1  0.789993  0.580007  0.940809  1
  Tm  Tm16  1  0.419993  0.210007  0.940809  1
  Tm  Tm17  1  0.209962  0.790038  0.059064  1
  Tm  Tm18  1  0.210011  0.419964  0.059189  1
  Tm  Tm19  1  0.580036  0.789989  0.059189  1
  Cd  Cd20  1  0.885665  0.114335  0.249999  1
  Cd  Cd21  1  0.885601  0.771283  0.249978  1
  Cd  Cd22  1  0.228717  0.114399  0.249978  1
  Cd  Cd23  1  0.114323  0.885677  0.750074  1
  Cd  Cd24  1  0.114373  0.228746  0.750004  1
  Cd  Cd25  1  0.771254  0.885627  0.750004  1
  Ru  Ru26  1  0.333433  0.666567  0.249785  1
  Ru  Ru27  1  0.666682  0.333318  0.749994  1
