# generated using pymatgen
data_DyThReB6
_symmetry_space_group_name_H-M   'P 1'
_cell_length_a   3.77553400
_cell_length_b   9.28182300
_cell_length_c   11.70198200
_cell_angle_alpha   90.00000000
_cell_angle_beta   90.00000000
_cell_angle_gamma   90.00000000
_symmetry_Int_Tables_number   1
_chemical_formula_structural   DyThReB6
_chemical_formula_sum   'Dy4 Th4 Re4 B24'
_cell_volume   410.08236521
_cell_formula_units_Z   4
loop_
 _symmetry_equiv_pos_site_id
 _symmetry_equiv_pos_as_xyz
  1  'x, y, z'
loop_
 _atom_site_type_symbol
 _atom_site_label
 _atom_site_symmetry_multiplicity
 _atom_site_fract_x
 _atom_site_fract_y
 _atom_site_fract_z
 _atom_site_occupancy
  Dy  Dy0  1  0.000000  0.944829  0.372560  1
  Dy  Dy1  1  0.000000  0.055171  0.627440  1
  Dy  Dy2  1  0.000000  0.444829  0.127440  1
  Dy  Dy3  1  0.000000  0.555171  0.872560  1
  Th  Th4  1  0.000000  0.322217  0.413833  1
  Th  Th5  1  0.000000  0.677783  0.586167  1
  Th  Th6  1  0.000000  0.822217  0.086167  1
  Th  Th7  1  0.000000  0.177783  0.913833  1
  Re  Re8  1  0.000000  0.639009  0.320460  1
  Re  Re9  1  0.000000  0.360991  0.679540  1
  Re  Re10  1  0.000000  0.139009  0.179540  1
  Re  Re11  1  0.000000  0.860991  0.820460  1
  B  B12  1  0.500000  0.556050  0.430335  1
  B  B13  1  0.500000  0.443950  0.569665  1
  B  B14  1  0.500000  0.056050  0.069665  1
  B  B15  1  0.500000  0.943950  0.930335  1
  B  B16  1  0.500000  0.749320  0.417541  1
  B  B17  1  0.500000  0.250680  0.582459  1
  B  B18  1  0.500000  0.249320  0.082459  1
  B  B19  1  0.500000  0.750680  0.917541  1
  B  B20  1  0.500000  0.790616  0.267102  1
  B  B21  1  0.500000  0.209384  0.732898  1
  B  B22  1  0.500000  0.290616  0.232898  1
  B  B23  1  0.500000  0.709384  0.767102  1
  B  B24  1  0.500000  0.630797  0.186826  1
  B  B25  1  0.500000  0.369203  0.813174  1
  B  B26  1  0.500000  0.130797  0.313174  1
  B  B27  1  0.500000  0.869203  0.686826  1
  B  B28  1  0.500000  0.985590  0.213555  1
  B  B29  1  0.500000  0.014410  0.786445  1
  B  B30  1  0.500000  0.485590  0.286445  1
  B  B31  1  0.500000  0.514410  0.713555  1
  B  B32  1  0.500000  0.603940  0.028809  1
  B  B33  1  0.500000  0.396060  0.971191  1
  B  B34  1  0.500000  0.103940  0.471191  1
  B  B35  1  0.500000  0.896060  0.528809  1
