# generated using pymatgen
data_Ba2Li6As5
_symmetry_space_group_name_H-M   'P 1'
_cell_length_a   4.54287554
_cell_length_b   4.54287621
_cell_length_c   13.89719081
_cell_angle_alpha   99.40695704
_cell_angle_beta   99.40695749
_cell_angle_gamma   89.99999421
_symmetry_Int_Tables_number   1
_chemical_formula_structural   Ba2Li6As5
_chemical_formula_sum   'Ba2 Li6 As5'
_cell_volume   279.03928722
_cell_formula_units_Z   1
loop_
 _symmetry_equiv_pos_site_id
 _symmetry_equiv_pos_as_xyz
  1  'x, y, z'
loop_
 _atom_site_type_symbol
 _atom_site_label
 _atom_site_symmetry_multiplicity
 _atom_site_fract_x
 _atom_site_fract_y
 _atom_site_fract_z
 _atom_site_occupancy
  Ba  Ba0  1  0.646151  0.646151  0.292302  1
  Ba  Ba1  1  0.353849  0.353849  0.707698  1
  Li  Li2  1  0.950728  0.450728  0.901456  1
  Li  Li3  1  0.450728  0.950728  0.901456  1
  Li  Li4  1  0.049272  0.549272  0.098544  1
  Li  Li5  1  0.549272  0.049272  0.098544  1
  Li  Li6  1  0.250000  0.750000  0.500000  1
  Li  Li7  1  0.750000  0.250000  0.500000  1
  As  As8  1  0.500000  0.500000  0.000000  1
  As  As9  1  0.893425  0.893425  0.786849  1
  As  As10  1  0.106575  0.106575  0.213151  1
  As  As11  1  0.801324  0.801324  0.602648  1
  As  As12  1  0.198676  0.198676  0.397352  1
