# generated using pymatgen
data_RbUPaBr11
_symmetry_space_group_name_H-M   'P 1'
_cell_length_a   8.00358023
_cell_length_b   8.06803819
_cell_length_c   19.75646600
_cell_angle_alpha   78.62513710
_cell_angle_beta   78.48682989
_cell_angle_gamma   88.41268310
_symmetry_Int_Tables_number   1
_chemical_formula_structural   RbUPaBr11
_chemical_formula_sum   'Rb2 U2 Pa2 Br22'
_cell_volume   1225.42427917
_cell_formula_units_Z   2
loop_
 _symmetry_equiv_pos_site_id
 _symmetry_equiv_pos_as_xyz
  1  'x, y, z'
loop_
 _atom_site_type_symbol
 _atom_site_label
 _atom_site_symmetry_multiplicity
 _atom_site_fract_x
 _atom_site_fract_y
 _atom_site_fract_z
 _atom_site_occupancy
  Rb  Rb0  1  0.748728  0.750472  0.504335  1
  Rb  Rb1  1  0.251272  0.249528  0.495665  1
  U  U2  1  0.320117  0.817820  0.349044  1
  U  U3  1  0.679883  0.182180  0.650956  1
  Pa  Pa4  1  0.832393  0.329234  0.087058  1
  Pa  Pa5  1  0.167607  0.670766  0.912942  1
  Br  Br6  1  0.249599  0.772956  0.494346  1
  Br  Br7  1  0.750401  0.227044  0.505654  1
  Br  Br8  1  0.578020  0.026584  0.349446  1
  Br  Br9  1  0.421980  0.973416  0.650554  1
  Br  Br10  1  0.534629  0.552286  0.360185  1
  Br  Br11  1  0.465371  0.447714  0.639815  1
  Br  Br12  1  0.384906  0.859479  0.210358  1
  Br  Br13  1  0.615094  0.140521  0.789642  1
  Br  Br14  1  0.057258  0.600955  0.361162  1
  Br  Br15  1  0.942742  0.399045  0.638838  1
  Br  Br16  1  0.104090  0.080211  0.346271  1
  Br  Br17  1  0.895910  0.919789  0.653729  1
  Br  Br18  1  0.894276  0.020383  0.152477  1
  Br  Br19  1  0.105724  0.979617  0.847523  1
  Br  Br20  1  0.518104  0.375637  0.154469  1
  Br  Br21  1  0.481896  0.624363  0.845531  1
  Br  Br22  1  0.715628  0.208342  0.988716  1
  Br  Br23  1  0.284372  0.791658  0.011284  1
  Br  Br24  1  0.967979  0.470815  0.174924  1
  Br  Br25  1  0.032021  0.529185  0.825076  1
  Br  Br26  1  0.171096  0.336745  0.999884  1
  Br  Br27  1  0.828904  0.663255  0.000116  1
