# generated using pymatgen
data_Lu2Ta7TiB20
_symmetry_space_group_name_H-M   'P 1'
_cell_length_a   6.20129063
_cell_length_b   7.07347975
_cell_length_c   7.48513600
_cell_angle_alpha   94.31367506
_cell_angle_beta   102.00682162
_cell_angle_gamma   115.98704918
_symmetry_Int_Tables_number   1
_chemical_formula_structural   Lu2Ta7TiB20
_chemical_formula_sum   'Lu2 Ta7 Ti1 B20'
_cell_volume   283.46465507
_cell_formula_units_Z   1
loop_
 _symmetry_equiv_pos_site_id
 _symmetry_equiv_pos_as_xyz
  1  'x, y, z'
loop_
 _atom_site_type_symbol
 _atom_site_label
 _atom_site_symmetry_multiplicity
 _atom_site_fract_x
 _atom_site_fract_y
 _atom_site_fract_z
 _atom_site_occupancy
  Lu  Lu0  1  0.499945  0.799357  0.400255  1
  Lu  Lu1  1  0.000318  0.400561  0.199182  1
  Ta  Ta2  1  0.500324  0.002911  0.999242  1
  Ta  Ta3  1  0.497524  0.197084  0.601600  1
  Ta  Ta4  1  0.998638  0.799068  0.400737  1
  Ta  Ta5  1  0.499640  0.598161  0.798132  1
  Ta  Ta6  1  0.500485  0.400164  0.198933  1
  Ta  Ta7  1  0.000573  0.197771  0.601547  1
  Ta  Ta8  1  0.000599  0.602668  0.801522  1
  Ti  Ti9  1  0.002351  0.002791  0.998789  1
  B  B10  1  0.331506  0.231781  0.867469  1
  B  B11  1  0.334541  0.635478  0.060137  1
  B  B12  1  0.167078  0.365228  0.931568  1
  B  B13  1  0.330779  0.034640  0.263567  1
  B  B14  1  0.165190  0.771613  0.127094  1
  B  B15  1  0.833596  0.232537  0.864215  1
  B  B16  1  0.167175  0.164674  0.332371  1
  B  B17  1  0.832498  0.637791  0.061510  1
  B  B18  1  0.334193  0.429191  0.470892  1
  B  B19  1  0.665231  0.368113  0.929856  1
  B  B20  1  0.835723  0.032562  0.263744  1
  B  B21  1  0.669431  0.769573  0.127921  1
  B  B22  1  0.332262  0.833657  0.669257  1
  B  B23  1  0.165660  0.564712  0.539326  1
  B  B24  1  0.664819  0.166917  0.334871  1
  B  B25  1  0.831646  0.431355  0.470049  1
  B  B26  1  0.165833  0.966275  0.737494  1
  B  B27  1  0.835452  0.832661  0.672517  1
  B  B28  1  0.668554  0.564942  0.536922  1
  B  B29  1  0.668432  0.965762  0.739281  1
