# generated using pymatgen
data_CaTb3Cd4
_symmetry_space_group_name_H-M   'P 1'
_cell_length_a   6.53727878
_cell_length_b   6.53727876
_cell_length_c   6.53727888
_cell_angle_alpha   109.55923347
_cell_angle_beta   109.55922769
_cell_angle_gamma   109.29533730
_symmetry_Int_Tables_number   1
_chemical_formula_structural   CaTb3Cd4
_chemical_formula_sum   'Ca1 Tb3 Cd4'
_cell_volume   215.06319728
_cell_formula_units_Z   1
loop_
 _symmetry_equiv_pos_site_id
 _symmetry_equiv_pos_as_xyz
  1  'x, y, z'
loop_
 _atom_site_type_symbol
 _atom_site_label
 _atom_site_symmetry_multiplicity
 _atom_site_fract_x
 _atom_site_fract_y
 _atom_site_fract_z
 _atom_site_occupancy
  Ca  Ca0  1  0.249751  0.249751  0.000000  1
  Tb  Tb1  1  0.750236  0.250236  0.500000  1
  Tb  Tb2  1  0.250236  0.750236  0.500000  1
  Tb  Tb3  1  0.749045  0.749045  0.000000  1
  Cd  Cd4  1  0.750536  0.750536  0.500706  1
  Cd  Cd5  1  0.750536  0.249830  0.000000  1
  Cd  Cd6  1  0.249830  0.750536  0.000000  1
  Cd  Cd7  1  0.249830  0.249830  0.499294  1
