# generated using pymatgen
data_YbErGa9Ru5
_symmetry_space_group_name_H-M   'P 1'
_cell_length_a   8.01225963
_cell_length_b   8.01225918
_cell_length_c   8.01225846
_cell_angle_alpha   134.80510004
_cell_angle_beta   134.52297686
_cell_angle_gamma   66.05292821
_symmetry_Int_Tables_number   1
_chemical_formula_structural   YbErGa9Ru5
_chemical_formula_sum   'Yb1 Er1 Ga9 Ru5'
_cell_volume   256.20254238
_cell_formula_units_Z   1
loop_
 _symmetry_equiv_pos_site_id
 _symmetry_equiv_pos_as_xyz
  1  'x, y, z'
loop_
 _atom_site_type_symbol
 _atom_site_label
 _atom_site_symmetry_multiplicity
 _atom_site_fract_x
 _atom_site_fract_y
 _atom_site_fract_z
 _atom_site_occupancy
  Yb  Yb0  1  0.500000  0.000000  0.500000  1
  Er  Er1  1  0.000000  0.500000  0.500000  1
  Ga  Ga2  1  0.436802  0.858949  0.002202  1
  Ga  Ga3  1  0.143253  0.141051  0.577853  1
  Ga  Ga4  1  0.856747  0.434600  0.997798  1
  Ga  Ga5  1  0.856747  0.858949  0.422147  1
  Ga  Ga6  1  0.563198  0.141051  0.997798  1
  Ga  Ga7  1  0.143253  0.565400  0.002202  1
  Ga  Ga8  1  0.563198  0.565400  0.422147  1
  Ga  Ga9  1  0.000000  0.000000  0.000000  1
  Ga  Ga10  1  0.436802  0.434600  0.577853  1
  Ru  Ru11  1  0.182048  0.182048  0.000000  1
  Ru  Ru12  1  0.817952  0.817952  0.000000  1
  Ru  Ru13  1  0.249433  0.749433  0.500000  1
  Ru  Ru14  1  0.750567  0.250567  0.500000  1
  Ru  Ru15  1  0.500000  0.500000  0.000000  1
