# generated using pymatgen
data_Al3CoBi4Sb(TeO8)3
_symmetry_space_group_name_H-M   'P 1'
_cell_length_a   5.13497601
_cell_length_b   8.89181500
_cell_length_c   10.12613000
_cell_angle_alpha   89.99865328
_cell_angle_beta   89.99573767
_cell_angle_gamma   90.00078603
_symmetry_Int_Tables_number   1
_chemical_formula_structural   Al3CoBi4Sb(TeO8)3
_chemical_formula_sum   'Al3 Co1 Bi4 Sb1 Te3 O24'
_cell_volume   462.35156825
_cell_formula_units_Z   1
loop_
 _symmetry_equiv_pos_site_id
 _symmetry_equiv_pos_as_xyz
  1  'x, y, z'
loop_
 _atom_site_type_symbol
 _atom_site_label
 _atom_site_symmetry_multiplicity
 _atom_site_fract_x
 _atom_site_fract_y
 _atom_site_fract_z
 _atom_site_occupancy
  Al  Al0  1  0.500069  0.168096  0.249921  1
  Al  Al1  1  0.000565  0.333037  0.750119  1
  Al  Al2  1  0.999589  0.665442  0.250093  1
  Co  Co3  1  0.495213  0.834877  0.749521  1
  Bi  Bi4  1  0.006643  0.001429  0.497526  1
  Bi  Bi5  1  0.489034  0.500881  0.502691  1
  Bi  Bi6  1  0.987840  0.999094  0.001576  1
  Bi  Bi7  1  0.510208  0.500490  0.996933  1
  Sb  Sb8  1  0.999236  0.665873  0.751641  1
  Te  Te9  1  0.501166  0.166146  0.748610  1
  Te  Te10  1  0.000332  0.334746  0.250009  1
  Te  Te11  1  0.499591  0.832241  0.249929  1
  O  O12  1  0.627302  0.997516  0.642189  1
  O  O13  1  0.125638  0.493928  0.641879  1
  O  O14  1  0.689697  0.311809  0.643089  1
  O  O15  1  0.199588  0.821013  0.644553  1
  O  O16  1  0.183279  0.184837  0.644081  1
  O  O17  1  0.675231  0.693345  0.643216  1
  O  O18  1  0.188749  0.185723  0.145453  1
  O  O19  1  0.690081  0.685875  0.143334  1
  O  O20  1  0.127341  0.502193  0.144508  1
  O  O21  1  0.626364  0.001889  0.143700  1
  O  O22  1  0.684475  0.312124  0.143847  1
  O  O23  1  0.183232  0.812419  0.145106  1
  O  O24  1  0.872025  0.501868  0.355875  1
  O  O25  1  0.374693  0.002247  0.355160  1
  O  O26  1  0.811767  0.185387  0.355292  1
  O  O27  1  0.309150  0.686080  0.356940  1
  O  O28  1  0.316227  0.312853  0.357124  1
  O  O29  1  0.815950  0.812563  0.354819  1
  O  O30  1  0.311282  0.309803  0.856276  1
  O  O31  1  0.804085  0.821394  0.856837  1
  O  O32  1  0.378045  0.994693  0.855805  1
  O  O33  1  0.873910  0.492570  0.859016  1
  O  O34  1  0.815621  0.184800  0.855677  1
  O  O35  1  0.326781  0.690719  0.857649  1
