# generated using pymatgen
data_Tb2Y5Co6AgSn22
_symmetry_space_group_name_H-M   'P 1'
_cell_length_a   9.66288824
_cell_length_b   9.66107715
_cell_length_c   9.97843925
_cell_angle_alpha   89.99999893
_cell_angle_beta   90.02231677
_cell_angle_gamma   119.99380004
_symmetry_Int_Tables_number   1
_chemical_formula_structural   Tb2Y5Co6AgSn22
_chemical_formula_sum   'Tb2 Y5 Co6 Ag1 Sn22'
_cell_volume   806.77576092
_cell_formula_units_Z   1
loop_
 _symmetry_equiv_pos_site_id
 _symmetry_equiv_pos_as_xyz
  1  'x, y, z'
loop_
 _atom_site_type_symbol
 _atom_site_label
 _atom_site_symmetry_multiplicity
 _atom_site_fract_x
 _atom_site_fract_y
 _atom_site_fract_z
 _atom_site_occupancy
  Tb  Tb0  1  0.999991  0.999996  0.999960  1
  Tb  Tb1  1  0.043694  0.521847  0.306695  1
  Y  Y2  1  0.478106  0.956244  0.306906  1
  Y  Y3  1  0.478106  0.521862  0.306906  1
  Y  Y4  1  0.956188  0.478094  0.693176  1
  Y  Y5  1  0.521903  0.043786  0.693075  1
  Y  Y6  1  0.521903  0.478118  0.693075  1
  Co  Co7  1  0.167816  0.832178  0.803511  1
  Co  Co8  1  0.664359  0.832179  0.803535  1
  Co  Co9  1  0.167816  0.335638  0.803511  1
  Co  Co10  1  0.832220  0.167928  0.196479  1
  Co  Co11  1  0.335679  0.167840  0.196435  1
  Co  Co12  1  0.832220  0.664292  0.196479  1
  Ag  Ag13  1  0.000005  0.000002  0.500000  1
  Sn  Sn14  1  0.113791  0.886392  0.276165  1
  Sn  Sn15  1  0.772529  0.886265  0.276139  1
  Sn  Sn16  1  0.113791  0.227398  0.276165  1
  Sn  Sn17  1  0.886294  0.113757  0.723857  1
  Sn  Sn18  1  0.227475  0.113737  0.723871  1
  Sn  Sn19  1  0.886294  0.772538  0.723857  1
  Sn  Sn20  1  0.345986  0.000026  0.999983  1
  Sn  Sn21  1  0.653966  0.654042  0.999991  1
  Sn  Sn22  1  0.000079  0.346077  0.999987  1
  Sn  Sn23  1  0.345986  0.345960  0.999983  1
  Sn  Sn24  1  0.000079  0.654002  0.999987  1
  Sn  Sn25  1  0.653966  0.999923  0.999991  1
  Sn  Sn26  1  0.783238  0.566797  0.452548  1
  Sn  Sn27  1  0.783238  0.216441  0.452548  1
  Sn  Sn28  1  0.433180  0.216589  0.452346  1
  Sn  Sn29  1  0.216615  0.433258  0.547615  1
  Sn  Sn30  1  0.216615  0.783358  0.547615  1
  Sn  Sn31  1  0.566785  0.783393  0.547645  1
  Sn  Sn32  1  0.666663  0.333331  0.182175  1
  Sn  Sn33  1  0.333271  0.666636  0.817880  1
  Sn  Sn34  1  0.666576  0.333288  0.884524  1
  Sn  Sn35  1  0.333577  0.666789  0.115386  1
