# generated using pymatgen
data_CaPrAl20OsRh3
_symmetry_space_group_name_H-M   'P 1'
_cell_length_a   6.89340405
_cell_length_b   6.89392563
_cell_length_c   9.17605126
_cell_angle_alpha   90.13609204
_cell_angle_beta   90.18674055
_cell_angle_gamma   97.23526314
_symmetry_Int_Tables_number   1
_chemical_formula_structural   CaPrAl20OsRh3
_chemical_formula_sum   'Ca1 Pr1 Al20 Os1 Rh3'
_cell_volume   432.59368551
_cell_formula_units_Z   1
loop_
 _symmetry_equiv_pos_site_id
 _symmetry_equiv_pos_as_xyz
  1  'x, y, z'
loop_
 _atom_site_type_symbol
 _atom_site_label
 _atom_site_symmetry_multiplicity
 _atom_site_fract_x
 _atom_site_fract_y
 _atom_site_fract_z
 _atom_site_occupancy
  Ca  Ca0  1  0.871049  0.126203  0.749695  1
  Pr  Pr1  1  0.125868  0.876258  0.249658  1
  Al  Al2  1  0.620943  0.376216  0.549927  1
  Al  Al3  1  0.380353  0.622176  0.450871  1
  Al  Al4  1  0.380037  0.620712  0.050913  1
  Al  Al5  1  0.621643  0.377747  0.948205  1
  Al  Al6  1  0.223663  0.224483  0.500938  1
  Al  Al7  1  0.775528  0.777518  0.501854  1
  Al  Al8  1  0.773250  0.775091  0.997356  1
  Al  Al9  1  0.225192  0.226216  0.999339  1
  Al  Al10  1  0.841497  0.158781  0.102401  1
  Al  Al11  1  0.158927  0.840635  0.895144  1
  Al  Al12  1  0.158735  0.841623  0.603281  1
  Al  Al13  1  0.841409  0.157623  0.399259  1
  Al  Al14  1  0.855571  0.585748  0.749500  1
  Al  Al15  1  0.142664  0.409922  0.250612  1
  Al  Al16  1  0.413583  0.143482  0.749836  1
  Al  Al17  1  0.591156  0.858086  0.250198  1
  Al  Al18  1  0.224316  0.480242  0.749892  1
  Al  Al19  1  0.774261  0.517671  0.250310  1
  Al  Al20  1  0.519744  0.777989  0.746680  1
  Al  Al21  1  0.482755  0.223974  0.253413  1
  Os  Os22  1  0.498807  0.999585  0.500127  1
  Rh  Rh23  1  0.000010  0.500902  0.500180  1
  Rh  Rh24  1  0.000191  0.501152  0.000374  1
  Rh  Rh25  1  0.498849  0.999965  0.000036  1
