# generated using pymatgen
data_HfZr7In4Pd3Au5
_symmetry_space_group_name_H-M   'P 1'
_cell_length_a   7.58052411
_cell_length_b   7.57029090
_cell_length_c   7.09677316
_cell_angle_alpha   89.93235638
_cell_angle_beta   89.92763474
_cell_angle_gamma   90.23850099
_symmetry_Int_Tables_number   1
_chemical_formula_structural   HfZr7In4Pd3Au5
_chemical_formula_sum   'Hf1 Zr7 In4 Pd3 Au5'
_cell_volume   407.25676788
_cell_formula_units_Z   1
loop_
 _symmetry_equiv_pos_site_id
 _symmetry_equiv_pos_as_xyz
  1  'x, y, z'
loop_
 _atom_site_type_symbol
 _atom_site_label
 _atom_site_symmetry_multiplicity
 _atom_site_fract_x
 _atom_site_fract_y
 _atom_site_fract_z
 _atom_site_occupancy
  Hf  Hf0  1  0.195034  0.185924  0.503660  1
  Zr  Zr1  1  0.152959  0.141292  0.996188  1
  Zr  Zr2  1  0.862600  0.850348  0.000693  1
  Zr  Zr3  1  0.639664  0.351686  0.503751  1
  Zr  Zr4  1  0.343973  0.647947  0.503931  1
  Zr  Zr5  1  0.689612  0.306912  0.996817  1
  Zr  Zr6  1  0.301946  0.695086  0.997587  1
  Zr  Zr7  1  0.816428  0.806969  0.500270  1
  In  In8  1  0.496664  0.998309  0.251270  1
  In  In9  1  0.496124  0.003294  0.749792  1
  In  In10  1  0.999838  0.503545  0.251486  1
  In  In11  1  0.005196  0.501858  0.749688  1
  Pd  Pd12  1  0.366415  0.368726  0.789598  1
  Pd  Pd13  1  0.132967  0.871676  0.292414  1
  Pd  Pd14  1  0.132188  0.871419  0.706483  1
  Au  Au15  1  0.366059  0.369617  0.207277  1
  Au  Au16  1  0.627543  0.631287  0.792445  1
  Au  Au17  1  0.628524  0.631820  0.209066  1
  Au  Au18  1  0.873045  0.130448  0.706174  1
  Au  Au19  1  0.873219  0.131838  0.291411  1
