# generated using pymatgen
data_Pr2(Si2Pd7)3
_symmetry_space_group_name_H-M   'P 1'
_cell_length_a   8.72206537
_cell_length_b   8.72206525
_cell_length_c   8.72206600
_cell_angle_alpha   59.99999716
_cell_angle_beta   59.99999760
_cell_angle_gamma   59.99999358
_symmetry_Int_Tables_number   1
_chemical_formula_structural   Pr2(Si2Pd7)3
_chemical_formula_sum   'Pr2 Si6 Pd21'
_cell_volume   469.18379216
_cell_formula_units_Z   1
loop_
 _symmetry_equiv_pos_site_id
 _symmetry_equiv_pos_as_xyz
  1  'x, y, z'
loop_
 _atom_site_type_symbol
 _atom_site_label
 _atom_site_symmetry_multiplicity
 _atom_site_fract_x
 _atom_site_fract_y
 _atom_site_fract_z
 _atom_site_occupancy
  Pr  Pr0  1  0.750000  0.750000  0.750000  1
  Pr  Pr1  1  0.250000  0.250000  0.250000  1
  Si  Si2  1  0.735645  0.735645  0.264355  1
  Si  Si3  1  0.264355  0.735645  0.264355  1
  Si  Si4  1  0.735645  0.264355  0.264355  1
  Si  Si5  1  0.264355  0.264355  0.735645  1
  Si  Si6  1  0.735645  0.264355  0.735645  1
  Si  Si7  1  0.264355  0.735645  0.735645  1
  Pd  Pd8  1  0.000000  0.000000  0.000000  1
  Pd  Pd9  1  0.614230  0.614230  0.157311  1
  Pd  Pd10  1  0.614230  0.157311  0.614230  1
  Pd  Pd11  1  0.157311  0.614230  0.614230  1
  Pd  Pd12  1  0.614230  0.614230  0.614230  1
  Pd  Pd13  1  0.385770  0.385770  0.842689  1
  Pd  Pd14  1  0.385770  0.842689  0.385770  1
  Pd  Pd15  1  0.842689  0.385770  0.385770  1
  Pd  Pd16  1  0.385770  0.385770  0.385770  1
  Pd  Pd17  1  0.000000  0.000000  0.344187  1
  Pd  Pd18  1  0.655813  0.000000  0.344187  1
  Pd  Pd19  1  0.000000  0.655813  0.344187  1
  Pd  Pd20  1  0.655813  0.344187  0.000000  1
  Pd  Pd21  1  0.000000  0.344187  0.000000  1
  Pd  Pd22  1  0.000000  0.344187  0.655813  1
  Pd  Pd23  1  0.344187  0.655813  0.000000  1
  Pd  Pd24  1  0.344187  0.000000  0.655813  1
  Pd  Pd25  1  0.344187  0.000000  0.000000  1
  Pd  Pd26  1  0.000000  0.000000  0.655813  1
  Pd  Pd27  1  0.000000  0.655813  0.000000  1
  Pd  Pd28  1  0.655813  0.000000  0.000000  1
