# generated using pymatgen
data_Sr2Os2RuO9
_symmetry_space_group_name_H-M   'P 1'
_cell_length_a   7.99234175
_cell_length_b   8.03680102
_cell_length_c   8.01026004
_cell_angle_alpha   109.43397210
_cell_angle_beta   109.34651675
_cell_angle_gamma   109.66163586
_symmetry_Int_Tables_number   1
_chemical_formula_structural   Sr2Os2RuO9
_chemical_formula_sum   'Sr4 Os4 Ru2 O18'
_cell_volume   395.93756771
_cell_formula_units_Z   2
loop_
 _symmetry_equiv_pos_site_id
 _symmetry_equiv_pos_as_xyz
  1  'x, y, z'
loop_
 _atom_site_type_symbol
 _atom_site_label
 _atom_site_symmetry_multiplicity
 _atom_site_fract_x
 _atom_site_fract_y
 _atom_site_fract_z
 _atom_site_occupancy
  Sr  Sr0  1  0.994755  0.993321  0.389578  1
  Sr  Sr1  1  0.001295  0.395459  0.001719  1
  Sr  Sr2  1  0.608298  0.609214  0.602319  1
  Sr  Sr3  1  0.395268  0.002534  0.004995  1
  Os  Os4  1  0.366698  0.501526  0.868486  1
  Os  Os5  1  0.863888  0.363309  0.495343  1
  Os  Os6  1  0.501233  0.133226  0.636048  1
  Os  Os7  1  0.133554  0.631243  0.496538  1
  Ru  Ru8  1  0.502971  0.865831  0.367106  1
  Ru  Ru9  1  0.634916  0.501458  0.136526  1
  O  O10  1  0.331723  0.005538  0.338925  1
  O  O11  1  0.324817  0.332731  0.996916  1
  O  O12  1  0.999033  0.667770  0.667684  1
  O  O13  1  0.664777  0.670264  0.996206  1
  O  O14  1  0.998724  0.327502  0.325271  1
  O  O15  1  0.671440  0.006072  0.676028  1
  O  O16  1  0.364712  0.298429  0.642673  1
  O  O17  1  0.064367  0.339134  0.696623  1
  O  O18  1  0.725927  0.361896  0.661624  1
  O  O19  1  0.358805  0.657704  0.723874  1
  O  O20  1  0.274515  0.933446  0.637700  1
  O  O21  1  0.635690  0.364677  0.303864  1
  O  O22  1  0.300427  0.633072  0.365168  1
  O  O23  1  0.701655  0.066684  0.333723  1
  O  O24  1  0.940531  0.634848  0.272373  1
  O  O25  1  0.673070  0.734204  0.369028  1
  O  O26  1  0.632998  0.271342  0.932960  1
  O  O27  1  0.333917  0.697564  0.060699  1
