# generated using pymatgen
data_HoLu11(Si3Ir)4
_symmetry_space_group_name_H-M   'P 1'
_cell_length_a   4.18049500
_cell_length_b   10.46909138
_cell_length_c   12.06301044
_cell_angle_alpha   89.96907817
_cell_angle_beta   90.00000000
_cell_angle_gamma   90.00000000
_symmetry_Int_Tables_number   1
_chemical_formula_structural   HoLu11(Si3Ir)4
_chemical_formula_sum   'Ho1 Lu11 Si12 Ir4'
_cell_volume   527.94944708
_cell_formula_units_Z   1
loop_
 _symmetry_equiv_pos_site_id
 _symmetry_equiv_pos_as_xyz
  1  'x, y, z'
loop_
 _atom_site_type_symbol
 _atom_site_label
 _atom_site_symmetry_multiplicity
 _atom_site_fract_x
 _atom_site_fract_y
 _atom_site_fract_z
 _atom_site_occupancy
  Ho  Ho0  1  0.250000  0.878627  0.019604  1
  Lu  Lu1  1  0.250000  0.621247  0.519597  1
  Lu  Lu2  1  0.750000  0.121640  0.980449  1
  Lu  Lu3  1  0.750000  0.378801  0.480441  1
  Lu  Lu4  1  0.250000  0.919830  0.603056  1
  Lu  Lu5  1  0.250000  0.579638  0.103273  1
  Lu  Lu6  1  0.750000  0.080225  0.397006  1
  Lu  Lu7  1  0.750000  0.419839  0.896907  1
  Lu  Lu8  1  0.250000  0.658818  0.799817  1
  Lu  Lu9  1  0.250000  0.840866  0.300499  1
  Lu  Lu10  1  0.750000  0.341074  0.199962  1
  Lu  Lu11  1  0.750000  0.159063  0.699879  1
  Si  Si12  1  0.250000  0.013236  0.820419  1
  Si  Si13  1  0.250000  0.487357  0.321544  1
  Si  Si14  1  0.750000  0.987765  0.179022  1
  Si  Si15  1  0.750000  0.512667  0.678547  1
  Si  Si16  1  0.250000  0.248385  0.840984  1
  Si  Si17  1  0.250000  0.251951  0.341304  1
  Si  Si18  1  0.750000  0.751268  0.159388  1
  Si  Si19  1  0.750000  0.748218  0.658670  1
  Si  Si20  1  0.250000  0.196846  0.544216  1
  Si  Si21  1  0.250000  0.303202  0.044284  1
  Si  Si22  1  0.750000  0.803191  0.455740  1
  Si  Si23  1  0.750000  0.695736  0.955513  1
  Ir  Ir24  1  0.250000  0.390281  0.678341  1
  Ir  Ir25  1  0.250000  0.110288  0.178765  1
  Ir  Ir26  1  0.750000  0.609717  0.321792  1
  Ir  Ir27  1  0.750000  0.890223  0.820979  1
