# generated using pymatgen
data_Ho16Lu4Sn3Pb13
_symmetry_space_group_name_H-M   'P 1'
_cell_length_a   8.13300494
_cell_length_b   15.52206100
_cell_length_c   8.18316275
_cell_angle_alpha   90.00000000
_cell_angle_beta   89.88594681
_cell_angle_gamma   90.00000000
_symmetry_Int_Tables_number   1
_chemical_formula_structural   Ho16Lu4Sn3Pb13
_chemical_formula_sum   'Ho16 Lu4 Sn3 Pb13'
_cell_volume   1033.04859189
_cell_formula_units_Z   1
loop_
 _symmetry_equiv_pos_site_id
 _symmetry_equiv_pos_as_xyz
  1  'x, y, z'
loop_
 _atom_site_type_symbol
 _atom_site_label
 _atom_site_symmetry_multiplicity
 _atom_site_fract_x
 _atom_site_fract_y
 _atom_site_fract_z
 _atom_site_occupancy
  Ho  Ho0  1  0.620697  0.623178  0.161523  1
  Ho  Ho1  1  0.121427  0.877016  0.338182  1
  Ho  Ho2  1  0.381183  0.122233  0.838020  1
  Ho  Ho3  1  0.876781  0.378829  0.659421  1
  Ho  Ho4  1  0.381183  0.377767  0.838020  1
  Ho  Ho5  1  0.876781  0.121171  0.659421  1
  Ho  Ho6  1  0.620697  0.876822  0.161523  1
  Ho  Ho7  1  0.121427  0.622984  0.338182  1
  Ho  Ho8  1  0.462820  0.601522  0.672597  1
  Ho  Ho9  1  0.963219  0.898475  0.827726  1
  Ho  Ho10  1  0.536961  0.100735  0.327413  1
  Ho  Ho11  1  0.036634  0.400188  0.175879  1
  Ho  Ho12  1  0.536961  0.399265  0.327413  1
  Ho  Ho13  1  0.036634  0.099812  0.175879  1
  Ho  Ho14  1  0.462820  0.898478  0.672597  1
  Ho  Ho15  1  0.963219  0.601525  0.827726  1
  Lu  Lu16  1  0.788644  0.750000  0.492583  1
  Lu  Lu17  1  0.288357  0.750000  0.007371  1
  Lu  Lu18  1  0.212342  0.250000  0.505566  1
  Lu  Lu19  1  0.709150  0.250000  0.993336  1
  Sn  Sn20  1  0.425481  0.750000  0.375953  1
  Sn  Sn21  1  0.925676  0.750000  0.124660  1
  Sn  Sn22  1  0.574822  0.250000  0.623945  1
  Pb  Pb23  1  0.718043  0.457900  0.967993  1
  Pb  Pb24  1  0.218075  0.042096  0.532772  1
  Pb  Pb25  1  0.282485  0.957597  0.031921  1
  Pb  Pb26  1  0.782091  0.542811  0.466643  1
  Pb  Pb27  1  0.282485  0.542403  0.031921  1
  Pb  Pb28  1  0.782091  0.957189  0.466643  1
  Pb  Pb29  1  0.718043  0.042100  0.967993  1
  Pb  Pb30  1  0.218075  0.457904  0.532772  1
  Pb  Pb31  1  0.072742  0.250000  0.875203  1
  Pb  Pb32  1  0.651866  0.750000  0.846472  1
  Pb  Pb33  1  0.152122  0.750000  0.653675  1
  Pb  Pb34  1  0.349574  0.250000  0.154725  1
  Pb  Pb35  1  0.848396  0.250000  0.346332  1
