# generated using pymatgen
data_Pr6H11
_symmetry_space_group_name_H-M   'P 1'
_cell_length_a   9.40083262
_cell_length_b   10.34653500
_cell_length_c   16.97131069
_cell_angle_alpha   87.66728012
_cell_angle_beta   86.02743966
_cell_angle_gamma   70.46189631
_symmetry_Int_Tables_number   1
_chemical_formula_structural   Pr6H11
_chemical_formula_sum   'Pr6 H11'
_cell_volume   1551.67423801
_cell_formula_units_Z   1
loop_
 _symmetry_equiv_pos_site_id
 _symmetry_equiv_pos_as_xyz
  1  'x, y, z'
loop_
 _atom_site_type_symbol
 _atom_site_label
 _atom_site_symmetry_multiplicity
 _atom_site_fract_x
 _atom_site_fract_y
 _atom_site_fract_z
 _atom_site_occupancy
  Pr  Pr0  1  0.269496  0.068187  0.973434  1
  Pr  Pr1  1  0.257343  0.417081  0.550918  1
  Pr  Pr2  1  0.206433  0.005545  0.932895  1
  Pr  Pr3  1  0.402490  0.984598  0.979223  1
  Pr  Pr4  1  0.141959  0.323575  0.361726  1
  Pr  Pr5  1  0.614839  0.592542  0.038923  1
  H  H6  1  0.066750  0.123084  0.196367  1
  H  H7  1  0.027196  0.361077  0.147997  1
  H  H8  1  0.057422  0.070646  0.772145  1
  H  H9  1  0.917383  0.432522  0.858516  1
  H  H10  1  0.349255  0.782478  0.120575  1
  H  H11  1  0.413806  0.992479  0.445161  1
  H  H12  1  0.653109  0.609010  0.179350  1
  H  H13  1  0.543457  0.691229  0.312786  1
  H  H14  1  0.535605  0.964767  0.217595  1
  H  H15  1  0.273800  0.762308  0.956687  1
  H  H16  1  0.018922  0.614290  0.602617  1
