# generated using pymatgen
data_Tb2Dy3Co14P12Ru5
_symmetry_space_group_name_H-M   'P 1'
_cell_length_a   12.10679703
_cell_length_b   12.10206224
_cell_length_c   3.73570200
_cell_angle_alpha   90.00000000
_cell_angle_beta   90.00000000
_cell_angle_gamma   119.91627529
_symmetry_Int_Tables_number   1
_chemical_formula_structural   Tb2Dy3Co14P12Ru5
_chemical_formula_sum   'Tb2 Dy3 Co14 P12 Ru5'
_cell_volume   474.41376547
_cell_formula_units_Z   1
loop_
 _symmetry_equiv_pos_site_id
 _symmetry_equiv_pos_as_xyz
  1  'x, y, z'
loop_
 _atom_site_type_symbol
 _atom_site_label
 _atom_site_symmetry_multiplicity
 _atom_site_fract_x
 _atom_site_fract_y
 _atom_site_fract_z
 _atom_site_occupancy
  Tb  Tb0  1  0.662616  0.333892  0.000000  1
  Tb  Tb1  1  0.333147  0.666372  0.000000  1
  Dy  Dy2  1  0.185311  0.183956  0.500000  1
  Dy  Dy3  1  0.817654  0.000222  0.500000  1
  Dy  Dy4  1  0.000214  0.818837  0.500000  1
  Co  Co5  1  0.827681  0.198769  0.000000  1
  Co  Co6  1  0.801145  0.628595  0.000000  1
  Co  Co7  1  0.374286  0.178328  0.000000  1
  Co  Co8  1  0.194666  0.819700  0.000000  1
  Co  Co9  1  0.623858  0.803408  0.000000  1
  Co  Co10  1  0.181071  0.374463  0.000000  1
  Co  Co11  1  0.479687  0.358113  0.500000  1
  Co  Co12  1  0.130934  0.644212  0.500000  1
  Co  Co13  1  0.513696  0.869339  0.500000  1
  Co  Co14  1  0.356933  0.483533  0.500000  1
  Co  Co15  1  0.715942  0.718048  0.500000  1
  Co  Co16  1  0.281130  0.998079  0.500000  1
  Co  Co17  1  0.002788  0.283010  0.500000  1
  Co  Co18  1  0.999564  0.999279  0.000000  1
  P  P19  1  0.362856  0.362587  0.000000  1
  P  P20  1  0.634120  0.995281  0.000000  1
  P  P21  1  0.004362  0.639547  0.000000  1
  P  P22  1  0.838868  0.313916  0.500000  1
  P  P23  1  0.681599  0.522231  0.500000  1
  P  P24  1  0.473594  0.166259  0.500000  1
  P  P25  1  0.312740  0.834709  0.500000  1
  P  P26  1  0.520646  0.685872  0.500000  1
  P  P27  1  0.167092  0.477998  0.500000  1
  P  P28  1  0.819260  0.821323  0.000000  1
  P  P29  1  0.179650  0.999932  0.000000  1
  P  P30  1  0.002395  0.179552  0.000000  1
  Ru  Ru31  1  0.551381  0.553359  0.000000  1
  Ru  Ru32  1  0.441159  0.991587  0.000000  1
  Ru  Ru33  1  0.009111  0.450561  0.000000  1
  Ru  Ru34  1  0.642541  0.123961  0.500000  1
  Ru  Ru35  1  0.876306  0.521168  0.500000  1
