# generated using pymatgen
data_Er8Tm4InCo4Ru
_symmetry_space_group_name_H-M   'P 1'
_cell_length_a   8.21179135
_cell_length_b   8.21179284
_cell_length_c   8.21179330
_cell_angle_alpha   111.23947419
_cell_angle_beta   110.87998508
_cell_angle_gamma   106.33909561
_symmetry_Int_Tables_number   1
_chemical_formula_structural   Er8Tm4InCo4Ru
_chemical_formula_sum   'Er8 Tm4 In1 Co4 Ru1'
_cell_volume   425.32391858
_cell_formula_units_Z   1
loop_
 _symmetry_equiv_pos_site_id
 _symmetry_equiv_pos_as_xyz
  1  'x, y, z'
loop_
 _atom_site_type_symbol
 _atom_site_label
 _atom_site_symmetry_multiplicity
 _atom_site_fract_x
 _atom_site_fract_y
 _atom_site_fract_z
 _atom_site_occupancy
  Er  Er0  1  0.413992  0.220362  0.193629  1
  Er  Er1  1  0.586008  0.779638  0.806371  1
  Er  Er2  1  0.026733  0.220362  0.806371  1
  Er  Er3  1  0.973267  0.779638  0.193629  1
  Er  Er4  1  0.183845  0.282848  0.466694  1
  Er  Er5  1  0.816155  0.717152  0.533306  1
  Er  Er6  1  0.183845  0.717152  0.900997  1
  Er  Er7  1  0.816155  0.282848  0.099003  1
  Tm  Tm8  1  0.314363  0.621076  0.306713  1
  Tm  Tm9  1  0.685637  0.378924  0.693287  1
  Tm  Tm10  1  0.314363  0.007650  0.693287  1
  Tm  Tm11  1  0.685637  0.992350  0.306713  1
  In  In12  1  0.500000  0.500000  0.000000  1
  Co  Co13  1  0.376125  0.000000  0.376125  1
  Co  Co14  1  0.623875  0.000000  0.623875  1
  Co  Co15  1  0.111890  0.611890  0.500000  1
  Co  Co16  1  0.888110  0.388110  0.500000  1
  Ru  Ru17  1  0.000000  0.000000  0.000000  1
