# generated using pymatgen
data_Nd2B4Ir3Ru
_symmetry_space_group_name_H-M   'P 1'
_cell_length_a   7.00232501
_cell_length_b   6.09025492
_cell_length_c   5.60289607
_cell_angle_alpha   73.44031551
_cell_angle_beta   56.47794951
_cell_angle_gamma   50.18590343
_symmetry_Int_Tables_number   1
_chemical_formula_structural   Nd2B4Ir3Ru
_chemical_formula_sum   'Nd2 B4 Ir3 Ru1'
_cell_volume   152.12920238
_cell_formula_units_Z   1
loop_
 _symmetry_equiv_pos_site_id
 _symmetry_equiv_pos_as_xyz
  1  'x, y, z'
loop_
 _atom_site_type_symbol
 _atom_site_label
 _atom_site_symmetry_multiplicity
 _atom_site_fract_x
 _atom_site_fract_y
 _atom_site_fract_z
 _atom_site_occupancy
  Nd  Nd0  1  0.996097  0.996097  0.003903  1
  Nd  Nd1  1  0.249654  0.249654  0.250346  1
  B  B2  1  0.320958  0.675759  0.317542  1
  B  B3  1  0.675759  0.320958  0.685741  1
  B  B4  1  0.577396  0.928152  0.566211  1
  B  B5  1  0.928152  0.577396  0.928240  1
  Ir  Ir6  1  0.631802  0.631802  0.368198  1
  Ir  Ir7  1  0.366801  0.366801  0.633199  1
  Ir  Ir8  1  0.619097  0.619097  0.880903  1
  Ru  Ru9  1  0.884283  0.884283  0.615717  1
