# generated using pymatgen
data_Li2YbYPd2
_symmetry_space_group_name_H-M   'P 1'
_cell_length_a   4.14327500
_cell_length_b   7.04978600
_cell_length_c   8.40260000
_cell_angle_alpha   90.00000000
_cell_angle_beta   90.00000000
_cell_angle_gamma   90.00000000
_symmetry_Int_Tables_number   1
_chemical_formula_structural   Li2YbYPd2
_chemical_formula_sum   'Li4 Yb2 Y2 Pd4'
_cell_volume   245.43324147
_cell_formula_units_Z   2
loop_
 _symmetry_equiv_pos_site_id
 _symmetry_equiv_pos_as_xyz
  1  'x, y, z'
loop_
 _atom_site_type_symbol
 _atom_site_label
 _atom_site_symmetry_multiplicity
 _atom_site_fract_x
 _atom_site_fract_y
 _atom_site_fract_z
 _atom_site_occupancy
  Li  Li0  1  0.250000  0.135823  0.937857  1
  Li  Li1  1  0.250000  0.635823  0.562143  1
  Li  Li2  1  0.750000  0.864239  0.055198  1
  Li  Li3  1  0.750000  0.364239  0.444802  1
  Yb  Yb4  1  0.750000  0.966845  0.682247  1
  Yb  Yb5  1  0.750000  0.466845  0.817753  1
  Y  Y6  1  0.250000  0.034979  0.316974  1
  Y  Y7  1  0.250000  0.534979  0.183026  1
  Pd  Pd8  1  0.250000  0.253904  0.616737  1
  Pd  Pd9  1  0.250000  0.753904  0.883263  1
  Pd  Pd10  1  0.750000  0.744209  0.372523  1
  Pd  Pd11  1  0.750000  0.244209  0.127477  1
