# generated using pymatgen
data_Mg2Si(PRu2)6
_symmetry_space_group_name_H-M   'P 1'
_cell_length_a   9.42987700
_cell_length_b   9.42987595
_cell_length_c   3.88264200
_cell_angle_alpha   90.00000000
_cell_angle_beta   90.00000000
_cell_angle_gamma   119.99999547
_symmetry_Int_Tables_number   1
_chemical_formula_structural   Mg2Si(PRu2)6
_chemical_formula_sum   'Mg2 Si1 P6 Ru12'
_cell_volume   298.99918690
_cell_formula_units_Z   1
loop_
 _symmetry_equiv_pos_site_id
 _symmetry_equiv_pos_as_xyz
  1  'x, y, z'
loop_
 _atom_site_type_symbol
 _atom_site_label
 _atom_site_symmetry_multiplicity
 _atom_site_fract_x
 _atom_site_fract_y
 _atom_site_fract_z
 _atom_site_occupancy
  Mg  Mg0  1  0.666667  0.333333  0.500000  1
  Mg  Mg1  1  0.333333  0.666667  0.000000  1
  Si  Si2  1  0.000000  0.000000  0.000000  1
  P  P3  1  0.606090  0.709082  0.500000  1
  P  P4  1  0.290918  0.897008  0.500000  1
  P  P5  1  0.102992  0.393910  0.500000  1
  P  P6  1  0.907551  0.599343  0.000000  1
  P  P7  1  0.400657  0.308207  0.000000  1
  P  P8  1  0.691793  0.092449  0.000000  1
  Ru  Ru9  1  0.548381  0.935544  0.500000  1
  Ru  Ru10  1  0.387165  0.451619  0.500000  1
  Ru  Ru11  1  0.900911  0.114716  0.500000  1
  Ru  Ru12  1  0.213805  0.099089  0.500000  1
  Ru  Ru13  1  0.885284  0.786195  0.500000  1
  Ru  Ru14  1  0.717740  0.863820  0.000000  1
  Ru  Ru15  1  0.136180  0.853919  0.000000  1
  Ru  Ru16  1  0.146081  0.282260  0.000000  1
  Ru  Ru17  1  0.447973  0.092605  0.000000  1
  Ru  Ru18  1  0.907395  0.355369  0.000000  1
  Ru  Ru19  1  0.644631  0.552027  0.000000  1
  Ru  Ru20  1  0.064456  0.612835  0.500000  1
