# generated using pymatgen
data_Ca2Si(S2O7)4
_symmetry_space_group_name_H-M   'P 1'
_cell_length_a   12.84462100
_cell_length_b   6.96792229
_cell_length_c   13.27823300
_cell_angle_alpha   65.69296321
_cell_angle_beta   90.00000000
_cell_angle_gamma   90.00000000
_symmetry_Int_Tables_number   1
_chemical_formula_structural   Ca2Si(S2O7)4
_chemical_formula_sum   'Ca4 Si2 S16 O56'
_cell_volume   1083.05715742
_cell_formula_units_Z   2
loop_
 _symmetry_equiv_pos_site_id
 _symmetry_equiv_pos_as_xyz
  1  'x, y, z'
loop_
 _atom_site_type_symbol
 _atom_site_label
 _atom_site_symmetry_multiplicity
 _atom_site_fract_x
 _atom_site_fract_y
 _atom_site_fract_z
 _atom_site_occupancy
  Ca  Ca0  1  0.632378  0.637233  0.157942  1
  Ca  Ca1  1  0.867622  0.637233  0.657942  1
  Ca  Ca2  1  0.367622  0.362767  0.842058  1
  Ca  Ca3  1  0.132378  0.362767  0.342058  1
  Si  Si4  1  0.500000  0.000000  0.500000  1
  Si  Si5  1  0.000000  0.000000  0.000000  1
  S  S6  1  0.529350  0.181091  0.103378  1
  S  S7  1  0.970650  0.181091  0.603378  1
  S  S8  1  0.470650  0.818909  0.896622  1
  S  S9  1  0.029350  0.818909  0.396622  1
  S  S10  1  0.413950  0.264868  0.271963  1
  S  S11  1  0.086050  0.264868  0.771963  1
  S  S12  1  0.586050  0.735132  0.728037  1
  S  S13  1  0.913950  0.735132  0.228037  1
  S  S14  1  0.718993  0.129462  0.407885  1
  S  S15  1  0.781007  0.129462  0.907885  1
  S  S16  1  0.281007  0.870538  0.592115  1
  S  S17  1  0.218993  0.870538  0.092115  1
  S  S18  1  0.649334  0.718710  0.440552  1
  S  S19  1  0.850666  0.718710  0.940552  1
  S  S20  1  0.350666  0.281290  0.559448  1
  S  S21  1  0.149334  0.281290  0.059448  1
  O  O22  1  0.474425  0.079259  0.356900  1
  O  O23  1  0.025575  0.079259  0.856900  1
  O  O24  1  0.525575  0.920741  0.643100  1
  O  O25  1  0.974425  0.920741  0.143100  1
  O  O26  1  0.604960  0.312128  0.126182  1
  O  O27  1  0.895040  0.312128  0.626182  1
  O  O28  1  0.395040  0.687872  0.873818  1
  O  O29  1  0.104960  0.687872  0.373818  1
  O  O30  1  0.621053  0.139175  0.469913  1
  O  O31  1  0.878947  0.139175  0.969913  1
  O  O32  1  0.378947  0.860825  0.530087  1
  O  O33  1  0.121053  0.860825  0.030087  1
  O  O34  1  0.414649  0.206502  0.169454  1
  O  O35  1  0.085351  0.206502  0.669454  1
  O  O36  1  0.585351  0.793498  0.830546  1
  O  O37  1  0.914649  0.793498  0.330546  1
  O  O38  1  0.548869  0.957189  0.156834  1
  O  O39  1  0.951131  0.957189  0.656834  1
  O  O40  1  0.451131  0.042811  0.843166  1
  O  O41  1  0.048869  0.042811  0.343166  1
  O  O42  1  0.305597  0.256335  0.301494  1
  O  O43  1  0.194403  0.256335  0.801494  1
  O  O44  1  0.694403  0.743665  0.698506  1
  O  O45  1  0.805597  0.743665  0.198506  1
  O  O46  1  0.468725  0.460143  0.247219  1
  O  O47  1  0.031275  0.460143  0.747219  1
  O  O48  1  0.531275  0.539857  0.752781  1
  O  O49  1  0.968725  0.539857  0.252781  1
  O  O50  1  0.804223  0.045870  0.482637  1
  O  O51  1  0.695777  0.045870  0.982637  1
  O  O52  1  0.195777  0.954130  0.517363  1
  O  O53  1  0.304223  0.954130  0.017363  1
  O  O54  1  0.732640  0.319524  0.310316  1
  O  O55  1  0.767360  0.319524  0.810316  1
  O  O56  1  0.267360  0.680476  0.689684  1
  O  O57  1  0.232640  0.680476  0.189684  1
  O  O58  1  0.489726  0.260862  0.991800  1
  O  O59  1  0.010274  0.260862  0.491800  1
  O  O60  1  0.510274  0.739138  0.008200  1
  O  O61  1  0.989726  0.739138  0.508200  1
  O  O62  1  0.689277  0.955181  0.357411  1
  O  O63  1  0.810723  0.955181  0.857411  1
  O  O64  1  0.310723  0.044819  0.642589  1
  O  O65  1  0.189277  0.044819  0.142589  1
  O  O66  1  0.558502  0.764576  0.501413  1
  O  O67  1  0.941498  0.764576  0.001413  1
  O  O68  1  0.441498  0.235424  0.498587  1
  O  O69  1  0.058502  0.235424  0.998587  1
  O  O70  1  0.614750  0.631141  0.366260  1
  O  O71  1  0.885250  0.631141  0.866260  1
  O  O72  1  0.385250  0.368859  0.633740  1
  O  O73  1  0.114750  0.368859  0.133740  1
  O  O74  1  0.731295  0.613716  0.517311  1
  O  O75  1  0.768705  0.613716  0.017311  1
  O  O76  1  0.268705  0.386284  0.482689  1
  O  O77  1  0.231295  0.386284  0.982689  1
