# generated using pymatgen
data_Hf6Ga6NiIr5
_symmetry_space_group_name_H-M   'P 1'
_cell_length_a   7.17557400
_cell_length_b   7.17557381
_cell_length_c   6.83584400
_cell_angle_alpha   90.00000000
_cell_angle_beta   90.00000000
_cell_angle_gamma   120.00001930
_symmetry_Int_Tables_number   1
_chemical_formula_structural   Hf6Ga6NiIr5
_chemical_formula_sum   'Hf6 Ga6 Ni1 Ir5'
_cell_volume   304.81474686
_cell_formula_units_Z   1
loop_
 _symmetry_equiv_pos_site_id
 _symmetry_equiv_pos_as_xyz
  1  'x, y, z'
loop_
 _atom_site_type_symbol
 _atom_site_label
 _atom_site_symmetry_multiplicity
 _atom_site_fract_x
 _atom_site_fract_y
 _atom_site_fract_z
 _atom_site_occupancy
  Hf  Hf0  1  0.398960  0.392561  0.250000  1
  Hf  Hf1  1  0.597934  0.992942  0.750000  1
  Hf  Hf2  1  0.395008  0.402066  0.750000  1
  Hf  Hf3  1  0.007058  0.604992  0.750000  1
  Hf  Hf4  1  0.993601  0.601040  0.250000  1
  Hf  Hf5  1  0.607439  0.006399  0.250000  1
  Ga  Ga6  1  0.263579  0.000687  0.991679  1
  Ga  Ga7  1  0.263579  0.000687  0.508321  1
  Ga  Ga8  1  0.999313  0.262891  0.508321  1
  Ga  Ga9  1  0.999313  0.262891  0.991679  1
  Ga  Ga10  1  0.737109  0.736421  0.991679  1
  Ga  Ga11  1  0.737109  0.736421  0.508321  1
  Ni  Ni12  1  0.000000  0.000000  0.750000  1
  Ir  Ir13  1  0.666667  0.333333  0.510788  1
  Ir  Ir14  1  0.666667  0.333333  0.989212  1
  Ir  Ir15  1  0.333333  0.666667  0.006742  1
  Ir  Ir16  1  0.333333  0.666667  0.493258  1
  Ir  Ir17  1  0.000000  0.000000  0.250000  1
