# generated using pymatgen
data_YbDyTmZn11
_symmetry_space_group_name_H-M   'P 1'
_cell_length_a   4.36196213
_cell_length_b   8.09306125
_cell_length_c   8.09306000
_cell_angle_alpha   66.85389110
_cell_angle_beta   74.36620398
_cell_angle_gamma   74.36621464
_symmetry_Int_Tables_number   1
_chemical_formula_structural   YbDyTmZn11
_chemical_formula_sum   'Yb1 Dy1 Tm1 Zn11'
_cell_volume   248.62905832
_cell_formula_units_Z   1
loop_
 _symmetry_equiv_pos_site_id
 _symmetry_equiv_pos_as_xyz
  1  'x, y, z'
loop_
 _atom_site_type_symbol
 _atom_site_label
 _atom_site_symmetry_multiplicity
 _atom_site_fract_x
 _atom_site_fract_y
 _atom_site_fract_z
 _atom_site_occupancy
  Yb  Yb0  1  0.000131  0.999869  0.999869  1
  Dy  Dy1  1  0.703393  0.296607  0.296607  1
  Tm  Tm2  1  0.296798  0.703202  0.703202  1
  Zn  Zn3  1  0.999648  0.500352  0.500352  1
  Zn  Zn4  1  0.499717  0.684328  0.316238  1
  Zn  Zn5  1  0.499717  0.316238  0.684328  1
  Zn  Zn6  1  0.662498  0.696419  0.978587  1
  Zn  Zn7  1  0.337998  0.303841  0.020162  1
  Zn  Zn8  1  0.662498  0.978587  0.696419  1
  Zn  Zn9  1  0.337998  0.020162  0.303841  1
  Zn  Zn10  1  0.864214  0.419026  0.852543  1
  Zn  Zn11  1  0.135588  0.581422  0.147405  1
  Zn  Zn12  1  0.864214  0.852543  0.419026  1
  Zn  Zn13  1  0.135588  0.147405  0.581422  1
