# generated using pymatgen
data_Tm8Sc12Si15Se
_symmetry_space_group_name_H-M   'P 1'
_cell_length_a   7.11174371
_cell_length_b   7.30615148
_cell_length_c   13.88680333
_cell_angle_alpha   89.88925962
_cell_angle_beta   88.10116918
_cell_angle_gamma   90.08429234
_symmetry_Int_Tables_number   1
_chemical_formula_structural   Tm8Sc12Si15Se
_chemical_formula_sum   'Tm8 Sc12 Si15 Se1'
_cell_volume   721.15262955
_cell_formula_units_Z   1
loop_
 _symmetry_equiv_pos_site_id
 _symmetry_equiv_pos_as_xyz
  1  'x, y, z'
loop_
 _atom_site_type_symbol
 _atom_site_label
 _atom_site_symmetry_multiplicity
 _atom_site_fract_x
 _atom_site_fract_y
 _atom_site_fract_z
 _atom_site_occupancy
  Tm  Tm0  1  0.010656  0.176877  0.097021  1
  Tm  Tm1  1  0.989788  0.824257  0.902564  1
  Tm  Tm2  1  0.489969  0.676980  0.902911  1
  Tm  Tm3  1  0.999118  0.825591  0.596495  1
  Tm  Tm4  1  0.510371  0.323875  0.097054  1
  Tm  Tm5  1  0.994994  0.174121  0.401822  1
  Tm  Tm6  1  0.500379  0.316404  0.401006  1
  Tm  Tm7  1  0.509819  0.683027  0.598870  1
  Sc  Sc8  1  0.168857  0.501448  0.752381  1
  Sc  Sc9  1  0.830766  0.498028  0.253236  1
  Sc  Sc10  1  0.329542  0.001377  0.251732  1
  Sc  Sc11  1  0.670518  0.998435  0.748848  1
  Sc  Sc12  1  0.351236  0.166032  0.626350  1
  Sc  Sc13  1  0.650247  0.829403  0.374732  1
  Sc  Sc14  1  0.149390  0.670115  0.377302  1
  Sc  Sc15  1  0.665664  0.823022  0.125244  1
  Sc  Sc16  1  0.845301  0.331674  0.621678  1
  Sc  Sc17  1  0.333496  0.176313  0.873942  1
  Sc  Sc18  1  0.834413  0.323961  0.874025  1
  Sc  Sc19  1  0.165653  0.676580  0.125270  1
  Si  Si20  1  0.041886  0.117088  0.748623  1
  Si  Si21  1  0.957267  0.883874  0.249562  1
  Si  Si22  1  0.455625  0.614346  0.249718  1
  Si  Si23  1  0.542664  0.386017  0.749473  1
  Si  Si24  1  0.293412  0.867958  0.750531  1
  Si  Si25  1  0.706977  0.128974  0.248186  1
  Si  Si26  1  0.206068  0.370476  0.249715  1
  Si  Si27  1  0.796801  0.630724  0.750302  1
  Si  Si28  1  0.799687  0.539188  0.457430  1
  Si  Si29  1  0.314295  0.960726  0.460443  1
  Si  Si30  1  0.841663  0.534517  0.039220  1
  Si  Si31  1  0.683194  0.039711  0.540574  1
  Si  Si32  1  0.157685  0.466546  0.960329  1
  Si  Si33  1  0.657433  0.034868  0.959722  1
  Si  Si34  1  0.341972  0.966333  0.039913  1
  Se  Se35  1  0.203195  0.461131  0.543773  1
