# generated using pymatgen
data_Nd2Sm3Zr3(Co4As3)4
_symmetry_space_group_name_H-M   'P 1'
_cell_length_a   12.85743900
_cell_length_b   12.85743769
_cell_length_c   3.89397700
_cell_angle_alpha   90.00000000
_cell_angle_beta   90.00000000
_cell_angle_gamma   120.00000594
_symmetry_Int_Tables_number   1
_chemical_formula_structural   Nd2Sm3Zr3(Co4As3)4
_chemical_formula_sum   'Nd2 Sm3 Zr3 Co16 As12'
_cell_volume   557.48461753
_cell_formula_units_Z   1
loop_
 _symmetry_equiv_pos_site_id
 _symmetry_equiv_pos_as_xyz
  1  'x, y, z'
loop_
 _atom_site_type_symbol
 _atom_site_label
 _atom_site_symmetry_multiplicity
 _atom_site_fract_x
 _atom_site_fract_y
 _atom_site_fract_z
 _atom_site_occupancy
  Nd  Nd0  1  0.333333  0.666667  0.000000  1
  Nd  Nd1  1  0.666667  0.333333  0.000000  1
  Sm  Sm2  1  0.183862  0.183862  0.500000  1
  Sm  Sm3  1  0.816138  0.000000  0.500000  1
  Sm  Sm4  1  0.000000  0.816138  0.500000  1
  Zr  Zr5  1  0.563048  0.563048  0.000000  1
  Zr  Zr6  1  0.436952  0.000000  0.000000  1
  Zr  Zr7  1  0.000000  0.436952  0.000000  1
  Co  Co8  1  0.720010  0.720010  0.500000  1
  Co  Co9  1  0.279990  0.000000  0.500000  1
  Co  Co10  1  0.000000  0.279990  0.500000  1
  Co  Co11  1  0.177747  0.373944  0.000000  1
  Co  Co12  1  0.626056  0.803803  0.000000  1
  Co  Co13  1  0.196197  0.822253  0.000000  1
  Co  Co14  1  0.803803  0.626056  0.000000  1
  Co  Co15  1  0.822253  0.196197  0.000000  1
  Co  Co16  1  0.373944  0.177747  0.000000  1
  Co  Co17  1  0.357545  0.478659  0.500000  1
  Co  Co18  1  0.521341  0.878887  0.500000  1
  Co  Co19  1  0.121113  0.642455  0.500000  1
  Co  Co20  1  0.878887  0.521341  0.500000  1
  Co  Co21  1  0.642455  0.121113  0.500000  1
  Co  Co22  1  0.478659  0.357545  0.500000  1
  Co  Co23  1  0.000000  0.000000  0.000000  1
  As  As24  1  0.821419  0.821419  0.000000  1
  As  As25  1  0.178581  0.000000  0.000000  1
  As  As26  1  0.000000  0.178581  0.000000  1
  As  As27  1  0.171549  0.478152  0.500000  1
  As  As28  1  0.521848  0.693397  0.500000  1
  As  As29  1  0.306603  0.828451  0.500000  1
  As  As30  1  0.693397  0.521848  0.500000  1
  As  As31  1  0.828451  0.306603  0.500000  1
  As  As32  1  0.478152  0.171549  0.500000  1
  As  As33  1  0.354892  0.354892  0.000000  1
  As  As34  1  0.645108  0.000000  0.000000  1
  As  As35  1  0.000000  0.645108  0.000000  1
