# generated using pymatgen
data_Ho4Tm4Lu4Co5Bi
_symmetry_space_group_name_H-M   'P 1'
_cell_length_a   8.16835441
_cell_length_b   8.16840428
_cell_length_c   8.16835343
_cell_angle_alpha   110.92827128
_cell_angle_beta   110.81979287
_cell_angle_gamma   106.70040743
_symmetry_Int_Tables_number   1
_chemical_formula_structural   Ho4Tm4Lu4Co5Bi
_chemical_formula_sum   'Ho4 Tm4 Lu4 Co5 Bi1'
_cell_volume   418.82014653
_cell_formula_units_Z   1
loop_
 _symmetry_equiv_pos_site_id
 _symmetry_equiv_pos_as_xyz
  1  'x, y, z'
loop_
 _atom_site_type_symbol
 _atom_site_label
 _atom_site_symmetry_multiplicity
 _atom_site_fract_x
 _atom_site_fract_y
 _atom_site_fract_z
 _atom_site_occupancy
  Ho  Ho0  1  0.285646  0.184014  0.469646  1
  Ho  Ho1  1  0.714354  0.815986  0.530354  1
  Ho  Ho2  1  0.285632  0.815986  0.101632  1
  Ho  Ho3  1  0.714368  0.184014  0.898368  1
  Tm  Tm4  1  0.210101  0.405701  0.195600  1
  Tm  Tm5  1  0.789899  0.594299  0.804400  1
  Tm  Tm6  1  0.210106  0.014512  0.804406  1
  Tm  Tm7  1  0.789894  0.985488  0.195594  1
  Lu  Lu8  1  0.621748  0.311931  0.309804  1
  Lu  Lu9  1  0.378252  0.688069  0.690196  1
  Lu  Lu10  1  0.002127  0.311931  0.690183  1
  Lu  Lu11  1  0.997873  0.688069  0.309817  1
  Co  Co12  1  0.000002  0.375083  0.375081  1
  Co  Co13  1  0.999998  0.624917  0.624919  1
  Co  Co14  1  0.387403  0.887408  0.500005  1
  Co  Co15  1  0.612597  0.112592  0.499995  1
  Co  Co16  1  0.000000  0.000000  0.000000  1
  Bi  Bi17  1  0.500000  0.500000  0.000000  1
