# generated using pymatgen
data_CdFe2(SeO3)4
_symmetry_space_group_name_H-M   'P 1'
_cell_length_a   8.28957100
_cell_length_b   8.22924136
_cell_length_c   8.58382686
_cell_angle_alpha   88.91901294
_cell_angle_beta   90.00000000
_cell_angle_gamma   90.00000000
_symmetry_Int_Tables_number   1
_chemical_formula_structural   CdFe2(SeO3)4
_chemical_formula_sum   'Cd2 Fe4 Se8 O24'
_cell_volume   585.45767695
_cell_formula_units_Z   2
loop_
 _symmetry_equiv_pos_site_id
 _symmetry_equiv_pos_as_xyz
  1  'x, y, z'
loop_
 _atom_site_type_symbol
 _atom_site_label
 _atom_site_symmetry_multiplicity
 _atom_site_fract_x
 _atom_site_fract_y
 _atom_site_fract_z
 _atom_site_occupancy
  Cd  Cd0  1  0.611478  0.343697  0.161890  1
  Cd  Cd1  1  0.388522  0.843697  0.161890  1
  Fe  Fe2  1  0.762796  0.755077  0.996516  1
  Fe  Fe3  1  0.747957  0.240320  0.514633  1
  Fe  Fe4  1  0.237204  0.255077  0.996516  1
  Fe  Fe5  1  0.252043  0.740320  0.514633  1
  Se  Se6  1  0.079930  0.549638  0.190148  1
  Se  Se7  1  0.920070  0.049638  0.190148  1
  Se  Se8  1  0.571927  0.454459  0.812481  1
  Se  Se9  1  0.325587  0.171628  0.413259  1
  Se  Se10  1  0.056865  0.420832  0.684758  1
  Se  Se11  1  0.428073  0.954459  0.812481  1
  Se  Se12  1  0.674413  0.671628  0.413259  1
  Se  Se13  1  0.943135  0.920832  0.684758  1
  O  O14  1  0.968412  0.703833  0.105667  1
  O  O15  1  0.306432  0.019425  0.968803  1
  O  O16  1  0.159748  0.263166  0.779803  1
  O  O17  1  0.688770  0.461725  0.383146  1
  O  O18  1  0.774942  0.166984  0.285016  1
  O  O19  1  0.196340  0.490938  0.034586  1
  O  O20  1  0.217798  0.513068  0.589515  1
  O  O21  1  0.632347  0.734501  0.220365  1
  O  O22  1  0.713435  0.339460  0.722460  1
  O  O23  1  0.311230  0.961725  0.383146  1
  O  O24  1  0.977173  0.310752  0.531291  1
  O  O25  1  0.474436  0.308092  0.928935  1
  O  O26  1  0.840252  0.763166  0.779803  1
  O  O27  1  0.493663  0.693104  0.502631  1
  O  O28  1  0.286565  0.839460  0.722460  1
  O  O29  1  0.225058  0.666984  0.285016  1
  O  O30  1  0.367653  0.234501  0.220365  1
  O  O31  1  0.031588  0.203833  0.105667  1
  O  O32  1  0.022827  0.810752  0.531291  1
  O  O33  1  0.525564  0.808092  0.928935  1
  O  O34  1  0.693568  0.519424  0.968803  1
  O  O35  1  0.782202  0.013068  0.589515  1
  O  O36  1  0.506337  0.193104  0.502631  1
  O  O37  1  0.803660  0.990938  0.034586  1
