# generated using pymatgen
data_TbDy15Cd3Ni4Ag
_symmetry_space_group_name_H-M   'P 1'
_cell_length_a   9.49276300
_cell_length_b   9.49276226
_cell_length_c   9.49216497
_cell_angle_alpha   60.23333362
_cell_angle_beta   60.23333774
_cell_angle_gamma   60.20022708
_symmetry_Int_Tables_number   1
_chemical_formula_structural   TbDy15Cd3Ni4Ag
_chemical_formula_sum   'Tb1 Dy15 Cd3 Ni4 Ag1'
_cell_volume   607.87703553
_cell_formula_units_Z   1
loop_
 _symmetry_equiv_pos_site_id
 _symmetry_equiv_pos_as_xyz
  1  'x, y, z'
loop_
 _atom_site_type_symbol
 _atom_site_label
 _atom_site_symmetry_multiplicity
 _atom_site_fract_x
 _atom_site_fract_y
 _atom_site_fract_z
 _atom_site_occupancy
  Tb  Tb0  1  0.936197  0.936197  0.562391  1
  Dy  Dy1  1  0.346885  0.346885  0.346800  1
  Dy  Dy2  1  0.349983  0.349983  0.950924  1
  Dy  Dy3  1  0.350270  0.950741  0.349896  1
  Dy  Dy4  1  0.950741  0.350270  0.349896  1
  Dy  Dy5  1  0.811938  0.190066  0.189661  1
  Dy  Dy6  1  0.188787  0.811274  0.811482  1
  Dy  Dy7  1  0.190066  0.811938  0.189661  1
  Dy  Dy8  1  0.811274  0.188787  0.811482  1
  Dy  Dy9  1  0.189848  0.189848  0.812105  1
  Dy  Dy10  1  0.811452  0.811452  0.188472  1
  Dy  Dy11  1  0.934590  0.562928  0.563242  1
  Dy  Dy12  1  0.562078  0.936265  0.936533  1
  Dy  Dy13  1  0.562928  0.934590  0.563242  1
  Dy  Dy14  1  0.936265  0.562078  0.936533  1
  Dy  Dy15  1  0.563300  0.563300  0.934553  1
  Cd  Cd16  1  0.581545  0.581545  0.257278  1
  Cd  Cd17  1  0.581277  0.257530  0.581582  1
  Cd  Cd18  1  0.257530  0.581277  0.581582  1
  Ni  Ni19  1  0.143670  0.143670  0.143570  1
  Ni  Ni20  1  0.141981  0.141981  0.572721  1
  Ni  Ni21  1  0.141785  0.572780  0.141839  1
  Ni  Ni22  1  0.572780  0.141785  0.141839  1
  Ag  Ag23  1  0.582826  0.582826  0.582713  1
