# generated using pymatgen
data_HfTiNb6O12
_symmetry_space_group_name_H-M   'P 1'
_cell_length_a   6.77045395
_cell_length_b   6.77045526
_cell_length_c   6.77045497
_cell_angle_alpha   73.70086386
_cell_angle_beta   73.70085669
_cell_angle_gamma   73.70085837
_symmetry_Int_Tables_number   1
_chemical_formula_structural   HfTiNb6O12
_chemical_formula_sum   'Hf1 Ti1 Nb6 O12'
_cell_volume   278.95631108
_cell_formula_units_Z   1
loop_
 _symmetry_equiv_pos_site_id
 _symmetry_equiv_pos_as_xyz
  1  'x, y, z'
loop_
 _atom_site_type_symbol
 _atom_site_label
 _atom_site_symmetry_multiplicity
 _atom_site_fract_x
 _atom_site_fract_y
 _atom_site_fract_z
 _atom_site_occupancy
  Hf  Hf0  1  0.273127  0.273127  0.273127  1
  Ti  Ti1  1  0.725662  0.725662  0.725662  1
  Nb  Nb2  1  0.940776  0.115189  0.709832  1
  Nb  Nb3  1  0.709832  0.940776  0.115189  1
  Nb  Nb4  1  0.115189  0.709832  0.940776  1
  Nb  Nb5  1  0.051535  0.885875  0.293146  1
  Nb  Nb6  1  0.293146  0.051535  0.885875  1
  Nb  Nb7  1  0.885875  0.293146  0.051535  1
  O  O8  1  0.171020  0.584452  0.251493  1
  O  O9  1  0.251493  0.171020  0.584452  1
  O  O10  1  0.584452  0.251493  0.171020  1
  O  O11  1  0.827527  0.429719  0.743625  1
  O  O12  1  0.743625  0.827527  0.429719  1
  O  O13  1  0.429719  0.743625  0.827527  1
  O  O14  1  0.647564  0.030104  0.803135  1
  O  O15  1  0.803135  0.647564  0.030104  1
  O  O16  1  0.964110  0.199195  0.352914  1
  O  O17  1  0.199195  0.352914  0.964110  1
  O  O18  1  0.352914  0.964110  0.199195  1
  O  O19  1  0.030104  0.803135  0.647564  1
