# generated using pymatgen
data_SmPt2(SO4)4
_symmetry_space_group_name_H-M   'P 1'
_cell_length_a   6.42548309
_cell_length_b   6.42547954
_cell_length_c   8.97662950
_cell_angle_alpha   73.79543056
_cell_angle_beta   73.79536928
_cell_angle_gamma   88.86217112
_symmetry_Int_Tables_number   1
_chemical_formula_structural   SmPt2(SO4)4
_chemical_formula_sum   'Sm1 Pt2 S4 O16'
_cell_volume   341.07594288
_cell_formula_units_Z   1
loop_
 _symmetry_equiv_pos_site_id
 _symmetry_equiv_pos_as_xyz
  1  'x, y, z'
loop_
 _atom_site_type_symbol
 _atom_site_label
 _atom_site_symmetry_multiplicity
 _atom_site_fract_x
 _atom_site_fract_y
 _atom_site_fract_z
 _atom_site_occupancy
  Sm  Sm0  1  0.000000  0.000000  0.000000  1
  Pt  Pt1  1  0.000000  0.000000  0.500000  1
  Pt  Pt2  1  0.500000  0.500000  0.500000  1
  S  S3  1  0.089600  0.592259  0.744292  1
  S  S4  1  0.592259  0.089600  0.744291  1
  S  S5  1  0.910400  0.407741  0.255708  1
  S  S6  1  0.407741  0.910400  0.255709  1
  O  O7  1  0.334271  0.636373  0.669783  1
  O  O8  1  0.636371  0.334270  0.669783  1
  O  O9  1  0.665729  0.363627  0.330217  1
  O  O10  1  0.363629  0.665730  0.330217  1
  O  O11  1  0.026427  0.710223  0.865778  1
  O  O12  1  0.710223  0.026427  0.865777  1
  O  O13  1  0.973573  0.289777  0.134222  1
  O  O14  1  0.289777  0.973573  0.134223  1
  O  O15  1  0.984120  0.679157  0.607729  1
  O  O16  1  0.679157  0.984120  0.607728  1
  O  O17  1  0.015880  0.320843  0.392271  1
  O  O18  1  0.320843  0.015880  0.392272  1
  O  O19  1  0.030336  0.359203  0.806616  1
  O  O20  1  0.359202  0.030336  0.806616  1
  O  O21  1  0.969664  0.640797  0.193384  1
  O  O22  1  0.640798  0.969664  0.193384  1
