# generated using pymatgen
data_Dy2Y18(IrRh3)3
_symmetry_space_group_name_H-M   'P 1'
_cell_length_a   10.94852240
_cell_length_b   10.94851414
_cell_length_c   6.39030200
_cell_angle_alpha   90.00087025
_cell_angle_beta   90.00081680
_cell_angle_gamma   89.94868847
_symmetry_Int_Tables_number   1
_chemical_formula_structural   Dy2Y18(IrRh3)3
_chemical_formula_sum   'Dy2 Y18 Ir3 Rh9'
_cell_volume   766.00552806
_cell_formula_units_Z   1
loop_
 _symmetry_equiv_pos_site_id
 _symmetry_equiv_pos_as_xyz
  1  'x, y, z'
loop_
 _atom_site_type_symbol
 _atom_site_label
 _atom_site_symmetry_multiplicity
 _atom_site_fract_x
 _atom_site_fract_y
 _atom_site_fract_z
 _atom_site_occupancy
  Dy  Dy0  1  0.499699  0.500074  0.999981  1
  Dy  Dy1  1  0.499926  0.500301  0.500030  1
  Y  Y2  1  0.291206  0.090105  0.378798  1
  Y  Y3  1  0.291322  0.909688  0.878647  1
  Y  Y4  1  0.708888  0.088740  0.878722  1
  Y  Y5  1  0.708597  0.909805  0.378591  1
  Y  Y6  1  0.587822  0.789827  0.879859  1
  Y  Y7  1  0.587498  0.209368  0.378631  1
  Y  Y8  1  0.412136  0.790031  0.379328  1
  Y  Y9  1  0.410649  0.209431  0.879986  1
  Y  Y10  1  0.210173  0.412178  0.620155  1
  Y  Y11  1  0.209970  0.587865  0.120682  1
  Y  Y12  1  0.790631  0.412502  0.121378  1
  Y  Y13  1  0.790568  0.589351  0.620026  1
  Y  Y14  1  0.909894  0.708793  0.121214  1
  Y  Y15  1  0.911259  0.291110  0.621289  1
  Y  Y16  1  0.090312  0.708679  0.621365  1
  Y  Y17  1  0.090195  0.291403  0.121417  1
  Y  Y18  1  0.999863  0.999947  0.499916  1
  Y  Y19  1  0.000053  0.000136  0.000096  1
  Ir  Ir20  1  0.653966  0.653379  0.250045  1
  Ir  Ir21  1  0.346620  0.346035  0.249966  1
  Ir  Ir22  1  0.345955  0.654045  0.750006  1
  Rh  Rh23  1  0.846062  0.153937  0.250006  1
  Rh  Rh24  1  0.846505  0.846766  0.750129  1
  Rh  Rh25  1  0.153234  0.153494  0.749881  1
  Rh  Rh26  1  0.153322  0.846678  0.250006  1
  Rh  Rh27  1  0.654210  0.345789  0.750007  1
  Rh  Rh28  1  0.500203  0.000408  0.124253  1
  Rh  Rh29  1  0.500263  0.000591  0.624711  1
  Rh  Rh30  1  0.999413  0.499747  0.875197  1
  Rh  Rh31  1  0.999586  0.499794  0.375684  1
