# generated using pymatgen
data_TbHoThFe9
_symmetry_space_group_name_H-M   'P 1'
_cell_length_a   8.73197222
_cell_length_b   8.73197342
_cell_length_c   8.73197417
_cell_angle_alpha   34.06371367
_cell_angle_beta   34.06371483
_cell_angle_gamma   34.06370580
_symmetry_Int_Tables_number   1
_chemical_formula_structural   TbHoThFe9
_chemical_formula_sum   'Tb1 Ho1 Th1 Fe9'
_cell_volume   186.20776984
_cell_formula_units_Z   1
loop_
 _symmetry_equiv_pos_site_id
 _symmetry_equiv_pos_as_xyz
  1  'x, y, z'
loop_
 _atom_site_type_symbol
 _atom_site_label
 _atom_site_symmetry_multiplicity
 _atom_site_fract_x
 _atom_site_fract_y
 _atom_site_fract_z
 _atom_site_occupancy
  Tb  Tb0  1  0.142659  0.142659  0.142659  1
  Ho  Ho1  1  0.857454  0.857454  0.857454  1
  Th  Th2  1  0.999906  0.999906  0.999906  1
  Fe  Fe3  1  0.500065  0.500065  0.500065  1
  Fe  Fe4  1  0.332433  0.332433  0.332433  1
  Fe  Fe5  1  0.667575  0.667575  0.667575  1
  Fe  Fe6  1  0.084182  0.581962  0.581962  1
  Fe  Fe7  1  0.581962  0.581962  0.084182  1
  Fe  Fe8  1  0.581962  0.084182  0.581962  1
  Fe  Fe9  1  0.418039  0.915723  0.418039  1
  Fe  Fe10  1  0.915723  0.418039  0.418039  1
  Fe  Fe11  1  0.418039  0.418039  0.915723  1
