# generated using pymatgen
data_Gd12Mg3Ag9C4
_symmetry_space_group_name_H-M   'P 1'
_cell_length_a   9.45307718
_cell_length_b   9.45307836
_cell_length_c   9.49756700
_cell_angle_alpha   60.15483237
_cell_angle_beta   60.15483525
_cell_angle_gamma   60.00000361
_symmetry_Int_Tables_number   1
_chemical_formula_structural   Gd12Mg3Ag9C4
_chemical_formula_sum   'Gd12 Mg3 Ag9 C4'
_cell_volume   601.52858728
_cell_formula_units_Z   1
loop_
 _symmetry_equiv_pos_site_id
 _symmetry_equiv_pos_as_xyz
  1  'x, y, z'
loop_
 _atom_site_type_symbol
 _atom_site_label
 _atom_site_symmetry_multiplicity
 _atom_site_fract_x
 _atom_site_fract_y
 _atom_site_fract_z
 _atom_site_occupancy
  Gd  Gd0  1  0.441437  0.441437  0.060854  1
  Gd  Gd1  1  0.056273  0.441437  0.060854  1
  Gd  Gd2  1  0.441437  0.056273  0.060854  1
  Gd  Gd3  1  0.060799  0.060799  0.438760  1
  Gd  Gd4  1  0.439643  0.060799  0.438760  1
  Gd  Gd5  1  0.060799  0.439643  0.438760  1
  Gd  Gd6  1  0.808563  0.808563  0.189146  1
  Gd  Gd7  1  0.193727  0.808563  0.189146  1
  Gd  Gd8  1  0.808563  0.193727  0.189146  1
  Gd  Gd9  1  0.189201  0.189201  0.811240  1
  Gd  Gd10  1  0.810357  0.189201  0.811240  1
  Gd  Gd11  1  0.189201  0.810357  0.811240  1
  Mg  Mg12  1  0.625000  0.125000  0.625000  1
  Mg  Mg13  1  0.125000  0.625000  0.625000  1
  Mg  Mg14  1  0.625000  0.625000  0.625000  1
  Ag  Ag15  1  0.831327  0.831327  0.506015  1
  Ag  Ag16  1  0.831311  0.509894  0.827482  1
  Ag  Ag17  1  0.509894  0.831311  0.827482  1
  Ag  Ag18  1  0.831311  0.831311  0.827482  1
  Ag  Ag19  1  0.418673  0.418673  0.743985  1
  Ag  Ag20  1  0.418689  0.740106  0.422518  1
  Ag  Ag21  1  0.740106  0.418689  0.422518  1
  Ag  Ag22  1  0.418689  0.418689  0.422518  1
  Ag  Ag23  1  0.625000  0.625000  0.125000  1
  C  C24  1  0.125000  0.125000  0.625000  1
  C  C25  1  0.125000  0.625000  0.125000  1
  C  C26  1  0.625000  0.125000  0.125000  1
  C  C27  1  0.125000  0.125000  0.125000  1
