# generated using pymatgen
data_MgGa13Pd6
_symmetry_space_group_name_H-M   'P 1'
_cell_length_a   7.71187617
_cell_length_b   7.71187580
_cell_length_c   7.71187566
_cell_angle_alpha   109.90040981
_cell_angle_beta   109.90040948
_cell_angle_gamma   108.61621722
_symmetry_Int_Tables_number   1
_chemical_formula_structural   MgGa13Pd6
_chemical_formula_sum   'Mg1 Ga13 Pd6'
_cell_volume   353.00898527
_cell_formula_units_Z   1
loop_
 _symmetry_equiv_pos_site_id
 _symmetry_equiv_pos_as_xyz
  1  'x, y, z'
loop_
 _atom_site_type_symbol
 _atom_site_label
 _atom_site_symmetry_multiplicity
 _atom_site_fract_x
 _atom_site_fract_y
 _atom_site_fract_z
 _atom_site_occupancy
  Mg  Mg0  1  0.750000  0.250000  0.500000  1
  Ga  Ga1  1  0.752910  0.501420  0.251490  1
  Ga  Ga2  1  0.498580  0.247090  0.748510  1
  Ga  Ga3  1  0.249930  0.501420  0.748510  1
  Ga  Ga4  1  0.250000  0.750000  0.500000  1
  Ga  Ga5  1  0.498580  0.750070  0.251490  1
  Ga  Ga6  1  0.995587  0.002962  0.328323  1
  Ga  Ga7  1  0.997038  0.325361  0.992625  1
  Ga  Ga8  1  0.332735  0.004413  0.007375  1
  Ga  Ga9  1  0.674639  0.667265  0.671677  1
  Ga  Ga10  1  0.997038  0.004413  0.671677  1
  Ga  Ga11  1  0.995587  0.667265  0.992625  1
  Ga  Ga12  1  0.674639  0.002962  0.007375  1
  Ga  Ga13  1  0.332735  0.325361  0.328323  1
  Pd  Pd14  1  0.655138  0.655138  0.000000  1
  Pd  Pd15  1  0.331903  0.991389  0.340513  1
  Pd  Pd16  1  0.008611  0.349124  0.340513  1
  Pd  Pd17  1  0.344862  0.344862  0.000000  1
  Pd  Pd18  1  0.650876  0.991389  0.659487  1
  Pd  Pd19  1  0.008611  0.668097  0.659487  1
