# generated using pymatgen
data_PrZr2(NpSb2)5
_symmetry_space_group_name_H-M   'P 1'
_cell_length_a   9.31264044
_cell_length_b   9.31264087
_cell_length_c   6.26644800
_cell_angle_alpha   90.00000000
_cell_angle_beta   90.00000000
_cell_angle_gamma   119.71186799
_symmetry_Int_Tables_number   1
_chemical_formula_structural   PrZr2(NpSb2)5
_chemical_formula_sum   'Pr1 Zr2 Np5 Sb10'
_cell_volume   472.01020590
_cell_formula_units_Z   1
loop_
 _symmetry_equiv_pos_site_id
 _symmetry_equiv_pos_as_xyz
  1  'x, y, z'
loop_
 _atom_site_type_symbol
 _atom_site_label
 _atom_site_symmetry_multiplicity
 _atom_site_fract_x
 _atom_site_fract_y
 _atom_site_fract_z
 _atom_site_occupancy
  Pr  Pr0  1  0.616837  0.616837  0.250000  1
  Zr  Zr1  1  0.999949  0.999949  0.499750  1
  Zr  Zr2  1  0.999949  0.999949  0.000250  1
  Np  Np3  1  0.615404  0.998463  0.750000  1
  Np  Np4  1  0.386535  0.001055  0.250000  1
  Np  Np5  1  0.998463  0.615404  0.750000  1
  Np  Np6  1  0.001055  0.386535  0.250000  1
  Np  Np7  1  0.381739  0.381739  0.750000  1
  Sb  Sb8  1  0.268982  0.999151  0.750000  1
  Sb  Sb9  1  0.733317  0.006179  0.250000  1
  Sb  Sb10  1  0.999151  0.268982  0.750000  1
  Sb  Sb11  1  0.006179  0.733317  0.250000  1
  Sb  Sb12  1  0.731891  0.731891  0.750000  1
  Sb  Sb13  1  0.267470  0.267470  0.250000  1
  Sb  Sb14  1  0.329909  0.666631  0.501536  1
  Sb  Sb15  1  0.666631  0.329909  0.501536  1
  Sb  Sb16  1  0.666631  0.329909  0.998464  1
  Sb  Sb17  1  0.329909  0.666631  0.998464  1
