# generated using pymatgen
data_Tb3GaGeRh2
_symmetry_space_group_name_H-M   'P 1'
_cell_length_a   5.56431500
_cell_length_b   7.98985500
_cell_length_c   13.35077000
_cell_angle_alpha   90.00000000
_cell_angle_beta   90.00000000
_cell_angle_gamma   90.00000000
_symmetry_Int_Tables_number   1
_chemical_formula_structural   Tb3GaGeRh2
_chemical_formula_sum   'Tb12 Ga4 Ge4 Rh8'
_cell_volume   593.54946754
_cell_formula_units_Z   4
loop_
 _symmetry_equiv_pos_site_id
 _symmetry_equiv_pos_as_xyz
  1  'x, y, z'
loop_
 _atom_site_type_symbol
 _atom_site_label
 _atom_site_symmetry_multiplicity
 _atom_site_fract_x
 _atom_site_fract_y
 _atom_site_fract_z
 _atom_site_occupancy
  Tb  Tb0  1  0.633317  0.259524  0.250000  1
  Tb  Tb1  1  0.366683  0.740476  0.750000  1
  Tb  Tb2  1  0.366683  0.759524  0.250000  1
  Tb  Tb3  1  0.633317  0.240476  0.750000  1
  Tb  Tb4  1  0.152198  0.400212  0.100588  1
  Tb  Tb5  1  0.847802  0.599788  0.899412  1
  Tb  Tb6  1  0.847802  0.599788  0.600588  1
  Tb  Tb7  1  0.847802  0.900212  0.399412  1
  Tb  Tb8  1  0.152198  0.400212  0.399412  1
  Tb  Tb9  1  0.152198  0.099788  0.600588  1
  Tb  Tb10  1  0.152198  0.099788  0.899412  1
  Tb  Tb11  1  0.847802  0.900212  0.100588  1
  Ga  Ga12  1  0.640449  0.250000  0.000000  1
  Ga  Ga13  1  0.359551  0.750000  0.000000  1
  Ga  Ga14  1  0.359551  0.750000  0.500000  1
  Ga  Ga15  1  0.640449  0.250000  0.500000  1
  Ge  Ge16  1  0.129584  0.116923  0.250000  1
  Ge  Ge17  1  0.870416  0.883077  0.750000  1
  Ge  Ge18  1  0.870416  0.616923  0.250000  1
  Ge  Ge19  1  0.129584  0.383077  0.750000  1
  Rh  Rh20  1  0.362866  0.030020  0.093799  1
  Rh  Rh21  1  0.637134  0.969980  0.906201  1
  Rh  Rh22  1  0.637134  0.969980  0.593799  1
  Rh  Rh23  1  0.637134  0.530020  0.406201  1
  Rh  Rh24  1  0.362866  0.030020  0.406201  1
  Rh  Rh25  1  0.362866  0.469980  0.593799  1
  Rh  Rh26  1  0.362866  0.469980  0.906201  1
  Rh  Rh27  1  0.637134  0.530020  0.093799  1
