# generated using pymatgen
data_Na3Ga2Pt
_symmetry_space_group_name_H-M   'P 1'
_cell_length_a   9.01837575
_cell_length_b   9.01837539
_cell_length_c   9.01837700
_cell_angle_alpha   60.00000509
_cell_angle_beta   60.00000640
_cell_angle_gamma   60.00000296
_symmetry_Int_Tables_number   1
_chemical_formula_structural   Na3Ga2Pt
_chemical_formula_sum   'Na12 Ga8 Pt4'
_cell_volume   518.64485113
_cell_formula_units_Z   4
loop_
 _symmetry_equiv_pos_site_id
 _symmetry_equiv_pos_as_xyz
  1  'x, y, z'
loop_
 _atom_site_type_symbol
 _atom_site_label
 _atom_site_symmetry_multiplicity
 _atom_site_fract_x
 _atom_site_fract_y
 _atom_site_fract_z
 _atom_site_occupancy
  Na  Na0  1  0.452183  0.047817  0.047817  1
  Na  Na1  1  0.797817  0.202183  0.797817  1
  Na  Na2  1  0.452183  0.452183  0.047817  1
  Na  Na3  1  0.797817  0.797817  0.202183  1
  Na  Na4  1  0.202183  0.797817  0.797817  1
  Na  Na5  1  0.047817  0.452183  0.452183  1
  Na  Na6  1  0.047817  0.047817  0.452183  1
  Na  Na7  1  0.202183  0.202183  0.797817  1
  Na  Na8  1  0.452183  0.047817  0.452183  1
  Na  Na9  1  0.797817  0.202183  0.202183  1
  Na  Na10  1  0.047817  0.452183  0.047817  1
  Na  Na11  1  0.202183  0.797817  0.202183  1
  Ga  Ga12  1  0.422613  0.422613  0.422613  1
  Ga  Ga13  1  0.732160  0.422613  0.422613  1
  Ga  Ga14  1  0.827387  0.827387  0.827387  1
  Ga  Ga15  1  0.422613  0.422613  0.732160  1
  Ga  Ga16  1  0.827387  0.827387  0.517840  1
  Ga  Ga17  1  0.422613  0.732160  0.422613  1
  Ga  Ga18  1  0.827387  0.517840  0.827387  1
  Ga  Ga19  1  0.517840  0.827387  0.827387  1
  Pt  Pt20  1  0.625000  0.625000  0.125000  1
  Pt  Pt21  1  0.625000  0.125000  0.625000  1
  Pt  Pt22  1  0.125000  0.625000  0.625000  1
  Pt  Pt23  1  0.625000  0.625000  0.625000  1
