# generated using pymatgen
data_Y7TmAl8
_symmetry_space_group_name_H-M   'P 1'
_cell_length_a   5.61108800
_cell_length_b   5.85679407
_cell_length_c   11.43903613
_cell_angle_alpha   89.98273665
_cell_angle_beta   90.00000000
_cell_angle_gamma   90.00000000
_symmetry_Int_Tables_number   1
_chemical_formula_structural   Y7TmAl8
_chemical_formula_sum   'Y7 Tm1 Al8'
_cell_volume   375.92087747
_cell_formula_units_Z   1
loop_
 _symmetry_equiv_pos_site_id
 _symmetry_equiv_pos_as_xyz
  1  'x, y, z'
loop_
 _atom_site_type_symbol
 _atom_site_label
 _atom_site_symmetry_multiplicity
 _atom_site_fract_x
 _atom_site_fract_y
 _atom_site_fract_z
 _atom_site_occupancy
  Y  Y0  1  0.250000  0.162453  0.015210  1
  Y  Y1  1  0.750000  0.837184  0.982939  1
  Y  Y2  1  0.750000  0.161234  0.483921  1
  Y  Y3  1  0.250000  0.839029  0.516878  1
  Y  Y4  1  0.250000  0.399469  0.332086  1
  Y  Y5  1  0.750000  0.600429  0.668778  1
  Y  Y6  1  0.750000  0.399520  0.168514  1
  Tm  Tm7  1  0.250000  0.602369  0.831407  1
  Al  Al8  1  0.000156  0.928754  0.249954  1
  Al  Al9  1  0.499608  0.070089  0.750422  1
  Al  Al10  1  0.000392  0.070089  0.750422  1
  Al  Al11  1  0.499844  0.928754  0.249954  1
  Al  Al12  1  0.250000  0.660169  0.097287  1
  Al  Al13  1  0.750000  0.339994  0.901233  1
  Al  Al14  1  0.750000  0.660433  0.401694  1
  Al  Al15  1  0.250000  0.340031  0.599302  1
