# generated using pymatgen
data_HfPO4F
_symmetry_space_group_name_H-M   'P 1'
_cell_length_a   6.58433600
_cell_length_b   7.54526900
_cell_length_c   7.94814400
_cell_angle_alpha   90.00000000
_cell_angle_beta   90.00000000
_cell_angle_gamma   90.00000000
_symmetry_Int_Tables_number   1
_chemical_formula_structural   HfPO4F
_chemical_formula_sum   'Hf4 P4 O16 F4'
_cell_volume   394.86845397
_cell_formula_units_Z   4
loop_
 _symmetry_equiv_pos_site_id
 _symmetry_equiv_pos_as_xyz
  1  'x, y, z'
loop_
 _atom_site_type_symbol
 _atom_site_label
 _atom_site_symmetry_multiplicity
 _atom_site_fract_x
 _atom_site_fract_y
 _atom_site_fract_z
 _atom_site_occupancy
  Hf  Hf0  1  0.750000  0.251787  0.877298  1
  Hf  Hf1  1  0.750000  0.248213  0.377298  1
  Hf  Hf2  1  0.250000  0.748213  0.122702  1
  Hf  Hf3  1  0.250000  0.751787  0.622702  1
  P  P4  1  0.750000  0.878213  0.126530  1
  P  P5  1  0.750000  0.621787  0.626530  1
  P  P6  1  0.250000  0.121787  0.873470  1
  P  P7  1  0.250000  0.378213  0.373470  1
  O  O8  1  0.750000  0.997631  0.968482  1
  O  O9  1  0.750000  0.502369  0.468482  1
  O  O10  1  0.250000  0.002369  0.031518  1
  O  O11  1  0.250000  0.497631  0.531518  1
  O  O12  1  0.940701  0.759895  0.127985  1
  O  O13  1  0.559299  0.740105  0.627985  1
  O  O14  1  0.440701  0.240105  0.872015  1
  O  O15  1  0.059299  0.259895  0.372015  1
  O  O16  1  0.059299  0.240105  0.872015  1
  O  O17  1  0.440701  0.259895  0.372015  1
  O  O18  1  0.559299  0.759895  0.127985  1
  O  O19  1  0.940701  0.740105  0.627985  1
  O  O20  1  0.750000  0.998282  0.284870  1
  O  O21  1  0.750000  0.501718  0.784870  1
  O  O22  1  0.250000  0.001718  0.715130  1
  O  O23  1  0.250000  0.498282  0.215130  1
  F  F24  1  0.750000  0.334570  0.125833  1
  F  F25  1  0.750000  0.165430  0.625833  1
  F  F26  1  0.250000  0.665430  0.874167  1
  F  F27  1  0.250000  0.834570  0.374167  1
