# generated using pymatgen
data_MoSe6BrF6
_symmetry_space_group_name_H-M   'P 1'
_cell_length_a   7.31853400
_cell_length_b   9.34847115
_cell_length_c   11.59079191
_cell_angle_alpha   61.39958704
_cell_angle_beta   90.00000000
_cell_angle_gamma   90.00000000
_symmetry_Int_Tables_number   1
_chemical_formula_structural   MoSe6BrF6
_chemical_formula_sum   'Mo2 Se12 Br2 F12'
_cell_volume   696.24515164
_cell_formula_units_Z   2
loop_
 _symmetry_equiv_pos_site_id
 _symmetry_equiv_pos_as_xyz
  1  'x, y, z'
loop_
 _atom_site_type_symbol
 _atom_site_label
 _atom_site_symmetry_multiplicity
 _atom_site_fract_x
 _atom_site_fract_y
 _atom_site_fract_z
 _atom_site_occupancy
  Mo  Mo0  1  0.000000  0.000000  0.000000  1
  Mo  Mo1  1  0.000000  0.000000  0.500000  1
  Se  Se2  1  0.740712  0.340562  0.617701  1
  Se  Se3  1  0.259288  0.659438  0.382299  1
  Se  Se4  1  0.244726  0.555488  0.891663  1
  Se  Se5  1  0.755274  0.444512  0.108337  1
  Se  Se6  1  0.436369  0.241129  0.618584  1
  Se  Se7  1  0.740712  0.659438  0.882299  1
  Se  Se8  1  0.563631  0.758871  0.381416  1
  Se  Se9  1  0.755274  0.555488  0.391663  1
  Se  Se10  1  0.244726  0.444512  0.608337  1
  Se  Se11  1  0.259288  0.340562  0.117701  1
  Se  Se12  1  0.563631  0.241129  0.118584  1
  Se  Se13  1  0.436369  0.758871  0.881416  1
  Br  Br14  1  0.721969  0.500000  0.750000  1
  Br  Br15  1  0.278031  0.500000  0.250000  1
  F  F16  1  0.103213  0.214281  0.884642  1
  F  F17  1  0.779210  0.943289  0.606621  1
  F  F18  1  0.220790  0.943289  0.106621  1
  F  F19  1  0.894564  0.083958  0.104416  1
  F  F20  1  0.896787  0.785719  0.115358  1
  F  F21  1  0.220790  0.056711  0.393379  1
  F  F22  1  0.896787  0.214281  0.384642  1
  F  F23  1  0.105436  0.916042  0.895584  1
  F  F24  1  0.105436  0.083958  0.604416  1
  F  F25  1  0.103213  0.785719  0.615358  1
  F  F26  1  0.894564  0.916042  0.395584  1
  F  F27  1  0.779210  0.056711  0.893379  1
