# generated using pymatgen
data_Y3MgZn2Pt3
_symmetry_space_group_name_H-M   'P 1'
_cell_length_a   7.37667800
_cell_length_b   7.38143042
_cell_length_c   3.91161300
_cell_angle_alpha   90.00000000
_cell_angle_beta   90.00000000
_cell_angle_gamma   119.97871337
_symmetry_Int_Tables_number   1
_chemical_formula_structural   Y3MgZn2Pt3
_chemical_formula_sum   'Y3 Mg1 Zn2 Pt3'
_cell_volume   184.49346381
_cell_formula_units_Z   1
loop_
 _symmetry_equiv_pos_site_id
 _symmetry_equiv_pos_as_xyz
  1  'x, y, z'
loop_
 _atom_site_type_symbol
 _atom_site_label
 _atom_site_symmetry_multiplicity
 _atom_site_fract_x
 _atom_site_fract_y
 _atom_site_fract_z
 _atom_site_occupancy
  Y  Y0  1  0.408372  0.419365  0.000000  1
  Y  Y1  1  0.610889  0.000000  0.000000  1
  Y  Y2  1  0.989006  0.580635  0.000000  1
  Mg  Mg3  1  0.245263  0.000000  0.500000  1
  Zn  Zn4  1  0.006319  0.255060  0.500000  1
  Zn  Zn5  1  0.751259  0.744940  0.500000  1
  Pt  Pt6  1  0.660538  0.329045  0.500000  1
  Pt  Pt7  1  0.996860  0.000000  0.000000  1
  Pt  Pt8  1  0.331493  0.670955  0.500000  1
