# generated using pymatgen
data_Mn3Tc9N16
_symmetry_space_group_name_H-M   'P 1'
_cell_length_a   10.03009502
_cell_length_b   5.86102000
_cell_length_c   5.05199202
_cell_angle_alpha   90.00000000
_cell_angle_beta   90.00894832
_cell_angle_gamma   90.00000000
_symmetry_Int_Tables_number   1
_chemical_formula_structural   Mn3Tc9N16
_chemical_formula_sum   'Mn3 Tc9 N16'
_cell_volume   296.98936746
_cell_formula_units_Z   1
loop_
 _symmetry_equiv_pos_site_id
 _symmetry_equiv_pos_as_xyz
  1  'x, y, z'
loop_
 _atom_site_type_symbol
 _atom_site_label
 _atom_site_symmetry_multiplicity
 _atom_site_fract_x
 _atom_site_fract_y
 _atom_site_fract_z
 _atom_site_occupancy
  Mn  Mn0  1  0.080782  0.250000  0.397676  1
  Mn  Mn1  1  0.412484  0.750000  0.890184  1
  Mn  Mn2  1  0.915239  0.750000  0.610005  1
  Tc  Tc3  1  0.492390  0.977695  0.497585  1
  Tc  Tc4  1  0.004938  0.521844  0.002643  1
  Tc  Tc5  1  0.492390  0.522305  0.497585  1
  Tc  Tc6  1  0.004938  0.978156  0.002643  1
  Tc  Tc7  1  0.762552  0.250000  0.493469  1
  Tc  Tc8  1  0.237160  0.250000  0.006280  1
  Tc  Tc9  1  0.258891  0.750000  0.502673  1
  Tc  Tc10  1  0.758782  0.750000  0.995148  1
  Tc  Tc11  1  0.583421  0.250000  0.094675  1
  N  N12  1  0.584646  0.250000  0.717888  1
  N  N13  1  0.083121  0.250000  0.756077  1
  N  N14  1  0.413426  0.750000  0.240774  1
  N  N15  1  0.915639  0.750000  0.254479  1
  N  N16  1  0.920938  0.250000  0.245248  1
  N  N17  1  0.412311  0.250000  0.255487  1
  N  N18  1  0.086422  0.750000  0.731327  1
  N  N19  1  0.582306  0.750000  0.770527  1
  N  N20  1  0.670796  0.993082  0.250061  1
  N  N21  1  0.166214  0.502252  0.264050  1
  N  N22  1  0.329785  0.496963  0.764585  1
  N  N23  1  0.831818  0.000826  0.740118  1
  N  N24  1  0.329785  0.003037  0.764585  1
  N  N25  1  0.831818  0.499174  0.740118  1
  N  N26  1  0.670796  0.506918  0.250061  1
  N  N27  1  0.166214  0.997748  0.264050  1
