# generated using pymatgen
data_Ho6Er6Tl2Fe2Os
_symmetry_space_group_name_H-M   'P 1'
_cell_length_a   8.33391702
_cell_length_b   8.33724667
_cell_length_c   8.33720994
_cell_angle_alpha   108.63659006
_cell_angle_beta   108.70220513
_cell_angle_gamma   111.10381250
_symmetry_Int_Tables_number   1
_chemical_formula_structural   Ho6Er6Tl2Fe2Os
_chemical_formula_sum   'Ho6 Er6 Tl2 Fe2 Os1'
_cell_volume   445.57209483
_cell_formula_units_Z   1
loop_
 _symmetry_equiv_pos_site_id
 _symmetry_equiv_pos_as_xyz
  1  'x, y, z'
loop_
 _atom_site_type_symbol
 _atom_site_label
 _atom_site_symmetry_multiplicity
 _atom_site_fract_x
 _atom_site_fract_y
 _atom_site_fract_z
 _atom_site_occupancy
  Ho  Ho0  1  0.307928  0.307699  0.616179  1
  Ho  Ho1  1  0.692072  0.692301  0.383821  1
  Ho  Ho2  1  0.307921  0.691744  0.000231  1
  Ho  Ho3  1  0.692079  0.308256  0.999769  1
  Ho  Ho4  1  0.429154  0.191719  0.237445  1
  Ho  Ho5  1  0.570846  0.808281  0.762555  1
  Er  Er6  1  0.954316  0.191569  0.762723  1
  Er  Er7  1  0.190852  0.953772  0.762352  1
  Er  Er8  1  0.045684  0.808431  0.237277  1
  Er  Er9  1  0.809148  0.046228  0.237648  1
  Er  Er10  1  0.190830  0.428490  0.237063  1
  Er  Er11  1  0.809170  0.571510  0.762937  1
  Tl  Tl12  1  0.500000  0.000000  0.500000  1
  Tl  Tl13  1  0.000000  0.500000  0.500000  1
  Fe  Fe14  1  0.386174  0.386324  0.999864  1
  Fe  Fe15  1  0.613826  0.613676  0.000136  1
  Os  Os16  1  0.000000  0.000000  0.000000  1
