# generated using pymatgen
data_Ba2DyAlSe5
_symmetry_space_group_name_H-M   'P 1'
_cell_length_a   7.42150170
_cell_length_b   8.79354075
_cell_length_c   9.55597661
_cell_angle_alpha   103.52911940
_cell_angle_beta   102.91420090
_cell_angle_gamma   107.41586742
_symmetry_Int_Tables_number   1
_chemical_formula_structural   Ba2DyAlSe5
_chemical_formula_sum   'Ba4 Dy2 Al2 Se10'
_cell_volume   548.81417587
_cell_formula_units_Z   2
loop_
 _symmetry_equiv_pos_site_id
 _symmetry_equiv_pos_as_xyz
  1  'x, y, z'
loop_
 _atom_site_type_symbol
 _atom_site_label
 _atom_site_symmetry_multiplicity
 _atom_site_fract_x
 _atom_site_fract_y
 _atom_site_fract_z
 _atom_site_occupancy
  Ba  Ba0  1  0.632677  0.977279  0.289438  1
  Ba  Ba1  1  0.367323  0.022721  0.710562  1
  Ba  Ba2  1  0.341041  0.510228  0.706335  1
  Ba  Ba3  1  0.658959  0.489772  0.293665  1
  Dy  Dy4  1  0.997980  0.729355  0.998341  1
  Dy  Dy5  1  0.002020  0.270645  0.001659  1
  Al  Al6  1  0.806737  0.872790  0.690964  1
  Al  Al7  1  0.193263  0.127210  0.309036  1
  Se  Se8  1  0.988176  0.687163  0.687303  1
  Se  Se9  1  0.011824  0.312837  0.312697  1
  Se  Se10  1  0.984241  0.150458  0.690404  1
  Se  Se11  1  0.015759  0.849542  0.309596  1
  Se  Se12  1  0.714315  0.908325  0.924693  1
  Se  Se13  1  0.285685  0.091675  0.075307  1
  Se  Se14  1  0.708285  0.411983  0.946738  1
  Se  Se15  1  0.291715  0.588017  0.053262  1
  Se  Se16  1  0.495951  0.744029  0.495611  1
  Se  Se17  1  0.504049  0.255971  0.504389  1
