# generated using pymatgen
data_Nd2MnPtF14
_symmetry_space_group_name_H-M   'P 1'
_cell_length_a   5.63006200
_cell_length_b   9.10669481
_cell_length_c   12.15071319
_cell_angle_alpha   61.86560714
_cell_angle_beta   90.00000000
_cell_angle_gamma   90.00000000
_symmetry_Int_Tables_number   1
_chemical_formula_structural   Nd2MnPtF14
_chemical_formula_sum   'Nd4 Mn2 Pt2 F28'
_cell_volume   549.37321414
_cell_formula_units_Z   2
loop_
 _symmetry_equiv_pos_site_id
 _symmetry_equiv_pos_as_xyz
  1  'x, y, z'
loop_
 _atom_site_type_symbol
 _atom_site_label
 _atom_site_symmetry_multiplicity
 _atom_site_fract_x
 _atom_site_fract_y
 _atom_site_fract_z
 _atom_site_occupancy
  Nd  Nd0  1  0.760000  0.807352  0.762537  1
  Nd  Nd1  1  0.260000  0.192648  0.737463  1
  Nd  Nd2  1  0.239269  0.187863  0.232901  1
  Nd  Nd3  1  0.739269  0.812137  0.267099  1
  Mn  Mn4  1  0.757055  0.275252  0.956395  1
  Mn  Mn5  1  0.257055  0.724748  0.543605  1
  Pt  Pt6  1  0.243747  0.727506  0.042400  1
  Pt  Pt7  1  0.743747  0.272494  0.457600  1
  F  F8  1  0.430968  0.703961  0.914975  1
  F  F9  1  0.930968  0.296039  0.585025  1
  F  F10  1  0.568153  0.290882  0.074104  1
  F  F11  1  0.068153  0.709118  0.425896  1
  F  F12  1  0.446809  0.284678  0.538737  1
  F  F13  1  0.946809  0.715322  0.961263  1
  F  F14  1  0.530952  0.716542  0.461494  1
  F  F15  1  0.030952  0.283458  0.038506  1
  F  F16  1  0.766724  0.504999  0.863589  1
  F  F17  1  0.266724  0.495001  0.636411  1
  F  F18  1  0.236788  0.483395  0.138995  1
  F  F19  1  0.736788  0.516605  0.361005  1
  F  F20  1  0.758967  0.046792  0.047247  1
  F  F21  1  0.258967  0.953208  0.452753  1
  F  F22  1  0.240892  0.971907  0.952106  1
  F  F23  1  0.740892  0.028093  0.547894  1
  F  F24  1  0.989743  0.728275  0.630310  1
  F  F25  1  0.489743  0.271725  0.869690  1
  F  F26  1  0.036911  0.268423  0.371083  1
  F  F27  1  0.536911  0.731577  0.128917  1
  F  F28  1  0.059518  0.744453  0.173707  1
  F  F29  1  0.559518  0.255547  0.326293  1
  F  F30  1  0.942605  0.260518  0.835815  1
  F  F31  1  0.442605  0.739482  0.664185  1
  F  F32  1  0.400830  0.965178  0.227056  1
  F  F33  1  0.900830  0.034822  0.272944  1
  F  F34  1  0.590068  0.030582  0.768097  1
  F  F35  1  0.090068  0.969418  0.731903  1
