# generated using pymatgen
data_Pa4Sn2Pd3Pt
_symmetry_space_group_name_H-M   'P 1'
_cell_length_a   7.61102446
_cell_length_b   7.61102446
_cell_length_c   3.87456800
_cell_angle_alpha   90.00000000
_cell_angle_beta   90.00000000
_cell_angle_gamma   89.96020700
_symmetry_Int_Tables_number   1
_chemical_formula_structural   Pa4Sn2Pd3Pt
_chemical_formula_sum   'Pa4 Sn2 Pd3 Pt1'
_cell_volume   224.44473270
_cell_formula_units_Z   1
loop_
 _symmetry_equiv_pos_site_id
 _symmetry_equiv_pos_as_xyz
  1  'x, y, z'
loop_
 _atom_site_type_symbol
 _atom_site_label
 _atom_site_symmetry_multiplicity
 _atom_site_fract_x
 _atom_site_fract_y
 _atom_site_fract_z
 _atom_site_occupancy
  Pa  Pa0  1  0.674530  0.174530  0.500000  1
  Pa  Pa1  1  0.322107  0.822107  0.500000  1
  Pa  Pa2  1  0.177092  0.327480  0.500000  1
  Pa  Pa3  1  0.827480  0.677092  0.500000  1
  Sn  Sn4  1  0.999813  0.003625  0.000000  1
  Sn  Sn5  1  0.503625  0.499813  0.000000  1
  Pd  Pd6  1  0.867775  0.367775  0.000000  1
  Pd  Pd7  1  0.629737  0.871233  0.000000  1
  Pd  Pd8  1  0.371233  0.129737  0.000000  1
  Pt  Pt9  1  0.126607  0.626607  0.000000  1
