# generated using pymatgen
data_Ho2Er3Fe12Co7P12
_symmetry_space_group_name_H-M   'P 1'
_cell_length_a   11.90734102
_cell_length_b   11.90734247
_cell_length_c   3.66744300
_cell_angle_alpha   90.00000000
_cell_angle_beta   90.00000000
_cell_angle_gamma   119.99391363
_symmetry_Int_Tables_number   1
_chemical_formula_structural   Ho2Er3Fe12Co7P12
_chemical_formula_sum   'Ho2 Er3 Fe12 Co7 P12'
_cell_volume   450.35010977
_cell_formula_units_Z   1
loop_
 _symmetry_equiv_pos_site_id
 _symmetry_equiv_pos_as_xyz
  1  'x, y, z'
loop_
 _atom_site_type_symbol
 _atom_site_label
 _atom_site_symmetry_multiplicity
 _atom_site_fract_x
 _atom_site_fract_y
 _atom_site_fract_z
 _atom_site_occupancy
  Ho  Ho0  1  0.185428  0.999996  0.500000  1
  Ho  Ho1  1  0.999996  0.185428  0.500000  1
  Er  Er2  1  0.666683  0.333355  0.000000  1
  Er  Er3  1  0.333355  0.666683  0.000000  1
  Er  Er4  1  0.814504  0.814504  0.500000  1
  Fe  Fe5  1  0.876703  0.358536  0.500000  1
  Fe  Fe6  1  0.641508  0.518248  0.500000  1
  Fe  Fe7  1  0.481841  0.123317  0.500000  1
  Fe  Fe8  1  0.358536  0.876703  0.500000  1
  Fe  Fe9  1  0.518248  0.641508  0.500000  1
  Fe  Fe10  1  0.123317  0.481841  0.500000  1
  Fe  Fe11  1  0.444202  0.444202  0.000000  1
  Fe  Fe12  1  0.555817  0.000007  0.000000  1
  Fe  Fe13  1  0.000007  0.555817  0.000000  1
  Fe  Fe14  1  0.285035  0.285035  0.500000  1
  Fe  Fe15  1  0.715018  0.999905  0.500000  1
  Fe  Fe16  1  0.999905  0.715018  0.500000  1
  Co  Co17  1  0.801519  0.179345  0.000000  1
  Co  Co18  1  0.820624  0.622318  0.000000  1
  Co  Co19  1  0.377841  0.198494  0.000000  1
  Co  Co20  1  0.179345  0.801519  0.000000  1
  Co  Co21  1  0.622318  0.820624  0.000000  1
  Co  Co22  1  0.198494  0.377841  0.000000  1
  Co  Co23  1  0.999794  0.999794  0.000000  1
  P  P24  1  0.684421  0.165147  0.500000  1
  P  P25  1  0.834847  0.519230  0.500000  1
  P  P26  1  0.480751  0.315614  0.500000  1
  P  P27  1  0.165147  0.684421  0.500000  1
  P  P28  1  0.519230  0.834847  0.500000  1
  P  P29  1  0.315614  0.480751  0.500000  1
  P  P30  1  0.183068  0.183068  0.000000  1
  P  P31  1  0.816945  0.999789  0.000000  1
  P  P32  1  0.999789  0.816945  0.000000  1
  P  P33  1  0.628951  0.628951  0.000000  1
  P  P34  1  0.371206  0.999994  0.000000  1
  P  P35  1  0.999994  0.371206  0.000000  1
