# generated using pymatgen
data_Dy6HoCo6AgSn22
_symmetry_space_group_name_H-M   'P 1'
_cell_length_a   9.65426700
_cell_length_b   9.65426684
_cell_length_c   9.97102000
_cell_angle_alpha   90.00000000
_cell_angle_beta   90.00000000
_cell_angle_gamma   120.00000399
_symmetry_Int_Tables_number   1
_chemical_formula_structural   Dy6HoCo6AgSn22
_chemical_formula_sum   'Dy6 Ho1 Co6 Ag1 Sn22'
_cell_volume   804.83861573
_cell_formula_units_Z   1
loop_
 _symmetry_equiv_pos_site_id
 _symmetry_equiv_pos_as_xyz
  1  'x, y, z'
loop_
 _atom_site_type_symbol
 _atom_site_label
 _atom_site_symmetry_multiplicity
 _atom_site_fract_x
 _atom_site_fract_y
 _atom_site_fract_z
 _atom_site_occupancy
  Dy  Dy0  1  0.043412  0.521705  0.306784  1
  Dy  Dy1  1  0.478295  0.956588  0.306784  1
  Dy  Dy2  1  0.478295  0.521705  0.306784  1
  Dy  Dy3  1  0.956588  0.478295  0.693216  1
  Dy  Dy4  1  0.521705  0.043412  0.693216  1
  Dy  Dy5  1  0.521705  0.478295  0.693216  1
  Ho  Ho6  1  0.000000  0.000000  0.000000  1
  Co  Co7  1  0.167939  0.832061  0.803734  1
  Co  Co8  1  0.664123  0.832061  0.803734  1
  Co  Co9  1  0.167939  0.335877  0.803734  1
  Co  Co10  1  0.832061  0.167939  0.196266  1
  Co  Co11  1  0.335877  0.167939  0.196266  1
  Co  Co12  1  0.832061  0.664123  0.196266  1
  Ag  Ag13  1  0.000000  0.000000  0.500000  1
  Sn  Sn14  1  0.113907  0.886093  0.276004  1
  Sn  Sn15  1  0.772185  0.886093  0.276004  1
  Sn  Sn16  1  0.113907  0.227815  0.276004  1
  Sn  Sn17  1  0.886093  0.113907  0.723996  1
  Sn  Sn18  1  0.227815  0.113907  0.723996  1
  Sn  Sn19  1  0.886093  0.772185  0.723996  1
  Sn  Sn20  1  0.345979  0.000000  0.000000  1
  Sn  Sn21  1  0.654021  0.654021  0.000000  1
  Sn  Sn22  1  0.000000  0.345979  0.000000  1
  Sn  Sn23  1  0.345979  0.345979  0.000000  1
  Sn  Sn24  1  0.000000  0.654021  0.000000  1
  Sn  Sn25  1  0.654021  0.000000  0.000000  1
  Sn  Sn26  1  0.783464  0.566928  0.452615  1
  Sn  Sn27  1  0.783464  0.216536  0.452615  1
  Sn  Sn28  1  0.433072  0.216536  0.452615  1
  Sn  Sn29  1  0.216536  0.433072  0.547385  1
  Sn  Sn30  1  0.216536  0.783464  0.547385  1
  Sn  Sn31  1  0.566928  0.783464  0.547385  1
  Sn  Sn32  1  0.666667  0.333333  0.183492  1
  Sn  Sn33  1  0.333333  0.666667  0.816508  1
  Sn  Sn34  1  0.666667  0.333333  0.882680  1
  Sn  Sn35  1  0.333333  0.666667  0.117320  1
