# generated using pymatgen
data_Dy2SnP6Ir11Rh
_symmetry_space_group_name_H-M   'P 1'
_cell_length_a   9.71141091
_cell_length_b   9.68456774
_cell_length_c   3.98479407
_cell_angle_alpha   91.10367832
_cell_angle_beta   89.09069875
_cell_angle_gamma   119.26454285
_symmetry_Int_Tables_number   1
_chemical_formula_structural   Dy2SnP6Ir11Rh
_chemical_formula_sum   'Dy2 Sn1 P6 Ir11 Rh1'
_cell_volume   326.87197196
_cell_formula_units_Z   1
loop_
 _symmetry_equiv_pos_site_id
 _symmetry_equiv_pos_as_xyz
  1  'x, y, z'
loop_
 _atom_site_type_symbol
 _atom_site_label
 _atom_site_symmetry_multiplicity
 _atom_site_fract_x
 _atom_site_fract_y
 _atom_site_fract_z
 _atom_site_occupancy
  Dy  Dy0  1  0.330216  0.664926  0.765302  1
  Dy  Dy1  1  0.669267  0.334601  0.233237  1
  Sn  Sn2  1  0.001294  0.000895  0.515864  1
  P  P3  1  0.412335  0.284913  0.739268  1
  P  P4  1  0.716180  0.123373  0.726125  1
  P  P5  1  0.877262  0.593981  0.734473  1
  P  P6  1  0.589873  0.718122  0.254397  1
  P  P7  1  0.281014  0.877281  0.277151  1
  P  P8  1  0.121618  0.402471  0.265315  1
  Ir  Ir9  1  0.456387  0.069369  0.741715  1
  Ir  Ir10  1  0.930919  0.385665  0.738328  1
  Ir  Ir11  1  0.612060  0.541624  0.739896  1
  Ir  Ir12  1  0.540801  0.931316  0.250625  1
  Ir  Ir13  1  0.067546  0.609470  0.266565  1
  Ir  Ir14  1  0.391236  0.461605  0.258952  1
  Ir  Ir15  1  0.173454  0.291462  0.771081  1
  Ir  Ir16  1  0.707831  0.871268  0.760416  1
  Ir  Ir17  1  0.124956  0.832587  0.795175  1
  Ir  Ir18  1  0.830916  0.712839  0.227652  1
  Ir  Ir19  1  0.290864  0.131435  0.229953  1
  Rh  Rh20  1  0.873970  0.160796  0.208509  1
