# generated using pymatgen
data_Dy2Er4Tm6Co5Sn
_symmetry_space_group_name_H-M   'P 1'
_cell_length_a   8.18038894
_cell_length_b   8.18038834
_cell_length_c   8.17360604
_cell_angle_alpha   106.73180057
_cell_angle_beta   110.76817479
_cell_angle_gamma   110.98065920
_symmetry_Int_Tables_number   1
_chemical_formula_structural   Dy2Er4Tm6Co5Sn
_chemical_formula_sum   'Dy2 Er4 Tm6 Co5 Sn1'
_cell_volume   420.16286491
_cell_formula_units_Z   1
loop_
 _symmetry_equiv_pos_site_id
 _symmetry_equiv_pos_as_xyz
  1  'x, y, z'
loop_
 _atom_site_type_symbol
 _atom_site_label
 _atom_site_symmetry_multiplicity
 _atom_site_fract_x
 _atom_site_fract_y
 _atom_site_fract_z
 _atom_site_occupancy
  Dy  Dy0  1  0.193961  0.788342  0.982302  1
  Dy  Dy1  1  0.806039  0.211658  0.017698  1
  Er  Er2  1  0.474007  0.289729  0.185764  1
  Er  Er3  1  0.103965  0.288244  0.814236  1
  Er  Er4  1  0.896035  0.711756  0.185764  1
  Er  Er5  1  0.525993  0.710271  0.814236  1
  Tm  Tm6  1  0.306479  0.619159  0.315322  1
  Tm  Tm7  1  0.303837  0.991158  0.684678  1
  Tm  Tm8  1  0.693521  0.380841  0.684678  1
  Tm  Tm9  1  0.696163  0.008842  0.315322  1
  Tm  Tm10  1  0.194855  0.211959  0.406814  1
  Tm  Tm11  1  0.805145  0.788041  0.593186  1
  Co  Co12  1  0.501434  0.612873  0.114307  1
  Co  Co13  1  0.498566  0.387127  0.885693  1
  Co  Co14  1  0.376093  0.000934  0.377026  1
  Co  Co15  1  0.623907  0.999066  0.622974  1
  Co  Co16  1  0.000000  0.000000  0.000000  1
  Sn  Sn17  1  0.000000  0.500000  0.500000  1
