# generated using pymatgen
data_Sc10GaSi2As3
_symmetry_space_group_name_H-M   'P 1'
_cell_length_a   7.96418130
_cell_length_b   7.96168639
_cell_length_c   5.83023200
_cell_angle_alpha   90.00000000
_cell_angle_beta   90.00000000
_cell_angle_gamma   120.04169790
_symmetry_Int_Tables_number   1
_chemical_formula_structural   Sc10GaSi2As3
_chemical_formula_sum   'Sc10 Ga1 Si2 As3'
_cell_volume   320.02215094
_cell_formula_units_Z   1
loop_
 _symmetry_equiv_pos_site_id
 _symmetry_equiv_pos_as_xyz
  1  'x, y, z'
loop_
 _atom_site_type_symbol
 _atom_site_label
 _atom_site_symmetry_multiplicity
 _atom_site_fract_x
 _atom_site_fract_y
 _atom_site_fract_z
 _atom_site_occupancy
  Sc  Sc0  1  0.337939  0.668948  0.001510  1
  Sc  Sc1  1  0.664998  0.332769  0.498474  1
  Sc  Sc2  1  0.664998  0.332769  0.001526  1
  Sc  Sc3  1  0.337939  0.668948  0.498490  1
  Sc  Sc4  1  0.244188  0.000812  0.250000  1
  Sc  Sc5  1  0.247735  0.243561  0.750000  1
  Sc  Sc6  1  0.999528  0.757612  0.750000  1
  Sc  Sc7  1  0.993621  0.240419  0.250000  1
  Sc  Sc8  1  0.753318  0.759913  0.250000  1
  Sc  Sc9  1  0.757073  0.995570  0.750000  1
  Ga  Ga10  1  0.395434  0.999584  0.750000  1
  Si  Si11  1  0.604833  0.001296  0.250000  1
  Si  Si12  1  0.609181  0.607446  0.750000  1
  As  As13  1  0.001186  0.387909  0.750000  1
  As  As14  1  0.999777  0.612829  0.250000  1
  As  As15  1  0.388252  0.389617  0.250000  1
