# generated using pymatgen
data_Cs12TiAl(FeSe6)2
_symmetry_space_group_name_H-M   'P 1'
_cell_length_a   10.96171051
_cell_length_b   10.96171020
_cell_length_c   14.16649102
_cell_angle_alpha   90.00205323
_cell_angle_beta   90.00205474
_cell_angle_gamma   138.50390568
_symmetry_Int_Tables_number   1
_chemical_formula_structural   Cs12TiAl(FeSe6)2
_chemical_formula_sum   'Cs12 Ti1 Al1 Fe2 Se12'
_cell_volume   1127.84661529
_cell_formula_units_Z   1
loop_
 _symmetry_equiv_pos_site_id
 _symmetry_equiv_pos_as_xyz
  1  'x, y, z'
loop_
 _atom_site_type_symbol
 _atom_site_label
 _atom_site_symmetry_multiplicity
 _atom_site_fract_x
 _atom_site_fract_y
 _atom_site_fract_z
 _atom_site_occupancy
  Cs  Cs0  1  0.868241  0.866614  0.679225  1
  Cs  Cs1  1  0.133386  0.131759  0.320775  1
  Cs  Cs2  1  0.633401  0.629233  0.180169  1
  Cs  Cs3  1  0.370767  0.366599  0.819831  1
  Cs  Cs4  1  0.167254  0.523529  0.128058  1
  Cs  Cs5  1  0.476471  0.832746  0.871942  1
  Cs  Cs6  1  0.982521  0.336432  0.625239  1
  Cs  Cs7  1  0.663568  0.017479  0.374761  1
  Cs  Cs8  1  0.841711  0.490668  0.876881  1
  Cs  Cs9  1  0.509332  0.158289  0.123119  1
  Cs  Cs10  1  0.014278  0.660693  0.374302  1
  Cs  Cs11  1  0.339307  0.985722  0.625698  1
  Ti  Ti12  1  0.925799  0.074201  0.000000  1
  Al  Al13  1  0.420823  0.579177  0.500000  1
  Fe  Fe14  1  0.077059  0.922941  0.000000  1
  Fe  Fe15  1  0.578826  0.421174  0.500000  1
  Se  Se16  1  0.290937  0.292628  0.565722  1
  Se  Se17  1  0.707372  0.709063  0.434278  1
  Se  Se18  1  0.211909  0.214664  0.067682  1
  Se  Se19  1  0.785336  0.788091  0.932318  1
  Se  Se20  1  0.723346  0.010632  0.118081  1
  Se  Se21  1  0.989368  0.276654  0.881919  1
  Se  Se22  1  0.490012  0.779908  0.619115  1
  Se  Se23  1  0.220092  0.509988  0.380885  1
  Se  Se24  1  0.280492  0.991645  0.881075  1
  Se  Se25  1  0.008355  0.719508  0.118925  1
  Se  Se26  1  0.511068  0.221031  0.382149  1
  Se  Se27  1  0.778969  0.488932  0.617851  1
