# generated using pymatgen
data_NpTa2Co5Ni4
_symmetry_space_group_name_H-M   'P 1'
_cell_length_a   6.98287657
_cell_length_b   7.02481365
_cell_length_c   7.02481515
_cell_angle_alpha   43.63661686
_cell_angle_beta   43.72352903
_cell_angle_gamma   43.72353312
_symmetry_Int_Tables_number   1
_chemical_formula_structural   NpTa2Co5Ni4
_chemical_formula_sum   'Np1 Ta2 Co5 Ni4'
_cell_volume   149.26752856
_cell_formula_units_Z   1
loop_
 _symmetry_equiv_pos_site_id
 _symmetry_equiv_pos_as_xyz
  1  'x, y, z'
loop_
 _atom_site_type_symbol
 _atom_site_label
 _atom_site_symmetry_multiplicity
 _atom_site_fract_x
 _atom_site_fract_y
 _atom_site_fract_z
 _atom_site_occupancy
  Np  Np0  1  0.993198  0.005801  0.005801  1
  Ta  Ta1  1  0.219172  0.213325  0.213325  1
  Ta  Ta2  1  0.781818  0.784405  0.784405  1
  Co  Co3  1  0.724193  0.719583  0.229884  1
  Co  Co4  1  0.724193  0.229884  0.719583  1
  Co  Co5  1  0.279685  0.767114  0.280442  1
  Co  Co6  1  0.763032  0.284525  0.284525  1
  Co  Co7  1  0.279685  0.280442  0.767114  1
  Ni  Ni8  1  0.495454  0.503127  0.000703  1
  Ni  Ni9  1  0.495454  0.000703  0.503127  1
  Ni  Ni10  1  0.999694  0.499607  0.499607  1
  Ni  Ni11  1  0.244420  0.711481  0.711481  1
