# generated using pymatgen
data_Lu5Ga2Te
_symmetry_space_group_name_H-M   'P 1'
_cell_length_a   8.52303582
_cell_length_b   8.51804709
_cell_length_c   6.29408500
_cell_angle_alpha   90.00000000
_cell_angle_beta   90.00000000
_cell_angle_gamma   119.98063106
_symmetry_Int_Tables_number   1
_chemical_formula_structural   Lu5Ga2Te
_chemical_formula_sum   'Lu10 Ga4 Te2'
_cell_volume   395.80594762
_cell_formula_units_Z   2
loop_
 _symmetry_equiv_pos_site_id
 _symmetry_equiv_pos_as_xyz
  1  'x, y, z'
loop_
 _atom_site_type_symbol
 _atom_site_label
 _atom_site_symmetry_multiplicity
 _atom_site_fract_x
 _atom_site_fract_y
 _atom_site_fract_z
 _atom_site_occupancy
  Lu  Lu0  1  0.315469  0.657735  0.000000  1
  Lu  Lu1  1  0.671074  0.335536  0.500000  1
  Lu  Lu2  1  0.671074  0.335536  0.000000  1
  Lu  Lu3  1  0.315469  0.657735  0.500000  1
  Lu  Lu4  1  0.230798  0.998916  0.250000  1
  Lu  Lu5  1  0.230798  0.231882  0.750000  1
  Lu  Lu6  1  0.013555  0.764443  0.750000  1
  Lu  Lu7  1  0.013555  0.249112  0.250000  1
  Lu  Lu8  1  0.766959  0.750836  0.250000  1
  Lu  Lu9  1  0.766959  0.016122  0.750000  1
  Ga  Ga10  1  0.996993  0.396289  0.750000  1
  Ga  Ga11  1  0.996993  0.600704  0.250000  1
  Ga  Ga12  1  0.397846  0.395331  0.250000  1
  Ga  Ga13  1  0.397846  0.002516  0.750000  1
  Te  Te14  1  0.607306  0.995735  0.250000  1
  Te  Te15  1  0.607306  0.611571  0.750000  1
