# generated using pymatgen
data_Dy2Er3Tm5(CoSb2)2
_symmetry_space_group_name_H-M   'P 1'
_cell_length_a   7.79755000
_cell_length_b   8.74054500
_cell_length_c   12.09821200
_cell_angle_alpha   90.00000000
_cell_angle_beta   90.00000000
_cell_angle_gamma   90.00000000
_symmetry_Int_Tables_number   1
_chemical_formula_structural   Dy2Er3Tm5(CoSb2)2
_chemical_formula_sum   'Dy4 Er6 Tm10 Co4 Sb8'
_cell_volume   824.55166280
_cell_formula_units_Z   2
loop_
 _symmetry_equiv_pos_site_id
 _symmetry_equiv_pos_as_xyz
  1  'x, y, z'
loop_
 _atom_site_type_symbol
 _atom_site_label
 _atom_site_symmetry_multiplicity
 _atom_site_fract_x
 _atom_site_fract_y
 _atom_site_fract_z
 _atom_site_occupancy
  Dy  Dy0  1  0.621737  0.750000  0.307212  1
  Dy  Dy1  1  0.878263  0.750000  0.807212  1
  Dy  Dy2  1  0.378295  0.250000  0.692797  1
  Dy  Dy3  1  0.121705  0.250000  0.192797  1
  Er  Er4  1  0.155273  0.750000  0.203760  1
  Er  Er5  1  0.344727  0.750000  0.703760  1
  Er  Er6  1  0.844759  0.250000  0.796272  1
  Er  Er7  1  0.655241  0.250000  0.296272  1
  Er  Er8  1  0.450810  0.750000  0.997978  1
  Er  Er9  1  0.049190  0.750000  0.497978  1
  Tm  Tm10  1  0.549459  0.250000  0.002016  1
  Tm  Tm11  1  0.950541  0.250000  0.502016  1
  Tm  Tm12  1  0.822985  0.536179  0.065269  1
  Tm  Tm13  1  0.677015  0.963821  0.565269  1
  Tm  Tm14  1  0.176959  0.036451  0.934688  1
  Tm  Tm15  1  0.323041  0.463549  0.434688  1
  Tm  Tm16  1  0.176959  0.463549  0.934688  1
  Tm  Tm17  1  0.323041  0.036451  0.434688  1
  Tm  Tm18  1  0.822985  0.963821  0.065269  1
  Tm  Tm19  1  0.677015  0.536179  0.565269  1
  Co  Co20  1  0.433335  0.750000  0.491199  1
  Co  Co21  1  0.066665  0.750000  0.991199  1
  Co  Co22  1  0.566873  0.250000  0.508810  1
  Co  Co23  1  0.933127  0.250000  0.008810  1
  Sb  Sb24  1  0.929831  0.508444  0.328125  1
  Sb  Sb25  1  0.570169  0.991556  0.828125  1
  Sb  Sb26  1  0.070015  0.008969  0.671896  1
  Sb  Sb27  1  0.429985  0.491031  0.171896  1
  Sb  Sb28  1  0.070015  0.491031  0.671896  1
  Sb  Sb29  1  0.429985  0.008969  0.171896  1
  Sb  Sb30  1  0.929831  0.991556  0.328125  1
  Sb  Sb31  1  0.570169  0.508444  0.828125  1
