# generated using pymatgen
data_Nd3Lu2ThGa4
_symmetry_space_group_name_H-M   'P 1'
_cell_length_a   7.69217066
_cell_length_b   7.69217066
_cell_length_c   4.50948700
_cell_angle_alpha   90.00000000
_cell_angle_beta   90.00000000
_cell_angle_gamma   90.07524560
_symmetry_Int_Tables_number   1
_chemical_formula_structural   Nd3Lu2ThGa4
_chemical_formula_sum   'Nd3 Lu2 Th1 Ga4'
_cell_volume   266.82381332
_cell_formula_units_Z   1
loop_
 _symmetry_equiv_pos_site_id
 _symmetry_equiv_pos_as_xyz
  1  'x, y, z'
loop_
 _atom_site_type_symbol
 _atom_site_label
 _atom_site_symmetry_multiplicity
 _atom_site_fract_x
 _atom_site_fract_y
 _atom_site_fract_z
 _atom_site_occupancy
  Nd  Nd0  1  0.675376  0.175376  0.500000  1
  Nd  Nd1  1  0.175915  0.324726  0.500000  1
  Nd  Nd2  1  0.824726  0.675915  0.500000  1
  Lu  Lu3  1  0.999639  0.000536  0.000000  1
  Lu  Lu4  1  0.500536  0.499639  0.000000  1
  Th  Th5  1  0.325820  0.825820  0.500000  1
  Ga  Ga6  1  0.879559  0.379559  0.000000  1
  Ga  Ga7  1  0.377953  0.118818  0.000000  1
  Ga  Ga8  1  0.618818  0.877953  0.000000  1
  Ga  Ga9  1  0.121658  0.621658  0.000000  1
