# generated using pymatgen
data_Ca4Ac7Pr9Si16
_symmetry_space_group_name_H-M   'P 1'
_cell_length_a   8.08321360
_cell_length_b   8.09283362
_cell_length_c   15.36456046
_cell_angle_alpha   90.13808609
_cell_angle_beta   89.93338754
_cell_angle_gamma   90.14923592
_symmetry_Int_Tables_number   1
_chemical_formula_structural   Ca4Ac7Pr9Si16
_chemical_formula_sum   'Ca4 Ac7 Pr9 Si16'
_cell_volume   1005.08266512
_cell_formula_units_Z   1
loop_
 _symmetry_equiv_pos_site_id
 _symmetry_equiv_pos_as_xyz
  1  'x, y, z'
loop_
 _atom_site_type_symbol
 _atom_site_label
 _atom_site_symmetry_multiplicity
 _atom_site_fract_x
 _atom_site_fract_y
 _atom_site_fract_z
 _atom_site_occupancy
  Ca  Ca0  1  0.309667  0.312385  0.999968  1
  Ca  Ca1  1  0.187974  0.809025  0.248808  1
  Ca  Ca2  1  0.810539  0.190077  0.750603  1
  Ca  Ca3  1  0.689141  0.689216  0.499732  1
  Ac  Ac4  1  0.371288  0.012385  0.449654  1
  Ac  Ac5  1  0.486508  0.872367  0.700742  1
  Ac  Ac6  1  0.512867  0.128377  0.200302  1
  Ac  Ac7  1  0.870603  0.486616  0.297898  1
  Ac  Ac8  1  0.127163  0.514258  0.800593  1
  Ac  Ac9  1  0.629556  0.987189  0.952499  1
  Ac  Ac10  1  0.012514  0.371745  0.549250  1
  Pr  Pr11  1  0.993349  0.621163  0.053417  1
  Pr  Pr12  1  0.124791  0.984849  0.877654  1
  Pr  Pr13  1  0.514580  0.626118  0.126202  1
  Pr  Pr14  1  0.485179  0.373754  0.626928  1
  Pr  Pr15  1  0.627707  0.516200  0.874307  1
  Pr  Pr16  1  0.374260  0.485620  0.372382  1
  Pr  Pr17  1  0.873918  0.013816  0.375808  1
  Pr  Pr18  1  0.985784  0.124916  0.122788  1
  Pr  Pr19  1  0.014514  0.874716  0.623032  1
  Si  Si20  1  0.202370  0.164297  0.702852  1
  Si  Si21  1  0.330763  0.699565  0.953746  1
  Si  Si22  1  0.663454  0.296871  0.451556  1
  Si  Si23  1  0.708188  0.341997  0.049649  1
  Si  Si24  1  0.297460  0.663737  0.547528  1
  Si  Si25  1  0.799983  0.833934  0.198582  1
  Si  Si26  1  0.163268  0.203188  0.297057  1
  Si  Si27  1  0.834727  0.799405  0.797488  1
  Si  Si28  1  0.281544  0.914791  0.061445  1
  Si  Si29  1  0.583195  0.785238  0.309289  1
  Si  Si30  1  0.418858  0.214487  0.812137  1
  Si  Si31  1  0.785205  0.581920  0.688852  1
  Si  Si32  1  0.212535  0.419805  0.187763  1
  Si  Si33  1  0.713680  0.081424  0.560761  1
  Si  Si34  1  0.921809  0.291140  0.940352  1
  Si  Si35  1  0.081060  0.713409  0.438383  1
