# generated using pymatgen
data_Sc4Al2Si3Ge
_symmetry_space_group_name_H-M   'P 1'
_cell_length_a   6.64323915
_cell_length_b   6.64323915
_cell_length_c   4.01405900
_cell_angle_alpha   90.00000000
_cell_angle_beta   90.00000000
_cell_angle_gamma   89.90788846
_symmetry_Int_Tables_number   1
_chemical_formula_structural   Sc4Al2Si3Ge
_chemical_formula_sum   'Sc4 Al2 Si3 Ge1'
_cell_volume   177.15073708
_cell_formula_units_Z   1
loop_
 _symmetry_equiv_pos_site_id
 _symmetry_equiv_pos_as_xyz
  1  'x, y, z'
loop_
 _atom_site_type_symbol
 _atom_site_label
 _atom_site_symmetry_multiplicity
 _atom_site_fract_x
 _atom_site_fract_y
 _atom_site_fract_z
 _atom_site_occupancy
  Sc  Sc0  1  0.827169  0.672831  0.500000  1
  Sc  Sc1  1  0.175457  0.324543  0.500000  1
  Sc  Sc2  1  0.675111  0.179056  0.500000  1
  Sc  Sc3  1  0.320944  0.824889  0.500000  1
  Al  Al4  1  0.003502  0.001392  0.000000  1
  Al  Al5  1  0.498608  0.496498  0.000000  1
  Si  Si6  1  0.370557  0.129443  0.000000  1
  Si  Si7  1  0.874508  0.373982  0.000000  1
  Si  Si8  1  0.126018  0.625492  0.000000  1
  Ge  Ge9  1  0.628128  0.871872  0.000000  1
