# generated using pymatgen
data_BaSb11POs3Pt
_symmetry_space_group_name_H-M   'P 1'
_cell_length_a   8.11797929
_cell_length_b   8.11609051
_cell_length_c   8.15499971
_cell_angle_alpha   109.14778323
_cell_angle_beta   110.42915110
_cell_angle_gamma   108.85667191
_symmetry_Int_Tables_number   1
_chemical_formula_structural   BaSb11POs3Pt
_chemical_formula_sum   'Ba1 Sb11 P1 Os3 Pt1'
_cell_volume   413.44738927
_cell_formula_units_Z   1
loop_
 _symmetry_equiv_pos_site_id
 _symmetry_equiv_pos_as_xyz
  1  'x, y, z'
loop_
 _atom_site_type_symbol
 _atom_site_label
 _atom_site_symmetry_multiplicity
 _atom_site_fract_x
 _atom_site_fract_y
 _atom_site_fract_z
 _atom_site_occupancy
  Ba  Ba0  1  0.005204  0.999290  0.994371  1
  Sb  Sb1  1  0.664689  0.825246  0.161697  1
  Sb  Sb2  1  0.643563  0.486624  0.850729  1
  Sb  Sb3  1  0.343405  0.487870  0.135217  1
  Sb  Sb4  1  0.184438  0.842427  0.341409  1
  Sb  Sb5  1  0.821468  0.161045  0.662973  1
  Sb  Sb6  1  0.500526  0.851091  0.658451  1
  Sb  Sb7  1  0.499618  0.153374  0.339887  1
  Sb  Sb8  1  0.838878  0.341787  0.180226  1
  Sb  Sb9  1  0.158343  0.660664  0.818706  1
  Sb  Sb10  1  0.848913  0.659028  0.500035  1
  Sb  Sb11  1  0.155154  0.343247  0.505392  1
  P  P12  1  0.327601  0.164362  0.835977  1
  Os  Os13  1  0.020538  0.010829  0.523606  1
  Os  Os14  1  0.487070  0.010883  0.990628  1
  Os  Os15  1  0.000615  0.500544  0.000850  1
  Pt  Pt16  1  0.499976  0.501689  0.499845  1
