# generated using pymatgen
data_Ho3Al12(OsRu)2
_symmetry_space_group_name_H-M   'P 1'
_cell_length_a   8.78346733
_cell_length_b   8.79866265
_cell_length_c   9.58226400
_cell_angle_alpha   90.00000000
_cell_angle_beta   90.00000000
_cell_angle_gamma   120.05724854
_symmetry_Int_Tables_number   1
_chemical_formula_structural   Ho3Al12(OsRu)2
_chemical_formula_sum   'Ho6 Al24 Os4 Ru4'
_cell_volume   640.95951413
_cell_formula_units_Z   2
loop_
 _symmetry_equiv_pos_site_id
 _symmetry_equiv_pos_as_xyz
  1  'x, y, z'
loop_
 _atom_site_type_symbol
 _atom_site_label
 _atom_site_symmetry_multiplicity
 _atom_site_fract_x
 _atom_site_fract_y
 _atom_site_fract_z
 _atom_site_occupancy
  Ho  Ho0  1  0.194526  0.385973  0.250000  1
  Ho  Ho1  1  0.805474  0.614027  0.750000  1
  Ho  Ho2  1  0.612409  0.806205  0.250000  1
  Ho  Ho3  1  0.387591  0.193795  0.750000  1
  Ho  Ho4  1  0.194526  0.808554  0.250000  1
  Ho  Ho5  1  0.805474  0.191446  0.750000  1
  Al  Al6  1  0.332588  0.666295  0.019031  1
  Al  Al7  1  0.667412  0.333705  0.980969  1
  Al  Al8  1  0.667412  0.333705  0.519031  1
  Al  Al9  1  0.332588  0.666295  0.480969  1
  Al  Al10  1  0.162746  0.325242  0.576849  1
  Al  Al11  1  0.837254  0.674758  0.423151  1
  Al  Al12  1  0.674347  0.837174  0.576114  1
  Al  Al13  1  0.837254  0.674758  0.076849  1
  Al  Al14  1  0.325653  0.162826  0.423886  1
  Al  Al15  1  0.162746  0.325242  0.923151  1
  Al  Al16  1  0.162746  0.837505  0.576849  1
  Al  Al17  1  0.325653  0.162826  0.076114  1
  Al  Al18  1  0.837254  0.162495  0.423151  1
  Al  Al19  1  0.674347  0.837174  0.923886  1
  Al  Al20  1  0.837254  0.162495  0.076849  1
  Al  Al21  1  0.162746  0.837505  0.923151  1
  Al  Al22  1  0.561291  0.123365  0.250000  1
  Al  Al23  1  0.438709  0.876635  0.750000  1
  Al  Al24  1  0.877841  0.438920  0.250000  1
  Al  Al25  1  0.122159  0.561080  0.750000  1
  Al  Al26  1  0.561291  0.437924  0.250000  1
  Al  Al27  1  0.438709  0.562076  0.750000  1
  Al  Al28  1  0.999900  0.999950  0.250000  1
  Al  Al29  1  0.000100  0.000050  0.750000  1
  Os  Os30  1  0.500000  0.000000  0.000000  1
  Os  Os31  1  0.500000  0.000000  0.500000  1
  Os  Os32  1  0.500000  0.500000  0.000000  1
  Os  Os33  1  0.500000  0.500000  0.500000  1
  Ru  Ru34  1  0.000000  0.500000  0.000000  1
  Ru  Ru35  1  0.000000  0.500000  0.500000  1
  Ru  Ru36  1  0.000000  0.000000  0.000000  1
  Ru  Ru37  1  0.000000  0.000000  0.500000  1
