# generated using pymatgen
data_TcMo3(PRu)4
_symmetry_space_group_name_H-M   'P 1'
_cell_length_a   3.91257300
_cell_length_b   6.03571410
_cell_length_c   6.94276911
_cell_angle_alpha   90.02079248
_cell_angle_beta   90.00000000
_cell_angle_gamma   90.00000000
_symmetry_Int_Tables_number   1
_chemical_formula_structural   TcMo3(PRu)4
_chemical_formula_sum   'Tc1 Mo3 P4 Ru4'
_cell_volume   163.95467614
_cell_formula_units_Z   1
loop_
 _symmetry_equiv_pos_site_id
 _symmetry_equiv_pos_as_xyz
  1  'x, y, z'
loop_
 _atom_site_type_symbol
 _atom_site_label
 _atom_site_symmetry_multiplicity
 _atom_site_fract_x
 _atom_site_fract_y
 _atom_site_fract_z
 _atom_site_occupancy
  Tc  Tc0  1  0.250000  0.029200  0.163286  1
  Mo  Mo1  1  0.250000  0.524408  0.331044  1
  Mo  Mo2  1  0.750000  0.973381  0.834503  1
  Mo  Mo3  1  0.750000  0.474972  0.668187  1
  P  P4  1  0.250000  0.755837  0.616242  1
  P  P5  1  0.250000  0.253808  0.886720  1
  P  P6  1  0.750000  0.243680  0.384293  1
  P  P7  1  0.750000  0.746022  0.114734  1
  Ru  Ru8  1  0.250000  0.140006  0.570512  1
  Ru  Ru9  1  0.250000  0.639655  0.931243  1
  Ru  Ru10  1  0.750000  0.860543  0.428515  1
  Ru  Ru11  1  0.750000  0.358489  0.070720  1
