# generated using pymatgen
data_Zr10In5Ga2Sn
_symmetry_space_group_name_H-M   'P 1'
_cell_length_a   8.78199786
_cell_length_b   8.78199861
_cell_length_c   5.90575100
_cell_angle_alpha   90.00000000
_cell_angle_beta   90.00000000
_cell_angle_gamma   119.89252693
_symmetry_Int_Tables_number   1
_chemical_formula_structural   Zr10In5Ga2Sn
_chemical_formula_sum   'Zr10 In5 Ga2 Sn1'
_cell_volume   394.87693287
_cell_formula_units_Z   1
loop_
 _symmetry_equiv_pos_site_id
 _symmetry_equiv_pos_as_xyz
  1  'x, y, z'
loop_
 _atom_site_type_symbol
 _atom_site_label
 _atom_site_symmetry_multiplicity
 _atom_site_fract_x
 _atom_site_fract_y
 _atom_site_fract_z
 _atom_site_occupancy
  Zr  Zr0  1  0.999920  0.264555  0.250000  1
  Zr  Zr1  1  0.736014  0.997460  0.750000  1
  Zr  Zr2  1  0.736156  0.736156  0.250000  1
  Zr  Zr3  1  0.666438  0.334069  0.499643  1
  Zr  Zr4  1  0.997460  0.736014  0.750000  1
  Zr  Zr5  1  0.264731  0.264731  0.750000  1
  Zr  Zr6  1  0.334069  0.666438  0.000357  1
  Zr  Zr7  1  0.666438  0.334069  0.000357  1
  Zr  Zr8  1  0.334069  0.666438  0.499643  1
  Zr  Zr9  1  0.264555  0.999920  0.250000  1
  In  In10  1  0.615009  0.000593  0.250000  1
  In  In11  1  0.384722  0.999142  0.750000  1
  In  In12  1  0.383817  0.383817  0.250000  1
  In  In13  1  0.000593  0.615009  0.250000  1
  In  In14  1  0.999142  0.384722  0.750000  1
  Ga  Ga15  1  0.001529  0.001529  0.001209  1
  Ga  Ga16  1  0.001529  0.001529  0.498791  1
  Sn  Sn17  1  0.613808  0.613808  0.750000  1
