# generated using pymatgen
data_Ta8CrTc3B8
_symmetry_space_group_name_H-M   'P 1'
_cell_length_a   6.00511200
_cell_length_b   6.00511200
_cell_length_c   6.59374100
_cell_angle_alpha   90.00000000
_cell_angle_beta   90.00000000
_cell_angle_gamma   90.00000000
_symmetry_Int_Tables_number   1
_chemical_formula_structural   Ta8CrTc3B8
_chemical_formula_sum   'Ta8 Cr1 Tc3 B8'
_cell_volume   237.77933476
_cell_formula_units_Z   1
loop_
 _symmetry_equiv_pos_site_id
 _symmetry_equiv_pos_as_xyz
  1  'x, y, z'
loop_
 _atom_site_type_symbol
 _atom_site_label
 _atom_site_symmetry_multiplicity
 _atom_site_fract_x
 _atom_site_fract_y
 _atom_site_fract_z
 _atom_site_occupancy
  Ta  Ta0  1  0.679136  0.824961  0.496466  1
  Ta  Ta1  1  0.320864  0.175039  0.496466  1
  Ta  Ta2  1  0.825129  0.320726  0.003524  1
  Ta  Ta3  1  0.174871  0.679274  0.003524  1
  Ta  Ta4  1  0.824961  0.320864  0.496466  1
  Ta  Ta5  1  0.175039  0.679136  0.496466  1
  Ta  Ta6  1  0.320726  0.174871  0.003524  1
  Ta  Ta7  1  0.679274  0.825129  0.003524  1
  Cr  Cr8  1  0.000000  0.000000  0.250318  1
  Tc  Tc9  1  0.500000  0.500000  0.249635  1
  Tc  Tc10  1  0.000000  0.000000  0.749751  1
  Tc  Tc11  1  0.500000  0.500000  0.750409  1
  B  B12  1  0.386449  0.889420  0.249990  1
  B  B13  1  0.613551  0.110580  0.249990  1
  B  B14  1  0.111621  0.389285  0.749991  1
  B  B15  1  0.888379  0.610715  0.749991  1
  B  B16  1  0.889420  0.613551  0.249990  1
  B  B17  1  0.110580  0.386449  0.249990  1
  B  B18  1  0.389285  0.888379  0.749991  1
  B  B19  1  0.610715  0.111621  0.749991  1
