# generated using pymatgen
data_Tb4Er2Al24Os5Pt3
_symmetry_space_group_name_H-M   'P 1'
_cell_length_a   8.81471420
_cell_length_b   8.83530261
_cell_length_c   9.54305921
_cell_angle_alpha   90.11132227
_cell_angle_beta   89.74411315
_cell_angle_gamma   119.56462120
_symmetry_Int_Tables_number   1
_chemical_formula_structural   Tb4Er2Al24Os5Pt3
_chemical_formula_sum   'Tb4 Er2 Al24 Os5 Pt3'
_cell_volume   646.44594672
_cell_formula_units_Z   1
loop_
 _symmetry_equiv_pos_site_id
 _symmetry_equiv_pos_as_xyz
  1  'x, y, z'
loop_
 _atom_site_type_symbol
 _atom_site_label
 _atom_site_symmetry_multiplicity
 _atom_site_fract_x
 _atom_site_fract_y
 _atom_site_fract_z
 _atom_site_occupancy
  Tb  Tb0  1  0.187489  0.382569  0.250965  1
  Tb  Tb1  1  0.812511  0.617431  0.749035  1
  Tb  Tb2  1  0.614663  0.814086  0.252073  1
  Tb  Tb3  1  0.385337  0.185914  0.747927  1
  Er  Er4  1  0.196252  0.808685  0.251878  1
  Er  Er5  1  0.803748  0.191315  0.748122  1
  Al  Al6  1  0.335149  0.671302  0.029179  1
  Al  Al7  1  0.664851  0.328698  0.970821  1
  Al  Al8  1  0.669211  0.331232  0.527274  1
  Al  Al9  1  0.330789  0.668768  0.472726  1
  Al  Al10  1  0.157787  0.325339  0.575685  1
  Al  Al11  1  0.842213  0.674661  0.424315  1
  Al  Al12  1  0.673476  0.840968  0.575887  1
  Al  Al13  1  0.837262  0.676321  0.078316  1
  Al  Al14  1  0.326524  0.159032  0.424113  1
  Al  Al15  1  0.162738  0.323679  0.921684  1
  Al  Al16  1  0.163938  0.835075  0.575750  1
  Al  Al17  1  0.325549  0.158575  0.076637  1
  Al  Al18  1  0.836062  0.164925  0.424250  1
  Al  Al19  1  0.674451  0.841425  0.923363  1
  Al  Al20  1  0.831801  0.159468  0.077084  1
  Al  Al21  1  0.168199  0.840532  0.922916  1
  Al  Al22  1  0.560444  0.124674  0.249787  1
  Al  Al23  1  0.439556  0.875326  0.750213  1
  Al  Al24  1  0.874285  0.438354  0.252682  1
  Al  Al25  1  0.125715  0.561646  0.747318  1
  Al  Al26  1  0.562759  0.436524  0.249724  1
  Al  Al27  1  0.437241  0.563476  0.750276  1
  Al  Al28  1  0.999520  0.001796  0.250215  1
  Al  Al29  1  0.000480  0.998204  0.749785  1
  Os  Os30  1  0.500000  0.000000  0.000000  1
  Os  Os31  1  0.500000  0.000000  0.500000  1
  Os  Os32  1  0.000000  0.500000  0.500000  1
  Os  Os33  1  0.000000  0.000000  0.000000  1
  Os  Os34  1  0.000000  0.000000  0.500000  1
  Pt  Pt35  1  0.000000  0.500000  0.000000  1
  Pt  Pt36  1  0.500000  0.500000  0.000000  1
  Pt  Pt37  1  0.500000  0.500000  0.500000  1
