# generated using pymatgen
data_Yb12Er5Lu3Si16
_symmetry_space_group_name_H-M   'P 1'
_cell_length_a   7.33777891
_cell_length_b   7.77429454
_cell_length_c   15.02240280
_cell_angle_alpha   90.00231971
_cell_angle_beta   89.96257069
_cell_angle_gamma   90.04285898
_symmetry_Int_Tables_number   1
_chemical_formula_structural   Yb12Er5Lu3Si16
_chemical_formula_sum   'Yb12 Er5 Lu3 Si16'
_cell_volume   856.96838600
_cell_formula_units_Z   1
loop_
 _symmetry_equiv_pos_site_id
 _symmetry_equiv_pos_as_xyz
  1  'x, y, z'
loop_
 _atom_site_type_symbol
 _atom_site_label
 _atom_site_symmetry_multiplicity
 _atom_site_fract_x
 _atom_site_fract_y
 _atom_site_fract_z
 _atom_site_occupancy
  Yb  Yb0  1  0.974612  0.816603  0.404175  1
  Yb  Yb1  1  0.474872  0.683219  0.095766  1
  Yb  Yb2  1  0.525318  0.316870  0.596018  1
  Yb  Yb3  1  0.025111  0.183197  0.904174  1
  Yb  Yb4  1  0.025793  0.183354  0.596059  1
  Yb  Yb5  1  0.525933  0.316719  0.904086  1
  Yb  Yb6  1  0.474231  0.683198  0.404089  1
  Yb  Yb7  1  0.973921  0.816631  0.095810  1
  Yb  Yb8  1  0.351498  0.020122  0.749936  1
  Yb  Yb9  1  0.851462  0.479865  0.750101  1
  Yb  Yb10  1  0.148424  0.520474  0.249906  1
  Yb  Yb11  1  0.648742  0.979606  0.249725  1
  Er  Er12  1  0.315001  0.176791  0.120948  1
  Er  Er13  1  0.815048  0.323382  0.378933  1
  Er  Er14  1  0.184980  0.676858  0.878987  1
  Er  Er15  1  0.685127  0.823085  0.621189  1
  Er  Er16  1  0.314793  0.176660  0.378910  1
  Lu  Lu17  1  0.815051  0.323732  0.121046  1
  Lu  Lu18  1  0.185069  0.676352  0.621303  1
  Lu  Lu19  1  0.685024  0.823606  0.878848  1
  Si  Si20  1  0.857919  0.534307  0.538605  1
  Si  Si21  1  0.358262  0.966105  0.961498  1
  Si  Si22  1  0.642898  0.033402  0.461927  1
  Si  Si23  1  0.141754  0.466017  0.038463  1
  Si  Si24  1  0.144248  0.466887  0.462495  1
  Si  Si25  1  0.645397  0.033814  0.037915  1
  Si  Si26  1  0.355272  0.965414  0.538545  1
  Si  Si27  1  0.854534  0.533874  0.962109  1
  Si  Si28  1  0.976785  0.878826  0.750343  1
  Si  Si29  1  0.476786  0.621151  0.749742  1
  Si  Si30  1  0.523863  0.379677  0.249370  1
  Si  Si31  1  0.022570  0.120653  0.249697  1
  Si  Si32  1  0.248690  0.396911  0.749569  1
  Si  Si33  1  0.748803  0.102999  0.750502  1
  Si  Si34  1  0.250573  0.896270  0.249832  1
  Si  Si35  1  0.751636  0.603365  0.249378  1
