# generated using pymatgen
data_SrYbCuPd5O8
_symmetry_space_group_name_H-M   'P 1'
_cell_length_a   5.83244200
_cell_length_b   5.81771300
_cell_length_c   5.83472800
_cell_angle_alpha   90.00000000
_cell_angle_beta   90.00000000
_cell_angle_gamma   90.00000000
_symmetry_Int_Tables_number   1
_chemical_formula_structural   SrYbCuPd5O8
_chemical_formula_sum   'Sr1 Yb1 Cu1 Pd5 O8'
_cell_volume   197.98091936
_cell_formula_units_Z   1
loop_
 _symmetry_equiv_pos_site_id
 _symmetry_equiv_pos_as_xyz
  1  'x, y, z'
loop_
 _atom_site_type_symbol
 _atom_site_label
 _atom_site_symmetry_multiplicity
 _atom_site_fract_x
 _atom_site_fract_y
 _atom_site_fract_z
 _atom_site_occupancy
  Sr  Sr0  1  0.998759  0.000000  0.000000  1
  Yb  Yb1  1  0.502790  0.500000  0.500000  1
  Cu  Cu2  1  0.741756  0.000000  0.500000  1
  Pd  Pd3  1  0.996155  0.500000  0.254248  1
  Pd  Pd4  1  0.996155  0.500000  0.745752  1
  Pd  Pd5  1  0.256171  0.000000  0.500000  1
  Pd  Pd6  1  0.503162  0.744667  0.000000  1
  Pd  Pd7  1  0.503162  0.255333  0.000000  1
  O  O8  1  0.742519  0.251534  0.261717  1
  O  O9  1  0.257953  0.257803  0.742097  1
  O  O10  1  0.257953  0.742197  0.257903  1
  O  O11  1  0.742519  0.748466  0.738283  1
  O  O12  1  0.257953  0.257803  0.257903  1
  O  O13  1  0.742519  0.748466  0.261717  1
  O  O14  1  0.742519  0.251534  0.738283  1
  O  O15  1  0.257953  0.742197  0.742097  1
