# generated using pymatgen
data_Nd4FeRu3Br2
_symmetry_space_group_name_H-M   'P 1'
_cell_length_a   4.19782600
_cell_length_b   4.19782640
_cell_length_c   16.98713800
_cell_angle_alpha   90.00000000
_cell_angle_beta   90.00000000
_cell_angle_gamma   119.99998106
_symmetry_Int_Tables_number   1
_chemical_formula_structural   Nd4FeRu3Br2
_chemical_formula_sum   'Nd4 Fe1 Ru3 Br2'
_cell_volume   259.23870150
_cell_formula_units_Z   1
loop_
 _symmetry_equiv_pos_site_id
 _symmetry_equiv_pos_as_xyz
  1  'x, y, z'
loop_
 _atom_site_type_symbol
 _atom_site_label
 _atom_site_symmetry_multiplicity
 _atom_site_fract_x
 _atom_site_fract_y
 _atom_site_fract_z
 _atom_site_occupancy
  Nd  Nd0  1  0.000000  0.000000  0.108643  1
  Nd  Nd1  1  0.000000  0.000000  0.891110  1
  Nd  Nd2  1  0.000000  0.000000  0.614307  1
  Nd  Nd3  1  0.000000  0.000000  0.385976  1
  Fe  Fe4  1  0.333333  0.666667  0.994213  1
  Ru  Ru5  1  0.333333  0.666667  0.510998  1
  Ru  Ru6  1  0.666667  0.333333  0.489240  1
  Ru  Ru7  1  0.666667  0.333333  0.005147  1
  Br  Br8  1  0.333333  0.666667  0.249234  1
  Br  Br9  1  0.666667  0.333333  0.751132  1
