# generated using pymatgen
data_Tb7Er8Th(InIr)4
_symmetry_space_group_name_H-M   'P 1'
_cell_length_a   9.68399419
_cell_length_b   9.66013575
_cell_length_c   9.68100079
_cell_angle_alpha   60.05624263
_cell_angle_beta   60.16024874
_cell_angle_gamma   60.03265068
_symmetry_Int_Tables_number   1
_chemical_formula_structural   Tb7Er8Th(InIr)4
_chemical_formula_sum   'Tb7 Er8 Th1 In4 Ir4'
_cell_volume   641.59108662
_cell_formula_units_Z   1
loop_
 _symmetry_equiv_pos_site_id
 _symmetry_equiv_pos_as_xyz
  1  'x, y, z'
loop_
 _atom_site_type_symbol
 _atom_site_label
 _atom_site_symmetry_multiplicity
 _atom_site_fract_x
 _atom_site_fract_y
 _atom_site_fract_z
 _atom_site_occupancy
  Tb  Tb0  1  0.690999  0.308804  0.690623  1
  Tb  Tb1  1  0.689966  0.688359  0.310806  1
  Tb  Tb2  1  0.689852  0.310508  0.311150  1
  Tb  Tb3  1  0.310008  0.688352  0.689516  1
  Tb  Tb4  1  0.559470  0.939474  0.559647  1
  Tb  Tb5  1  0.698899  0.103071  0.100253  1
  Tb  Tb6  1  0.559338  0.939521  0.940780  1
  Er  Er7  1  0.942898  0.939160  0.558432  1
  Er  Er8  1  0.940079  0.557779  0.937855  1
  Er  Er9  1  0.310388  0.688859  0.311946  1
  Er  Er10  1  0.940221  0.558746  0.561993  1
  Er  Er11  1  0.308215  0.309517  0.691564  1
  Er  Er12  1  0.098038  0.099497  0.099091  1
  Er  Er13  1  0.562294  0.559205  0.938969  1
  Er  Er14  1  0.099825  0.101756  0.700136  1
  Th  Th15  1  0.098262  0.708179  0.097736  1
  In  In16  1  0.332777  0.333689  0.334133  1
  In  In17  1  0.001452  0.332305  0.332866  1
  In  In18  1  0.332242  0.000571  0.333296  1
  In  In19  1  0.332400  0.332777  0.000543  1
  Ir  Ir20  1  0.892851  0.891807  0.890308  1
  Ir  Ir21  1  0.893661  0.890849  0.325100  1
  Ir  Ir22  1  0.323169  0.891999  0.892669  1
  Ir  Ir23  1  0.892699  0.325218  0.890589  1
