# generated using pymatgen
data_Rb2BaAs2Pt3
_symmetry_space_group_name_H-M   'P 1'
_cell_length_a   8.01032746
_cell_length_b   8.01032727
_cell_length_c   8.01032825
_cell_angle_alpha   42.55523318
_cell_angle_beta   42.55523581
_cell_angle_gamma   42.55522952
_symmetry_Int_Tables_number   1
_chemical_formula_structural   Rb2BaAs2Pt3
_chemical_formula_sum   'Rb2 Ba1 As2 Pt3'
_cell_volume   212.89150242
_cell_formula_units_Z   1
loop_
 _symmetry_equiv_pos_site_id
 _symmetry_equiv_pos_as_xyz
  1  'x, y, z'
loop_
 _atom_site_type_symbol
 _atom_site_label
 _atom_site_symmetry_multiplicity
 _atom_site_fract_x
 _atom_site_fract_y
 _atom_site_fract_z
 _atom_site_occupancy
  Rb  Rb0  1  0.507508  0.507508  0.507508  1
  Rb  Rb1  1  0.909954  0.909954  0.909954  1
  Ba  Ba2  1  0.078381  0.078381  0.078381  1
  As  As3  1  0.248738  0.248738  0.248738  1
  As  As4  1  0.753233  0.753233  0.753233  1
  Pt  Pt5  1  0.499658  0.499658  0.002871  1
  Pt  Pt6  1  0.499658  0.002871  0.499658  1
  Pt  Pt7  1  0.002871  0.499658  0.499658  1
