# generated using pymatgen
data_YTm3Ti(ReN4)3
_symmetry_space_group_name_H-M   'P 1'
_cell_length_a   7.29309891
_cell_length_b   7.37843166
_cell_length_c   6.22914667
_cell_angle_alpha   72.58232603
_cell_angle_beta   73.83653446
_cell_angle_gamma   81.80781124
_symmetry_Int_Tables_number   1
_chemical_formula_structural   YTm3Ti(ReN4)3
_chemical_formula_sum   'Y1 Tm3 Ti1 Re3 N12'
_cell_volume   306.54761012
_cell_formula_units_Z   1
loop_
 _symmetry_equiv_pos_site_id
 _symmetry_equiv_pos_as_xyz
  1  'x, y, z'
loop_
 _atom_site_type_symbol
 _atom_site_label
 _atom_site_symmetry_multiplicity
 _atom_site_fract_x
 _atom_site_fract_y
 _atom_site_fract_z
 _atom_site_occupancy
  Y  Y0  1  0.300677  0.720819  0.738664  1
  Tm  Tm1  1  0.907544  0.084878  0.766297  1
  Tm  Tm2  1  0.089052  0.906007  0.262432  1
  Tm  Tm3  1  0.710437  0.276127  0.242467  1
  Ti  Ti4  1  0.618428  0.802417  0.270847  1
  Re  Re5  1  0.198974  0.378518  0.218229  1
  Re  Re6  1  0.380315  0.204851  0.721063  1
  Re  Re7  1  0.794801  0.616569  0.782093  1
  N  N8  1  0.657431  0.617347  0.074989  1
  N  N9  1  0.367513  0.881132  0.349971  1
  N  N10  1  0.364462  0.331044  0.418032  1
  N  N11  1  0.122365  0.623736  0.167635  1
  N  N12  1  0.000955  0.223427  0.338088  1
  N  N13  1  0.791455  0.002095  0.147348  1
  N  N14  1  0.223134  0.008945  0.845666  1
  N  N15  1  0.628895  0.129105  0.660032  1
  N  N16  1  0.334590  0.369057  0.915894  1
  N  N17  1  0.887932  0.374338  0.827930  1
  N  N18  1  0.633464  0.663985  0.587671  1
  N  N19  1  0.987576  0.785603  0.664654  1
