# generated using pymatgen
data_Ce4Ag3Au10
_symmetry_space_group_name_H-M   'P 1'
_cell_length_a   8.73056241
_cell_length_b   8.72699282
_cell_length_c   10.15966949
_cell_angle_alpha   89.81384733
_cell_angle_beta   90.01300082
_cell_angle_gamma   109.35009386
_symmetry_Int_Tables_number   1
_chemical_formula_structural   Ce4Ag3Au10
_chemical_formula_sum   'Ce8 Ag6 Au20'
_cell_volume   730.35028837
_cell_formula_units_Z   2
loop_
 _symmetry_equiv_pos_site_id
 _symmetry_equiv_pos_as_xyz
  1  'x, y, z'
loop_
 _atom_site_type_symbol
 _atom_site_label
 _atom_site_symmetry_multiplicity
 _atom_site_fract_x
 _atom_site_fract_y
 _atom_site_fract_z
 _atom_site_occupancy
  Ce  Ce0  1  0.702438  0.297566  0.000001  1
  Ce  Ce1  1  0.202476  0.797517  0.499973  1
  Ce  Ce2  1  0.801196  0.801191  0.294669  1
  Ce  Ce3  1  0.301147  0.301161  0.205357  1
  Ce  Ce4  1  0.797522  0.202481  0.500027  1
  Ce  Ce5  1  0.297563  0.702436  0.999998  1
  Ce  Ce6  1  0.698852  0.698838  0.794642  1
  Ce  Ce7  1  0.198803  0.198810  0.705333  1
  Ag  Ag8  1  0.521097  0.021108  0.250011  1
  Ag  Ag9  1  0.978904  0.478893  0.749991  1
  Ag  Ag10  1  0.000000  0.000000  0.000000  1
  Ag  Ag11  1  0.021097  0.521108  0.250009  1
  Ag  Ag12  1  0.478903  0.978893  0.749989  1
  Ag  Ag13  1  0.500000  0.500000  0.500000  1
  Au  Au14  1  0.154788  0.429762  0.485435  1
  Au  Au15  1  0.903229  0.903207  0.594712  1
  Au  Au16  1  0.570178  0.845188  0.514593  1
  Au  Au17  1  0.884146  0.161948  0.209576  1
  Au  Au18  1  0.384108  0.661959  0.290500  1
  Au  Au19  1  0.661921  0.384135  0.290484  1
  Au  Au20  1  0.403254  0.403252  0.905302  1
  Au  Au21  1  0.929757  0.654893  0.014576  1
  Au  Au22  1  0.338078  0.615865  0.709515  1
  Au  Au23  1  0.345107  0.070241  0.985432  1
  Au  Au24  1  0.596746  0.596748  0.094698  1
  Au  Au25  1  0.654894  0.929759  0.014567  1
  Au  Au26  1  0.096772  0.096793  0.405288  1
  Au  Au27  1  0.615893  0.338041  0.709500  1
  Au  Au28  1  0.115854  0.838052  0.790424  1
  Au  Au29  1  0.070243  0.345108  0.985425  1
  Au  Au30  1  0.845212  0.570238  0.514565  1
  Au  Au31  1  0.161947  0.884145  0.209570  1
  Au  Au32  1  0.429822  0.154812  0.485407  1
  Au  Au33  1  0.838053  0.115855  0.790430  1
