# generated using pymatgen
data_Sc12MnCu2Si12Pt
_symmetry_space_group_name_H-M   'P 1'
_cell_length_a   4.00950300
_cell_length_b   10.25575300
_cell_length_c   11.71528219
_cell_angle_alpha   89.94883381
_cell_angle_beta   89.99996615
_cell_angle_gamma   89.99999999
_symmetry_Int_Tables_number   1
_chemical_formula_structural   Sc12MnCu2Si12Pt
_chemical_formula_sum   'Sc12 Mn1 Cu2 Si12 Pt1'
_cell_volume   481.73774626
_cell_formula_units_Z   1
loop_
 _symmetry_equiv_pos_site_id
 _symmetry_equiv_pos_as_xyz
  1  'x, y, z'
loop_
 _atom_site_type_symbol
 _atom_site_label
 _atom_site_symmetry_multiplicity
 _atom_site_fract_x
 _atom_site_fract_y
 _atom_site_fract_z
 _atom_site_occupancy
  Sc  Sc0  1  0.249999  0.877366  0.022813  1
  Sc  Sc1  1  0.250002  0.623432  0.521307  1
  Sc  Sc2  1  0.749997  0.125291  0.977587  1
  Sc  Sc3  1  0.750002  0.377917  0.473847  1
  Sc  Sc4  1  0.250000  0.922277  0.600678  1
  Sc  Sc5  1  0.250000  0.578667  0.100239  1
  Sc  Sc6  1  0.750000  0.078140  0.402504  1
  Sc  Sc7  1  0.749998  0.421559  0.901605  1
  Sc  Sc8  1  0.249998  0.659310  0.800958  1
  Sc  Sc9  1  0.250000  0.837166  0.300377  1
  Sc  Sc10  1  0.750001  0.341450  0.200531  1
  Sc  Sc11  1  0.750002  0.161111  0.698551  1
  Mn  Mn12  1  0.750000  0.612303  0.322733  1
  Cu  Cu13  1  0.249999  0.387475  0.677428  1
  Cu  Cu14  1  0.250000  0.112860  0.177400  1
  Si  Si15  1  0.249999  0.019273  0.826158  1
  Si  Si16  1  0.250001  0.485096  0.323893  1
  Si  Si17  1  0.750000  0.983925  0.174849  1
  Si  Si18  1  0.749999  0.514721  0.675975  1
  Si  Si19  1  0.249999  0.250650  0.843914  1
  Si  Si20  1  0.250004  0.249079  0.343672  1
  Si  Si21  1  0.750000  0.748203  0.158877  1
  Si  Si22  1  0.750000  0.747367  0.654966  1
  Si  Si23  1  0.250002  0.189410  0.541659  1
  Si  Si24  1  0.249999  0.311820  0.042371  1
  Si  Si25  1  0.750000  0.806071  0.455645  1
  Si  Si26  1  0.749999  0.691478  0.958503  1
  Pt  Pt27  1  0.749999  0.886580  0.820956  1
