# generated using pymatgen
data_Li8DyHo7Sn5Sb3
_symmetry_space_group_name_H-M   'P 1'
_cell_length_a   9.38692500
_cell_length_b   9.38345919
_cell_length_c   7.16566600
_cell_angle_alpha   90.00015554
_cell_angle_beta   90.00000000
_cell_angle_gamma   120.01222240
_symmetry_Int_Tables_number   1
_chemical_formula_structural   Li8DyHo7Sn5Sb3
_chemical_formula_sum   'Li8 Dy1 Ho7 Sn5 Sb3'
_cell_volume   546.53755420
_cell_formula_units_Z   1
loop_
 _symmetry_equiv_pos_site_id
 _symmetry_equiv_pos_as_xyz
  1  'x, y, z'
loop_
 _atom_site_type_symbol
 _atom_site_label
 _atom_site_symmetry_multiplicity
 _atom_site_fract_x
 _atom_site_fract_y
 _atom_site_fract_z
 _atom_site_occupancy
  Li  Li0  1  0.166471  0.332943  0.284181  1
  Li  Li1  1  0.166407  0.833443  0.284164  1
  Li  Li2  1  0.667034  0.833443  0.284164  1
  Li  Li3  1  0.833182  0.666363  0.786112  1
  Li  Li4  1  0.833194  0.166898  0.786164  1
  Li  Li5  1  0.333706  0.166898  0.786164  1
  Li  Li6  1  0.333315  0.666631  0.675669  1
  Li  Li7  1  0.666649  0.333298  0.179113  1
  Dy  Dy8  1  0.512276  0.024550  0.490765  1
  Ho  Ho9  1  0.512323  0.487702  0.490623  1
  Ho  Ho10  1  0.975380  0.487702  0.490623  1
  Ho  Ho11  1  0.489571  0.979143  0.995966  1
  Ho  Ho12  1  0.489598  0.510397  0.996034  1
  Ho  Ho13  1  0.020799  0.510397  0.996034  1
  Ho  Ho14  1  0.999985  0.999971  0.497466  1
  Ho  Ho15  1  0.999981  0.999962  0.004566  1
  Sn  Sn16  1  0.833043  0.666084  0.231671  1
  Sn  Sn17  1  0.833213  0.167058  0.231503  1
  Sn  Sn18  1  0.333846  0.167058  0.231503  1
  Sn  Sn19  1  0.333297  0.666595  0.259516  1
  Sn  Sn20  1  0.666785  0.333569  0.760137  1
  Sb  Sb21  1  0.166796  0.333594  0.733180  1
  Sb  Sb22  1  0.166596  0.833151  0.733327  1
  Sb  Sb23  1  0.666553  0.833151  0.733327  1
