# generated using pymatgen
data_Er3Fe2Co5(NiP3)2
_symmetry_space_group_name_H-M   'P 1'
_cell_length_a   3.68807400
_cell_length_b   10.44669900
_cell_length_c   12.15041400
_cell_angle_alpha   90.00000000
_cell_angle_beta   90.00000000
_cell_angle_gamma   90.00000000
_symmetry_Int_Tables_number   1
_chemical_formula_structural   Er3Fe2Co5(NiP3)2
_chemical_formula_sum   'Er6 Fe4 Co10 Ni4 P12'
_cell_volume   468.13356813
_cell_formula_units_Z   2
loop_
 _symmetry_equiv_pos_site_id
 _symmetry_equiv_pos_as_xyz
  1  'x, y, z'
loop_
 _atom_site_type_symbol
 _atom_site_label
 _atom_site_symmetry_multiplicity
 _atom_site_fract_x
 _atom_site_fract_y
 _atom_site_fract_z
 _atom_site_occupancy
  Er  Er0  1  0.750000  0.250000  0.480164  1
  Er  Er1  1  0.250000  0.750000  0.519741  1
  Er  Er2  1  0.250000  0.931984  0.795390  1
  Er  Er3  1  0.250000  0.568016  0.795390  1
  Er  Er4  1  0.750000  0.066585  0.205141  1
  Er  Er5  1  0.750000  0.433415  0.205141  1
  Fe  Fe6  1  0.250000  0.250000  0.842144  1
  Fe  Fe7  1  0.750000  0.750000  0.156411  1
  Fe  Fe8  1  0.750000  0.250000  0.011896  1
  Fe  Fe9  1  0.250000  0.750000  0.987338  1
  Co  Co10  1  0.750000  0.579716  0.994131  1
  Co  Co11  1  0.750000  0.920284  0.994131  1
  Co  Co12  1  0.250000  0.451693  0.568952  1
  Co  Co13  1  0.250000  0.048307  0.568952  1
  Co  Co14  1  0.750000  0.548410  0.431142  1
  Co  Co15  1  0.750000  0.951590  0.431142  1
  Co  Co16  1  0.250000  0.871704  0.290922  1
  Co  Co17  1  0.250000  0.628296  0.290922  1
  Co  Co18  1  0.750000  0.128351  0.708526  1
  Co  Co19  1  0.750000  0.371649  0.708526  1
  Ni  Ni20  1  0.250000  0.250000  0.298793  1
  Ni  Ni21  1  0.750000  0.750000  0.702495  1
  Ni  Ni22  1  0.250000  0.418121  0.006324  1
  Ni  Ni23  1  0.250000  0.081879  0.006324  1
  P  P24  1  0.250000  0.250000  0.118725  1
  P  P25  1  0.750000  0.750000  0.884800  1
  P  P26  1  0.250000  0.250000  0.656374  1
  P  P27  1  0.750000  0.750000  0.342836  1
  P  P28  1  0.250000  0.439583  0.384734  1
  P  P29  1  0.250000  0.060417  0.384734  1
  P  P30  1  0.750000  0.560633  0.615862  1
  P  P31  1  0.750000  0.939367  0.615862  1
  P  P32  1  0.250000  0.899489  0.108844  1
  P  P33  1  0.250000  0.600511  0.108844  1
  P  P34  1  0.750000  0.099412  0.889174  1
  P  P35  1  0.750000  0.400588  0.889174  1
