# generated using pymatgen
data_Mg5Co16(MoP4)3
_symmetry_space_group_name_H-M   'P 1'
_cell_length_a   11.92952600
_cell_length_b   11.92952674
_cell_length_c   3.60340100
_cell_angle_alpha   90.00000000
_cell_angle_beta   90.00000000
_cell_angle_gamma   119.99999241
_symmetry_Int_Tables_number   1
_chemical_formula_structural   Mg5Co16(MoP4)3
_chemical_formula_sum   'Mg5 Co16 Mo3 P12'
_cell_volume   444.10909020
_cell_formula_units_Z   1
loop_
 _symmetry_equiv_pos_site_id
 _symmetry_equiv_pos_as_xyz
  1  'x, y, z'
loop_
 _atom_site_type_symbol
 _atom_site_label
 _atom_site_symmetry_multiplicity
 _atom_site_fract_x
 _atom_site_fract_y
 _atom_site_fract_z
 _atom_site_occupancy
  Mg  Mg0  1  0.666667  0.333333  0.000000  1
  Mg  Mg1  1  0.333333  0.666667  0.000000  1
  Mg  Mg2  1  0.180586  0.180586  0.500000  1
  Mg  Mg3  1  0.819414  0.000000  0.500000  1
  Mg  Mg4  1  0.000000  0.819414  0.500000  1
  Co  Co5  1  0.822161  0.195410  0.000000  1
  Co  Co6  1  0.804590  0.626752  0.000000  1
  Co  Co7  1  0.373248  0.177839  0.000000  1
  Co  Co8  1  0.195410  0.822161  0.000000  1
  Co  Co9  1  0.626752  0.804590  0.000000  1
  Co  Co10  1  0.177839  0.373248  0.000000  1
  Co  Co11  1  0.648327  0.130806  0.500000  1
  Co  Co12  1  0.869194  0.517523  0.500000  1
  Co  Co13  1  0.482477  0.351673  0.500000  1
  Co  Co14  1  0.130806  0.648327  0.500000  1
  Co  Co15  1  0.517523  0.869194  0.500000  1
  Co  Co16  1  0.351673  0.482477  0.500000  1
  Co  Co17  1  0.721650  0.721650  0.500000  1
  Co  Co18  1  0.278350  0.000000  0.500000  1
  Co  Co19  1  0.000000  0.278350  0.500000  1
  Co  Co20  1  0.000000  0.000000  0.000000  1
  Mo  Mo21  1  0.551731  0.551731  0.000000  1
  Mo  Mo22  1  0.448269  0.000000  0.000000  1
  Mo  Mo23  1  0.000000  0.448269  0.000000  1
  P  P24  1  0.355194  0.355194  0.000000  1
  P  P25  1  0.644806  0.000000  0.000000  1
  P  P26  1  0.000000  0.644806  0.000000  1
  P  P27  1  0.833315  0.316038  0.500000  1
  P  P28  1  0.683962  0.517276  0.500000  1
  P  P29  1  0.482724  0.166685  0.500000  1
  P  P30  1  0.316038  0.833315  0.500000  1
  P  P31  1  0.517276  0.683962  0.500000  1
  P  P32  1  0.166685  0.482724  0.500000  1
  P  P33  1  0.823974  0.823974  0.000000  1
  P  P34  1  0.176026  0.000000  0.000000  1
  P  P35  1  0.000000  0.176026  0.000000  1
