# generated using pymatgen
data_Hf2Zr7(CuP2)2
_symmetry_space_group_name_H-M   'P 1'
_cell_length_a   12.08425600
_cell_length_b   12.08425600
_cell_length_c   3.69582300
_cell_angle_alpha   90.00000000
_cell_angle_beta   90.00000000
_cell_angle_gamma   90.00000000
_symmetry_Int_Tables_number   1
_chemical_formula_structural   Hf2Zr7(CuP2)2
_chemical_formula_sum   'Hf4 Zr14 Cu4 P8'
_cell_volume   539.69823522
_cell_formula_units_Z   2
loop_
 _symmetry_equiv_pos_site_id
 _symmetry_equiv_pos_as_xyz
  1  'x, y, z'
loop_
 _atom_site_type_symbol
 _atom_site_label
 _atom_site_symmetry_multiplicity
 _atom_site_fract_x
 _atom_site_fract_y
 _atom_site_fract_z
 _atom_site_occupancy
  Hf  Hf0  1  0.095200  0.404800  0.000000  1
  Hf  Hf1  1  0.404800  0.904800  0.000000  1
  Hf  Hf2  1  0.595200  0.095200  0.000000  1
  Hf  Hf3  1  0.904800  0.595200  0.000000  1
  Zr  Zr4  1  0.000000  0.000000  0.000000  1
  Zr  Zr5  1  0.500000  0.500000  0.000000  1
  Zr  Zr6  1  0.100761  0.180417  0.500000  1
  Zr  Zr7  1  0.180417  0.899239  0.500000  1
  Zr  Zr8  1  0.819583  0.100761  0.500000  1
  Zr  Zr9  1  0.899239  0.819583  0.500000  1
  Zr  Zr10  1  0.399239  0.680417  0.500000  1
  Zr  Zr11  1  0.600761  0.319583  0.500000  1
  Zr  Zr12  1  0.680417  0.600761  0.500000  1
  Zr  Zr13  1  0.319583  0.399239  0.500000  1
  Zr  Zr14  1  0.383602  0.116398  0.500000  1
  Zr  Zr15  1  0.116398  0.616398  0.500000  1
  Zr  Zr16  1  0.883602  0.383602  0.500000  1
  Zr  Zr17  1  0.616398  0.883602  0.500000  1
  Cu  Cu18  1  0.254456  0.245544  0.000000  1
  Cu  Cu19  1  0.245544  0.745544  0.000000  1
  Cu  Cu20  1  0.754456  0.254456  0.000000  1
  Cu  Cu21  1  0.745544  0.754456  0.000000  1
  P  P22  1  0.225813  0.053866  0.000000  1
  P  P23  1  0.053866  0.774187  0.000000  1
  P  P24  1  0.946134  0.225813  0.000000  1
  P  P25  1  0.774187  0.946134  0.000000  1
  P  P26  1  0.274187  0.553866  0.000000  1
  P  P27  1  0.725813  0.446134  0.000000  1
  P  P28  1  0.553866  0.725813  0.000000  1
  P  P29  1  0.446134  0.274187  0.000000  1
