# generated using pymatgen
data_Lu12Cd2Tc3
_symmetry_space_group_name_H-M   'P 1'
_cell_length_a   8.28144591
_cell_length_b   8.28144604
_cell_length_c   8.28144561
_cell_angle_alpha   108.90209841
_cell_angle_beta   108.90210544
_cell_angle_gamma   110.61554986
_symmetry_Int_Tables_number   1
_chemical_formula_structural   Lu12Cd2Tc3
_chemical_formula_sum   'Lu12 Cd2 Tc3'
_cell_volume   437.08548851
_cell_formula_units_Z   1
loop_
 _symmetry_equiv_pos_site_id
 _symmetry_equiv_pos_as_xyz
  1  'x, y, z'
loop_
 _atom_site_type_symbol
 _atom_site_label
 _atom_site_symmetry_multiplicity
 _atom_site_fract_x
 _atom_site_fract_y
 _atom_site_fract_z
 _atom_site_occupancy
  Lu  Lu0  1  0.305695  0.305695  0.611390  1
  Lu  Lu1  1  0.694305  0.694305  0.388610  1
  Lu  Lu2  1  0.694305  0.305695  0.000000  1
  Lu  Lu3  1  0.305695  0.694305  0.000000  1
  Lu  Lu4  1  0.189739  0.429717  0.239978  1
  Lu  Lu5  1  0.810261  0.570283  0.760022  1
  Lu  Lu6  1  0.189739  0.949761  0.760022  1
  Lu  Lu7  1  0.949761  0.189739  0.760022  1
  Lu  Lu8  1  0.810261  0.050239  0.239978  1
  Lu  Lu9  1  0.050239  0.810261  0.239978  1
  Lu  Lu10  1  0.429717  0.189739  0.239978  1
  Lu  Lu11  1  0.570283  0.810261  0.760022  1
  Cd  Cd12  1  0.000000  0.500000  0.500000  1
  Cd  Cd13  1  0.500000  0.000000  0.500000  1
  Tc  Tc14  1  0.369583  0.369583  0.000000  1
  Tc  Tc15  1  0.630417  0.630417  0.000000  1
  Tc  Tc16  1  0.000000  0.000000  0.000000  1
