# generated using pymatgen
data_YbCrIO6
_symmetry_space_group_name_H-M   'P 1'
_cell_length_a   5.16863100
_cell_length_b   5.16828120
_cell_length_c   9.97587110
_cell_angle_alpha   89.99196062
_cell_angle_beta   90.00503617
_cell_angle_gamma   120.01415017
_symmetry_Int_Tables_number   1
_chemical_formula_structural   YbCrIO6
_chemical_formula_sum   'Yb2 Cr2 I2 O12'
_cell_volume   230.74971733
_cell_formula_units_Z   2
loop_
 _symmetry_equiv_pos_site_id
 _symmetry_equiv_pos_as_xyz
  1  'x, y, z'
loop_
 _atom_site_type_symbol
 _atom_site_label
 _atom_site_symmetry_multiplicity
 _atom_site_fract_x
 _atom_site_fract_y
 _atom_site_fract_z
 _atom_site_occupancy
  Yb  Yb0  1  0.999988  0.000040  0.000008  1
  Yb  Yb1  1  0.999963  0.000029  0.500005  1
  Cr  Cr2  1  0.333471  0.666165  0.250179  1
  Cr  Cr3  1  0.666698  0.333625  0.749825  1
  I  I4  1  0.666562  0.333064  0.250034  1
  I  I5  1  0.333434  0.666853  0.749982  1
  O  O6  1  0.374330  0.015660  0.142477  1
  O  O7  1  0.641260  0.625427  0.142484  1
  O  O8  1  0.984047  0.358561  0.142444  1
  O  O9  1  0.984035  0.625376  0.357600  1
  O  O10  1  0.641360  0.015715  0.357653  1
  O  O11  1  0.374331  0.358494  0.357656  1
  O  O12  1  0.625616  0.641575  0.642335  1
  O  O13  1  0.358655  0.984249  0.642348  1
  O  O14  1  0.015969  0.374681  0.642354  1
  O  O15  1  0.015901  0.641413  0.857540  1
  O  O16  1  0.358794  0.374635  0.857546  1
  O  O17  1  0.625583  0.984435  0.857531  1
