# generated using pymatgen
data_TbTm2Si2Ag3Hg
_symmetry_space_group_name_H-M   'P 1'
_cell_length_a   7.21463176
_cell_length_b   7.21463101
_cell_length_c   4.20266100
_cell_angle_alpha   90.00000000
_cell_angle_beta   90.00000000
_cell_angle_gamma   120.05266998
_symmetry_Int_Tables_number   1
_chemical_formula_structural   TbTm2Si2Ag3Hg
_chemical_formula_sum   'Tb1 Tm2 Si2 Ag3 Hg1'
_cell_volume   189.34443449
_cell_formula_units_Z   1
loop_
 _symmetry_equiv_pos_site_id
 _symmetry_equiv_pos_as_xyz
  1  'x, y, z'
loop_
 _atom_site_type_symbol
 _atom_site_label
 _atom_site_symmetry_multiplicity
 _atom_site_fract_x
 _atom_site_fract_y
 _atom_site_fract_z
 _atom_site_occupancy
  Tb  Tb0  1  0.420885  0.420885  0.500000  1
  Tm  Tm1  1  0.578618  0.000340  0.500000  1
  Tm  Tm2  1  0.000340  0.578618  0.500000  1
  Si  Si3  1  0.668589  0.332380  0.000000  1
  Si  Si4  1  0.332380  0.668589  0.000000  1
  Ag  Ag5  1  0.731657  0.731657  0.000000  1
  Ag  Ag6  1  0.270194  0.999214  0.000000  1
  Ag  Ag7  1  0.999214  0.270194  0.000000  1
  Hg  Hg8  1  0.998122  0.998122  0.500000  1
