# generated using pymatgen
data_Ho14Er2Cd3InPd4
_symmetry_space_group_name_H-M   'P 1'
_cell_length_a   9.65197423
_cell_length_b   9.65197331
_cell_length_c   9.65477951
_cell_angle_alpha   60.05404681
_cell_angle_beta   60.05405050
_cell_angle_gamma   59.98780313
_symmetry_Int_Tables_number   1
_chemical_formula_structural   Ho14Er2Cd3InPd4
_chemical_formula_sum   'Ho14 Er2 Cd3 In1 Pd4'
_cell_volume   636.46397473
_cell_formula_units_Z   1
loop_
 _symmetry_equiv_pos_site_id
 _symmetry_equiv_pos_as_xyz
  1  'x, y, z'
loop_
 _atom_site_type_symbol
 _atom_site_label
 _atom_site_symmetry_multiplicity
 _atom_site_fract_x
 _atom_site_fract_y
 _atom_site_fract_z
 _atom_site_occupancy
  Ho  Ho0  1  0.353694  0.938834  0.354891  1
  Ho  Ho1  1  0.938834  0.353694  0.354891  1
  Ho  Ho2  1  0.810268  0.189575  0.189549  1
  Ho  Ho3  1  0.190647  0.809221  0.809666  1
  Ho  Ho4  1  0.189575  0.810268  0.189549  1
  Ho  Ho5  1  0.809221  0.190647  0.809666  1
  Ho  Ho6  1  0.189435  0.189435  0.810737  1
  Ho  Ho7  1  0.809385  0.809385  0.190811  1
  Ho  Ho8  1  0.935897  0.566490  0.565953  1
  Ho  Ho9  1  0.565341  0.935046  0.935564  1
  Ho  Ho10  1  0.566490  0.935897  0.565953  1
  Ho  Ho11  1  0.935046  0.565341  0.935564  1
  Ho  Ho12  1  0.565698  0.565698  0.936526  1
  Ho  Ho13  1  0.934517  0.934517  0.566027  1
  Er  Er14  1  0.352671  0.352671  0.353183  1
  Er  Er15  1  0.355108  0.355108  0.936055  1
  Cd  Cd16  1  0.581290  0.581290  0.252336  1
  Cd  Cd17  1  0.581409  0.252565  0.581152  1
  Cd  Cd18  1  0.252565  0.581409  0.581152  1
  In  In19  1  0.582527  0.582527  0.582389  1
  Pd  Pd20  1  0.145615  0.145615  0.144169  1
  Pd  Pd21  1  0.143743  0.143743  0.567529  1
  Pd  Pd22  1  0.144689  0.566333  0.143342  1
  Pd  Pd23  1  0.566333  0.144689  0.143342  1
