# generated using pymatgen
data_Tm7Ti(Si4Ru3)4
_symmetry_space_group_name_H-M   'P 1'
_cell_length_a   10.11101716
_cell_length_b   10.11451547
_cell_length_c   13.59959653
_cell_angle_alpha   53.45197766
_cell_angle_beta   53.38862310
_cell_angle_gamma   30.91252570
_symmetry_Int_Tables_number   1
_chemical_formula_structural   Tm7Ti(Si4Ru3)4
_chemical_formula_sum   'Tm7 Ti1 Si16 Ru12'
_cell_volume   561.55044300
_cell_formula_units_Z   1
loop_
 _symmetry_equiv_pos_site_id
 _symmetry_equiv_pos_as_xyz
  1  'x, y, z'
loop_
 _atom_site_type_symbol
 _atom_site_label
 _atom_site_symmetry_multiplicity
 _atom_site_fract_x
 _atom_site_fract_y
 _atom_site_fract_z
 _atom_site_occupancy
  Tm  Tm0  1  0.040899  0.287285  0.639572  1
  Tm  Tm1  1  0.710484  0.962403  0.860730  1
  Tm  Tm2  1  0.959056  0.712240  0.359015  1
  Tm  Tm3  1  0.289105  0.038874  0.141195  1
  Tm  Tm4  1  0.300400  0.557644  0.643079  1
  Tm  Tm5  1  0.443451  0.694871  0.861685  1
  Tm  Tm6  1  0.701659  0.440971  0.354135  1
  Ti  Ti7  1  0.559110  0.283809  0.151248  1
  Si  Si8  1  0.977889  0.251458  0.896099  1
  Si  Si9  1  0.752331  0.020689  0.603787  1
  Si  Si10  1  0.028106  0.747399  0.105902  1
  Si  Si11  1  0.249932  0.977163  0.393655  1
  Si  Si12  1  0.139350  0.384248  0.900421  1
  Si  Si13  1  0.614454  0.861570  0.599596  1
  Si  Si14  1  0.859669  0.617239  0.102214  1
  Si  Si15  1  0.381576  0.149620  0.392511  1
  Si  Si16  1  0.081435  0.574682  0.567811  1
  Si  Si17  1  0.425252  0.920412  0.931287  1
  Si  Si18  1  0.917749  0.424904  0.432387  1
  Si  Si19  1  0.574976  0.086464  0.069518  1
  Si  Si20  1  0.622040  0.379716  0.749636  1
  Si  Si21  1  0.384972  0.611992  0.246015  1
  Si  Si22  1  0.128455  0.871836  0.751541  1
  Si  Si23  1  0.860721  0.135558  0.247179  1
  Ru  Ru24  1  0.900650  0.136538  0.587251  1
  Ru  Ru25  1  0.855804  0.106640  0.917688  1
  Ru  Ru26  1  0.101729  0.859832  0.409643  1
  Ru  Ru27  1  0.134885  0.900449  0.087410  1
  Ru  Ru28  1  0.835493  0.643298  0.782402  1
  Ru  Ru29  1  0.358306  0.165233  0.716618  1
  Ru  Ru30  1  0.170065  0.360115  0.216792  1
  Ru  Ru31  1  0.642044  0.835300  0.282566  1
  Ru  Ru32  1  0.250571  0.504362  0.932075  1
  Ru  Ru33  1  0.496086  0.749039  0.569395  1
  Ru  Ru34  1  0.748843  0.494367  0.066143  1
  Ru  Ru35  1  0.502453  0.251781  0.431801  1
