# generated using pymatgen
data_Lu4Ga20IrRu5
_symmetry_space_group_name_H-M   'P 1'
_cell_length_a   8.90856000
_cell_length_b   8.90856000
_cell_length_c   6.33434100
_cell_angle_alpha   90.00000000
_cell_angle_beta   90.00000000
_cell_angle_gamma   90.00000000
_symmetry_Int_Tables_number   1
_chemical_formula_structural   Lu4Ga20IrRu5
_chemical_formula_sum   'Lu4 Ga20 Ir1 Ru5'
_cell_volume   502.70876562
_cell_formula_units_Z   1
loop_
 _symmetry_equiv_pos_site_id
 _symmetry_equiv_pos_as_xyz
  1  'x, y, z'
loop_
 _atom_site_type_symbol
 _atom_site_label
 _atom_site_symmetry_multiplicity
 _atom_site_fract_x
 _atom_site_fract_y
 _atom_site_fract_z
 _atom_site_occupancy
  Lu  Lu0  1  0.183913  0.682828  0.000000  1
  Lu  Lu1  1  0.816087  0.317172  0.000000  1
  Lu  Lu2  1  0.682828  0.816087  0.000000  1
  Lu  Lu3  1  0.317172  0.183913  0.000000  1
  Ga  Ga4  1  0.061564  0.208656  0.707673  1
  Ga  Ga5  1  0.938436  0.791344  0.707673  1
  Ga  Ga6  1  0.561053  0.292582  0.708748  1
  Ga  Ga7  1  0.438947  0.707418  0.708748  1
  Ga  Ga8  1  0.791344  0.061564  0.707673  1
  Ga  Ga9  1  0.208656  0.938436  0.707673  1
  Ga  Ga10  1  0.707418  0.561053  0.708748  1
  Ga  Ga11  1  0.292582  0.438947  0.708748  1
  Ga  Ga12  1  0.938436  0.791344  0.292327  1
  Ga  Ga13  1  0.061564  0.208656  0.292327  1
  Ga  Ga14  1  0.438947  0.707418  0.291252  1
  Ga  Ga15  1  0.561053  0.292582  0.291252  1
  Ga  Ga16  1  0.208656  0.938436  0.292327  1
  Ga  Ga17  1  0.791344  0.061564  0.292327  1
  Ga  Ga18  1  0.292582  0.438947  0.291252  1
  Ga  Ga19  1  0.707418  0.561053  0.291252  1
  Ga  Ga20  1  0.000000  0.500000  0.717051  1
  Ga  Ga21  1  0.500000  0.000000  0.717051  1
  Ga  Ga22  1  0.000000  0.500000  0.282949  1
  Ga  Ga23  1  0.500000  0.000000  0.282949  1
  Ir  Ir24  1  0.000000  0.000000  0.000000  1
  Ru  Ru25  1  0.177565  0.679234  0.500000  1
  Ru  Ru26  1  0.822435  0.320766  0.500000  1
  Ru  Ru27  1  0.679234  0.822435  0.500000  1
  Ru  Ru28  1  0.320766  0.177565  0.500000  1
  Ru  Ru29  1  0.500000  0.500000  0.000000  1
