# generated using pymatgen
data_Y3Co(P3Ir4)2
_symmetry_space_group_name_H-M   'P 1'
_cell_length_a   3.92810000
_cell_length_b   11.09168200
_cell_length_c   12.77201100
_cell_angle_alpha   90.00000000
_cell_angle_beta   90.00000000
_cell_angle_gamma   90.00000000
_symmetry_Int_Tables_number   1
_chemical_formula_structural   Y3Co(P3Ir4)2
_chemical_formula_sum   'Y6 Co2 P12 Ir16'
_cell_volume   556.46676227
_cell_formula_units_Z   2
loop_
 _symmetry_equiv_pos_site_id
 _symmetry_equiv_pos_as_xyz
  1  'x, y, z'
loop_
 _atom_site_type_symbol
 _atom_site_label
 _atom_site_symmetry_multiplicity
 _atom_site_fract_x
 _atom_site_fract_y
 _atom_site_fract_z
 _atom_site_occupancy
  Y  Y0  1  0.000000  0.500000  0.522394  1
  Y  Y1  1  0.500000  0.000000  0.477606  1
  Y  Y2  1  0.500000  0.815989  0.200433  1
  Y  Y3  1  0.500000  0.184011  0.200433  1
  Y  Y4  1  0.000000  0.684011  0.799567  1
  Y  Y5  1  0.000000  0.315989  0.799567  1
  Co  Co6  1  0.000000  0.500000  0.977366  1
  Co  Co7  1  0.500000  0.000000  0.022634  1
  P  P8  1  0.500000  0.500000  0.880457  1
  P  P9  1  0.000000  0.000000  0.119543  1
  P  P10  1  0.500000  0.500000  0.357841  1
  P  P11  1  0.000000  0.000000  0.642159  1
  P  P12  1  0.500000  0.315521  0.619273  1
  P  P13  1  0.500000  0.684479  0.619273  1
  P  P14  1  0.000000  0.184479  0.380727  1
  P  P15  1  0.000000  0.815521  0.380727  1
  P  P16  1  0.500000  0.852050  0.896602  1
  P  P17  1  0.500000  0.147950  0.896602  1
  P  P18  1  0.000000  0.647950  0.103398  1
  P  P19  1  0.000000  0.352050  0.103398  1
  Ir  Ir20  1  0.500000  0.500000  0.177863  1
  Ir  Ir21  1  0.000000  0.000000  0.822137  1
  Ir  Ir22  1  0.500000  0.500000  0.702465  1
  Ir  Ir23  1  0.000000  0.000000  0.297535  1
  Ir  Ir24  1  0.500000  0.339141  0.998094  1
  Ir  Ir25  1  0.500000  0.660859  0.998094  1
  Ir  Ir26  1  0.000000  0.160859  0.001906  1
  Ir  Ir27  1  0.000000  0.839141  0.001906  1
  Ir  Ir28  1  0.500000  0.292795  0.429283  1
  Ir  Ir29  1  0.500000  0.707205  0.429283  1
  Ir  Ir30  1  0.000000  0.207205  0.570717  1
  Ir  Ir31  1  0.000000  0.792795  0.570717  1
  Ir  Ir32  1  0.500000  0.870487  0.714621  1
  Ir  Ir33  1  0.500000  0.129513  0.714621  1
  Ir  Ir34  1  0.000000  0.629513  0.285379  1
  Ir  Ir35  1  0.000000  0.370487  0.285379  1
