# generated using pymatgen
data_Cs8MnGa3S4(O4F3)4
_symmetry_space_group_name_H-M   'P 1'
_cell_length_a   11.64245000
_cell_length_b   7.37576865
_cell_length_c   9.17126000
_cell_angle_alpha   87.44459450
_cell_angle_beta   90.00000000
_cell_angle_gamma   90.00000000
_symmetry_Int_Tables_number   1
_chemical_formula_structural   Cs8MnGa3S4(O4F3)4
_chemical_formula_sum   'Cs8 Mn1 Ga3 S4 O16 F12'
_cell_volume   786.77143711
_cell_formula_units_Z   1
loop_
 _symmetry_equiv_pos_site_id
 _symmetry_equiv_pos_as_xyz
  1  'x, y, z'
loop_
 _atom_site_type_symbol
 _atom_site_label
 _atom_site_symmetry_multiplicity
 _atom_site_fract_x
 _atom_site_fract_y
 _atom_site_fract_z
 _atom_site_occupancy
  Cs  Cs0  1  0.186527  0.793834  0.329078  1
  Cs  Cs1  1  0.687252  0.207522  0.171923  1
  Cs  Cs2  1  0.813473  0.206166  0.670922  1
  Cs  Cs3  1  0.312748  0.792478  0.828077  1
  Cs  Cs4  1  0.312005  0.287653  0.175070  1
  Cs  Cs5  1  0.812653  0.712247  0.324165  1
  Cs  Cs6  1  0.687995  0.712347  0.824930  1
  Cs  Cs7  1  0.187347  0.287753  0.675835  1
  Mn  Mn8  1  0.500000  0.500000  0.500000  1
  Ga  Ga9  1  0.000000  0.500000  0.000000  1
  Ga  Ga10  1  0.000000  0.000000  0.000000  1
  Ga  Ga11  1  0.500000  0.000000  0.500000  1
  S  S12  1  0.999798  0.244245  0.291526  1
  S  S13  1  0.499096  0.753254  0.207880  1
  S  S14  1  0.000202  0.755755  0.708474  1
  S  S15  1  0.500904  0.246746  0.792120  1
  O  O16  1  0.453071  0.899065  0.302952  1
  O  O17  1  0.955083  0.094834  0.197297  1
  O  O18  1  0.546929  0.100935  0.697048  1
  O  O19  1  0.044917  0.905166  0.802703  1
  O  O20  1  0.051352  0.394924  0.193124  1
  O  O21  1  0.551884  0.602470  0.306499  1
  O  O22  1  0.948648  0.605076  0.806876  1
  O  O23  1  0.448116  0.397530  0.693501  1
  O  O24  1  0.902176  0.314913  0.372728  1
  O  O25  1  0.402870  0.680358  0.125605  1
  O  O26  1  0.097824  0.685087  0.627272  1
  O  O27  1  0.597130  0.319642  0.874395  1
  O  O28  1  0.092647  0.174081  0.386233  1
  O  O29  1  0.592523  0.824276  0.114442  1
  O  O30  1  0.907353  0.825919  0.613767  1
  O  O31  1  0.407477  0.175724  0.885558  1
  F  F32  1  0.345041  0.519932  0.450818  1
  F  F33  1  0.845223  0.480941  0.048090  1
  F  F34  1  0.654959  0.480068  0.549182  1
  F  F35  1  0.154777  0.519059  0.951910  1
  F  F36  1  0.155934  0.020218  0.038591  1
  F  F37  1  0.657126  0.977431  0.461428  1
  F  F38  1  0.844066  0.979782  0.961409  1
  F  F39  1  0.342874  0.022569  0.538572  1
  F  F40  1  0.002440  0.747703  0.086698  1
  F  F41  1  0.501791  0.239326  0.405029  1
  F  F42  1  0.997560  0.252297  0.913302  1
  F  F43  1  0.498209  0.760674  0.594971  1
