# generated using pymatgen
data_Pr2Er5(LuBi2)3
_symmetry_space_group_name_H-M   'P 1'
_cell_length_a   8.32097500
_cell_length_b   9.53574002
_cell_length_c   12.18095300
_cell_angle_alpha   90.00341285
_cell_angle_beta   90.00000000
_cell_angle_gamma   90.00000000
_symmetry_Int_Tables_number   1
_chemical_formula_structural   Pr2Er5(LuBi2)3
_chemical_formula_sum   'Pr4 Er10 Lu6 Bi12'
_cell_volume   966.51786487
_cell_formula_units_Z   2
loop_
 _symmetry_equiv_pos_site_id
 _symmetry_equiv_pos_as_xyz
  1  'x, y, z'
loop_
 _atom_site_type_symbol
 _atom_site_label
 _atom_site_symmetry_multiplicity
 _atom_site_fract_x
 _atom_site_fract_y
 _atom_site_fract_z
 _atom_site_occupancy
  Pr  Pr0  1  0.184204  0.749896  0.720111  1
  Pr  Pr1  1  0.684204  0.750104  0.779889  1
  Pr  Pr2  1  0.816155  0.249927  0.279993  1
  Pr  Pr3  1  0.316155  0.250073  0.220007  1
  Er  Er4  1  0.692085  0.934970  0.060216  1
  Er  Er5  1  0.192085  0.565030  0.439784  1
  Er  Er6  1  0.693390  0.563636  0.060999  1
  Er  Er7  1  0.193390  0.936364  0.439001  1
  Er  Er8  1  0.307030  0.063267  0.939285  1
  Er  Er9  1  0.807030  0.436733  0.560715  1
  Er  Er10  1  0.354152  0.750473  0.217658  1
  Er  Er11  1  0.854152  0.749527  0.282342  1
  Er  Er12  1  0.646585  0.249695  0.782128  1
  Er  Er13  1  0.146585  0.250305  0.717872  1
  Lu  Lu14  1  0.024107  0.749729  0.989318  1
  Lu  Lu15  1  0.524107  0.750271  0.510682  1
  Lu  Lu16  1  0.976747  0.250243  0.010423  1
  Lu  Lu17  1  0.476747  0.249757  0.489577  1
  Lu  Lu18  1  0.306697  0.431774  0.939155  1
  Lu  Lu19  1  0.806697  0.068226  0.560845  1
  Bi  Bi20  1  0.434946  0.008726  0.669903  1
  Bi  Bi21  1  0.934946  0.491274  0.830097  1
  Bi  Bi22  1  0.565252  0.508812  0.330041  1
  Bi  Bi23  1  0.065252  0.991188  0.169959  1
  Bi  Bi24  1  0.565445  0.991233  0.330328  1
  Bi  Bi25  1  0.065445  0.508767  0.169672  1
  Bi  Bi26  1  0.434325  0.491055  0.669755  1
  Bi  Bi27  1  0.934325  0.008945  0.830245  1
  Bi  Bi28  1  0.404260  0.745797  0.962949  1
  Bi  Bi29  1  0.904260  0.754203  0.537051  1
  Bi  Bi30  1  0.594617  0.250095  0.036140  1
  Bi  Bi31  1  0.094617  0.249905  0.463860  1
