# generated using pymatgen
data_Tb2Dy2GaSi3
_symmetry_space_group_name_H-M   'P 1'
_cell_length_a   3.89373400
_cell_length_b   4.32514400
_cell_length_c   10.65614000
_cell_angle_alpha   90.00000000
_cell_angle_beta   90.00000000
_cell_angle_gamma   90.00000000
_symmetry_Int_Tables_number   1
_chemical_formula_structural   Tb2Dy2GaSi3
_chemical_formula_sum   'Tb2 Dy2 Ga1 Si3'
_cell_volume   179.45963013
_cell_formula_units_Z   1
loop_
 _symmetry_equiv_pos_site_id
 _symmetry_equiv_pos_as_xyz
  1  'x, y, z'
loop_
 _atom_site_type_symbol
 _atom_site_label
 _atom_site_symmetry_multiplicity
 _atom_site_fract_x
 _atom_site_fract_y
 _atom_site_fract_z
 _atom_site_occupancy
  Tb  Tb0  1  0.000000  0.000000  0.362617  1
  Tb  Tb1  1  0.500000  0.000000  0.639270  1
  Dy  Dy2  1  0.000000  0.500000  0.857279  1
  Dy  Dy3  1  0.500000  0.500000  0.141569  1
  Ga  Ga4  1  0.000000  0.000000  0.075856  1
  Si  Si5  1  0.000000  0.500000  0.575868  1
  Si  Si6  1  0.500000  0.500000  0.425467  1
  Si  Si7  1  0.500000  0.000000  0.922077  1
