# generated using pymatgen
data_Tb2Y2Al18Rh5Au
_symmetry_space_group_name_H-M   'P 1'
_cell_length_a   7.60192893
_cell_length_b   7.60179471
_cell_length_c   9.49430402
_cell_angle_alpha   89.94459008
_cell_angle_beta   89.93864723
_cell_angle_gamma   119.49306011
_symmetry_Int_Tables_number   1
_chemical_formula_structural   Tb2Y2Al18Rh5Au
_chemical_formula_sum   'Tb2 Y2 Al18 Rh5 Au1'
_cell_volume   477.56085491
_cell_formula_units_Z   1
loop_
 _symmetry_equiv_pos_site_id
 _symmetry_equiv_pos_as_xyz
  1  'x, y, z'
loop_
 _atom_site_type_symbol
 _atom_site_label
 _atom_site_symmetry_multiplicity
 _atom_site_fract_x
 _atom_site_fract_y
 _atom_site_fract_z
 _atom_site_occupancy
  Tb  Tb0  1  0.673900  0.995552  0.250550  1
  Tb  Tb1  1  0.326100  0.004448  0.749450  1
  Y  Y2  1  0.995554  0.673873  0.250586  1
  Y  Y3  1  0.004446  0.326127  0.749414  1
  Al  Al4  1  0.135166  0.135178  0.257149  1
  Al  Al5  1  0.864834  0.864822  0.742851  1
  Al  Al6  1  0.001485  0.344364  0.078973  1
  Al  Al7  1  0.998515  0.655636  0.921027  1
  Al  Al8  1  0.000355  0.664149  0.573881  1
  Al  Al9  1  0.335774  0.999616  0.426083  1
  Al  Al10  1  0.999645  0.335851  0.426119  1
  Al  Al11  1  0.664226  0.000384  0.573917  1
  Al  Al12  1  0.655695  0.998535  0.921015  1
  Al  Al13  1  0.344305  0.001465  0.078985  1
  Al  Al14  1  0.333261  0.333286  0.550616  1
  Al  Al15  1  0.666739  0.666714  0.449384  1
  Al  Al16  1  0.658372  0.658351  0.055606  1
  Al  Al17  1  0.341628  0.341649  0.944394  1
  Al  Al18  1  0.339497  0.550808  0.251266  1
  Al  Al19  1  0.660503  0.449192  0.748734  1
  Al  Al20  1  0.550826  0.339506  0.251270  1
  Al  Al21  1  0.449174  0.660494  0.748730  1
  Rh  Rh22  1  0.671828  0.328249  0.000009  1
  Rh  Rh23  1  0.328172  0.671751  0.999991  1
  Rh  Rh24  1  0.328138  0.671767  0.500004  1
  Rh  Rh25  1  0.671862  0.328233  0.499996  1
  Rh  Rh26  1  0.000000  0.000000  0.500000  1
  Au  Au27  1  0.000000  0.000000  0.000000  1
