# generated using pymatgen
data_Sm3Th11Ru6
_symmetry_space_group_name_H-M   'P 1'
_cell_length_a   9.84798410
_cell_length_b   9.92131439
_cell_length_c   6.40985074
_cell_angle_alpha   89.95262602
_cell_angle_beta   90.11021255
_cell_angle_gamma   120.16202178
_symmetry_Int_Tables_number   1
_chemical_formula_structural   Sm3Th11Ru6
_chemical_formula_sum   'Sm3 Th11 Ru6'
_cell_volume   541.48063063
_cell_formula_units_Z   1
loop_
 _symmetry_equiv_pos_site_id
 _symmetry_equiv_pos_as_xyz
  1  'x, y, z'
loop_
 _atom_site_type_symbol
 _atom_site_label
 _atom_site_symmetry_multiplicity
 _atom_site_fract_x
 _atom_site_fract_y
 _atom_site_fract_z
 _atom_site_occupancy
  Sm  Sm0  1  0.462239  0.537250  0.295195  1
  Sm  Sm1  1  0.074245  0.536829  0.297027  1
  Sm  Sm2  1  0.924981  0.461211  0.796743  1
  Th  Th3  1  0.248975  0.125852  0.509651  1
  Th  Th4  1  0.541722  0.081357  0.798947  1
  Th  Th5  1  0.749303  0.873679  0.010520  1
  Th  Th6  1  0.665942  0.333680  0.281933  1
  Th  Th7  1  0.125660  0.872157  0.004834  1
  Th  Th8  1  0.460360  0.919830  0.299810  1
  Th  Th9  1  0.539112  0.461568  0.797235  1
  Th  Th10  1  0.876025  0.127312  0.508615  1
  Th  Th11  1  0.124248  0.249868  0.009551  1
  Th  Th12  1  0.874482  0.750389  0.507689  1
  Th  Th13  1  0.334235  0.666382  0.779445  1
  Ru  Ru14  1  0.810504  0.632566  0.047019  1
  Ru  Ru15  1  0.810667  0.178310  0.048214  1
  Ru  Ru16  1  0.631985  0.819522  0.548676  1
  Ru  Ru17  1  0.371004  0.186676  0.042366  1
  Ru  Ru18  1  0.183713  0.363179  0.555444  1
  Ru  Ru19  1  0.190597  0.822384  0.545080  1
