# generated using pymatgen
data_TbYMn6Co6P7
_symmetry_space_group_name_H-M   'P 1'
_cell_length_a   9.09495900
_cell_length_b   9.09496051
_cell_length_c   3.64798700
_cell_angle_alpha   90.00000000
_cell_angle_beta   90.00000000
_cell_angle_gamma   119.99999813
_symmetry_Int_Tables_number   1
_chemical_formula_structural   TbYMn6Co6P7
_chemical_formula_sum   'Tb1 Y1 Mn6 Co6 P7'
_cell_volume   261.32772361
_cell_formula_units_Z   1
loop_
 _symmetry_equiv_pos_site_id
 _symmetry_equiv_pos_as_xyz
  1  'x, y, z'
loop_
 _atom_site_type_symbol
 _atom_site_label
 _atom_site_symmetry_multiplicity
 _atom_site_fract_x
 _atom_site_fract_y
 _atom_site_fract_z
 _atom_site_occupancy
  Tb  Tb0  1  0.333333  0.666667  0.500000  1
  Y  Y1  1  0.666667  0.333333  0.000000  1
  Mn  Mn2  1  0.276473  0.119951  0.000000  1
  Mn  Mn3  1  0.843478  0.723527  0.000000  1
  Mn  Mn4  1  0.880049  0.156522  0.000000  1
  Mn  Mn5  1  0.104057  0.880704  0.500000  1
  Mn  Mn6  1  0.776646  0.895943  0.500000  1
  Mn  Mn7  1  0.119296  0.223354  0.500000  1
  Co  Co8  1  0.059536  0.630493  0.000000  1
  Co  Co9  1  0.570957  0.940464  0.000000  1
  Co  Co10  1  0.369507  0.429043  0.000000  1
  Co  Co11  1  0.438121  0.050308  0.500000  1
  Co  Co12  1  0.612188  0.561879  0.500000  1
  Co  Co13  1  0.949692  0.387812  0.500000  1
  P  P14  1  0.301295  0.889336  0.000000  1
  P  P15  1  0.588041  0.698705  0.000000  1
  P  P16  1  0.110664  0.411959  0.000000  1
  P  P17  1  0.405842  0.288189  0.500000  1
  P  P18  1  0.882347  0.594158  0.500000  1
  P  P19  1  0.711811  0.117653  0.500000  1
  P  P20  1  0.000000  0.000000  0.000000  1
