# generated using pymatgen
data_La15Pr5Ir5Pt7
_symmetry_space_group_name_H-M   'P 1'
_cell_length_a   11.57447831
_cell_length_b   11.58489249
_cell_length_c   6.60208351
_cell_angle_alpha   89.99184913
_cell_angle_beta   90.01417161
_cell_angle_gamma   90.02503765
_symmetry_Int_Tables_number   1
_chemical_formula_structural   La15Pr5Ir5Pt7
_chemical_formula_sum   'La15 Pr5 Ir5 Pt7'
_cell_volume   885.26722889
_cell_formula_units_Z   1
loop_
 _symmetry_equiv_pos_site_id
 _symmetry_equiv_pos_as_xyz
  1  'x, y, z'
loop_
 _atom_site_type_symbol
 _atom_site_label
 _atom_site_symmetry_multiplicity
 _atom_site_fract_x
 _atom_site_fract_y
 _atom_site_fract_z
 _atom_site_occupancy
  La  La0  1  0.295020  0.089276  0.375644  1
  La  La1  1  0.295832  0.905976  0.876816  1
  La  La2  1  0.704707  0.089135  0.876302  1
  La  La3  1  0.704149  0.910216  0.375596  1
  La  La4  1  0.586641  0.793111  0.876040  1
  La  La5  1  0.589637  0.206047  0.377185  1
  La  La6  1  0.408317  0.791724  0.382940  1
  La  La7  1  0.409547  0.204556  0.877311  1
  La  La8  1  0.206532  0.412887  0.624050  1
  La  La9  1  0.207948  0.591273  0.116980  1
  La  La10  1  0.794554  0.410275  0.122818  1
  La  La11  1  0.795596  0.590304  0.623007  1
  La  La12  1  0.911135  0.704694  0.124150  1
  La  La13  1  0.911389  0.295407  0.623658  1
  La  La14  1  0.093979  0.704181  0.623298  1
  Pr  Pr15  1  0.089826  0.295286  0.124570  1
  Pr  Pr16  1  0.999377  0.999523  0.500087  1
  Pr  Pr17  1  0.000651  0.000871  0.999843  1
  Pr  Pr18  1  0.497974  0.501390  0.999820  1
  Pr  Pr19  1  0.498656  0.501905  0.500412  1
  Ir  Ir20  1  0.346173  0.653884  0.750026  1
  Ir  Ir21  1  0.500236  0.000214  0.116844  1
  Ir  Ir22  1  0.500312  0.001181  0.615379  1
  Ir  Ir23  1  0.998792  0.499933  0.884378  1
  Ir  Ir24  1  0.999562  0.500124  0.383504  1
  Pt  Pt25  1  0.845989  0.154193  0.249843  1
  Pt  Pt26  1  0.845480  0.846351  0.750608  1
  Pt  Pt27  1  0.153721  0.154297  0.749119  1
  Pt  Pt28  1  0.153674  0.846429  0.249959  1
  Pt  Pt29  1  0.654144  0.345842  0.749977  1
  Pt  Pt30  1  0.655567  0.655200  0.249989  1
  Pt  Pt31  1  0.344889  0.344313  0.249845  1
