# generated using pymatgen
data_Cs2TbInBr6
_symmetry_space_group_name_H-M   'P 1'
_cell_length_a   8.39126097
_cell_length_b   8.39126228
_cell_length_c   8.59562218
_cell_angle_alpha   119.87187733
_cell_angle_beta   119.87188362
_cell_angle_gamma   59.83963056
_symmetry_Int_Tables_number   1
_chemical_formula_structural   Cs2TbInBr6
_chemical_formula_sum   'Cs2 Tb1 In1 Br6'
_cell_volume   428.27626710
_cell_formula_units_Z   1
loop_
 _symmetry_equiv_pos_site_id
 _symmetry_equiv_pos_as_xyz
  1  'x, y, z'
loop_
 _atom_site_type_symbol
 _atom_site_label
 _atom_site_symmetry_multiplicity
 _atom_site_fract_x
 _atom_site_fract_y
 _atom_site_fract_z
 _atom_site_occupancy
  Cs  Cs0  1  0.248523  0.248523  0.242041  1
  Cs  Cs1  1  0.751477  0.751477  0.757960  1
  Tb  Tb2  1  0.500000  0.500000  0.000000  1
  In  In3  1  0.000000  0.000000  0.499999  1
  Br  Br4  1  0.695892  0.221101  0.185961  1
  Br  Br5  1  0.221101  0.695892  0.185961  1
  Br  Br6  1  0.730237  0.730237  0.304861  1
  Br  Br7  1  0.269763  0.269763  0.695139  1
  Br  Br8  1  0.778899  0.304109  0.814038  1
  Br  Br9  1  0.304109  0.778899  0.814038  1
