# generated using pymatgen
data_Hf3ZrSc2(SiRu)6
_symmetry_space_group_name_H-M   'P 1'
_cell_length_a   7.63734093
_cell_length_b   7.63946306
_cell_length_c   7.63734119
_cell_angle_alpha   127.61378483
_cell_angle_beta   123.28979335
_cell_angle_gamma   80.83170388
_symmetry_Int_Tables_number   1
_chemical_formula_structural   Hf3ZrSc2(SiRu)6
_chemical_formula_sum   'Hf3 Zr1 Sc2 Si6 Ru6'
_cell_volume   284.48600076
_cell_formula_units_Z   1
loop_
 _symmetry_equiv_pos_site_id
 _symmetry_equiv_pos_as_xyz
  1  'x, y, z'
loop_
 _atom_site_type_symbol
 _atom_site_label
 _atom_site_symmetry_multiplicity
 _atom_site_fract_x
 _atom_site_fract_y
 _atom_site_fract_z
 _atom_site_occupancy
  Hf  Hf0  1  0.251962  0.841083  0.089122  1
  Hf  Hf1  1  0.051670  0.254995  0.703323  1
  Hf  Hf2  1  0.947567  0.651394  0.203829  1
  Zr  Zr3  1  0.747713  0.836433  0.588719  1
  Sc  Sc4  1  0.464562  0.685387  0.720825  1
  Sc  Sc5  1  0.535715  0.257001  0.221287  1
  Si  Si6  1  0.269368  0.268335  0.498967  1
  Si  Si7  1  0.730813  0.232738  0.001925  1
  Si  Si8  1  0.327521  0.585655  0.250132  1
  Si  Si9  1  0.671113  0.922523  0.256672  1
  Si  Si10  1  0.165852  0.922523  0.751410  1
  Si  Si11  1  0.835523  0.585655  0.758135  1
  Ru  Ru12  1  0.496522  0.500170  0.996601  1
  Ru  Ru13  1  0.003569  0.500170  0.503648  1
  Ru  Ru14  1  0.100452  0.252224  0.106118  1
  Ru  Ru15  1  0.901746  0.005545  0.153320  1
  Ru  Ru16  1  0.352226  0.005545  0.603799  1
  Ru  Ru17  1  0.646106  0.252224  0.651773  1
