# generated using pymatgen
data_Tm2V2C3
_symmetry_space_group_name_H-M   'P 1'
_cell_length_a   5.71511727
_cell_length_b   5.71511633
_cell_length_c   5.49665163
_cell_angle_alpha   73.43244993
_cell_angle_beta   73.43244191
_cell_angle_gamma   34.16198751
_symmetry_Int_Tables_number   1
_chemical_formula_structural   Tm2V2C3
_chemical_formula_sum   'Tm2 V2 C3'
_cell_volume   96.22494031
_cell_formula_units_Z   1
loop_
 _symmetry_equiv_pos_site_id
 _symmetry_equiv_pos_as_xyz
  1  'x, y, z'
loop_
 _atom_site_type_symbol
 _atom_site_label
 _atom_site_symmetry_multiplicity
 _atom_site_fract_x
 _atom_site_fract_y
 _atom_site_fract_z
 _atom_site_occupancy
  Tm  Tm0  1  0.389353  0.389353  0.813238  1
  Tm  Tm1  1  0.610647  0.610647  0.186762  1
  V  V2  1  0.151591  0.151591  0.627522  1
  V  V3  1  0.848409  0.848409  0.372478  1
  C  C4  1  0.000000  0.000000  0.500000  1
  C  C5  1  0.724928  0.724928  0.731990  1
  C  C6  1  0.275072  0.275072  0.268010  1
