# generated using pymatgen
data_Pr5ThZn4Pt13
_symmetry_space_group_name_H-M   'P 1'
_cell_length_a   8.42099338
_cell_length_b   8.42099385
_cell_length_c   8.42099400
_cell_angle_alpha   109.45134757
_cell_angle_beta   109.48115254
_cell_angle_gamma   109.48115868
_symmetry_Int_Tables_number   1
_chemical_formula_structural   Pr5ThZn4Pt13
_chemical_formula_sum   'Pr5 Th1 Zn4 Pt13'
_cell_volume   459.69325380
_cell_formula_units_Z   1
loop_
 _symmetry_equiv_pos_site_id
 _symmetry_equiv_pos_as_xyz
  1  'x, y, z'
loop_
 _atom_site_type_symbol
 _atom_site_label
 _atom_site_symmetry_multiplicity
 _atom_site_fract_x
 _atom_site_fract_y
 _atom_site_fract_z
 _atom_site_occupancy
  Pr  Pr0  1  0.697717  0.698240  0.000523  1
  Pr  Pr1  1  0.302283  0.000523  0.302807  1
  Pr  Pr2  1  0.000000  0.295672  0.295672  1
  Pr  Pr3  1  0.302283  0.302807  0.000523  1
  Pr  Pr4  1  0.697717  0.000523  0.698240  1
  Th  Th5  1  0.000000  0.694063  0.694063  1
  Zn  Zn6  1  0.000000  0.001665  0.499966  1
  Zn  Zn7  1  0.000000  0.499966  0.001665  1
  Zn  Zn8  1  0.501699  0.001665  0.001665  1
  Zn  Zn9  1  0.498301  0.499966  0.499966  1
  Pt  Pt10  1  0.327977  0.327222  0.655198  1
  Pt  Pt11  1  0.672023  0.999243  0.327222  1
  Pt  Pt12  1  0.000000  0.669203  0.332017  1
  Pt  Pt13  1  0.672023  0.327222  0.999243  1
  Pt  Pt14  1  0.327977  0.655198  0.327222  1
  Pt  Pt15  1  0.000000  0.332017  0.669203  1
  Pt  Pt16  1  0.323961  0.675758  0.999719  1
  Pt  Pt17  1  0.323961  0.999719  0.675758  1
  Pt  Pt18  1  0.662813  0.332017  0.332017  1
  Pt  Pt19  1  0.676039  0.675758  0.351798  1
  Pt  Pt20  1  0.676039  0.351798  0.675758  1
  Pt  Pt21  1  0.337187  0.669203  0.669203  1
  Pt  Pt22  1  0.000000  0.990553  0.990553  1
