# generated using pymatgen
data_Er3Lu5Re2(B12Rh)2
_symmetry_space_group_name_H-M   'P 1'
_cell_length_a   3.62826300
_cell_length_b   9.05687890
_cell_length_c   11.44561703
_cell_angle_alpha   90.37846462
_cell_angle_beta   90.00000000
_cell_angle_gamma   90.00000000
_symmetry_Int_Tables_number   1
_chemical_formula_structural   Er3Lu5Re2(B12Rh)2
_chemical_formula_sum   'Er3 Lu5 Re2 B24 Rh2'
_cell_volume   376.10322414
_cell_formula_units_Z   1
loop_
 _symmetry_equiv_pos_site_id
 _symmetry_equiv_pos_as_xyz
  1  'x, y, z'
loop_
 _atom_site_type_symbol
 _atom_site_label
 _atom_site_symmetry_multiplicity
 _atom_site_fract_x
 _atom_site_fract_y
 _atom_site_fract_z
 _atom_site_occupancy
  Er  Er0  1  0.000000  0.317607  0.411042  1
  Er  Er1  1  0.000000  0.682405  0.589009  1
  Er  Er2  1  0.000000  0.825454  0.082836  1
  Lu  Lu3  1  0.000000  0.174419  0.917613  1
  Lu  Lu4  1  0.000000  0.945664  0.371984  1
  Lu  Lu5  1  0.000000  0.054529  0.628068  1
  Lu  Lu6  1  0.000000  0.442304  0.126315  1
  Lu  Lu7  1  0.000000  0.557389  0.873479  1
  Re  Re8  1  0.000000  0.139207  0.179788  1
  Re  Re9  1  0.000000  0.861334  0.820019  1
  B  B10  1  0.500000  0.554586  0.434527  1
  B  B11  1  0.500000  0.445366  0.565516  1
  B  B12  1  0.500000  0.053287  0.066798  1
  B  B13  1  0.500000  0.947407  0.932824  1
  B  B14  1  0.500000  0.750322  0.421392  1
  B  B15  1  0.500000  0.249740  0.578685  1
  B  B16  1  0.500000  0.249791  0.080507  1
  B  B17  1  0.500000  0.750211  0.918862  1
  B  B18  1  0.500000  0.792048  0.264894  1
  B  B19  1  0.500000  0.207779  0.735555  1
  B  B20  1  0.500000  0.293809  0.234990  1
  B  B21  1  0.500000  0.706209  0.764886  1
  B  B22  1  0.500000  0.631647  0.182800  1
  B  B23  1  0.500000  0.367721  0.817489  1
  B  B24  1  0.500000  0.131257  0.315560  1
  B  B25  1  0.500000  0.868905  0.684476  1
  B  B26  1  0.500000  0.982113  0.213381  1
  B  B27  1  0.500000  0.018554  0.786780  1
  B  B28  1  0.500000  0.482858  0.287393  1
  B  B29  1  0.500000  0.516976  0.712603  1
  B  B30  1  0.500000  0.603580  0.028747  1
  B  B31  1  0.500000  0.395617  0.971018  1
  B  B32  1  0.500000  0.104777  0.471851  1
  B  B33  1  0.500000  0.895270  0.528186  1
  Rh  Rh34  1  0.000000  0.638402  0.321001  1
  Rh  Rh35  1  0.000000  0.361456  0.679126  1
