# generated using pymatgen
data_Nb3TcS6
_symmetry_space_group_name_H-M   'P 1'
_cell_length_a   5.82199500
_cell_length_b   5.82199562
_cell_length_c   12.04702400
_cell_angle_alpha   90.00000000
_cell_angle_beta   90.00000000
_cell_angle_gamma   120.00000215
_symmetry_Int_Tables_number   1
_chemical_formula_structural   Nb3TcS6
_chemical_formula_sum   'Nb6 Tc2 S12'
_cell_volume   353.63407088
_cell_formula_units_Z   2
loop_
 _symmetry_equiv_pos_site_id
 _symmetry_equiv_pos_as_xyz
  1  'x, y, z'
loop_
 _atom_site_type_symbol
 _atom_site_label
 _atom_site_symmetry_multiplicity
 _atom_site_fract_x
 _atom_site_fract_y
 _atom_site_fract_z
 _atom_site_occupancy
  Nb  Nb0  1  0.333333  0.666667  0.996444  1
  Nb  Nb1  1  0.000000  0.000000  0.000000  1
  Nb  Nb2  1  0.000000  0.000000  0.500000  1
  Nb  Nb3  1  0.333333  0.666667  0.503556  1
  Nb  Nb4  1  0.666667  0.333333  0.003556  1
  Nb  Nb5  1  0.666667  0.333333  0.496444  1
  Tc  Tc6  1  0.333333  0.666667  0.250000  1
  Tc  Tc7  1  0.666667  0.333333  0.750000  1
  S  S8  1  0.331588  0.995144  0.130425  1
  S  S9  1  0.668412  0.004856  0.630425  1
  S  S10  1  0.004856  0.336442  0.130425  1
  S  S11  1  0.663558  0.995144  0.369575  1
  S  S12  1  0.331588  0.336442  0.369575  1
  S  S13  1  0.004856  0.668412  0.369575  1
  S  S14  1  0.663558  0.668412  0.130425  1
  S  S15  1  0.336442  0.331588  0.630425  1
  S  S16  1  0.995144  0.663558  0.630425  1
  S  S17  1  0.336442  0.004856  0.869575  1
  S  S18  1  0.668412  0.663558  0.869575  1
  S  S19  1  0.995144  0.331588  0.869575  1
