# generated using pymatgen
data_CeNd8Tm11Sn16
_symmetry_space_group_name_H-M   'P 1'
_cell_length_a   8.09835685
_cell_length_b   8.25546601
_cell_length_c   15.57672800
_cell_angle_alpha   90.08837144
_cell_angle_beta   90.03868604
_cell_angle_gamma   90.12665028
_symmetry_Int_Tables_number   1
_chemical_formula_structural   CeNd8Tm11Sn16
_chemical_formula_sum   'Ce1 Nd8 Tm11 Sn16'
_cell_volume   1041.38918190
_cell_formula_units_Z   1
loop_
 _symmetry_equiv_pos_site_id
 _symmetry_equiv_pos_as_xyz
  1  'x, y, z'
loop_
 _atom_site_type_symbol
 _atom_site_label
 _atom_site_symmetry_multiplicity
 _atom_site_fract_x
 _atom_site_fract_y
 _atom_site_fract_z
 _atom_site_occupancy
  Ce  Ce0  1  0.013847  0.179499  0.904984  1
  Nd  Nd1  1  0.857710  0.665019  0.879160  1
  Nd  Nd2  1  0.515880  0.320978  0.903142  1
  Nd  Nd3  1  0.012970  0.178558  0.595034  1
  Nd  Nd4  1  0.486475  0.677895  0.403620  1
  Nd  Nd5  1  0.986559  0.822671  0.098546  1
  Nd  Nd6  1  0.486528  0.677620  0.097042  1
  Nd  Nd7  1  0.986517  0.821817  0.403079  1
  Nd  Nd8  1  0.512869  0.321125  0.595510  1
  Tm  Tm9  1  0.356919  0.835141  0.875419  1
  Tm  Tm10  1  0.857193  0.663738  0.623202  1
  Tm  Tm11  1  0.642662  0.163292  0.375922  1
  Tm  Tm12  1  0.142095  0.336716  0.123448  1
  Tm  Tm13  1  0.640757  0.162413  0.126440  1
  Tm  Tm14  1  0.143367  0.336208  0.376135  1
  Tm  Tm15  1  0.356499  0.837328  0.622415  1
  Tm  Tm16  1  0.190361  0.502727  0.749420  1
  Tm  Tm17  1  0.689263  0.997277  0.748455  1
  Tm  Tm18  1  0.809472  0.496262  0.250905  1
  Tm  Tm19  1  0.309225  0.003216  0.249881  1
  Sn  Sn20  1  0.305215  0.042149  0.040741  1
  Sn  Sn21  1  0.806766  0.458698  0.457916  1
  Sn  Sn22  1  0.694037  0.958275  0.541219  1
  Sn  Sn23  1  0.203072  0.535844  0.957786  1
  Sn  Sn24  1  0.691479  0.967493  0.958839  1
  Sn  Sn25  1  0.193001  0.541775  0.541371  1
  Sn  Sn26  1  0.306452  0.041532  0.457274  1
  Sn  Sn27  1  0.804512  0.454465  0.045889  1
  Sn  Sn28  1  0.552770  0.623580  0.747112  1
  Sn  Sn29  1  0.056470  0.881563  0.749034  1
  Sn  Sn30  1  0.443706  0.375854  0.250655  1
  Sn  Sn31  1  0.945048  0.123917  0.250472  1
  Sn  Sn32  1  0.320971  0.144283  0.749749  1
  Sn  Sn33  1  0.823039  0.352351  0.749311  1
  Sn  Sn34  1  0.678060  0.855223  0.250652  1
  Sn  Sn35  1  0.178233  0.643499  0.250218  1
