# generated using pymatgen
data_Li2CaY(Al3Pd)6
_symmetry_space_group_name_H-M   'P 1'
_cell_length_a   7.60231353
_cell_length_b   7.59866755
_cell_length_c   9.41155900
_cell_angle_alpha   90.00000000
_cell_angle_beta   90.00000000
_cell_angle_gamma   119.86188891
_symmetry_Int_Tables_number   1
_chemical_formula_structural   Li2CaY(Al3Pd)6
_chemical_formula_sum   'Li2 Ca1 Y1 Al18 Pd6'
_cell_volume   471.49614714
_cell_formula_units_Z   1
loop_
 _symmetry_equiv_pos_site_id
 _symmetry_equiv_pos_as_xyz
  1  'x, y, z'
loop_
 _atom_site_type_symbol
 _atom_site_label
 _atom_site_symmetry_multiplicity
 _atom_site_fract_x
 _atom_site_fract_y
 _atom_site_fract_z
 _atom_site_occupancy
  Li  Li0  1  0.991610  0.674332  0.250000  1
  Li  Li1  1  0.675226  0.995816  0.250000  1
  Ca  Ca2  1  0.002782  0.332101  0.750000  1
  Y  Y3  1  0.332057  0.999727  0.750000  1
  Al  Al4  1  0.122456  0.123886  0.250000  1
  Al  Al5  1  0.873044  0.869278  0.750000  1
  Al  Al6  1  0.990782  0.334774  0.088769  1
  Al  Al7  1  0.997221  0.665379  0.936240  1
  Al  Al8  1  0.997221  0.665379  0.563760  1
  Al  Al9  1  0.334503  0.990013  0.409406  1
  Al  Al10  1  0.990782  0.334774  0.411231  1
  Al  Al11  1  0.667156  0.997954  0.564063  1
  Al  Al12  1  0.667156  0.997954  0.935937  1
  Al  Al13  1  0.334503  0.990013  0.090594  1
  Al  Al14  1  0.334104  0.333878  0.545513  1
  Al  Al15  1  0.673047  0.673314  0.427998  1
  Al  Al16  1  0.673047  0.673314  0.072002  1
  Al  Al17  1  0.334104  0.333878  0.954487  1
  Al  Al18  1  0.338433  0.556944  0.250000  1
  Al  Al19  1  0.659892  0.457451  0.750000  1
  Al  Al20  1  0.553904  0.340005  0.250000  1
  Al  Al21  1  0.462165  0.667039  0.750000  1
  Pd  Pd22  1  0.666476  0.325971  0.998586  1
  Pd  Pd23  1  0.327382  0.668258  0.997932  1
  Pd  Pd24  1  0.327382  0.668258  0.502068  1
  Pd  Pd25  1  0.666476  0.325971  0.501414  1
  Pd  Pd26  1  0.003546  0.002169  0.999901  1
  Pd  Pd27  1  0.003546  0.002169  0.500099  1
