# generated using pymatgen
data_Pr2TmTh(ZnSn)4
_symmetry_space_group_name_H-M   'P 1'
_cell_length_a   4.59494000
_cell_length_b   4.59494020
_cell_length_c   16.15907300
_cell_angle_alpha   90.00000000
_cell_angle_beta   90.00000000
_cell_angle_gamma   119.99999856
_symmetry_Int_Tables_number   1
_chemical_formula_structural   Pr2TmTh(ZnSn)4
_chemical_formula_sum   'Pr2 Tm1 Th1 Zn4 Sn4'
_cell_volume   295.46550791
_cell_formula_units_Z   1
loop_
 _symmetry_equiv_pos_site_id
 _symmetry_equiv_pos_as_xyz
  1  'x, y, z'
loop_
 _atom_site_type_symbol
 _atom_site_label
 _atom_site_symmetry_multiplicity
 _atom_site_fract_x
 _atom_site_fract_y
 _atom_site_fract_z
 _atom_site_occupancy
  Pr  Pr0  1  0.000000  0.000000  0.506919  1
  Pr  Pr1  1  0.000000  0.000000  0.993081  1
  Tm  Tm2  1  0.000000  0.000000  0.750000  1
  Th  Th3  1  0.000000  0.000000  0.250000  1
  Zn  Zn4  1  0.333333  0.666667  0.350270  1
  Zn  Zn5  1  0.666667  0.333333  0.665096  1
  Zn  Zn6  1  0.666667  0.333333  0.834904  1
  Zn  Zn7  1  0.333333  0.666667  0.149730  1
  Sn  Sn8  1  0.333333  0.666667  0.877484  1
  Sn  Sn9  1  0.666667  0.333333  0.116381  1
  Sn  Sn10  1  0.666667  0.333333  0.383619  1
  Sn  Sn11  1  0.333333  0.666667  0.622516  1
