# generated using pymatgen
data_Y20Sn11Bi5
_symmetry_space_group_name_H-M   'P 1'
_cell_length_a   8.21223819
_cell_length_b   8.20959530
_cell_length_c   15.57192017
_cell_angle_alpha   90.12602254
_cell_angle_beta   90.35660067
_cell_angle_gamma   89.89772386
_symmetry_Int_Tables_number   1
_chemical_formula_structural   Y20Sn11Bi5
_chemical_formula_sum   'Y20 Sn11 Bi5'
_cell_volume   1049.82113347
_cell_formula_units_Z   1
loop_
 _symmetry_equiv_pos_site_id
 _symmetry_equiv_pos_as_xyz
  1  'x, y, z'
loop_
 _atom_site_type_symbol
 _atom_site_label
 _atom_site_symmetry_multiplicity
 _atom_site_fract_x
 _atom_site_fract_y
 _atom_site_fract_z
 _atom_site_occupancy
  Y  Y0  1  0.391359  0.838496  0.877362  1
  Y  Y1  1  0.891335  0.660889  0.621895  1
  Y  Y2  1  0.608768  0.159521  0.377361  1
  Y  Y3  1  0.105783  0.337980  0.122147  1
  Y  Y4  1  0.610884  0.164772  0.122621  1
  Y  Y5  1  0.115052  0.336317  0.379951  1
  Y  Y6  1  0.383396  0.837919  0.620854  1
  Y  Y7  1  0.888006  0.658308  0.878699  1
  Y  Y8  1  0.562506  0.335647  0.889390  1
  Y  Y9  1  0.060707  0.172646  0.608425  1
  Y  Y10  1  0.440147  0.672502  0.392023  1
  Y  Y11  1  0.940389  0.824418  0.111924  1
  Y  Y12  1  0.449229  0.663908  0.110803  1
  Y  Y13  1  0.958172  0.829246  0.393158  1
  Y  Y14  1  0.541085  0.330372  0.606160  1
  Y  Y15  1  0.053764  0.173572  0.889144  1
  Y  Y16  1  0.221115  0.501449  0.746005  1
  Y  Y17  1  0.721296  0.000938  0.748732  1
  Y  Y18  1  0.778746  0.498492  0.248190  1
  Y  Y19  1  0.278948  0.999138  0.253754  1
  Sn  Sn20  1  0.224376  0.526213  0.543632  1
  Sn  Sn21  1  0.275362  0.025215  0.456505  1
  Sn  Sn22  1  0.770811  0.478891  0.044708  1
  Sn  Sn23  1  0.586825  0.628678  0.748719  1
  Sn  Sn24  1  0.085360  0.873629  0.751752  1
  Sn  Sn25  1  0.412088  0.372266  0.249920  1
  Sn  Sn26  1  0.913731  0.125832  0.250973  1
  Sn  Sn27  1  0.359805  0.144251  0.751023  1
  Sn  Sn28  1  0.857769  0.356867  0.747913  1
  Sn  Sn29  1  0.642053  0.855675  0.251175  1
  Sn  Sn30  1  0.141920  0.641121  0.250361  1
  Bi  Bi31  1  0.266508  0.014877  0.045438  1
  Bi  Bi32  1  0.768890  0.479302  0.455261  1
  Bi  Bi33  1  0.730502  0.980270  0.543961  1
  Bi  Bi34  1  0.232090  0.518237  0.954863  1
  Bi  Bi35  1  0.731222  0.982148  0.955197  1
