# generated using pymatgen
data_NdDy9(In2Rh)4
_symmetry_space_group_name_H-M   'P 1'
_cell_length_a   3.65194000
_cell_length_b   8.02573672
_cell_length_c   18.38203976
_cell_angle_alpha   89.87586425
_cell_angle_beta   90.00000000
_cell_angle_gamma   90.00000000
_symmetry_Int_Tables_number   1
_chemical_formula_structural   NdDy9(In2Rh)4
_chemical_formula_sum   'Nd1 Dy9 In8 Rh4'
_cell_volume   538.76729452
_cell_formula_units_Z   1
loop_
 _symmetry_equiv_pos_site_id
 _symmetry_equiv_pos_as_xyz
  1  'x, y, z'
loop_
 _atom_site_type_symbol
 _atom_site_label
 _atom_site_symmetry_multiplicity
 _atom_site_fract_x
 _atom_site_fract_y
 _atom_site_fract_z
 _atom_site_occupancy
  Nd  Nd0  1  0.500000  0.500000  0.000000  1
  Dy  Dy1  1  0.500000  0.383105  0.588665  1
  Dy  Dy2  1  0.500000  0.882157  0.911039  1
  Dy  Dy3  1  0.500000  0.117843  0.088961  1
  Dy  Dy4  1  0.500000  0.753329  0.721248  1
  Dy  Dy5  1  0.500000  0.253067  0.778257  1
  Dy  Dy6  1  0.500000  0.746933  0.221743  1
  Dy  Dy7  1  0.500000  0.246671  0.278752  1
  Dy  Dy8  1  0.500000  0.000000  0.500000  1
  Dy  Dy9  1  0.500000  0.616895  0.411335  1
  In  In10  1  0.000000  0.795916  0.069958  1
  In  In11  1  0.000000  0.928854  0.349601  1
  In  In12  1  0.000000  0.071146  0.650399  1
  In  In13  1  0.000000  0.571732  0.847583  1
  In  In14  1  0.000000  0.707209  0.568634  1
  In  In15  1  0.000000  0.204084  0.930042  1
  In  In16  1  0.000000  0.292791  0.431366  1
  In  In17  1  0.000000  0.428268  0.152417  1
  Rh  Rh18  1  0.000000  0.976696  0.805157  1
  Rh  Rh19  1  0.000000  0.523143  0.305623  1
  Rh  Rh20  1  0.000000  0.476857  0.694377  1
  Rh  Rh21  1  0.000000  0.023304  0.194843  1
