# generated using pymatgen
data_Mg2Ti(SbRu2)3
_symmetry_space_group_name_H-M   'P 1'
_cell_length_a   4.45123101
_cell_length_b   6.30070001
_cell_length_c   13.38955500
_cell_angle_alpha   89.99874347
_cell_angle_beta   89.99878734
_cell_angle_gamma   89.99293192
_symmetry_Int_Tables_number   1
_chemical_formula_structural   Mg2Ti(SbRu2)3
_chemical_formula_sum   'Mg4 Ti2 Sb6 Ru12'
_cell_volume   375.52173293
_cell_formula_units_Z   2
loop_
 _symmetry_equiv_pos_site_id
 _symmetry_equiv_pos_as_xyz
  1  'x, y, z'
loop_
 _atom_site_type_symbol
 _atom_site_label
 _atom_site_symmetry_multiplicity
 _atom_site_fract_x
 _atom_site_fract_y
 _atom_site_fract_z
 _atom_site_occupancy
  Mg  Mg0  1  0.999712  0.999999  0.333473  1
  Mg  Mg1  1  0.500001  0.499999  0.500159  1
  Mg  Mg2  1  0.000281  0.999999  0.666496  1
  Mg  Mg3  1  0.500278  0.500002  0.833205  1
  Ti  Ti4  1  0.999995  0.000000  0.998054  1
  Ti  Ti5  1  0.499711  0.499999  0.168609  1
  Sb  Sb6  1  0.000008  0.499996  0.998076  1
  Sb  Sb7  1  0.499710  0.000003  0.168567  1
  Sb  Sb8  1  0.999753  0.499992  0.336365  1
  Sb  Sb9  1  0.500009  0.000024  0.501911  1
  Sb  Sb10  1  0.000270  0.499976  0.664751  1
  Sb  Sb11  1  0.500240  0.000005  0.830302  1
  Ru  Ru12  1  0.500022  0.245590  0.003162  1
  Ru  Ru13  1  0.499961  0.754410  0.003152  1
  Ru  Ru14  1  0.999726  0.254378  0.163575  1
  Ru  Ru15  1  0.999786  0.745620  0.163584  1
  Ru  Ru16  1  0.499777  0.253650  0.329179  1
  Ru  Ru17  1  0.499719  0.746349  0.329182  1
  Ru  Ru18  1  0.999997  0.248449  0.498881  1
  Ru  Ru19  1  0.000021  0.751549  0.498886  1
  Ru  Ru20  1  0.500295  0.251485  0.667769  1
  Ru  Ru21  1  0.500272  0.748516  0.667762  1
  Ru  Ru22  1  0.000196  0.246274  0.837449  1
  Ru  Ru23  1  0.000258  0.753730  0.837449  1
