# generated using pymatgen
data_Ba2Cd(IO)2
_symmetry_space_group_name_H-M   'P 1'
_cell_length_a   6.77884605
_cell_length_b   6.77884562
_cell_length_c   8.76228959
_cell_angle_alpha   119.97195195
_cell_angle_beta   119.97194822
_cell_angle_gamma   38.23393613
_symmetry_Int_Tables_number   1
_chemical_formula_structural   Ba2Cd(IO)2
_chemical_formula_sum   'Ba2 Cd1 I2 O2'
_cell_volume   211.50955413
_cell_formula_units_Z   1
loop_
 _symmetry_equiv_pos_site_id
 _symmetry_equiv_pos_as_xyz
  1  'x, y, z'
loop_
 _atom_site_type_symbol
 _atom_site_label
 _atom_site_symmetry_multiplicity
 _atom_site_fract_x
 _atom_site_fract_y
 _atom_site_fract_z
 _atom_site_occupancy
  Ba  Ba0  1  0.796875  0.796875  0.218862  1
  Ba  Ba1  1  0.203124  0.203124  0.781138  1
  Cd  Cd2  1  0.000000  0.000000  0.000000  1
  I  I3  1  0.567067  0.567067  0.342007  1
  I  I4  1  0.432932  0.432932  0.657992  1
  O  O5  1  0.180381  0.180381  0.063381  1
  O  O6  1  0.819619  0.819619  0.936620  1
