# generated using pymatgen
data_ErLuVIr3
_symmetry_space_group_name_H-M   'P 1'
_cell_length_a   5.55567502
_cell_length_b   5.09959132
_cell_length_c   5.55567600
_cell_angle_alpha   56.99463441
_cell_angle_beta   60.00000609
_cell_angle_gamma   56.99462439
_symmetry_Int_Tables_number   1
_chemical_formula_structural   ErLuVIr3
_chemical_formula_sum   'Er1 Lu1 V1 Ir3'
_cell_volume   105.97262717
_cell_formula_units_Z   1
loop_
 _symmetry_equiv_pos_site_id
 _symmetry_equiv_pos_as_xyz
  1  'x, y, z'
loop_
 _atom_site_type_symbol
 _atom_site_label
 _atom_site_symmetry_multiplicity
 _atom_site_fract_x
 _atom_site_fract_y
 _atom_site_fract_z
 _atom_site_occupancy
  Er  Er0  1  0.497878  0.506363  0.497878  1
  Lu  Lu1  1  0.753008  0.740976  0.753008  1
  V  V2  1  0.124879  0.625364  0.124879  1
  Ir  Ir3  1  0.625338  0.125766  0.124447  1
  Ir  Ir4  1  0.124447  0.125766  0.124447  1
  Ir  Ir5  1  0.124447  0.125766  0.625338  1
