# generated using pymatgen
data_LiMnAlPd5
_symmetry_space_group_name_H-M   'P 1'
_cell_length_a   4.13192800
_cell_length_b   5.39006448
_cell_length_c   10.51142076
_cell_angle_alpha   91.51988843
_cell_angle_beta   90.00000000
_cell_angle_gamma   90.00000000
_symmetry_Int_Tables_number   1
_chemical_formula_structural   LiMnAlPd5
_chemical_formula_sum   'Li2 Mn2 Al2 Pd10'
_cell_volume   234.02125568
_cell_formula_units_Z   2
loop_
 _symmetry_equiv_pos_site_id
 _symmetry_equiv_pos_as_xyz
  1  'x, y, z'
loop_
 _atom_site_type_symbol
 _atom_site_label
 _atom_site_symmetry_multiplicity
 _atom_site_fract_x
 _atom_site_fract_y
 _atom_site_fract_z
 _atom_site_occupancy
  Li  Li0  1  0.500000  0.665278  0.134668  1
  Li  Li1  1  0.500000  0.334722  0.865332  1
  Mn  Mn2  1  0.500000  0.166537  0.359561  1
  Mn  Mn3  1  0.500000  0.833463  0.640439  1
  Al  Al4  1  0.000000  0.000000  0.000000  1
  Al  Al5  1  0.000000  0.500000  0.500000  1
  Pd  Pd6  1  0.500000  0.177463  0.108479  1
  Pd  Pd7  1  0.500000  0.822537  0.891521  1
  Pd  Pd8  1  0.500000  0.677652  0.391449  1
  Pd  Pd9  1  0.500000  0.322348  0.608551  1
  Pd  Pd10  1  0.000000  0.000000  0.500000  1
  Pd  Pd11  1  0.000000  0.500000  0.000000  1
  Pd  Pd12  1  0.000000  0.898441  0.235446  1
  Pd  Pd13  1  0.000000  0.101559  0.764554  1
  Pd  Pd14  1  0.000000  0.402109  0.260798  1
  Pd  Pd15  1  0.000000  0.597891  0.739202  1
