# generated using pymatgen
data_TbDy7(C2Br3)2
_symmetry_space_group_name_H-M   'P 1'
_cell_length_a   3.70048900
_cell_length_b   10.77244403
_cell_length_c   20.54120800
_cell_angle_alpha   90.16566288
_cell_angle_beta   90.00000000
_cell_angle_gamma   90.00000000
_symmetry_Int_Tables_number   1
_chemical_formula_structural   TbDy7(C2Br3)2
_chemical_formula_sum   'Tb2 Dy14 C8 Br12'
_cell_volume   818.83713250
_cell_formula_units_Z   2
loop_
 _symmetry_equiv_pos_site_id
 _symmetry_equiv_pos_as_xyz
  1  'x, y, z'
loop_
 _atom_site_type_symbol
 _atom_site_label
 _atom_site_symmetry_multiplicity
 _atom_site_fract_x
 _atom_site_fract_y
 _atom_site_fract_z
 _atom_site_occupancy
  Tb  Tb0  1  0.250000  0.864297  0.580407  1
  Tb  Tb1  1  0.750000  0.135703  0.419593  1
  Dy  Dy2  1  0.750000  0.634343  0.080235  1
  Dy  Dy3  1  0.250000  0.365657  0.919765  1
  Dy  Dy4  1  0.250000  0.865300  0.744920  1
  Dy  Dy5  1  0.750000  0.134700  0.255080  1
  Dy  Dy6  1  0.750000  0.634808  0.243593  1
  Dy  Dy7  1  0.250000  0.365192  0.756407  1
  Dy  Dy8  1  0.250000  0.868569  0.168565  1
  Dy  Dy9  1  0.750000  0.131431  0.831435  1
  Dy  Dy10  1  0.750000  0.630855  0.670028  1
  Dy  Dy11  1  0.250000  0.369145  0.329972  1
  Dy  Dy12  1  0.250000  0.901242  0.327847  1
  Dy  Dy13  1  0.750000  0.098758  0.672153  1
  Dy  Dy14  1  0.750000  0.599527  0.829144  1
  Dy  Dy15  1  0.250000  0.400473  0.170856  1
  C  C16  1  0.250000  0.613595  0.751306  1
  C  C17  1  0.750000  0.386405  0.248694  1
  C  C18  1  0.750000  0.885694  0.249766  1
  C  C19  1  0.250000  0.114306  0.750234  1
  C  C20  1  0.250000  0.633320  0.155729  1
  C  C21  1  0.750000  0.366680  0.844271  1
  C  C22  1  0.750000  0.865610  0.657068  1
  C  C23  1  0.250000  0.134390  0.342932  1
  Br  Br24  1  0.250000  0.608402  0.557008  1
  Br  Br25  1  0.750000  0.391598  0.442992  1
  Br  Br26  1  0.750000  0.887182  0.055198  1
  Br  Br27  1  0.250000  0.112818  0.944802  1
  Br  Br28  1  0.250000  0.627291  0.953185  1
  Br  Br29  1  0.750000  0.372709  0.046815  1
  Br  Br30  1  0.750000  0.871020  0.451374  1
  Br  Br31  1  0.250000  0.128980  0.548626  1
  Br  Br32  1  0.250000  0.636893  0.355359  1
  Br  Br33  1  0.750000  0.363107  0.644641  1
  Br  Br34  1  0.750000  0.863976  0.857383  1
  Br  Br35  1  0.250000  0.136024  0.142617  1
