# generated using pymatgen
data_Cr9FeO24
_symmetry_space_group_name_H-M   'P 1'
_cell_length_a   9.25625853
_cell_length_b   9.25642965
_cell_length_c   9.25622508
_cell_angle_alpha   58.57409655
_cell_angle_beta   58.57468770
_cell_angle_gamma   58.57402896
_symmetry_Int_Tables_number   1
_chemical_formula_structural   Cr9FeO24
_chemical_formula_sum   'Cr9 Fe1 O24'
_cell_volume   542.50464409
_cell_formula_units_Z   1
loop_
 _symmetry_equiv_pos_site_id
 _symmetry_equiv_pos_as_xyz
  1  'x, y, z'
loop_
 _atom_site_type_symbol
 _atom_site_label
 _atom_site_symmetry_multiplicity
 _atom_site_fract_x
 _atom_site_fract_y
 _atom_site_fract_z
 _atom_site_occupancy
  Cr  Cr0  1  0.142254  0.142254  0.142260  1
  Cr  Cr1  1  0.357832  0.357842  0.357842  1
  Cr  Cr2  1  0.642777  0.642782  0.642771  1
  Cr  Cr3  1  0.036121  0.750462  0.463106  1
  Cr  Cr4  1  0.463113  0.036109  0.750455  1
  Cr  Cr5  1  0.750455  0.463106  0.036119  1
  Cr  Cr6  1  0.252472  0.533910  0.963706  1
  Cr  Cr7  1  0.533918  0.963710  0.252472  1
  Cr  Cr8  1  0.963700  0.252480  0.533919  1
  Fe  Fe9  1  0.859231  0.859229  0.859228  1
  O  O10  1  0.140224  0.285938  0.499898  1
  O  O11  1  0.285933  0.499879  0.140234  1
  O  O12  1  0.061114  0.931740  0.280124  1
  O  O13  1  0.499890  0.140231  0.285939  1
  O  O14  1  0.221515  0.572507  0.432132  1
  O  O15  1  0.003600  0.779106  0.641974  1
  O  O16  1  0.280134  0.061118  0.931727  1
  O  O17  1  0.432133  0.221502  0.572504  1
  O  O18  1  0.572501  0.432137  0.221511  1
  O  O19  1  0.220419  0.356429  0.997288  1
  O  O20  1  0.071445  0.717851  0.938734  1
  O  O21  1  0.356432  0.997288  0.220422  1
  O  O22  1  0.641983  0.003570  0.779110  1
  O  O23  1  0.931730  0.280121  0.061120  1
  O  O24  1  0.779108  0.641969  0.003591  1
  O  O25  1  0.431312  0.561879  0.778718  1
  O  O26  1  0.561876  0.778711  0.431312  1
  O  O27  1  0.717858  0.938741  0.071446  1
  O  O28  1  0.997283  0.220431  0.356429  1
  O  O29  1  0.778704  0.431324  0.561871  1
  O  O30  1  0.496953  0.857572  0.719661  1
  O  O31  1  0.938741  0.071449  0.717859  1
  O  O32  1  0.719663  0.496951  0.857574  1
  O  O33  1  0.857578  0.719674  0.496942  1
