# generated using pymatgen
data_Zr3SnRh2O
_symmetry_space_group_name_H-M   'P 1'
_cell_length_a   8.77815678
_cell_length_b   8.77815671
_cell_length_c   8.77815700
_cell_angle_alpha   60.00000266
_cell_angle_beta   60.00000296
_cell_angle_gamma   59.99999950
_symmetry_Int_Tables_number   1
_chemical_formula_structural   Zr3SnRh2O
_chemical_formula_sum   'Zr12 Sn4 Rh8 O4'
_cell_volume   478.29410245
_cell_formula_units_Z   4
loop_
 _symmetry_equiv_pos_site_id
 _symmetry_equiv_pos_as_xyz
  1  'x, y, z'
loop_
 _atom_site_type_symbol
 _atom_site_label
 _atom_site_symmetry_multiplicity
 _atom_site_fract_x
 _atom_site_fract_y
 _atom_site_fract_z
 _atom_site_occupancy
  Zr  Zr0  1  0.811392  0.811392  0.188608  1
  Zr  Zr1  1  0.188608  0.188608  0.811392  1
  Zr  Zr2  1  0.811392  0.188608  0.811392  1
  Zr  Zr3  1  0.188608  0.811392  0.188608  1
  Zr  Zr4  1  0.188608  0.811392  0.811392  1
  Zr  Zr5  1  0.811392  0.188608  0.188608  1
  Zr  Zr6  1  0.438608  0.438608  0.061392  1
  Zr  Zr7  1  0.061392  0.061392  0.438608  1
  Zr  Zr8  1  0.438608  0.061392  0.438608  1
  Zr  Zr9  1  0.061392  0.438608  0.061392  1
  Zr  Zr10  1  0.061392  0.438608  0.438608  1
  Zr  Zr11  1  0.438608  0.061392  0.061392  1
  Sn  Sn12  1  0.125000  0.625000  0.625000  1
  Sn  Sn13  1  0.625000  0.125000  0.625000  1
  Sn  Sn14  1  0.625000  0.625000  0.125000  1
  Sn  Sn15  1  0.625000  0.625000  0.625000  1
  Rh  Rh16  1  0.784400  0.405199  0.405199  1
  Rh  Rh17  1  0.405199  0.784400  0.405199  1
  Rh  Rh18  1  0.405199  0.405199  0.784400  1
  Rh  Rh19  1  0.405199  0.405199  0.405199  1
  Rh  Rh20  1  0.465600  0.844801  0.844801  1
  Rh  Rh21  1  0.844801  0.465600  0.844801  1
  Rh  Rh22  1  0.844801  0.844801  0.465600  1
  Rh  Rh23  1  0.844801  0.844801  0.844801  1
  O  O24  1  0.625000  0.125000  0.125000  1
  O  O25  1  0.125000  0.625000  0.125000  1
  O  O26  1  0.125000  0.125000  0.625000  1
  O  O27  1  0.125000  0.125000  0.125000  1
