# generated using pymatgen
data_DyEr7(TcB6)4
_symmetry_space_group_name_H-M   'P 1'
_cell_length_a   3.66348700
_cell_length_b   9.12548600
_cell_length_c   11.49998501
_cell_angle_alpha   89.99780852
_cell_angle_beta   90.00000000
_cell_angle_gamma   90.00000000
_symmetry_Int_Tables_number   1
_chemical_formula_structural   DyEr7(TcB6)4
_chemical_formula_sum   'Dy1 Er7 Tc4 B24'
_cell_volume   384.45714106
_cell_formula_units_Z   1
loop_
 _symmetry_equiv_pos_site_id
 _symmetry_equiv_pos_as_xyz
  1  'x, y, z'
loop_
 _atom_site_type_symbol
 _atom_site_label
 _atom_site_symmetry_multiplicity
 _atom_site_fract_x
 _atom_site_fract_y
 _atom_site_fract_z
 _atom_site_occupancy
  Dy  Dy0  1  0.500000  0.323399  0.414300  1
  Er  Er1  1  0.500000  0.676369  0.585847  1
  Er  Er2  1  0.500000  0.176329  0.914246  1
  Er  Er3  1  0.500000  0.823538  0.085588  1
  Er  Er4  1  0.500000  0.442653  0.130495  1
  Er  Er5  1  0.500000  0.557609  0.869477  1
  Er  Er6  1  0.500000  0.057274  0.630902  1
  Er  Er7  1  0.500000  0.942439  0.369294  1
  Tc  Tc8  1  0.500000  0.138466  0.179310  1
  Tc  Tc9  1  0.500000  0.861254  0.820270  1
  Tc  Tc10  1  0.500000  0.361546  0.680077  1
  Tc  Tc11  1  0.500000  0.638810  0.320237  1
  B  B12  1  0.000000  0.099071  0.472397  1
  B  B13  1  0.000000  0.900326  0.527793  1
  B  B14  1  0.000000  0.400310  0.972158  1
  B  B15  1  0.000000  0.599891  0.027794  1
  B  B16  1  0.000000  0.130066  0.314568  1
  B  B17  1  0.000000  0.869557  0.685064  1
  B  B18  1  0.000000  0.369677  0.815190  1
  B  B19  1  0.000000  0.630581  0.184831  1
  B  B20  1  0.000000  0.053084  0.066670  1
  B  B21  1  0.000000  0.946779  0.933097  1
  B  B22  1  0.000000  0.447027  0.567319  1
  B  B23  1  0.000000  0.553556  0.433100  1
  B  B24  1  0.000000  0.481852  0.288016  1
  B  B25  1  0.000000  0.518700  0.711885  1
  B  B26  1  0.000000  0.018480  0.788465  1
  B  B27  1  0.000000  0.981345  0.211423  1
  B  B28  1  0.000000  0.249247  0.080952  1
  B  B29  1  0.000000  0.750820  0.918805  1
  B  B30  1  0.000000  0.250711  0.581892  1
  B  B31  1  0.000000  0.749356  0.418750  1
  B  B32  1  0.000000  0.291833  0.234703  1
  B  B33  1  0.000000  0.708002  0.764877  1
  B  B34  1  0.000000  0.207987  0.735518  1
  B  B35  1  0.000000  0.792054  0.264691  1
