# generated using pymatgen
data_Hf10(ReO)3
_symmetry_space_group_name_H-M   'P 1'
_cell_length_a   8.59399900
_cell_length_b   8.59399972
_cell_length_c   8.45328800
_cell_angle_alpha   90.00000000
_cell_angle_beta   90.00000000
_cell_angle_gamma   120.00000107
_symmetry_Int_Tables_number   1
_chemical_formula_structural   Hf10(ReO)3
_chemical_formula_sum   'Hf20 Re6 O6'
_cell_volume   540.68824360
_cell_formula_units_Z   2
loop_
 _symmetry_equiv_pos_site_id
 _symmetry_equiv_pos_as_xyz
  1  'x, y, z'
loop_
 _atom_site_type_symbol
 _atom_site_label
 _atom_site_symmetry_multiplicity
 _atom_site_fract_x
 _atom_site_fract_y
 _atom_site_fract_z
 _atom_site_occupancy
  Hf  Hf0  1  0.453683  0.907364  0.250000  1
  Hf  Hf1  1  0.546317  0.092636  0.750000  1
  Hf  Hf2  1  0.092636  0.546317  0.250000  1
  Hf  Hf3  1  0.907364  0.453683  0.750000  1
  Hf  Hf4  1  0.453683  0.546317  0.250000  1
  Hf  Hf5  1  0.546317  0.453683  0.750000  1
  Hf  Hf6  1  0.203962  0.407924  0.563112  1
  Hf  Hf7  1  0.796038  0.592076  0.436888  1
  Hf  Hf8  1  0.592076  0.796038  0.563112  1
  Hf  Hf9  1  0.796038  0.592076  0.063112  1
  Hf  Hf10  1  0.407924  0.203962  0.436888  1
  Hf  Hf11  1  0.203962  0.407924  0.936888  1
  Hf  Hf12  1  0.203962  0.796038  0.563112  1
  Hf  Hf13  1  0.407924  0.203962  0.063112  1
  Hf  Hf14  1  0.796038  0.203962  0.436888  1
  Hf  Hf15  1  0.592076  0.796038  0.936888  1
  Hf  Hf16  1  0.796038  0.203962  0.063112  1
  Hf  Hf17  1  0.203962  0.796038  0.936888  1
  Hf  Hf18  1  0.000000  0.000000  0.000000  1
  Hf  Hf19  1  0.000000  0.000000  0.500000  1
  Re  Re20  1  0.116865  0.233730  0.250000  1
  Re  Re21  1  0.883135  0.766270  0.750000  1
  Re  Re22  1  0.766270  0.883135  0.250000  1
  Re  Re23  1  0.233730  0.116865  0.750000  1
  Re  Re24  1  0.116865  0.883135  0.250000  1
  Re  Re25  1  0.883135  0.116865  0.750000  1
  O  O26  1  0.500000  0.000000  0.000000  1
  O  O27  1  0.000000  0.500000  0.000000  1
  O  O28  1  0.500000  0.000000  0.500000  1
  O  O29  1  0.500000  0.500000  0.000000  1
  O  O30  1  0.000000  0.500000  0.500000  1
  O  O31  1  0.500000  0.500000  0.500000  1
