# generated using pymatgen
data_Tb2Er4GaTcNi
_symmetry_space_group_name_H-M   'P 1'
_cell_length_a   8.31500348
_cell_length_b   8.31500428
_cell_length_c   8.31500451
_cell_angle_alpha   113.34011578
_cell_angle_beta   111.16504315
_cell_angle_gamma   104.04925272
_symmetry_Int_Tables_number   1
_chemical_formula_structural   Tb2Er4GaTcNi
_chemical_formula_sum   'Tb4 Er8 Ga2 Tc2 Ni2'
_cell_volume   439.44301129
_cell_formula_units_Z   2
loop_
 _symmetry_equiv_pos_site_id
 _symmetry_equiv_pos_as_xyz
  1  'x, y, z'
loop_
 _atom_site_type_symbol
 _atom_site_label
 _atom_site_symmetry_multiplicity
 _atom_site_fract_x
 _atom_site_fract_y
 _atom_site_fract_z
 _atom_site_occupancy
  Tb  Tb0  1  0.052484  0.743755  0.308729  1
  Tb  Tb1  1  0.947516  0.256245  0.691271  1
  Tb  Tb2  1  0.564974  0.256245  0.308729  1
  Tb  Tb3  1  0.435026  0.743755  0.691271  1
  Er  Er4  1  0.667226  0.851936  0.184708  1
  Er  Er5  1  0.332774  0.517482  0.184708  1
  Er  Er6  1  0.332774  0.148064  0.815292  1
  Er  Er7  1  0.667226  0.482518  0.815292  1
  Er  Er8  1  0.179842  0.218469  0.398313  1
  Er  Er9  1  0.820158  0.218469  0.038627  1
  Er  Er10  1  0.179842  0.781531  0.961373  1
  Er  Er11  1  0.820158  0.781531  0.601687  1
  Ga  Ga12  1  0.000000  0.500000  0.500000  1
  Ga  Ga13  1  0.500000  0.000000  0.500000  1
  Tc  Tc14  1  0.678990  0.500000  0.178990  1
  Tc  Tc15  1  0.321010  0.500000  0.821010  1
  Ni  Ni16  1  0.882654  0.882654  0.000000  1
  Ni  Ni17  1  0.117346  0.117346  0.000000  1
