# generated using pymatgen
data_Tb4Mg(SiB4)2
_symmetry_space_group_name_H-M   'P 1'
_cell_length_a   7.19961000
_cell_length_b   7.19961000
_cell_length_c   7.92930600
_cell_angle_alpha   90.00000000
_cell_angle_beta   90.00000000
_cell_angle_gamma   90.00000000
_symmetry_Int_Tables_number   1
_chemical_formula_structural   Tb4Mg(SiB4)2
_chemical_formula_sum   'Tb8 Mg2 Si4 B16'
_cell_volume   411.01069326
_cell_formula_units_Z   2
loop_
 _symmetry_equiv_pos_site_id
 _symmetry_equiv_pos_as_xyz
  1  'x, y, z'
loop_
 _atom_site_type_symbol
 _atom_site_label
 _atom_site_symmetry_multiplicity
 _atom_site_fract_x
 _atom_site_fract_y
 _atom_site_fract_z
 _atom_site_occupancy
  Tb  Tb0  1  0.682474  0.182474  0.232991  1
  Tb  Tb1  1  0.317526  0.817526  0.767009  1
  Tb  Tb2  1  0.317526  0.817526  0.232991  1
  Tb  Tb3  1  0.817526  0.682474  0.232991  1
  Tb  Tb4  1  0.817526  0.682474  0.767009  1
  Tb  Tb5  1  0.682474  0.182474  0.767009  1
  Tb  Tb6  1  0.182474  0.317526  0.767009  1
  Tb  Tb7  1  0.182474  0.317526  0.232991  1
  Mg  Mg8  1  0.000000  0.000000  0.500000  1
  Mg  Mg9  1  0.500000  0.500000  0.500000  1
  Si  Si10  1  0.115069  0.615069  0.500000  1
  Si  Si11  1  0.884931  0.384931  0.500000  1
  Si  Si12  1  0.384931  0.115069  0.500000  1
  Si  Si13  1  0.615069  0.884931  0.500000  1
  B  B14  1  0.173649  0.039864  0.000000  1
  B  B15  1  0.826351  0.960136  0.000000  1
  B  B16  1  0.960136  0.173649  0.000000  1
  B  B17  1  0.326351  0.539864  0.000000  1
  B  B18  1  0.039864  0.826351  0.000000  1
  B  B19  1  0.673649  0.460136  0.000000  1
  B  B20  1  0.539864  0.673649  0.000000  1
  B  B21  1  0.460136  0.326351  0.000000  1
  B  B22  1  0.089280  0.589280  0.000000  1
  B  B23  1  0.910720  0.410720  0.000000  1
  B  B24  1  0.410720  0.089280  0.000000  1
  B  B25  1  0.589280  0.910720  0.000000  1
  B  B26  1  0.000000  0.000000  0.160214  1
  B  B27  1  0.000000  0.000000  0.839786  1
  B  B28  1  0.500000  0.500000  0.839786  1
  B  B29  1  0.500000  0.500000  0.160214  1
