# generated using pymatgen
data_AcBe12Cu
_symmetry_space_group_name_H-M   'P 1'
_cell_length_a   7.51925273
_cell_length_b   7.55254230
_cell_length_c   7.49333653
_cell_angle_alpha   59.96604222
_cell_angle_beta   59.88409112
_cell_angle_gamma   59.62619779
_symmetry_Int_Tables_number   1
_chemical_formula_structural   AcBe12Cu
_chemical_formula_sum   'Ac2 Be24 Cu2'
_cell_volume   299.70615629
_cell_formula_units_Z   2
loop_
 _symmetry_equiv_pos_site_id
 _symmetry_equiv_pos_as_xyz
  1  'x, y, z'
loop_
 _atom_site_type_symbol
 _atom_site_label
 _atom_site_symmetry_multiplicity
 _atom_site_fract_x
 _atom_site_fract_y
 _atom_site_fract_z
 _atom_site_occupancy
  Ac  Ac0  1  0.251724  0.248276  0.251724  1
  Ac  Ac1  1  0.748276  0.751724  0.748276  1
  Be  Be2  1  0.500000  0.500000  0.500000  1
  Be  Be3  1  0.000000  0.000000  0.000000  1
  Be  Be4  1  0.567898  0.786606  0.432102  1
  Be  Be5  1  0.432102  0.213394  0.567898  1
  Be  Be6  1  0.283961  0.935039  0.716039  1
  Be  Be7  1  0.716039  0.064961  0.283961  1
  Be  Be8  1  0.929916  0.275453  0.070084  1
  Be  Be9  1  0.070084  0.724547  0.929916  1
  Be  Be10  1  0.215544  0.790196  0.560609  1
  Be  Be11  1  0.784456  0.209804  0.439391  1
  Be  Be12  1  0.439391  0.566349  0.784456  1
  Be  Be13  1  0.560609  0.433651  0.215544  1
  Be  Be14  1  0.717786  0.280645  0.935277  1
  Be  Be15  1  0.282214  0.719355  0.064723  1
  Be  Be16  1  0.064723  0.933708  0.282214  1
  Be  Be17  1  0.935277  0.066292  0.717786  1
  Be  Be18  1  0.570704  0.213709  0.783093  1
  Be  Be19  1  0.429296  0.786291  0.216907  1
  Be  Be20  1  0.783093  0.432494  0.570704  1
  Be  Be21  1  0.216907  0.567506  0.429296  1
  Be  Be22  1  0.935521  0.719573  0.282064  1
  Be  Be23  1  0.064479  0.280427  0.717936  1
  Be  Be24  1  0.282064  0.062843  0.935521  1
  Be  Be25  1  0.717936  0.937157  0.064479  1
  Cu  Cu26  1  0.796104  0.560805  0.203896  1
  Cu  Cu27  1  0.203896  0.439195  0.796104  1
