# generated using pymatgen
data_Tm3Th5(As3Rh4)4
_symmetry_space_group_name_H-M   'P 1'
_cell_length_a   13.39186900
_cell_length_b   13.39186859
_cell_length_c   4.10182700
_cell_angle_alpha   90.00000000
_cell_angle_beta   90.00000000
_cell_angle_gamma   120.00000347
_symmetry_Int_Tables_number   1
_chemical_formula_structural   Tm3Th5(As3Rh4)4
_chemical_formula_sum   'Tm3 Th5 As12 Rh16'
_cell_volume   637.07465474
_cell_formula_units_Z   1
loop_
 _symmetry_equiv_pos_site_id
 _symmetry_equiv_pos_as_xyz
  1  'x, y, z'
loop_
 _atom_site_type_symbol
 _atom_site_label
 _atom_site_symmetry_multiplicity
 _atom_site_fract_x
 _atom_site_fract_y
 _atom_site_fract_z
 _atom_site_occupancy
  Tm  Tm0  1  0.559172  0.559172  0.000000  1
  Tm  Tm1  1  0.440828  0.000000  0.000000  1
  Tm  Tm2  1  0.000000  0.440828  0.000000  1
  Th  Th3  1  0.186090  0.186090  0.500000  1
  Th  Th4  1  0.813910  0.000000  0.500000  1
  Th  Th5  1  0.000000  0.813910  0.500000  1
  Th  Th6  1  0.333333  0.666667  0.000000  1
  Th  Th7  1  0.666667  0.333333  0.000000  1
  As  As8  1  0.823729  0.823729  0.000000  1
  As  As9  1  0.176271  0.000000  0.000000  1
  As  As10  1  0.000000  0.176271  0.000000  1
  As  As11  1  0.168712  0.483019  0.500000  1
  As  As12  1  0.516981  0.685693  0.500000  1
  As  As13  1  0.314307  0.831288  0.500000  1
  As  As14  1  0.685693  0.516981  0.500000  1
  As  As15  1  0.831288  0.314307  0.500000  1
  As  As16  1  0.483019  0.168712  0.500000  1
  As  As17  1  0.355501  0.355501  0.000000  1
  As  As18  1  0.644499  0.000000  0.000000  1
  As  As19  1  0.000000  0.644499  0.000000  1
  Rh  Rh20  1  0.720713  0.720713  0.500000  1
  Rh  Rh21  1  0.279287  0.000000  0.500000  1
  Rh  Rh22  1  0.000000  0.279287  0.500000  1
  Rh  Rh23  1  0.177355  0.373306  0.000000  1
  Rh  Rh24  1  0.626694  0.804048  0.000000  1
  Rh  Rh25  1  0.195952  0.822645  0.000000  1
  Rh  Rh26  1  0.804048  0.626694  0.000000  1
  Rh  Rh27  1  0.822645  0.195952  0.000000  1
  Rh  Rh28  1  0.373306  0.177355  0.000000  1
  Rh  Rh29  1  0.352309  0.481039  0.500000  1
  Rh  Rh30  1  0.518961  0.871271  0.500000  1
  Rh  Rh31  1  0.128729  0.647691  0.500000  1
  Rh  Rh32  1  0.871271  0.518961  0.500000  1
  Rh  Rh33  1  0.647691  0.128729  0.500000  1
  Rh  Rh34  1  0.481039  0.352309  0.500000  1
  Rh  Rh35  1  0.000000  0.000000  0.000000  1
