# generated using pymatgen
data_Tb3Sn3GeRuRh
_symmetry_space_group_name_H-M   'P 1'
_cell_length_a   7.41886100
_cell_length_b   7.41886017
_cell_length_c   4.16515300
_cell_angle_alpha   90.00000000
_cell_angle_beta   90.00000000
_cell_angle_gamma   119.99999033
_symmetry_Int_Tables_number   1
_chemical_formula_structural   Tb3Sn3GeRuRh
_chemical_formula_sum   'Tb3 Sn3 Ge1 Ru1 Rh1'
_cell_volume   198.53453039
_cell_formula_units_Z   1
loop_
 _symmetry_equiv_pos_site_id
 _symmetry_equiv_pos_as_xyz
  1  'x, y, z'
loop_
 _atom_site_type_symbol
 _atom_site_label
 _atom_site_symmetry_multiplicity
 _atom_site_fract_x
 _atom_site_fract_y
 _atom_site_fract_z
 _atom_site_occupancy
  Tb  Tb0  1  0.409711  0.006934  0.500000  1
  Tb  Tb1  1  0.993066  0.402777  0.500000  1
  Tb  Tb2  1  0.597223  0.590289  0.500000  1
  Sn  Sn3  1  0.757785  0.013458  0.000000  1
  Sn  Sn4  1  0.986542  0.744327  0.000000  1
  Sn  Sn5  1  0.255673  0.242215  0.000000  1
  Ge  Ge6  1  0.333333  0.666667  0.000000  1
  Ru  Ru7  1  0.000000  0.000000  0.500000  1
  Rh  Rh8  1  0.666667  0.333333  0.000000  1
