# generated using pymatgen
data_Tb4Er2Si3Pt
_symmetry_space_group_name_H-M   'P 1'
_cell_length_a   7.49678300
_cell_length_b   7.49678274
_cell_length_c   4.24877700
_cell_angle_alpha   90.00000000
_cell_angle_beta   90.00000000
_cell_angle_gamma   92.51945355
_symmetry_Int_Tables_number   1
_chemical_formula_structural   Tb4Er2Si3Pt
_chemical_formula_sum   'Tb4 Er2 Si3 Pt1'
_cell_volume   238.55789289
_cell_formula_units_Z   1
loop_
 _symmetry_equiv_pos_site_id
 _symmetry_equiv_pos_as_xyz
  1  'x, y, z'
loop_
 _atom_site_type_symbol
 _atom_site_label
 _atom_site_symmetry_multiplicity
 _atom_site_fract_x
 _atom_site_fract_y
 _atom_site_fract_z
 _atom_site_occupancy
  Tb  Tb0  1  0.323766  0.831684  0.500000  1
  Tb  Tb1  1  0.668316  0.176234  0.500000  1
  Tb  Tb2  1  0.174763  0.325237  0.500000  1
  Tb  Tb3  1  0.832896  0.667104  0.500000  1
  Er  Er4  1  0.990774  0.990637  0.000000  1
  Er  Er5  1  0.509363  0.509226  0.000000  1
  Si  Si6  1  0.373972  0.126028  0.000000  1
  Si  Si7  1  0.884923  0.377404  0.000000  1
  Si  Si8  1  0.122596  0.615077  0.000000  1
  Pt  Pt9  1  0.618630  0.881370  0.000000  1
