# generated using pymatgen
data_Rb3GeIrCl8
_symmetry_space_group_name_H-M   'P 1'
_cell_length_a   8.14567300
_cell_length_b   9.96762300
_cell_length_c   9.82299800
_cell_angle_alpha   90.00000000
_cell_angle_beta   90.00000000
_cell_angle_gamma   90.00000000
_symmetry_Int_Tables_number   1
_chemical_formula_structural   Rb3GeIrCl8
_chemical_formula_sum   'Rb6 Ge2 Ir2 Cl16'
_cell_volume   797.55865250
_cell_formula_units_Z   2
loop_
 _symmetry_equiv_pos_site_id
 _symmetry_equiv_pos_as_xyz
  1  'x, y, z'
loop_
 _atom_site_type_symbol
 _atom_site_label
 _atom_site_symmetry_multiplicity
 _atom_site_fract_x
 _atom_site_fract_y
 _atom_site_fract_z
 _atom_site_occupancy
  Rb  Rb0  1  0.933957  0.240582  0.369025  1
  Rb  Rb1  1  0.433957  0.259418  0.630975  1
  Rb  Rb2  1  0.933957  0.759418  0.369025  1
  Rb  Rb3  1  0.998197  0.000000  0.861577  1
  Rb  Rb4  1  0.498197  0.500000  0.138423  1
  Rb  Rb5  1  0.433957  0.740582  0.630975  1
  Ge  Ge6  1  0.519482  0.000000  0.103537  1
  Ge  Ge7  1  0.019482  0.500000  0.896463  1
  Ir  Ir8  1  0.853046  0.500000  0.699453  1
  Ir  Ir9  1  0.353046  0.000000  0.300547  1
  Cl  Cl10  1  0.600851  0.500000  0.819818  1
  Cl  Cl11  1  0.195388  0.670328  0.925692  1
  Cl  Cl12  1  0.695388  0.170328  0.074308  1
  Cl  Cl13  1  0.191801  0.000000  0.515019  1
  Cl  Cl14  1  0.691801  0.500000  0.484981  1
  Cl  Cl15  1  0.844746  0.738906  0.694976  1
  Cl  Cl16  1  0.100851  0.000000  0.180182  1
  Cl  Cl17  1  0.100652  0.500000  0.567360  1
  Cl  Cl18  1  0.695388  0.829672  0.074308  1
  Cl  Cl19  1  0.418989  0.000000  0.887098  1
  Cl  Cl20  1  0.195388  0.329672  0.925692  1
  Cl  Cl21  1  0.600652  0.000000  0.432640  1
  Cl  Cl22  1  0.918989  0.500000  0.112902  1
  Cl  Cl23  1  0.844746  0.261094  0.694976  1
  Cl  Cl24  1  0.344746  0.761094  0.305024  1
  Cl  Cl25  1  0.344746  0.238906  0.305024  1
