# generated using pymatgen
data_La2Y18Si15Pt
_symmetry_space_group_name_H-M   'P 1'
_cell_length_a   7.46069252
_cell_length_b   7.78313085
_cell_length_c   14.75391858
_cell_angle_alpha   89.62140293
_cell_angle_beta   89.97825985
_cell_angle_gamma   89.89178223
_symmetry_Int_Tables_number   1
_chemical_formula_structural   La2Y18Si15Pt
_chemical_formula_sum   'La2 Y18 Si15 Pt1'
_cell_volume   856.70355865
_cell_formula_units_Z   1
loop_
 _symmetry_equiv_pos_site_id
 _symmetry_equiv_pos_as_xyz
  1  'x, y, z'
loop_
 _atom_site_type_symbol
 _atom_site_label
 _atom_site_symmetry_multiplicity
 _atom_site_fract_x
 _atom_site_fract_y
 _atom_site_fract_z
 _atom_site_occupancy
  La  La0  1  0.523204  0.570570  0.342330  1
  La  La1  1  0.023434  0.428667  0.656980  1
  Y  Y2  1  0.811918  0.575163  0.874576  1
  Y  Y3  1  0.318596  0.426481  0.125564  1
  Y  Y4  1  0.182162  0.928455  0.372899  1
  Y  Y5  1  0.681746  0.069677  0.627450  1
  Y  Y6  1  0.182670  0.928186  0.628687  1
  Y  Y7  1  0.682187  0.070727  0.371003  1
  Y  Y8  1  0.816073  0.571463  0.126434  1
  Y  Y9  1  0.322153  0.430772  0.873403  1
  Y  Y10  1  0.644929  0.236127  0.999591  1
  Y  Y11  1  0.155574  0.758664  0.000673  1
  Y  Y12  1  0.350145  0.262974  0.500100  1
  Y  Y13  1  0.849942  0.736408  0.499926  1
  Y  Y14  1  0.474807  0.932681  0.847520  1
  Y  Y15  1  0.972864  0.066283  0.151920  1
  Y  Y16  1  0.472909  0.933380  0.151533  1
  Y  Y17  1  0.971198  0.066892  0.849305  1
  Y  Y18  1  0.527760  0.565751  0.651737  1
  Y  Y19  1  0.027783  0.433982  0.348011  1
  Si  Si20  1  0.021028  0.350869  0.999958  1
  Si  Si21  1  0.475983  0.859164  0.501140  1
  Si  Si22  1  0.976201  0.140370  0.499089  1
  Si  Si23  1  0.650277  0.276392  0.790736  1
  Si  Si24  1  0.149947  0.722746  0.209123  1
  Si  Si25  1  0.351742  0.216356  0.287562  1
  Si  Si26  1  0.852227  0.783587  0.712974  1
  Si  Si27  1  0.361222  0.220219  0.710916  1
  Si  Si28  1  0.861101  0.779972  0.288539  1
  Si  Si29  1  0.645967  0.269396  0.206243  1
  Si  Si30  1  0.145309  0.728864  0.793454  1
  Si  Si31  1  0.770094  0.880074  0.000666  1
  Si  Si32  1  0.259980  0.125501  0.999567  1
  Si  Si33  1  0.234113  0.627363  0.501744  1
  Si  Si34  1  0.733195  0.373263  0.498498  1
  Pt  Pt35  1  0.519561  0.652559  0.000150  1
