# generated using pymatgen
data_Ho3Al3ZnGePd
_symmetry_space_group_name_H-M   'P 1'
_cell_length_a   6.96492800
_cell_length_b   6.96492749
_cell_length_c   4.26664500
_cell_angle_alpha   90.00000000
_cell_angle_beta   90.00000000
_cell_angle_gamma   120.00000240
_symmetry_Int_Tables_number   1
_chemical_formula_structural   Ho3Al3ZnGePd
_chemical_formula_sum   'Ho3 Al3 Zn1 Ge1 Pd1'
_cell_volume   179.24636686
_cell_formula_units_Z   1
loop_
 _symmetry_equiv_pos_site_id
 _symmetry_equiv_pos_as_xyz
  1  'x, y, z'
loop_
 _atom_site_type_symbol
 _atom_site_label
 _atom_site_symmetry_multiplicity
 _atom_site_fract_x
 _atom_site_fract_y
 _atom_site_fract_z
 _atom_site_occupancy
  Ho  Ho0  1  0.419505  0.001360  0.000000  1
  Ho  Ho1  1  0.998640  0.418146  0.000000  1
  Ho  Ho2  1  0.581855  0.580495  0.000000  1
  Al  Al3  1  0.767128  0.006684  0.499999  1
  Al  Al4  1  0.239556  0.232872  0.499999  1
  Al  Al5  1  0.993316  0.760444  0.499999  1
  Zn  Zn6  1  0.666667  0.333333  0.499999  1
  Ge  Ge7  1  0.333333  0.666666  0.499999  1
  Pd  Pd8  1  0.000000  0.000000  0.000000  1
