# generated using pymatgen
data_TbY3Ta2(B2Ru5)2
_symmetry_space_group_name_H-M   'P 1'
_cell_length_a   9.69292240
_cell_length_b   9.69292240
_cell_length_c   3.13647500
_cell_angle_alpha   90.00000000
_cell_angle_beta   90.00000000
_cell_angle_gamma   90.03301937
_symmetry_Int_Tables_number   1
_chemical_formula_structural   TbY3Ta2(B2Ru5)2
_chemical_formula_sum   'Tb1 Y3 Ta2 B4 Ru10'
_cell_volume   294.68038600
_cell_formula_units_Z   1
loop_
 _symmetry_equiv_pos_site_id
 _symmetry_equiv_pos_as_xyz
  1  'x, y, z'
loop_
 _atom_site_type_symbol
 _atom_site_label
 _atom_site_symmetry_multiplicity
 _atom_site_fract_x
 _atom_site_fract_y
 _atom_site_fract_z
 _atom_site_occupancy
  Tb  Tb0  1  0.825021  0.674979  0.000000  1
  Y  Y1  1  0.174959  0.325041  0.000000  1
  Y  Y2  1  0.324963  0.824878  0.000000  1
  Y  Y3  1  0.675122  0.175037  0.000000  1
  Ta  Ta4  1  0.499903  0.499945  0.000000  1
  Ta  Ta5  1  0.000055  0.000097  0.000000  1
  B  B6  1  0.620269  0.879731  0.000000  1
  B  B7  1  0.379524  0.120476  0.000000  1
  B  B8  1  0.120567  0.620473  0.000000  1
  B  B9  1  0.879527  0.379433  0.000000  1
  Ru  Ru10  1  0.570939  0.718266  0.500000  1
  Ru  Ru11  1  0.429232  0.281638  0.500000  1
  Ru  Ru12  1  0.070806  0.781744  0.500000  1
  Ru  Ru13  1  0.929190  0.218332  0.500000  1
  Ru  Ru14  1  0.281668  0.570810  0.500000  1
  Ru  Ru15  1  0.718256  0.429194  0.500000  1
  Ru  Ru16  1  0.218362  0.070768  0.500000  1
  Ru  Ru17  1  0.781734  0.929061  0.500000  1
  Ru  Ru18  1  0.500001  0.999999  0.500000  1
  Ru  Ru19  1  0.999900  0.500100  0.500000  1
