# generated using pymatgen
data_Rb2Y(ClO4)5
_symmetry_space_group_name_H-M   'P 1'
_cell_length_a   8.09007955
_cell_length_b   10.42514702
_cell_length_c   11.53431600
_cell_angle_alpha   94.93381453
_cell_angle_beta   109.96377375
_cell_angle_gamma   105.18313338
_symmetry_Int_Tables_number   1
_chemical_formula_structural   Rb2Y(ClO4)5
_chemical_formula_sum   'Rb4 Y2 Cl10 O40'
_cell_volume   865.77439406
_cell_formula_units_Z   2
loop_
 _symmetry_equiv_pos_site_id
 _symmetry_equiv_pos_as_xyz
  1  'x, y, z'
loop_
 _atom_site_type_symbol
 _atom_site_label
 _atom_site_symmetry_multiplicity
 _atom_site_fract_x
 _atom_site_fract_y
 _atom_site_fract_z
 _atom_site_occupancy
  Rb  Rb0  1  0.091987  0.468168  0.238444  1
  Rb  Rb1  1  0.437830  0.115979  0.208834  1
  Rb  Rb2  1  0.908013  0.531832  0.761556  1
  Rb  Rb3  1  0.562170  0.884021  0.791166  1
  Y  Y4  1  0.744916  0.793969  0.274873  1
  Y  Y5  1  0.255084  0.206031  0.725127  1
  Cl  Cl6  1  0.709148  0.475175  0.370917  1
  Cl  Cl7  1  0.455274  0.796155  0.416491  1
  Cl  Cl8  1  0.009842  0.095816  0.359733  1
  Cl  Cl9  1  0.990158  0.904184  0.640267  1
  Cl  Cl10  1  0.375281  0.698137  0.044911  1
  Cl  Cl11  1  0.624719  0.301863  0.955089  1
  Cl  Cl12  1  0.290852  0.524825  0.629083  1
  Cl  Cl13  1  0.091910  0.195381  0.934278  1
  Cl  Cl14  1  0.908090  0.804619  0.065722  1
  Cl  Cl15  1  0.544726  0.203845  0.583509  1
  O  O16  1  0.460941  0.071740  0.606716  1
  O  O17  1  0.743340  0.241328  0.630965  1
  O  O18  1  0.911990  0.106650  0.914247  1
  O  O19  1  0.918580  0.716507  0.161514  1
  O  O20  1  0.935294  0.816632  0.718663  1
  O  O21  1  0.202172  0.625663  0.052347  1
  O  O22  1  0.190663  0.620956  0.632487  1
  O  O23  1  0.514108  0.626767  0.092423  1
  O  O24  1  0.516690  0.417683  0.288207  1
  O  O25  1  0.270696  0.475869  0.502888  1
  O  O26  1  0.256660  0.758672  0.369035  1
  O  O27  1  0.820014  0.722945  0.941000  1
  O  O28  1  0.459609  0.833344  0.131189  1
  O  O29  1  0.211761  0.115993  0.912938  1
  O  O30  1  0.089693  0.166811  0.489923  1
  O  O31  1  0.194879  0.953071  0.681701  1
  O  O32  1  0.652489  0.285598  0.082434  1
  O  O33  1  0.203127  0.406008  0.679160  1
  O  O34  1  0.729304  0.524131  0.497112  1
  O  O35  1  0.805121  0.046929  0.318299  1
  O  O36  1  0.936212  0.028193  0.650488  1
  O  O37  1  0.492424  0.304375  0.655879  1
  O  O38  1  0.347511  0.714402  0.917566  1
  O  O39  1  0.796873  0.593992  0.320840  1
  O  O40  1  0.063788  0.971807  0.349512  1
  O  O41  1  0.507576  0.695625  0.344121  1
  O  O42  1  0.081420  0.283493  0.838486  1
  O  O43  1  0.088010  0.893350  0.085753  1
  O  O44  1  0.485892  0.373233  0.907577  1
  O  O45  1  0.064706  0.183368  0.281337  1
  O  O46  1  0.797828  0.374337  0.947653  1
  O  O47  1  0.910307  0.833189  0.510077  1
  O  O48  1  0.531799  0.790436  0.547569  1
  O  O49  1  0.788239  0.884007  0.087062  1
  O  O50  1  0.179986  0.277055  0.059000  1
  O  O51  1  0.809337  0.379044  0.367513  1
  O  O52  1  0.483310  0.582317  0.711793  1
  O  O53  1  0.468201  0.209564  0.452431  1
  O  O54  1  0.540391  0.166656  0.868811  1
  O  O55  1  0.539059  0.928260  0.393284  1
