# generated using pymatgen
data_Rb2ErAgCl6
_symmetry_space_group_name_H-M   'P 1'
_cell_length_a   7.52767842
_cell_length_b   7.52767835
_cell_length_c   7.62795273
_cell_angle_alpha   120.28632908
_cell_angle_beta   120.28632673
_cell_angle_gamma   60.00458546
_symmetry_Int_Tables_number   1
_chemical_formula_structural   Rb2ErAgCl6
_chemical_formula_sum   'Rb2 Er1 Ag1 Cl6'
_cell_volume   304.32444895
_cell_formula_units_Z   1
loop_
 _symmetry_equiv_pos_site_id
 _symmetry_equiv_pos_as_xyz
  1  'x, y, z'
loop_
 _atom_site_type_symbol
 _atom_site_label
 _atom_site_symmetry_multiplicity
 _atom_site_fract_x
 _atom_site_fract_y
 _atom_site_fract_z
 _atom_site_occupancy
  Rb  Rb0  1  0.749707  0.749707  0.255614  1
  Rb  Rb1  1  0.250293  0.250293  0.744386  1
  Er  Er2  1  0.500000  0.500000  0.500000  1
  Ag  Ag3  1  0.000000  0.000000  0.000000  1
  Cl  Cl4  1  0.257587  0.257587  0.188022  1
  Cl  Cl5  1  0.780222  0.293466  0.296737  1
  Cl  Cl6  1  0.293466  0.780222  0.296737  1
  Cl  Cl7  1  0.706533  0.219778  0.703263  1
  Cl  Cl8  1  0.219778  0.706533  0.703263  1
  Cl  Cl9  1  0.742413  0.742413  0.811979  1
