# generated using pymatgen
data_Sc8TaNb10Si16Pt
_symmetry_space_group_name_H-M   'P 1'
_cell_length_a   6.67492485
_cell_length_b   6.93116968
_cell_length_c   13.12223000
_cell_angle_alpha   90.00000000
_cell_angle_beta   90.00000000
_cell_angle_gamma   90.66824833
_symmetry_Int_Tables_number   1
_chemical_formula_structural   Sc8TaNb10Si16Pt
_chemical_formula_sum   'Sc8 Ta1 Nb10 Si16 Pt1'
_cell_volume   607.05916176
_cell_formula_units_Z   1
loop_
 _symmetry_equiv_pos_site_id
 _symmetry_equiv_pos_as_xyz
  1  'x, y, z'
loop_
 _atom_site_type_symbol
 _atom_site_label
 _atom_site_symmetry_multiplicity
 _atom_site_fract_x
 _atom_site_fract_y
 _atom_site_fract_z
 _atom_site_occupancy
  Sc  Sc0  1  0.503346  0.673159  0.595533  1
  Sc  Sc1  1  0.000588  0.826151  0.901841  1
  Sc  Sc2  1  0.502869  0.324438  0.092522  1
  Sc  Sc3  1  0.996353  0.173512  0.407531  1
  Sc  Sc4  1  0.502869  0.324438  0.407478  1
  Sc  Sc5  1  0.996353  0.173512  0.092469  1
  Sc  Sc6  1  0.503346  0.673159  0.904467  1
  Sc  Sc7  1  0.000588  0.826151  0.598159  1
  Ta  Ta8  1  0.838931  0.492792  0.750000  1
  Nb  Nb9  1  0.663930  0.173550  0.624566  1
  Nb  Nb10  1  0.165054  0.325589  0.876745  1
  Nb  Nb11  1  0.326490  0.828404  0.127747  1
  Nb  Nb12  1  0.841213  0.676615  0.372709  1
  Nb  Nb13  1  0.326490  0.828404  0.372253  1
  Nb  Nb14  1  0.841213  0.676615  0.127291  1
  Nb  Nb15  1  0.663930  0.173550  0.875434  1
  Nb  Nb16  1  0.165054  0.325589  0.623255  1
  Nb  Nb17  1  0.337688  0.003732  0.750000  1
  Nb  Nb18  1  0.659013  0.003036  0.250000  1
  Si  Si19  1  0.664960  0.964785  0.459056  1
  Si  Si20  1  0.169216  0.537748  0.037298  1
  Si  Si21  1  0.330427  0.031435  0.960337  1
  Si  Si22  1  0.832053  0.467674  0.538922  1
  Si  Si23  1  0.330427  0.031435  0.539663  1
  Si  Si24  1  0.832053  0.467674  0.961078  1
  Si  Si25  1  0.664960  0.964785  0.040944  1
  Si  Si26  1  0.169216  0.537748  0.462702  1
  Si  Si27  1  0.462338  0.386477  0.750000  1
  Si  Si28  1  0.961325  0.113555  0.750000  1
  Si  Si29  1  0.533286  0.615858  0.250000  1
  Si  Si30  1  0.032353  0.900908  0.250000  1
  Si  Si31  1  0.704625  0.861101  0.750000  1
  Si  Si32  1  0.208191  0.635691  0.750000  1
  Si  Si33  1  0.295282  0.139732  0.250000  1
  Si  Si34  1  0.797707  0.368583  0.250000  1
  Pt  Pt35  1  0.176269  0.472410  0.250000  1
