# generated using pymatgen
data_LiEu7Y(Si4Pd)3
_symmetry_space_group_name_H-M   'P 1'
_cell_length_a   8.32402700
_cell_length_b   8.32402602
_cell_length_c   8.48153900
_cell_angle_alpha   90.00000000
_cell_angle_beta   90.00000000
_cell_angle_gamma   119.99999992
_symmetry_Int_Tables_number   1
_chemical_formula_structural   LiEu7Y(Si4Pd)3
_chemical_formula_sum   'Li1 Eu7 Y1 Si12 Pd3'
_cell_volume   508.94658513
_cell_formula_units_Z   1
loop_
 _symmetry_equiv_pos_site_id
 _symmetry_equiv_pos_as_xyz
  1  'x, y, z'
loop_
 _atom_site_type_symbol
 _atom_site_label
 _atom_site_symmetry_multiplicity
 _atom_site_fract_x
 _atom_site_fract_y
 _atom_site_fract_z
 _atom_site_occupancy
  Li  Li0  1  0.333333  0.666667  0.998791  1
  Eu  Eu1  1  0.501361  0.002723  0.251255  1
  Eu  Eu2  1  0.501505  0.003010  0.748974  1
  Eu  Eu3  1  0.997277  0.498639  0.251255  1
  Eu  Eu4  1  0.996990  0.498495  0.748974  1
  Eu  Eu5  1  0.501361  0.498639  0.251255  1
  Eu  Eu6  1  0.501505  0.498495  0.748974  1
  Eu  Eu7  1  0.000000  0.000000  0.249835  1
  Y  Y8  1  0.000000  0.000000  0.750535  1
  Si  Si9  1  0.161659  0.323319  0.996885  1
  Si  Si10  1  0.835803  0.671607  0.997294  1
  Si  Si11  1  0.676681  0.838341  0.996885  1
  Si  Si12  1  0.836542  0.673084  0.502709  1
  Si  Si13  1  0.328393  0.164197  0.997294  1
  Si  Si14  1  0.164243  0.328486  0.502816  1
  Si  Si15  1  0.161659  0.838341  0.996885  1
  Si  Si16  1  0.326916  0.163458  0.502709  1
  Si  Si17  1  0.835803  0.164197  0.997294  1
  Si  Si18  1  0.671514  0.835757  0.502816  1
  Si  Si19  1  0.836542  0.163458  0.502709  1
  Si  Si20  1  0.164243  0.835757  0.502816  1
  Pd  Pd21  1  0.666667  0.333333  0.999703  1
  Pd  Pd22  1  0.666667  0.333333  0.500321  1
  Pd  Pd23  1  0.333333  0.666667  0.501019  1
