# generated using pymatgen
data_CeEr5(SiPd5)2
_symmetry_space_group_name_H-M   'P 1'
_cell_length_a   8.20913017
_cell_length_b   8.20913031
_cell_length_c   8.20913021
_cell_angle_alpha   127.67454953
_cell_angle_beta   125.50126776
_cell_angle_gamma   78.93652149
_symmetry_Int_Tables_number   1
_chemical_formula_structural   CeEr5(SiPd5)2
_chemical_formula_sum   'Ce1 Er5 Si2 Pd10'
_cell_volume   344.86892548
_cell_formula_units_Z   1
loop_
 _symmetry_equiv_pos_site_id
 _symmetry_equiv_pos_as_xyz
  1  'x, y, z'
loop_
 _atom_site_type_symbol
 _atom_site_label
 _atom_site_symmetry_multiplicity
 _atom_site_fract_x
 _atom_site_fract_y
 _atom_site_fract_z
 _atom_site_occupancy
  Ce  Ce0  1  0.615517  0.750000  0.865517  1
  Er  Er1  1  0.224432  0.448381  0.776051  1
  Er  Er2  1  0.775278  0.549252  0.226026  1
  Er  Er3  1  0.827670  0.051619  0.776051  1
  Er  Er4  1  0.176775  0.950748  0.226026  1
  Er  Er5  1  0.389550  0.250000  0.139550  1
  Si  Si6  1  0.784815  0.250000  0.534815  1
  Si  Si7  1  0.214954  0.750000  0.464954  1
  Pd  Pd8  1  0.167198  0.399818  0.356175  1
  Pd  Pd9  1  0.830183  0.186423  0.229055  1
  Pd  Pd10  1  0.456357  0.100182  0.767381  1
  Pd  Pd11  1  0.542632  0.313577  0.643761  1
  Pd  Pd12  1  0.999133  0.501609  0.000742  1
  Pd  Pd13  1  0.999133  0.998391  0.497523  1
  Pd  Pd14  1  0.456357  0.688977  0.356175  1
  Pd  Pd15  1  0.542632  0.898872  0.229055  1
  Pd  Pd16  1  0.167198  0.811023  0.767381  1
  Pd  Pd17  1  0.830183  0.601128  0.643761  1
