# generated using pymatgen
data_Sm2ThAl7Cu2
_symmetry_space_group_name_H-M   'P 1'
_cell_length_a   9.14901159
_cell_length_b   9.14901188
_cell_length_c   9.14901166
_cell_angle_alpha   35.37844915
_cell_angle_beta   35.37844678
_cell_angle_gamma   35.37844617
_symmetry_Int_Tables_number   1
_chemical_formula_structural   Sm2ThAl7Cu2
_chemical_formula_sum   'Sm2 Th1 Al7 Cu2'
_cell_volume   229.35966888
_cell_formula_units_Z   1
loop_
 _symmetry_equiv_pos_site_id
 _symmetry_equiv_pos_as_xyz
  1  'x, y, z'
loop_
 _atom_site_type_symbol
 _atom_site_label
 _atom_site_symmetry_multiplicity
 _atom_site_fract_x
 _atom_site_fract_y
 _atom_site_fract_z
 _atom_site_occupancy
  Sm  Sm0  1  0.140925  0.140925  0.140925  1
  Sm  Sm1  1  0.859075  0.859075  0.859075  1
  Th  Th2  1  0.000000  0.000000  0.000000  1
  Al  Al3  1  0.581116  0.581116  0.072583  1
  Al  Al4  1  0.927417  0.418883  0.418884  1
  Al  Al5  1  0.418883  0.927417  0.418884  1
  Al  Al6  1  0.500000  0.500000  0.500000  1
  Al  Al7  1  0.581117  0.072583  0.581116  1
  Al  Al8  1  0.072583  0.581117  0.581116  1
  Al  Al9  1  0.418884  0.418884  0.927417  1
  Cu  Cu10  1  0.335400  0.335400  0.335400  1
  Cu  Cu11  1  0.664600  0.664600  0.664600  1
