# generated using pymatgen
data_Hf12Zn4Pd7PtN4
_symmetry_space_group_name_H-M   'P 1'
_cell_length_a   8.55275938
_cell_length_b   8.54862620
_cell_length_c   8.55277200
_cell_angle_alpha   59.98405672
_cell_angle_beta   59.99984736
_cell_angle_gamma   59.98437440
_symmetry_Int_Tables_number   1
_chemical_formula_structural   Hf12Zn4Pd7PtN4
_chemical_formula_sum   'Hf12 Zn4 Pd7 Pt1 N4'
_cell_volume   442.06926467
_cell_formula_units_Z   1
loop_
 _symmetry_equiv_pos_site_id
 _symmetry_equiv_pos_as_xyz
  1  'x, y, z'
loop_
 _atom_site_type_symbol
 _atom_site_label
 _atom_site_symmetry_multiplicity
 _atom_site_fract_x
 _atom_site_fract_y
 _atom_site_fract_z
 _atom_site_occupancy
  Hf  Hf0  1  0.811461  0.189285  0.187794  1
  Hf  Hf1  1  0.188506  0.811571  0.188506  1
  Hf  Hf2  1  0.811421  0.811573  0.188504  1
  Hf  Hf3  1  0.188505  0.811572  0.811420  1
  Hf  Hf4  1  0.811462  0.189285  0.811460  1
  Hf  Hf5  1  0.187793  0.189285  0.811462  1
  Hf  Hf6  1  0.438129  0.062754  0.060987  1
  Hf  Hf7  1  0.060686  0.439559  0.060687  1
  Hf  Hf8  1  0.439065  0.439556  0.060689  1
  Hf  Hf9  1  0.060687  0.439559  0.439066  1
  Hf  Hf10  1  0.438129  0.062753  0.438131  1
  Hf  Hf11  1  0.060987  0.062755  0.438129  1
  Zn  Zn12  1  0.624952  0.624920  0.125176  1
  Zn  Zn13  1  0.624952  0.624920  0.624952  1
  Zn  Zn14  1  0.125176  0.624920  0.624953  1
  Zn  Zn15  1  0.624873  0.125382  0.624873  1
  Pd  Pd16  1  0.411798  0.411301  0.765101  1
  Pd  Pd17  1  0.411797  0.411298  0.411800  1
  Pd  Pd18  1  0.765102  0.411299  0.411799  1
  Pd  Pd19  1  0.411641  0.765075  0.411643  1
  Pd  Pd20  1  0.838518  0.838038  0.484930  1
  Pd  Pd21  1  0.838518  0.838039  0.838513  1
  Pd  Pd22  1  0.484930  0.838039  0.838516  1
  Pt  Pt23  1  0.840052  0.479844  0.840052  1
  N  N24  1  0.125424  0.124244  0.624908  1
  N  N25  1  0.125424  0.124244  0.125423  1
  N  N26  1  0.624909  0.124243  0.125424  1
  N  N27  1  0.125104  0.624689  0.125103  1
