# generated using pymatgen
data_CaNdB4Ir5
_symmetry_space_group_name_H-M   'P 1'
_cell_length_a   7.55542639
_cell_length_b   6.32517398
_cell_length_c   5.69944612
_cell_angle_alpha   77.66131831
_cell_angle_beta   54.86838143
_cell_angle_gamma   47.47028911
_symmetry_Int_Tables_number   1
_chemical_formula_structural   CaNdB4Ir5
_chemical_formula_sum   'Ca1 Nd1 B4 Ir5'
_cell_volume   157.05682665
_cell_formula_units_Z   1
loop_
 _symmetry_equiv_pos_site_id
 _symmetry_equiv_pos_as_xyz
  1  'x, y, z'
loop_
 _atom_site_type_symbol
 _atom_site_label
 _atom_site_symmetry_multiplicity
 _atom_site_fract_x
 _atom_site_fract_y
 _atom_site_fract_z
 _atom_site_occupancy
  Ca  Ca0  1  0.144578  0.144578  0.855422  1
  Nd  Nd1  1  0.861543  0.861543  0.138457  1
  B  B2  1  0.788667  0.471741  0.528259  1
  B  B3  1  0.208469  0.528094  0.471906  1
  B  B4  1  0.528094  0.208469  0.791531  1
  B  B5  1  0.471741  0.788667  0.211333  1
  Ir  Ir6  1  0.499314  0.499314  0.500686  1
  Ir  Ir7  1  0.500294  0.500294  0.999706  1
  Ir  Ir8  1  0.000294  0.000294  0.499706  1
  Ir  Ir9  1  0.748502  0.748502  0.751498  1
  Ir  Ir10  1  0.248502  0.248502  0.251498  1
