# generated using pymatgen
data_Ho9Zn(Co2Hg)2
_symmetry_space_group_name_H-M   'P 1'
_cell_length_a   8.47606169
_cell_length_b   8.47606264
_cell_length_c   8.47606200
_cell_angle_alpha   128.70100546
_cell_angle_beta   128.70101925
_cell_angle_gamma   75.49213504
_symmetry_Int_Tables_number   1
_chemical_formula_structural   Ho9Zn(Co2Hg)2
_chemical_formula_sum   'Ho9 Zn1 Co4 Hg2'
_cell_volume   360.89066493
_cell_formula_units_Z   1
loop_
 _symmetry_equiv_pos_site_id
 _symmetry_equiv_pos_as_xyz
  1  'x, y, z'
loop_
 _atom_site_type_symbol
 _atom_site_label
 _atom_site_symmetry_multiplicity
 _atom_site_fract_x
 _atom_site_fract_y
 _atom_site_fract_z
 _atom_site_occupancy
  Ho  Ho0  1  0.720242  0.555167  0.531818  1
  Ho  Ho1  1  0.444833  0.976651  0.165075  1
  Ho  Ho2  1  0.811576  0.279758  0.834925  1
  Ho  Ho3  1  0.555167  0.023349  0.834925  1
  Ho  Ho4  1  0.023349  0.188424  0.468182  1
  Ho  Ho5  1  0.279758  0.444833  0.468182  1
  Ho  Ho6  1  0.188424  0.720242  0.165075  1
  Ho  Ho7  1  0.976651  0.811576  0.531818  1
  Ho  Ho8  1  0.500000  0.500000  0.000000  1
  Zn  Zn9  1  0.000000  0.000000  0.000000  1
  Co  Co10  1  0.131975  0.626229  0.758203  1
  Co  Co11  1  0.868025  0.373771  0.241797  1
  Co  Co12  1  0.626229  0.868025  0.494253  1
  Co  Co13  1  0.373771  0.131975  0.505747  1
  Hg  Hg14  1  0.261681  0.261681  0.000000  1
  Hg  Hg15  1  0.738319  0.738319  0.000000  1
