# generated using pymatgen
data_Tm20(GaBi3)3
_symmetry_space_group_name_H-M   'P 1'
_cell_length_a   8.06096608
_cell_length_b   9.26270500
_cell_length_c   11.89239512
_cell_angle_alpha   90.00000000
_cell_angle_beta   90.01633012
_cell_angle_gamma   90.00000000
_symmetry_Int_Tables_number   1
_chemical_formula_structural   Tm20(GaBi3)3
_chemical_formula_sum   'Tm20 Ga3 Bi9'
_cell_volume   887.96171024
_cell_formula_units_Z   1
loop_
 _symmetry_equiv_pos_site_id
 _symmetry_equiv_pos_as_xyz
  1  'x, y, z'
loop_
 _atom_site_type_symbol
 _atom_site_label
 _atom_site_symmetry_multiplicity
 _atom_site_fract_x
 _atom_site_fract_y
 _atom_site_fract_z
 _atom_site_occupancy
  Tm  Tm0  1  0.682814  0.930348  0.435847  1
  Tm  Tm1  1  0.819934  0.556800  0.938248  1
  Tm  Tm2  1  0.310817  0.453074  0.566538  1
  Tm  Tm3  1  0.178100  0.055637  0.059997  1
  Tm  Tm4  1  0.310817  0.046926  0.566538  1
  Tm  Tm5  1  0.178100  0.444363  0.059997  1
  Tm  Tm6  1  0.682814  0.569652  0.435847  1
  Tm  Tm7  1  0.819934  0.943200  0.938248  1
  Tm  Tm8  1  0.329288  0.750000  0.283682  1
  Tm  Tm9  1  0.174299  0.750000  0.785010  1
  Tm  Tm10  1  0.686649  0.250000  0.730735  1
  Tm  Tm11  1  0.830582  0.250000  0.212752  1
  Tm  Tm12  1  0.037574  0.750000  0.496409  1
  Tm  Tm13  1  0.464339  0.750000  0.996810  1
  Tm  Tm14  1  0.978890  0.250000  0.504531  1
  Tm  Tm15  1  0.533205  0.250000  0.004922  1
  Tm  Tm16  1  0.858070  0.750000  0.204996  1
  Tm  Tm17  1  0.641574  0.750000  0.707076  1
  Tm  Tm18  1  0.142735  0.250000  0.792326  1
  Tm  Tm19  1  0.341966  0.250000  0.285007  1
  Ga  Ga20  1  0.094320  0.750000  0.023501  1
  Ga  Ga21  1  0.407580  0.750000  0.524914  1
  Ga  Ga22  1  0.903270  0.250000  0.972187  1
  Bi  Bi23  1  0.596270  0.250000  0.474629  1
  Bi  Bi24  1  0.563985  0.990000  0.175508  1
  Bi  Bi25  1  0.934115  0.512531  0.674379  1
  Bi  Bi26  1  0.436386  0.487931  0.825238  1
  Bi  Bi27  1  0.063543  0.009279  0.324501  1
  Bi  Bi28  1  0.436386  0.012069  0.825238  1
  Bi  Bi29  1  0.063543  0.490721  0.324501  1
  Bi  Bi30  1  0.563985  0.510000  0.175508  1
  Bi  Bi31  1  0.934115  0.987469  0.674379  1
