# generated using pymatgen
data_CsRb(CrN2)2
_symmetry_space_group_name_H-M   'P 1'
_cell_length_a   5.79942975
_cell_length_b   5.79942991
_cell_length_c   5.79943100
_cell_angle_alpha   60.00001090
_cell_angle_beta   60.00001000
_cell_angle_gamma   60.00000098
_symmetry_Int_Tables_number   1
_chemical_formula_structural   CsRb(CrN2)2
_chemical_formula_sum   'Cs1 Rb1 Cr2 N4'
_cell_volume   137.92438502
_cell_formula_units_Z   1
loop_
 _symmetry_equiv_pos_site_id
 _symmetry_equiv_pos_as_xyz
  1  'x, y, z'
loop_
 _atom_site_type_symbol
 _atom_site_label
 _atom_site_symmetry_multiplicity
 _atom_site_fract_x
 _atom_site_fract_y
 _atom_site_fract_z
 _atom_site_occupancy
  Cs  Cs0  1  0.000000  0.000000  0.000000  1
  Rb  Rb1  1  0.250000  0.250000  0.250000  1
  Cr  Cr2  1  0.750000  0.750000  0.750000  1
  Cr  Cr3  1  0.500000  0.500000  0.500000  1
  N  N4  1  0.624877  0.624877  0.624877  1
  N  N5  1  0.125370  0.624877  0.624877  1
  N  N6  1  0.624877  0.125370  0.624877  1
  N  N7  1  0.624877  0.624877  0.125370  1
