# generated using pymatgen
data_K2CrFeF8
_symmetry_space_group_name_H-M   'P 1'
_cell_length_a   3.97089200
_cell_length_b   6.53647604
_cell_length_c   7.70407436
_cell_angle_alpha   90.15036421
_cell_angle_beta   90.00000000
_cell_angle_gamma   72.31710237
_symmetry_Int_Tables_number   1
_chemical_formula_structural   K2CrFeF8
_chemical_formula_sum   'K2 Cr1 Fe1 F8'
_cell_volume   190.51559135
_cell_formula_units_Z   1
loop_
 _symmetry_equiv_pos_site_id
 _symmetry_equiv_pos_as_xyz
  1  'x, y, z'
loop_
 _atom_site_type_symbol
 _atom_site_label
 _atom_site_symmetry_multiplicity
 _atom_site_fract_x
 _atom_site_fract_y
 _atom_site_fract_z
 _atom_site_occupancy
  K  K0  1  0.728470  0.543060  0.249274  1
  K  K1  1  0.271530  0.456940  0.750726  1
  Cr  Cr2  1  0.000000  0.000000  0.000000  1
  Fe  Fe3  1  0.000000  0.000000  0.499999  1
  F  F4  1  0.499999  0.000000  0.000000  1
  F  F5  1  0.150281  0.699437  0.051044  1
  F  F6  1  0.961097  0.077806  0.248432  1
  F  F7  1  0.149525  0.700949  0.449268  1
  F  F8  1  0.499999  0.000000  0.499999  1
  F  F9  1  0.850476  0.299050  0.550732  1
  F  F10  1  0.038903  0.922194  0.751568  1
  F  F11  1  0.849720  0.300562  0.948956  1
