# generated using pymatgen
data_Er20Ir6PdRu5
_symmetry_space_group_name_H-M   'P 1'
_cell_length_a   10.74822654
_cell_length_b   10.75142587
_cell_length_c   6.37819500
_cell_angle_alpha   89.96751018
_cell_angle_beta   89.97000924
_cell_angle_gamma   90.26836010
_symmetry_Int_Tables_number   1
_chemical_formula_structural   Er20Ir6PdRu5
_chemical_formula_sum   'Er20 Ir6 Pd1 Ru5'
_cell_volume   737.04800581
_cell_formula_units_Z   1
loop_
 _symmetry_equiv_pos_site_id
 _symmetry_equiv_pos_as_xyz
  1  'x, y, z'
loop_
 _atom_site_type_symbol
 _atom_site_label
 _atom_site_symmetry_multiplicity
 _atom_site_fract_x
 _atom_site_fract_y
 _atom_site_fract_z
 _atom_site_occupancy
  Er  Er0  1  0.294339  0.086359  0.376758  1
  Er  Er1  1  0.292264  0.913923  0.877723  1
  Er  Er2  1  0.704965  0.091246  0.879245  1
  Er  Er3  1  0.704214  0.915974  0.369238  1
  Er  Er4  1  0.581167  0.793295  0.877870  1
  Er  Er5  1  0.587209  0.207040  0.378076  1
  Er  Er6  1  0.413100  0.793368  0.377539  1
  Er  Er7  1  0.412785  0.206606  0.876786  1
  Er  Er8  1  0.206480  0.413090  0.622109  1
  Er  Er9  1  0.206808  0.586353  0.121908  1
  Er  Er10  1  0.793235  0.412318  0.122342  1
  Er  Er11  1  0.793245  0.581510  0.623009  1
  Er  Er12  1  0.915794  0.703434  0.129443  1
  Er  Er13  1  0.913540  0.292137  0.622764  1
  Er  Er14  1  0.091103  0.704893  0.620265  1
  Er  Er15  1  0.086355  0.293534  0.124594  1
  Er  Er16  1  0.001943  0.003018  0.497441  1
  Er  Er17  1  0.000795  0.002587  0.002448  1
  Er  Er18  1  0.500123  0.499990  0.000336  1
  Er  Er19  1  0.499681  0.499990  0.499642  1
  Ir  Ir20  1  0.153484  0.153124  0.750528  1
  Ir  Ir21  1  0.151413  0.847495  0.250008  1
  Ir  Ir22  1  0.651862  0.348418  0.750050  1
  Ir  Ir23  1  0.654100  0.653608  0.249671  1
  Ir  Ir24  1  0.347530  0.347231  0.250255  1
  Ir  Ir25  1  0.347746  0.652414  0.750058  1
  Pd  Pd26  1  0.846079  0.845796  0.749789  1
  Ru  Ru27  1  0.848225  0.150513  0.250289  1
  Ru  Ru28  1  0.500319  0.000107  0.121783  1
  Ru  Ru29  1  0.500368  0.999915  0.623609  1
  Ru  Ru30  1  0.999866  0.500604  0.876284  1
  Ru  Ru31  1  0.999863  0.500107  0.378141  1
