# generated using pymatgen
data_Tb2Th3Ge3C
_symmetry_space_group_name_H-M   'P 1'
_cell_length_a   8.82296500
_cell_length_b   8.82296540
_cell_length_c   6.44285500
_cell_angle_alpha   90.00000000
_cell_angle_beta   90.00000000
_cell_angle_gamma   120.00000225
_symmetry_Int_Tables_number   1
_chemical_formula_structural   Tb2Th3Ge3C
_chemical_formula_sum   'Tb4 Th6 Ge6 C2'
_cell_volume   434.34828574
_cell_formula_units_Z   2
loop_
 _symmetry_equiv_pos_site_id
 _symmetry_equiv_pos_as_xyz
  1  'x, y, z'
loop_
 _atom_site_type_symbol
 _atom_site_label
 _atom_site_symmetry_multiplicity
 _atom_site_fract_x
 _atom_site_fract_y
 _atom_site_fract_z
 _atom_site_occupancy
  Tb  Tb0  1  0.666667  0.333333  0.000000  1
  Tb  Tb1  1  0.333333  0.666667  0.000000  1
  Tb  Tb2  1  0.333333  0.666667  0.500000  1
  Tb  Tb3  1  0.666667  0.333333  0.500000  1
  Th  Th4  1  0.769590  0.769590  0.750000  1
  Th  Th5  1  0.230410  0.000000  0.750000  1
  Th  Th6  1  0.000000  0.230410  0.750000  1
  Th  Th7  1  0.230410  0.230410  0.250000  1
  Th  Th8  1  0.769590  0.000000  0.250000  1
  Th  Th9  1  0.000000  0.769590  0.250000  1
  Ge  Ge10  1  0.402781  0.402781  0.750000  1
  Ge  Ge11  1  0.597219  0.000000  0.750000  1
  Ge  Ge12  1  0.000000  0.597219  0.750000  1
  Ge  Ge13  1  0.597219  0.597219  0.250000  1
  Ge  Ge14  1  0.402781  0.000000  0.250000  1
  Ge  Ge15  1  0.000000  0.402781  0.250000  1
  C  C16  1  0.000000  0.000000  0.000000  1
  C  C17  1  0.000000  0.000000  0.500000  1
