# generated using pymatgen
data_Ho2UO6
_symmetry_space_group_name_H-M   'P 1'
_cell_length_a   6.48975007
_cell_length_b   6.48974927
_cell_length_c   6.63207774
_cell_angle_alpha   80.58465558
_cell_angle_beta   80.58465804
_cell_angle_gamma   120.63119228
_symmetry_Int_Tables_number   1
_chemical_formula_structural   Ho2UO6
_chemical_formula_sum   'Ho4 U2 O12'
_cell_volume   226.85460680
_cell_formula_units_Z   2
loop_
 _symmetry_equiv_pos_site_id
 _symmetry_equiv_pos_as_xyz
  1  'x, y, z'
loop_
 _atom_site_type_symbol
 _atom_site_label
 _atom_site_symmetry_multiplicity
 _atom_site_fract_x
 _atom_site_fract_y
 _atom_site_fract_z
 _atom_site_occupancy
  Ho  Ho0  1  0.915088  0.084912  0.750000  1
  Ho  Ho1  1  0.249725  0.750275  0.750000  1
  Ho  Ho2  1  0.084912  0.915088  0.250000  1
  Ho  Ho3  1  0.750275  0.249725  0.250000  1
  U  U4  1  0.586007  0.413993  0.750000  1
  U  U5  1  0.413993  0.586007  0.250000  1
  O  O6  1  0.934598  0.771490  0.628571  1
  O  O7  1  0.627059  0.140291  0.625715  1
  O  O8  1  0.691072  0.535225  0.379535  1
  O  O9  1  0.464775  0.308928  0.120465  1
  O  O10  1  0.308928  0.464775  0.620465  1
  O  O11  1  0.140291  0.627059  0.125715  1
  O  O12  1  0.372941  0.859709  0.374285  1
  O  O13  1  0.228510  0.065402  0.871429  1
  O  O14  1  0.065402  0.228510  0.371429  1
  O  O15  1  0.771490  0.934598  0.128571  1
  O  O16  1  0.859709  0.372941  0.874285  1
  O  O17  1  0.535225  0.691072  0.879535  1
