# generated using pymatgen
data_CaTmGa9Ru5
_symmetry_space_group_name_H-M   'P 1'
_cell_length_a   8.02142843
_cell_length_b   8.02142846
_cell_length_c   8.02142802
_cell_angle_alpha   134.66294671
_cell_angle_beta   134.66490320
_cell_angle_gamma   66.05283750
_symmetry_Int_Tables_number   1
_chemical_formula_structural   CaTmGa9Ru5
_chemical_formula_sum   'Ca1 Tm1 Ga9 Ru5'
_cell_volume   257.08711668
_cell_formula_units_Z   1
loop_
 _symmetry_equiv_pos_site_id
 _symmetry_equiv_pos_as_xyz
  1  'x, y, z'
loop_
 _atom_site_type_symbol
 _atom_site_label
 _atom_site_symmetry_multiplicity
 _atom_site_fract_x
 _atom_site_fract_y
 _atom_site_fract_z
 _atom_site_occupancy
  Ca  Ca0  1  0.500000  0.000000  0.500000  1
  Tm  Tm1  1  0.000000  0.500000  0.500000  1
  Ga  Ga2  1  0.436793  0.858173  0.000220  1
  Ga  Ga3  1  0.142048  0.141827  0.578621  1
  Ga  Ga4  1  0.857952  0.436573  0.999780  1
  Ga  Ga5  1  0.857952  0.858173  0.421379  1
  Ga  Ga6  1  0.563207  0.141827  0.999780  1
  Ga  Ga7  1  0.142048  0.563427  0.000220  1
  Ga  Ga8  1  0.563207  0.563427  0.421379  1
  Ga  Ga9  1  0.000000  0.000000  0.000000  1
  Ga  Ga10  1  0.436793  0.436573  0.578621  1
  Ru  Ru11  1  0.181871  0.181871  0.000000  1
  Ru  Ru12  1  0.818129  0.818129  0.000000  1
  Ru  Ru13  1  0.249723  0.749723  0.500000  1
  Ru  Ru14  1  0.750277  0.250277  0.500000  1
  Ru  Ru15  1  0.500000  0.500000  0.000000  1
