# generated using pymatgen
data_Ho2Mn8Fe4P7
_symmetry_space_group_name_H-M   'P 1'
_cell_length_a   9.20279251
_cell_length_b   9.21086176
_cell_length_c   3.58837400
_cell_angle_alpha   90.00000000
_cell_angle_beta   90.00000000
_cell_angle_gamma   120.31914103
_symmetry_Int_Tables_number   1
_chemical_formula_structural   Ho2Mn8Fe4P7
_chemical_formula_sum   'Ho2 Mn8 Fe4 P7'
_cell_volume   262.56847885
_cell_formula_units_Z   1
loop_
 _symmetry_equiv_pos_site_id
 _symmetry_equiv_pos_as_xyz
  1  'x, y, z'
loop_
 _atom_site_type_symbol
 _atom_site_label
 _atom_site_symmetry_multiplicity
 _atom_site_fract_x
 _atom_site_fract_y
 _atom_site_fract_z
 _atom_site_occupancy
  Ho  Ho0  1  0.999962  0.000611  0.000000  1
  Ho  Ho1  1  0.330364  0.663885  0.500000  1
  Mn  Mn2  1  0.287250  0.903586  0.000000  1
  Mn  Mn3  1  0.617696  0.713065  0.000000  1
  Mn  Mn4  1  0.713348  0.943233  0.500000  1
  Mn  Mn5  1  0.233412  0.288636  0.500000  1
  Mn  Mn6  1  0.058635  0.768551  0.500000  1
  Mn  Mn7  1  0.540792  0.103989  0.500000  1
  Mn  Mn8  1  0.560612  0.460122  0.500000  1
  Mn  Mn9  1  0.894390  0.435128  0.500000  1
  Fe  Fe10  1  0.096175  0.384892  0.000000  1
  Fe  Fe11  1  0.785473  0.177342  0.000000  1
  Fe  Fe12  1  0.390513  0.214855  0.000000  1
  Fe  Fe13  1  0.823116  0.607304  0.000000  1
  P  P14  1  0.546757  0.924182  0.000000  1
  P  P15  1  0.375659  0.454324  0.000000  1
  P  P16  1  0.073888  0.618164  0.000000  1
  P  P17  1  0.952560  0.215376  0.500000  1
  P  P18  1  0.260898  0.051849  0.500000  1
  P  P19  1  0.792402  0.738251  0.500000  1
  P  P20  1  0.666100  0.332655  0.000000  1
