# generated using pymatgen
data_Ta3Tc2Os
_symmetry_space_group_name_H-M   'P 1'
_cell_length_a   13.55807000
_cell_length_b   3.19116800
_cell_length_c   4.50066200
_cell_angle_alpha   90.00000000
_cell_angle_beta   90.00000000
_cell_angle_gamma   90.00000000
_symmetry_Int_Tables_number   1
_chemical_formula_structural   Ta3Tc2Os
_chemical_formula_sum   'Ta6 Tc4 Os2'
_cell_volume   194.72599821
_cell_formula_units_Z   2
loop_
 _symmetry_equiv_pos_site_id
 _symmetry_equiv_pos_as_xyz
  1  'x, y, z'
loop_
 _atom_site_type_symbol
 _atom_site_label
 _atom_site_symmetry_multiplicity
 _atom_site_fract_x
 _atom_site_fract_y
 _atom_site_fract_z
 _atom_site_occupancy
  Ta  Ta0  1  0.582611  0.499999  0.248295  1
  Ta  Ta1  1  0.917389  0.499999  0.248295  1
  Ta  Ta2  1  0.250000  0.499999  0.252919  1
  Ta  Ta3  1  0.750000  0.499999  0.746333  1
  Ta  Ta4  1  0.085557  0.499999  0.752040  1
  Ta  Ta5  1  0.414443  0.499999  0.752040  1
  Tc  Tc6  1  0.750000  0.000000  0.246552  1
  Tc  Tc7  1  0.082150  0.000000  0.251972  1
  Tc  Tc8  1  0.417850  0.000000  0.251972  1
  Tc  Tc9  1  0.250000  0.000000  0.752879  1
  Os  Os10  1  0.583699  0.000000  0.748353  1
  Os  Os11  1  0.916301  0.000000  0.748353  1
