# generated using pymatgen
data_Pr8Ho11ScSi15Pd
_symmetry_space_group_name_H-M   'P 1'
_cell_length_a   7.50226136
_cell_length_b   7.77034119
_cell_length_c   14.84790134
_cell_angle_alpha   89.86992769
_cell_angle_beta   89.66406747
_cell_angle_gamma   90.29876143
_symmetry_Int_Tables_number   1
_chemical_formula_structural   Pr8Ho11ScSi15Pd
_chemical_formula_sum   'Pr8 Ho11 Sc1 Si15 Pd1'
_cell_volume   865.53141045
_cell_formula_units_Z   1
loop_
 _symmetry_equiv_pos_site_id
 _symmetry_equiv_pos_as_xyz
  1  'x, y, z'
loop_
 _atom_site_type_symbol
 _atom_site_label
 _atom_site_symmetry_multiplicity
 _atom_site_fract_x
 _atom_site_fract_y
 _atom_site_fract_z
 _atom_site_occupancy
  Pr  Pr0  1  0.017332  0.179375  0.401773  1
  Pr  Pr1  1  0.518546  0.321727  0.400288  1
  Pr  Pr2  1  0.478833  0.676970  0.900823  1
  Pr  Pr3  1  0.480329  0.674291  0.601334  1
  Pr  Pr4  1  0.983905  0.819856  0.599107  1
  Pr  Pr5  1  0.980944  0.820929  0.901230  1
  Pr  Pr6  1  0.519138  0.322851  0.097089  1
  Pr  Pr7  1  0.019945  0.178779  0.097878  1
  Ho  Ho8  1  0.326819  0.183885  0.622759  1
  Ho  Ho9  1  0.671896  0.822749  0.376006  1
  Ho  Ho10  1  0.658830  0.990521  0.749462  1
  Ho  Ho11  1  0.172339  0.669959  0.378395  1
  Ho  Ho12  1  0.825868  0.321101  0.876852  1
  Ho  Ho13  1  0.830512  0.328412  0.622862  1
  Ho  Ho14  1  0.842430  0.491050  0.251395  1
  Ho  Ho15  1  0.342282  0.007417  0.249706  1
  Ho  Ho16  1  0.322272  0.179038  0.876084  1
  Ho  Ho17  1  0.174487  0.679408  0.122189  1
  Ho  Ho18  1  0.677053  0.823061  0.123456  1
  Sc  Sc19  1  0.159725  0.506980  0.750185  1
  Si  Si20  1  0.275391  0.876026  0.750458  1
  Si  Si21  1  0.466769  0.614027  0.248333  1
  Si  Si22  1  0.032188  0.114376  0.750206  1
  Si  Si23  1  0.531573  0.388684  0.752491  1
  Si  Si24  1  0.970422  0.884421  0.250886  1
  Si  Si25  1  0.723366  0.121278  0.248930  1
  Si  Si26  1  0.850831  0.533475  0.037917  1
  Si  Si27  1  0.352856  0.967945  0.038274  1
  Si  Si28  1  0.147306  0.468706  0.959755  1
  Si  Si29  1  0.649133  0.032517  0.538892  1
  Si  Si30  1  0.350928  0.965843  0.462009  1
  Si  Si31  1  0.841407  0.534717  0.458652  1
  Si  Si32  1  0.781568  0.619648  0.752566  1
  Si  Si33  1  0.225503  0.378401  0.248300  1
  Si  Si34  1  0.647620  0.031723  0.960844  1
  Pd  Pd35  1  0.149651  0.469856  0.542612  1
