# generated using pymatgen
data_Gd4ReTc3B16
_symmetry_space_group_name_H-M   'P 1'
_cell_length_a   3.62701800
_cell_length_b   6.00253919
_cell_length_c   11.62315936
_cell_angle_alpha   89.97140580
_cell_angle_beta   90.00000000
_cell_angle_gamma   90.00000000
_symmetry_Int_Tables_number   1
_chemical_formula_structural   Gd4ReTc3B16
_chemical_formula_sum   'Gd4 Re1 Tc3 B16'
_cell_volume   253.05146336
_cell_formula_units_Z   1
loop_
 _symmetry_equiv_pos_site_id
 _symmetry_equiv_pos_as_xyz
  1  'x, y, z'
loop_
 _atom_site_type_symbol
 _atom_site_label
 _atom_site_symmetry_multiplicity
 _atom_site_fract_x
 _atom_site_fract_y
 _atom_site_fract_z
 _atom_site_occupancy
  Gd  Gd0  1  0.000000  0.626416  0.349107  1
  Gd  Gd1  1  0.000000  0.373301  0.650966  1
  Gd  Gd2  1  0.000000  0.126435  0.150116  1
  Gd  Gd3  1  0.000000  0.873600  0.849905  1
  Re  Re4  1  0.000000  0.867300  0.587146  1
  Tc  Tc5  1  0.000000  0.632903  0.087342  1
  Tc  Tc6  1  0.000000  0.367366  0.912757  1
  Tc  Tc7  1  0.000000  0.132557  0.413051  1
  B  B8  1  0.500000  0.786490  0.184472  1
  B  B9  1  0.500000  0.213613  0.815569  1
  B  B10  1  0.500000  0.286589  0.315446  1
  B  B11  1  0.500000  0.713412  0.684683  1
  B  B12  1  0.500000  0.863440  0.031635  1
  B  B13  1  0.500000  0.136589  0.968424  1
  B  B14  1  0.500000  0.363307  0.468394  1
  B  B15  1  0.500000  0.636628  0.531378  1
  B  B16  1  0.500000  0.887004  0.452870  1
  B  B17  1  0.500000  0.113232  0.546788  1
  B  B18  1  0.500000  0.387040  0.046839  1
  B  B19  1  0.500000  0.612886  0.953165  1
  B  B20  1  0.500000  0.976984  0.308251  1
  B  B21  1  0.500000  0.023149  0.691661  1
  B  B22  1  0.500000  0.477025  0.191691  1
  B  B23  1  0.500000  0.522730  0.808345  1
