# generated using pymatgen
data_NaHoPbI6
_symmetry_space_group_name_H-M   'P 1'
_cell_length_a   8.71431693
_cell_length_b   8.71422873
_cell_length_c   8.71435000
_cell_angle_alpha   54.15292705
_cell_angle_beta   54.15197519
_cell_angle_gamma   54.15222908
_symmetry_Int_Tables_number   1
_chemical_formula_structural   NaHoPbI6
_chemical_formula_sum   'Na1 Ho1 Pb1 I6'
_cell_volume   404.05469744
_cell_formula_units_Z   1
loop_
 _symmetry_equiv_pos_site_id
 _symmetry_equiv_pos_as_xyz
  1  'x, y, z'
loop_
 _atom_site_type_symbol
 _atom_site_label
 _atom_site_symmetry_multiplicity
 _atom_site_fract_x
 _atom_site_fract_y
 _atom_site_fract_z
 _atom_site_occupancy
  Na  Na0  1  0.669855  0.669858  0.669852  1
  Ho  Ho1  1  0.999849  0.999868  0.999851  1
  Pb  Pb2  1  0.330744  0.330709  0.330746  1
  I  I3  1  0.232973  0.612510  0.914779  1
  I  I4  1  0.612507  0.914773  0.232972  1
  I  I5  1  0.914775  0.232971  0.612503  1
  I  I6  1  0.765646  0.386558  0.087109  1
  I  I7  1  0.386549  0.087103  0.765645  1
  I  I8  1  0.087104  0.765649  0.386542  1
