# generated using pymatgen
data_Pr7NdZn8Pt3Rh5
_symmetry_space_group_name_H-M   'P 1'
_cell_length_a   4.04918600
_cell_length_b   7.42943937
_cell_length_c   16.72647783
_cell_angle_alpha   90.06383398
_cell_angle_beta   90.00000000
_cell_angle_gamma   90.00000000
_symmetry_Int_Tables_number   1
_chemical_formula_structural   Pr7NdZn8Pt3Rh5
_chemical_formula_sum   'Pr7 Nd1 Zn8 Pt3 Rh5'
_cell_volume   503.18536280
_cell_formula_units_Z   1
loop_
 _symmetry_equiv_pos_site_id
 _symmetry_equiv_pos_as_xyz
  1  'x, y, z'
loop_
 _atom_site_type_symbol
 _atom_site_label
 _atom_site_symmetry_multiplicity
 _atom_site_fract_x
 _atom_site_fract_y
 _atom_site_fract_z
 _atom_site_occupancy
  Pr  Pr0  1  0.250000  0.169087  0.942432  1
  Pr  Pr1  1  0.250000  0.670246  0.563438  1
  Pr  Pr2  1  0.750000  0.330096  0.442792  1
  Pr  Pr3  1  0.750000  0.948062  0.280922  1
  Pr  Pr4  1  0.750000  0.827862  0.060114  1
  Pr  Pr5  1  0.250000  0.047765  0.714590  1
  Pr  Pr6  1  0.250000  0.554254  0.785124  1
  Nd  Nd7  1  0.750000  0.451281  0.213264  1
  Zn  Zn8  1  0.750000  0.003203  0.562428  1
  Zn  Zn9  1  0.250000  0.621405  0.346239  1
  Zn  Zn10  1  0.750000  0.380292  0.650598  1
  Zn  Zn11  1  0.250000  0.498460  0.059654  1
  Zn  Zn12  1  0.750000  0.503450  0.940717  1
  Zn  Zn13  1  0.250000  0.999122  0.440370  1
  Zn  Zn14  1  0.250000  0.121035  0.149030  1
  Zn  Zn15  1  0.750000  0.876047  0.849436  1
  Pt  Pt16  1  0.750000  0.753941  0.434019  1
  Pt  Pt17  1  0.250000  0.246543  0.313828  1
  Pt  Pt18  1  0.750000  0.254158  0.813848  1
  Rh  Rh19  1  0.750000  0.752988  0.685448  1
  Rh  Rh20  1  0.250000  0.242733  0.565451  1
  Rh  Rh21  1  0.250000  0.746286  0.185853  1
  Rh  Rh22  1  0.750000  0.256320  0.065702  1
  Rh  Rh23  1  0.250000  0.745363  0.934704  1
