# generated using pymatgen
data_CeY7BePd24
_symmetry_space_group_name_H-M   'P 1'
_cell_length_a   8.32551942
_cell_length_b   8.32551961
_cell_length_c   8.32552022
_cell_angle_alpha   89.95107888
_cell_angle_beta   90.04891842
_cell_angle_gamma   90.04892112
_symmetry_Int_Tables_number   1
_chemical_formula_structural   CeY7BePd24
_chemical_formula_sum   'Ce1 Y7 Be1 Pd24'
_cell_volume   577.07676916
_cell_formula_units_Z   1
loop_
 _symmetry_equiv_pos_site_id
 _symmetry_equiv_pos_as_xyz
  1  'x, y, z'
loop_
 _atom_site_type_symbol
 _atom_site_label
 _atom_site_symmetry_multiplicity
 _atom_site_fract_x
 _atom_site_fract_y
 _atom_site_fract_z
 _atom_site_occupancy
  Ce  Ce0  1  0.746514  0.253486  0.253486  1
  Y  Y1  1  0.250648  0.251309  0.251309  1
  Y  Y2  1  0.748704  0.748886  0.748886  1
  Y  Y3  1  0.748691  0.749352  0.251309  1
  Y  Y4  1  0.748691  0.251309  0.749352  1
  Y  Y5  1  0.251114  0.251296  0.748886  1
  Y  Y6  1  0.251114  0.748886  0.251296  1
  Y  Y7  1  0.251734  0.748266  0.748266  1
  Be  Be8  1  0.001617  0.998383  0.998383  1
  Pd  Pd9  1  0.254266  0.499351  0.000312  1
  Pd  Pd10  1  0.745760  0.499063  0.001479  1
  Pd  Pd11  1  0.998521  0.254240  0.499063  1
  Pd  Pd12  1  0.500937  0.254240  0.001479  1
  Pd  Pd13  1  0.999688  0.745734  0.499351  1
  Pd  Pd14  1  0.500649  0.745734  0.000312  1
  Pd  Pd15  1  0.500937  0.001479  0.254240  1
  Pd  Pd16  1  0.254266  0.000312  0.499351  1
  Pd  Pd17  1  0.500649  0.000312  0.745734  1
  Pd  Pd18  1  0.745760  0.001479  0.499063  1
  Pd  Pd19  1  0.998521  0.499063  0.254240  1
  Pd  Pd20  1  0.999688  0.499351  0.745734  1
  Pd  Pd21  1  0.251659  0.499443  0.499443  1
  Pd  Pd22  1  0.747935  0.499413  0.499413  1
  Pd  Pd23  1  0.500587  0.252065  0.499413  1
  Pd  Pd24  1  0.500557  0.748341  0.499443  1
  Pd  Pd25  1  0.500587  0.499413  0.252065  1
  Pd  Pd26  1  0.500557  0.499443  0.748341  1
  Pd  Pd27  1  0.269641  0.999898  0.999898  1
  Pd  Pd28  1  0.731825  0.001010  0.001010  1
  Pd  Pd29  1  0.998990  0.268175  0.001010  1
  Pd  Pd30  1  0.000102  0.730359  0.999898  1
  Pd  Pd31  1  0.998990  0.001010  0.268175  1
  Pd  Pd32  1  0.000102  0.999898  0.730359  1
