# generated using pymatgen
data_Hf2Re2B4Ru3
_symmetry_space_group_name_H-M   'P 1'
_cell_length_a   3.09629900
_cell_length_b   8.58783602
_cell_length_c   9.97245202
_cell_angle_alpha   89.99978149
_cell_angle_beta   90.00000000
_cell_angle_gamma   90.00000000
_symmetry_Int_Tables_number   1
_chemical_formula_structural   Hf2Re2B4Ru3
_chemical_formula_sum   'Hf4 Re4 B8 Ru6'
_cell_volume   265.17256588
_cell_formula_units_Z   2
loop_
 _symmetry_equiv_pos_site_id
 _symmetry_equiv_pos_as_xyz
  1  'x, y, z'
loop_
 _atom_site_type_symbol
 _atom_site_label
 _atom_site_symmetry_multiplicity
 _atom_site_fract_x
 _atom_site_fract_y
 _atom_site_fract_z
 _atom_site_occupancy
  Hf  Hf0  1  0.500000  0.840253  0.181042  1
  Hf  Hf1  1  0.500000  0.159747  0.818958  1
  Hf  Hf2  1  0.500000  0.659759  0.681032  1
  Hf  Hf3  1  0.500000  0.340241  0.318968  1
  Re  Re4  1  0.000000  0.661142  0.952738  1
  Re  Re5  1  0.000000  0.338858  0.047262  1
  Re  Re6  1  0.000000  0.838856  0.452731  1
  Re  Re7  1  0.000000  0.161144  0.547269  1
  B  B8  1  0.500000  0.964391  0.588149  1
  B  B9  1  0.500000  0.035609  0.411851  1
  B  B10  1  0.500000  0.847744  0.901451  1
  B  B11  1  0.500000  0.152256  0.098549  1
  B  B12  1  0.500000  0.652238  0.401431  1
  B  B13  1  0.500000  0.347762  0.598569  1
  B  B14  1  0.500000  0.464440  0.911842  1
  B  B15  1  0.500000  0.535560  0.088158  1
  Ru  Ru16  1  0.000000  0.000000  0.000000  1
  Ru  Ru17  1  0.000000  0.406327  0.760301  1
  Ru  Ru18  1  0.000000  0.593673  0.239699  1
  Ru  Ru19  1  0.000000  0.500000  0.500000  1
  Ru  Ru20  1  0.000000  0.906329  0.739715  1
  Ru  Ru21  1  0.000000  0.093671  0.260285  1
