# generated using pymatgen
data_Th3Zn2In3Os
_symmetry_space_group_name_H-M   'P 1'
_cell_length_a   7.77115400
_cell_length_b   7.77115369
_cell_length_c   4.12201200
_cell_angle_alpha   90.00000000
_cell_angle_beta   90.00000000
_cell_angle_gamma   119.99999281
_symmetry_Int_Tables_number   1
_chemical_formula_structural   Th3Zn2In3Os
_chemical_formula_sum   'Th3 Zn2 In3 Os1'
_cell_volume   215.58122154
_cell_formula_units_Z   1
loop_
 _symmetry_equiv_pos_site_id
 _symmetry_equiv_pos_as_xyz
  1  'x, y, z'
loop_
 _atom_site_type_symbol
 _atom_site_label
 _atom_site_symmetry_multiplicity
 _atom_site_fract_x
 _atom_site_fract_y
 _atom_site_fract_z
 _atom_site_occupancy
  Th  Th0  1  0.579052  0.603273  0.000000  1
  Th  Th1  1  0.396727  0.975780  0.000000  1
  Th  Th2  1  0.024220  0.420948  0.000000  1
  Zn  Zn3  1  0.000000  0.000000  0.000000  1
  Zn  Zn4  1  0.666667  0.333333  0.500000  1
  In  In5  1  0.992257  0.744560  0.500000  1
  In  In6  1  0.255440  0.247696  0.500000  1
  In  In7  1  0.752304  0.007743  0.500000  1
  Os  Os8  1  0.333333  0.666667  0.500000  1
