# generated using pymatgen
data_Ca2DyEr3(Si3Ru)8
_symmetry_space_group_name_H-M   'P 1'
_cell_length_a   10.12973787
_cell_length_b   10.12973776
_cell_length_c   8.13909511
_cell_angle_alpha   90.01474437
_cell_angle_beta   89.98525801
_cell_angle_gamma   132.62933746
_symmetry_Int_Tables_number   1
_chemical_formula_structural   Ca2DyEr3(Si3Ru)8
_chemical_formula_sum   'Ca2 Dy1 Er3 Si24 Ru8'
_cell_volume   614.47331379
_cell_formula_units_Z   1
loop_
 _symmetry_equiv_pos_site_id
 _symmetry_equiv_pos_as_xyz
  1  'x, y, z'
loop_
 _atom_site_type_symbol
 _atom_site_label
 _atom_site_symmetry_multiplicity
 _atom_site_fract_x
 _atom_site_fract_y
 _atom_site_fract_z
 _atom_site_occupancy
  Ca  Ca0  1  0.001861  0.501861  0.750000  1
  Ca  Ca1  1  0.501961  0.001961  0.750000  1
  Dy  Dy2  1  0.498454  0.998454  0.250000  1
  Er  Er3  1  0.998558  0.498558  0.250000  1
  Er  Er4  1  0.500267  0.500248  0.500676  1
  Er  Er5  1  0.000248  0.000267  0.999324  1
  Si  Si6  1  0.388472  0.155193  0.005827  1
  Si  Si7  1  0.655193  0.888472  0.494173  1
  Si  Si8  1  0.111395  0.343947  0.503787  1
  Si  Si9  1  0.843947  0.611395  0.996213  1
  Si  Si10  1  0.611656  0.844415  0.995875  1
  Si  Si11  1  0.344415  0.111656  0.504125  1
  Si  Si12  1  0.888640  0.655397  0.493813  1
  Si  Si13  1  0.155397  0.388640  0.006187  1
  Si  Si14  1  0.610986  0.378163  0.227386  1
  Si  Si15  1  0.878163  0.110986  0.272614  1
  Si  Si16  1  0.887932  0.121954  0.728047  1
  Si  Si17  1  0.621954  0.387932  0.771953  1
  Si  Si18  1  0.388043  0.622087  0.771908  1
  Si  Si19  1  0.122087  0.888043  0.728092  1
  Si  Si20  1  0.706384  0.294820  0.999351  1
  Si  Si21  1  0.794820  0.206384  0.500649  1
  Si  Si22  1  0.293862  0.705445  0.999242  1
  Si  Si23  1  0.205445  0.793862  0.500758  1
  Si  Si24  1  0.168113  0.168110  0.333302  1
  Si  Si25  1  0.668110  0.668113  0.166698  1
  Si  Si26  1  0.333334  0.333392  0.833161  1
  Si  Si27  1  0.833392  0.833334  0.666839  1
  Si  Si28  1  0.377580  0.610482  0.227525  1
  Si  Si29  1  0.110482  0.877580  0.272475  1
  Ru  Ru30  1  0.626471  0.626620  0.872902  1
  Ru  Ru31  1  0.126620  0.126471  0.627098  1
  Ru  Ru32  1  0.874130  0.874117  0.373456  1
  Ru  Ru33  1  0.374117  0.374130  0.126544  1
  Ru  Ru34  1  0.330041  0.667882  0.496706  1
  Ru  Ru35  1  0.167882  0.830041  0.003294  1
  Ru  Ru36  1  0.668719  0.330872  0.496623  1
  Ru  Ru37  1  0.830872  0.168719  0.003377  1
