# generated using pymatgen
data_YHo17Sc2(Cd3Ru)2
_symmetry_space_group_name_H-M   'P 1'
_cell_length_a   9.48720200
_cell_length_b   9.48685488
_cell_length_c   9.73710000
_cell_angle_alpha   90.00000000
_cell_angle_beta   90.00000000
_cell_angle_gamma   119.99879607
_symmetry_Int_Tables_number   1
_chemical_formula_structural   YHo17Sc2(Cd3Ru)2
_chemical_formula_sum   'Y1 Ho17 Sc2 Cd6 Ru2'
_cell_volume   758.97231644
_cell_formula_units_Z   1
loop_
 _symmetry_equiv_pos_site_id
 _symmetry_equiv_pos_as_xyz
  1  'x, y, z'
loop_
 _atom_site_type_symbol
 _atom_site_label
 _atom_site_symmetry_multiplicity
 _atom_site_fract_x
 _atom_site_fract_y
 _atom_site_fract_z
 _atom_site_occupancy
  Y  Y0  1  0.081972  0.540986  0.750000  1
  Ho  Ho1  1  0.208536  0.791578  0.440598  1
  Ho  Ho2  1  0.208536  0.416957  0.440598  1
  Ho  Ho3  1  0.583016  0.791508  0.440680  1
  Ho  Ho4  1  0.791419  0.208386  0.559301  1
  Ho  Ho5  1  0.791419  0.583033  0.559301  1
  Ho  Ho6  1  0.416975  0.208488  0.559348  1
  Ho  Ho7  1  0.791419  0.208386  0.940699  1
  Ho  Ho8  1  0.791419  0.583033  0.940699  1
  Ho  Ho9  1  0.416975  0.208488  0.940652  1
  Ho  Ho10  1  0.208536  0.791578  0.059402  1
  Ho  Ho11  1  0.208536  0.416957  0.059402  1
  Ho  Ho12  1  0.583016  0.791508  0.059320  1
  Ho  Ho13  1  0.540945  0.459069  0.250000  1
  Ho  Ho14  1  0.540945  0.081876  0.250000  1
  Ho  Ho15  1  0.918130  0.459065  0.250000  1
  Ho  Ho16  1  0.459155  0.540937  0.750000  1
  Ho  Ho17  1  0.459155  0.918218  0.750000  1
  Sc  Sc18  1  0.999987  0.999993  0.500004  1
  Sc  Sc19  1  0.999987  0.999993  0.999996  1
  Cd  Cd20  1  0.888999  0.110998  0.250000  1
  Cd  Cd21  1  0.888999  0.778003  0.250000  1
  Cd  Cd22  1  0.221999  0.111000  0.250000  1
  Cd  Cd23  1  0.111013  0.889079  0.750000  1
  Cd  Cd24  1  0.111013  0.221932  0.750000  1
  Cd  Cd25  1  0.777984  0.888991  0.750000  1
  Ru  Ru26  1  0.333329  0.666665  0.250000  1
  Ru  Ru27  1  0.666589  0.333294  0.750000  1
