# generated using pymatgen
data_Rb8Nb2SbIrBr24
_symmetry_space_group_name_H-M   'P 1'
_cell_length_a   13.40107057
_cell_length_b   13.40117875
_cell_length_c   13.40125700
_cell_angle_alpha   131.86210883
_cell_angle_beta   131.86145549
_cell_angle_gamma   70.44824830
_symmetry_Int_Tables_number   1
_chemical_formula_structural   Rb8Nb2SbIrBr24
_chemical_formula_sum   'Rb8 Nb2 Sb1 Ir1 Br24'
_cell_volume   1308.07891380
_cell_formula_units_Z   1
loop_
 _symmetry_equiv_pos_site_id
 _symmetry_equiv_pos_as_xyz
  1  'x, y, z'
loop_
 _atom_site_type_symbol
 _atom_site_label
 _atom_site_symmetry_multiplicity
 _atom_site_fract_x
 _atom_site_fract_y
 _atom_site_fract_z
 _atom_site_occupancy
  Rb  Rb0  1  0.379016  0.344631  0.468881  1
  Rb  Rb1  1  0.089865  0.620991  0.965611  1
  Rb  Rb2  1  0.875748  0.910128  0.531113  1
  Rb  Rb3  1  0.091632  0.128515  0.470842  1
  Rb  Rb4  1  0.379226  0.908378  0.036878  1
  Rb  Rb5  1  0.657653  0.620787  0.529142  1
  Rb  Rb6  1  0.655385  0.124258  0.034401  1
  Rb  Rb7  1  0.871499  0.342355  0.963127  1
  Nb  Nb8  1  0.249998  0.750008  0.499996  1
  Nb  Nb9  1  0.500006  0.500012  0.999998  1
  Sb  Sb10  1  0.000001  0.000007  0.999999  1
  Ir  Ir11  1  0.749988  0.249958  0.500002  1
  Br  Br12  1  0.014188  0.769810  0.288859  1
  Br  Br13  1  0.020671  0.261636  0.273981  1
  Br  Br14  1  0.274668  0.985825  0.755613  1
  Br  Br15  1  0.982526  0.239155  0.717362  1
  Br  Br16  1  0.133788  0.633792  0.499998  1
  Br  Br17  1  0.269068  0.524501  0.789930  1
  Br  Br18  1  0.480942  0.725339  0.711142  1
  Br  Br19  1  0.521818  0.265142  0.282655  1
  Br  Br20  1  0.475501  0.265448  0.744564  1
  Br  Br21  1  0.616884  0.616889  0.000002  1
  Br  Br22  1  0.520866  0.730946  0.255423  1
  Br  Br23  1  0.129021  0.129025  0.000004  1
  Br  Br24  1  0.870980  0.870986  0.999999  1
  Br  Br25  1  0.987650  0.746697  0.726020  1
  Br  Br26  1  0.738379  0.012362  0.759055  1
  Br  Br27  1  0.253301  0.979336  0.240950  1
  Br  Br28  1  0.734562  0.479145  0.210067  1
  Br  Br29  1  0.230207  0.519061  0.244385  1
  Br  Br30  1  0.366218  0.866225  0.500001  1
  Br  Br31  1  0.865137  0.365118  0.500037  1
  Br  Br32  1  0.383119  0.383128  0.999992  1
  Br  Br33  1  0.634841  0.134819  0.499994  1
  Br  Br34  1  0.760815  0.478142  0.743331  1
  Br  Br35  1  0.734831  0.017445  0.256646  1
