# generated using pymatgen
data_Tb9Th3(AlAu5)4
_symmetry_space_group_name_H-M   'P 1'
_cell_length_a   8.57195601
_cell_length_b   8.57195637
_cell_length_c   13.63086200
_cell_angle_alpha   90.00000000
_cell_angle_beta   90.00000000
_cell_angle_gamma   128.44201246
_symmetry_Int_Tables_number   1
_chemical_formula_structural   Tb9Th3(AlAu5)4
_chemical_formula_sum   'Tb9 Th3 Al4 Au20'
_cell_volume   784.47089992
_cell_formula_units_Z   1
loop_
 _symmetry_equiv_pos_site_id
 _symmetry_equiv_pos_as_xyz
  1  'x, y, z'
loop_
 _atom_site_type_symbol
 _atom_site_label
 _atom_site_symmetry_multiplicity
 _atom_site_fract_x
 _atom_site_fract_y
 _atom_site_fract_z
 _atom_site_occupancy
  Tb  Tb0  1  0.680982  0.319018  0.750000  1
  Tb  Tb1  1  0.632175  0.367825  0.465928  1
  Tb  Tb2  1  0.367643  0.632357  0.536674  1
  Tb  Tb3  1  0.632175  0.367825  0.034072  1
  Tb  Tb4  1  0.367643  0.632357  0.963326  1
  Tb  Tb5  1  0.882229  0.117771  0.949852  1
  Tb  Tb6  1  0.118591  0.881409  0.047210  1
  Tb  Tb7  1  0.882229  0.117771  0.550148  1
  Tb  Tb8  1  0.118591  0.881409  0.452790  1
  Th  Th9  1  0.931163  0.068837  0.250000  1
  Th  Th10  1  0.069336  0.930664  0.750000  1
  Th  Th11  1  0.317876  0.682124  0.250000  1
  Al  Al12  1  0.719317  0.280683  0.250000  1
  Al  Al13  1  0.280823  0.719177  0.750000  1
  Al  Al14  1  0.533808  0.466192  0.250000  1
  Al  Al15  1  0.466999  0.533001  0.750000  1
  Au  Au16  1  0.321468  0.068378  0.250000  1
  Au  Au17  1  0.069059  0.322193  0.750000  1
  Au  Au18  1  0.677807  0.930941  0.750000  1
  Au  Au19  1  0.931622  0.678532  0.250000  1
  Au  Au20  1  0.573495  0.007180  0.399016  1
  Au  Au21  1  0.005234  0.572247  0.603466  1
  Au  Au22  1  0.573495  0.007180  0.100984  1
  Au  Au23  1  0.005234  0.572247  0.896534  1
  Au  Au24  1  0.427753  0.994766  0.603466  1
  Au  Au25  1  0.992820  0.426505  0.399016  1
  Au  Au26  1  0.427753  0.994766  0.896534  1
  Au  Au27  1  0.992820  0.426505  0.100984  1
  Au  Au28  1  0.681576  0.736086  0.396313  1
  Au  Au29  1  0.736454  0.682015  0.604112  1
  Au  Au30  1  0.681576  0.736086  0.103687  1
  Au  Au31  1  0.736454  0.682015  0.895888  1
  Au  Au32  1  0.317985  0.263546  0.604112  1
  Au  Au33  1  0.263914  0.318424  0.396313  1
  Au  Au34  1  0.317985  0.263546  0.895888  1
  Au  Au35  1  0.263914  0.318424  0.103687  1
