# generated using pymatgen
data_Y7Er5(ThSn2)8
_symmetry_space_group_name_H-M   'P 1'
_cell_length_a   8.11667517
_cell_length_b   8.22653113
_cell_length_c   15.55747509
_cell_angle_alpha   90.00054156
_cell_angle_beta   90.01243170
_cell_angle_gamma   89.97994663
_symmetry_Int_Tables_number   1
_chemical_formula_structural   Y7Er5(ThSn2)8
_chemical_formula_sum   'Y7 Er5 Th8 Sn16'
_cell_volume   1038.80489797
_cell_formula_units_Z   1
loop_
 _symmetry_equiv_pos_site_id
 _symmetry_equiv_pos_as_xyz
  1  'x, y, z'
loop_
 _atom_site_type_symbol
 _atom_site_label
 _atom_site_symmetry_multiplicity
 _atom_site_fract_x
 _atom_site_fract_y
 _atom_site_fract_z
 _atom_site_occupancy
  Y  Y0  1  0.362910  0.836930  0.876255  1
  Y  Y1  1  0.862911  0.663104  0.623821  1
  Y  Y2  1  0.637110  0.163086  0.376241  1
  Y  Y3  1  0.137071  0.336872  0.123779  1
  Y  Y4  1  0.637122  0.163080  0.123665  1
  Y  Y5  1  0.137098  0.336885  0.376235  1
  Y  Y6  1  0.362871  0.836883  0.623810  1
  Er  Er7  1  0.862915  0.663107  0.876114  1
  Er  Er8  1  0.191874  0.497865  0.750140  1
  Er  Er9  1  0.692230  0.002083  0.750119  1
  Er  Er10  1  0.807886  0.502309  0.249953  1
  Er  Er11  1  0.307928  0.997707  0.249975  1
  Th  Th12  1  0.519577  0.320606  0.903354  1
  Th  Th13  1  0.019415  0.179531  0.596659  1
  Th  Th14  1  0.480543  0.679498  0.403385  1
  Th  Th15  1  0.980434  0.820336  0.096424  1
  Th  Th16  1  0.480404  0.679555  0.096613  1
  Th  Th17  1  0.980576  0.820496  0.403389  1
  Th  Th18  1  0.519524  0.320524  0.596644  1
  Th  Th19  1  0.019486  0.179549  0.903360  1
  Sn  Sn20  1  0.296922  0.038705  0.042415  1
  Sn  Sn21  1  0.796969  0.461333  0.457570  1
  Sn  Sn22  1  0.703033  0.961312  0.542447  1
  Sn  Sn23  1  0.202310  0.538881  0.957411  1
  Sn  Sn24  1  0.703479  0.960537  0.957379  1
  Sn  Sn25  1  0.203061  0.538658  0.542440  1
  Sn  Sn26  1  0.296972  0.038675  0.457576  1
  Sn  Sn27  1  0.797140  0.461783  0.042061  1
  Sn  Sn28  1  0.558735  0.621831  0.750269  1
  Sn  Sn29  1  0.057804  0.877763  0.750369  1
  Sn  Sn30  1  0.441796  0.378360  0.249976  1
  Sn  Sn31  1  0.941773  0.121650  0.249983  1
  Sn  Sn32  1  0.325903  0.143066  0.749993  1
  Sn  Sn33  1  0.825913  0.357375  0.750205  1
  Sn  Sn34  1  0.674148  0.856984  0.249992  1
  Sn  Sn35  1  0.174156  0.643083  0.249979  1
