# generated using pymatgen
data_Cs2Mo5F17
_symmetry_space_group_name_H-M   'P 1'
_cell_length_a   8.13393400
_cell_length_b   14.65863623
_cell_length_c   16.05555600
_cell_angle_alpha   90.00000000
_cell_angle_beta   90.00000000
_cell_angle_gamma   106.10778014
_symmetry_Int_Tables_number   1
_chemical_formula_structural   Cs2Mo5F17
_chemical_formula_sum   'Cs8 Mo20 F68'
_cell_volume   1839.18792602
_cell_formula_units_Z   4
loop_
 _symmetry_equiv_pos_site_id
 _symmetry_equiv_pos_as_xyz
  1  'x, y, z'
loop_
 _atom_site_type_symbol
 _atom_site_label
 _atom_site_symmetry_multiplicity
 _atom_site_fract_x
 _atom_site_fract_y
 _atom_site_fract_z
 _atom_site_occupancy
  Cs  Cs0  1  0.000000  0.000000  0.000000  1
  Cs  Cs1  1  0.249802  0.499603  0.031479  1
  Cs  Cs2  1  0.249802  0.499603  0.468521  1
  Cs  Cs3  1  0.750198  0.500397  0.531479  1
  Cs  Cs4  1  0.750198  0.500397  0.968521  1
  Cs  Cs5  1  0.252551  0.505101  0.750000  1
  Cs  Cs6  1  0.000000  0.000000  0.500000  1
  Cs  Cs7  1  0.747449  0.494899  0.250000  1
  Mo  Mo8  1  0.625432  0.755960  0.875961  1
  Mo  Mo9  1  0.374568  0.244040  0.375961  1
  Mo  Mo10  1  0.874643  0.247732  0.874910  1
  Mo  Mo11  1  0.373090  0.247732  0.625090  1
  Mo  Mo12  1  0.749648  0.001361  0.750000  1
  Mo  Mo13  1  0.874643  0.247732  0.625090  1
  Mo  Mo14  1  0.625432  0.755960  0.624039  1
  Mo  Mo15  1  0.125357  0.752268  0.374910  1
  Mo  Mo16  1  0.251713  0.001361  0.750000  1
  Mo  Mo17  1  0.130530  0.755960  0.624039  1
  Mo  Mo18  1  0.869470  0.244040  0.124039  1
  Mo  Mo19  1  0.626910  0.752268  0.374910  1
  Mo  Mo20  1  0.374568  0.244040  0.124039  1
  Mo  Mo21  1  0.373090  0.247732  0.874910  1
  Mo  Mo22  1  0.869470  0.244040  0.375961  1
  Mo  Mo23  1  0.748287  0.998639  0.250000  1
  Mo  Mo24  1  0.250352  0.998639  0.250000  1
  Mo  Mo25  1  0.130530  0.755960  0.875961  1
  Mo  Mo26  1  0.125357  0.752268  0.125090  1
  Mo  Mo27  1  0.626910  0.752268  0.125090  1
  F  F28  1  0.561127  0.715942  0.250000  1
  F  F29  1  0.440475  0.276258  0.250000  1
  F  F30  1  0.750725  0.902684  0.654396  1
  F  F31  1  0.899452  0.203025  0.500775  1
  F  F32  1  0.894882  0.382298  0.097288  1
  F  F33  1  0.981398  0.962798  0.250000  1
  F  F34  1  0.110266  0.220533  0.652304  1
  F  F35  1  0.480882  0.961762  0.750000  1
  F  F36  1  0.151959  0.902684  0.845604  1
  F  F37  1  0.559525  0.723742  0.750000  1
  F  F38  1  0.602158  0.613094  0.102227  1
  F  F39  1  0.249275  0.097316  0.154396  1
  F  F40  1  0.899452  0.203025  0.999225  1
  F  F41  1  0.100548  0.796975  0.000775  1
  F  F42  1  0.845186  0.284058  0.750000  1
  F  F43  1  0.137994  0.275987  0.358847  1
  F  F44  1  0.658128  0.900114  0.153654  1
  F  F45  1  0.602357  0.204716  0.393100  1
  F  F46  1  0.602158  0.613094  0.397773  1
  F  F47  1  0.100548  0.796975  0.499225  1
  F  F48  1  0.137994  0.275987  0.141153  1
  F  F49  1  0.151959  0.902684  0.654396  1
  F  F50  1  0.241986  0.900114  0.153654  1
  F  F51  1  0.303573  0.203025  0.500775  1
  F  F52  1  0.602357  0.204716  0.106900  1
  F  F53  1  0.241986  0.900114  0.346346  1
  F  F54  1  0.894882  0.382298  0.402712  1
  F  F55  1  0.848041  0.097316  0.345604  1
  F  F56  1  0.397842  0.386906  0.602227  1
  F  F57  1  0.750725  0.902684  0.845604  1
  F  F58  1  0.010935  0.613094  0.102227  1
  F  F59  1  0.303573  0.203025  0.999225  1
  F  F60  1  0.397643  0.795284  0.893100  1
  F  F61  1  0.105118  0.617702  0.597288  1
  F  F62  1  0.696427  0.796975  0.499225  1
  F  F63  1  0.154814  0.715942  0.250000  1
  F  F64  1  0.658128  0.900114  0.346346  1
  F  F65  1  0.397842  0.386906  0.897773  1
  F  F66  1  0.889734  0.779467  0.152304  1
  F  F67  1  0.889734  0.779467  0.347696  1
  F  F68  1  0.365990  0.731979  0.404611  1
  F  F69  1  0.438873  0.284058  0.750000  1
  F  F70  1  0.519118  0.038238  0.250000  1
  F  F71  1  0.989065  0.386906  0.897773  1
  F  F72  1  0.487417  0.382298  0.402712  1
  F  F73  1  0.862006  0.724013  0.641153  1
  F  F74  1  0.365990  0.731979  0.095389  1
  F  F75  1  0.018602  0.037202  0.750000  1
  F  F76  1  0.758014  0.099886  0.846346  1
  F  F77  1  0.512583  0.617702  0.902712  1
  F  F78  1  0.634010  0.268021  0.595389  1
  F  F79  1  0.341872  0.099886  0.846346  1
  F  F80  1  0.848041  0.097316  0.154396  1
  F  F81  1  0.341872  0.099886  0.653654  1
  F  F82  1  0.634010  0.268021  0.904611  1
  F  F83  1  0.512583  0.617702  0.597288  1
  F  F84  1  0.010935  0.613094  0.397773  1
  F  F85  1  0.758014  0.099886  0.653654  1
  F  F86  1  0.862006  0.724013  0.858847  1
  F  F87  1  0.835783  0.276258  0.250000  1
  F  F88  1  0.989065  0.386906  0.602227  1
  F  F89  1  0.487417  0.382298  0.097288  1
  F  F90  1  0.164217  0.723742  0.750000  1
  F  F91  1  0.110266  0.220533  0.847696  1
  F  F92  1  0.696427  0.796975  0.000775  1
  F  F93  1  0.105118  0.617702  0.902712  1
  F  F94  1  0.249275  0.097316  0.345604  1
  F  F95  1  0.397643  0.795284  0.606900  1
