# generated using pymatgen
data_CeYTh(RhPb)3
_symmetry_space_group_name_H-M   'P 1'
_cell_length_a   7.71887105
_cell_length_b   7.75306261
_cell_length_c   3.97315100
_cell_angle_alpha   90.00000000
_cell_angle_beta   90.00000000
_cell_angle_gamma   119.29448738
_symmetry_Int_Tables_number   1
_chemical_formula_structural   CeYTh(RhPb)3
_chemical_formula_sum   'Ce1 Y1 Th1 Rh3 Pb3'
_cell_volume   207.36553568
_cell_formula_units_Z   1
loop_
 _symmetry_equiv_pos_site_id
 _symmetry_equiv_pos_as_xyz
  1  'x, y, z'
loop_
 _atom_site_type_symbol
 _atom_site_label
 _atom_site_symmetry_multiplicity
 _atom_site_fract_x
 _atom_site_fract_y
 _atom_site_fract_z
 _atom_site_occupancy
  Ce  Ce0  1  0.000042  0.591647  0.500000  1
  Y  Y1  1  0.595666  0.999717  0.500000  1
  Th  Th2  1  0.410370  0.409946  0.500000  1
  Rh  Rh3  1  0.009568  0.006795  0.500000  1
  Rh  Rh4  1  0.660380  0.342870  0.000000  1
  Rh  Rh5  1  0.324484  0.648310  0.000000  1
  Pb  Pb6  1  0.746268  0.752319  0.000000  1
  Pb  Pb7  1  0.265499  0.992988  0.000000  1
  Pb  Pb8  1  0.987725  0.255410  0.000000  1
