# generated using pymatgen
data_ZnBr13
_symmetry_space_group_name_H-M   'P 1'
_cell_length_a   11.95063789
_cell_length_b   11.26017529
_cell_length_c   15.90237934
_cell_angle_alpha   133.08649480
_cell_angle_beta   70.69631170
_cell_angle_gamma   113.17678291
_symmetry_Int_Tables_number   1
_chemical_formula_structural   ZnBr13
_chemical_formula_sum   'Zn2 Br26'
_cell_volume   1430.62233354
_cell_formula_units_Z   2
loop_
 _symmetry_equiv_pos_site_id
 _symmetry_equiv_pos_as_xyz
  1  'x, y, z'
loop_
 _atom_site_type_symbol
 _atom_site_label
 _atom_site_symmetry_multiplicity
 _atom_site_fract_x
 _atom_site_fract_y
 _atom_site_fract_z
 _atom_site_occupancy
  Zn  Zn0  1  0.377114  0.868018  0.992822  1
  Zn  Zn1  1  0.622886  0.131982  0.007178  1
  Br  Br2  1  0.404229  0.630720  0.957621  1
  Br  Br3  1  0.595771  0.369280  0.042379  1
  Br  Br4  1  0.622302  0.754256  0.372550  1
  Br  Br5  1  0.377698  0.245744  0.627450  1
  Br  Br6  1  0.749846  0.739666  0.054622  1
  Br  Br7  1  0.250154  0.260334  0.945378  1
  Br  Br8  1  0.741446  0.021607  0.209943  1
  Br  Br9  1  0.258554  0.978393  0.790057  1
  Br  Br10  1  0.481337  0.133912  0.162008  1
  Br  Br11  1  0.518663  0.866088  0.837992  1
  Br  Br12  1  0.181541  0.594827  0.646000  1
  Br  Br13  1  0.818459  0.405173  0.354000  1
  Br  Br14  1  0.165193  0.835942  0.995884  1
  Br  Br15  1  0.834807  0.164058  0.004116  1
  Br  Br16  1  0.123108  0.104122  0.217193  1
  Br  Br17  1  0.876892  0.895878  0.782807  1
  Br  Br18  1  0.265747  0.957050  0.467616  1
  Br  Br19  1  0.734253  0.042950  0.532384  1
  Br  Br20  1  0.278017  0.426209  0.637356  1
  Br  Br21  1  0.721983  0.573791  0.362644  1
  Br  Br22  1  0.850649  0.336117  0.697914  1
  Br  Br23  1  0.149351  0.663883  0.302086  1
  Br  Br24  1  0.938043  0.663273  0.587548  1
  Br  Br25  1  0.061957  0.336727  0.412452  1
  Br  Br26  1  0.272259  0.644144  0.128674  1
  Br  Br27  1  0.727741  0.355856  0.871326  1
