# generated using pymatgen
data_Er3Sc5Cr2(B12Rh)2
_symmetry_space_group_name_H-M   'P 1'
_cell_length_a   3.47836500
_cell_length_b   8.94084326
_cell_length_c   11.30592600
_cell_angle_alpha   89.85885786
_cell_angle_beta   90.00000000
_cell_angle_gamma   90.00000000
_symmetry_Int_Tables_number   1
_chemical_formula_structural   Er3Sc5Cr2(B12Rh)2
_chemical_formula_sum   'Er3 Sc5 Cr2 B24 Rh2'
_cell_volume   351.60776258
_cell_formula_units_Z   1
loop_
 _symmetry_equiv_pos_site_id
 _symmetry_equiv_pos_as_xyz
  1  'x, y, z'
loop_
 _atom_site_type_symbol
 _atom_site_label
 _atom_site_symmetry_multiplicity
 _atom_site_fract_x
 _atom_site_fract_y
 _atom_site_fract_z
 _atom_site_occupancy
  Er  Er0  1  0.000000  0.816581  0.088312  1
  Er  Er1  1  0.000000  0.183470  0.911310  1
  Er  Er2  1  0.000000  0.324589  0.417237  1
  Sc  Sc3  1  0.000000  0.674278  0.581398  1
  Sc  Sc4  1  0.000000  0.448331  0.128731  1
  Sc  Sc5  1  0.000000  0.552586  0.870544  1
  Sc  Sc6  1  0.000000  0.939479  0.375139  1
  Sc  Sc7  1  0.000000  0.058886  0.625905  1
  Cr  Cr8  1  0.000000  0.640627  0.319240  1
  Cr  Cr9  1  0.000000  0.361128  0.681685  1
  B  B10  1  0.500000  0.054306  0.066158  1
  B  B11  1  0.500000  0.945302  0.933421  1
  B  B12  1  0.500000  0.554720  0.434390  1
  B  B13  1  0.500000  0.448270  0.567410  1
  B  B14  1  0.500000  0.254641  0.080030  1
  B  B15  1  0.500000  0.745488  0.919362  1
  B  B16  1  0.500000  0.750596  0.421180  1
  B  B17  1  0.500000  0.249332  0.581414  1
  B  B18  1  0.500000  0.294726  0.235997  1
  B  B19  1  0.500000  0.705004  0.762384  1
  B  B20  1  0.500000  0.793575  0.266401  1
  B  B21  1  0.500000  0.206596  0.734336  1
  B  B22  1  0.500000  0.128697  0.318812  1
  B  B23  1  0.500000  0.869172  0.680294  1
  B  B24  1  0.500000  0.629494  0.184033  1
  B  B25  1  0.500000  0.371428  0.815871  1
  B  B26  1  0.500000  0.481711  0.287309  1
  B  B27  1  0.500000  0.520553  0.711926  1
  B  B28  1  0.500000  0.979867  0.215013  1
  B  B29  1  0.500000  0.019370  0.784906  1
  B  B30  1  0.500000  0.099782  0.472887  1
  B  B31  1  0.500000  0.897495  0.528031  1
  B  B32  1  0.500000  0.599798  0.026523  1
  B  B33  1  0.500000  0.400678  0.973092  1
  Rh  Rh34  1  0.000000  0.139615  0.180758  1
  Rh  Rh35  1  0.000000  0.859831  0.818560  1
