# generated using pymatgen
data_Tm4Th(CoB3)2
_symmetry_space_group_name_H-M   'P 1'
_cell_length_a   5.43251697
_cell_length_b   5.43251679
_cell_length_c   8.03431421
_cell_angle_alpha   70.23993085
_cell_angle_beta   70.23992116
_cell_angle_gamma   59.99999217
_symmetry_Int_Tables_number   1
_chemical_formula_structural   Tm4Th(CoB3)2
_chemical_formula_sum   'Tm4 Th1 Co2 B6'
_cell_volume   189.05022702
_cell_formula_units_Z   1
loop_
 _symmetry_equiv_pos_site_id
 _symmetry_equiv_pos_as_xyz
  1  'x, y, z'
loop_
 _atom_site_type_symbol
 _atom_site_label
 _atom_site_symmetry_multiplicity
 _atom_site_fract_x
 _atom_site_fract_y
 _atom_site_fract_z
 _atom_site_occupancy
  Tm  Tm0  1  0.253201  0.253201  0.240399  1
  Tm  Tm1  1  0.746799  0.746799  0.759601  1
  Tm  Tm2  1  0.414259  0.414259  0.757223  1
  Tm  Tm3  1  0.585741  0.585741  0.242777  1
  Th  Th4  1  0.000000  0.000000  0.000000  1
  Co  Co5  1  0.114671  0.114671  0.655986  1
  Co  Co6  1  0.885329  0.885329  0.344014  1
  B  B7  1  0.168539  0.831461  0.500000  1
  B  B8  1  0.831461  0.500000  0.500000  1
  B  B9  1  0.500000  0.168539  0.500000  1
  B  B10  1  0.168539  0.500000  0.500000  1
  B  B11  1  0.500000  0.831461  0.500000  1
  B  B12  1  0.831461  0.168539  0.500000  1
