# generated using pymatgen
data_Sm3IrBr3
_symmetry_space_group_name_H-M   'P 1'
_cell_length_a   10.36101547
_cell_length_b   10.36101470
_cell_length_c   10.36101500
_cell_angle_alpha   109.47122317
_cell_angle_beta   109.47122168
_cell_angle_gamma   109.47121833
_symmetry_Int_Tables_number   1
_chemical_formula_structural   Sm3IrBr3
_chemical_formula_sum   'Sm12 Ir4 Br12'
_cell_volume   856.21930753
_cell_formula_units_Z   4
loop_
 _symmetry_equiv_pos_site_id
 _symmetry_equiv_pos_as_xyz
  1  'x, y, z'
loop_
 _atom_site_type_symbol
 _atom_site_label
 _atom_site_symmetry_multiplicity
 _atom_site_fract_x
 _atom_site_fract_y
 _atom_site_fract_z
 _atom_site_occupancy
  Sm  Sm0  1  0.467605  0.483803  0.233803  1
  Sm  Sm1  1  0.750000  0.233803  0.266197  1
  Sm  Sm2  1  0.750000  0.016197  0.483803  1
  Sm  Sm3  1  0.233803  0.467605  0.483803  1
  Sm  Sm4  1  0.266197  0.750000  0.233803  1
  Sm  Sm5  1  0.032395  0.266197  0.016197  1
  Sm  Sm6  1  0.016197  0.032395  0.266197  1
  Sm  Sm7  1  0.483803  0.750000  0.016197  1
  Sm  Sm8  1  0.483803  0.233803  0.467605  1
  Sm  Sm9  1  0.016197  0.483803  0.750000  1
  Sm  Sm10  1  0.266197  0.016197  0.032395  1
  Sm  Sm11  1  0.233803  0.266197  0.750000  1
  Ir  Ir12  1  0.250000  0.250000  0.250000  1
  Ir  Ir13  1  0.500000  0.000000  0.250000  1
  Ir  Ir14  1  0.000000  0.250000  0.500000  1
  Ir  Ir15  1  0.250000  0.500000  0.000000  1
  Br  Br16  1  0.250000  0.755227  0.744773  1
  Br  Br17  1  0.510454  0.505227  0.755227  1
  Br  Br18  1  0.989546  0.744773  0.994773  1
  Br  Br19  1  0.744773  0.250000  0.755227  1
  Br  Br20  1  0.994773  0.989546  0.744773  1
  Br  Br21  1  0.250000  0.994773  0.505227  1
  Br  Br22  1  0.755227  0.510454  0.505227  1
  Br  Br23  1  0.505227  0.250000  0.994773  1
  Br  Br24  1  0.755227  0.744773  0.250000  1
  Br  Br25  1  0.744773  0.994773  0.989546  1
  Br  Br26  1  0.994773  0.505227  0.250000  1
  Br  Br27  1  0.505227  0.755227  0.510454  1
