# generated using pymatgen
data_In2Cu2P6SN12
_symmetry_space_group_name_H-M   'P 1'
_cell_length_a   7.23743560
_cell_length_b   7.23743612
_cell_length_c   7.22666946
_cell_angle_alpha   109.53958201
_cell_angle_beta   109.53958459
_cell_angle_gamma   109.39500879
_symmetry_Int_Tables_number   1
_chemical_formula_structural   In2Cu2P6SN12
_chemical_formula_sum   'In2 Cu2 P6 S1 N12'
_cell_volume   291.17916886
_cell_formula_units_Z   1
loop_
 _symmetry_equiv_pos_site_id
 _symmetry_equiv_pos_as_xyz
  1  'x, y, z'
loop_
 _atom_site_type_symbol
 _atom_site_label
 _atom_site_symmetry_multiplicity
 _atom_site_fract_x
 _atom_site_fract_y
 _atom_site_fract_z
 _atom_site_occupancy
  In  In0  1  0.996917  0.996917  0.320661  1
  In  In1  1  0.676256  0.676256  0.679338  1
  Cu  Cu2  1  0.323449  0.000655  0.000000  1
  Cu  Cu3  1  0.000655  0.323449  0.000000  1
  P  P4  1  0.748619  0.492913  0.244883  1
  P  P5  1  0.492913  0.748619  0.244883  1
  P  P6  1  0.744944  0.244945  0.500000  1
  P  P7  1  0.244945  0.744944  0.500000  1
  P  P8  1  0.503738  0.248030  0.755116  1
  P  P9  1  0.248030  0.503738  0.755116  1
  S  S10  1  0.028289  0.028289  0.000000  1
  N  N11  1  0.554243  0.270793  0.000000  1
  N  N12  1  0.270793  0.554243  0.000000  1
  N  N13  1  0.560350  0.998512  0.271779  1
  N  N14  1  0.998512  0.560350  0.271779  1
  N  N15  1  0.721428  0.721428  0.286204  1
  N  N16  1  0.719218  0.441388  0.442909  1
  N  N17  1  0.441388  0.719218  0.442909  1
  N  N18  1  0.276310  0.998479  0.557091  1
  N  N19  1  0.998479  0.276310  0.557091  1
  N  N20  1  0.435223  0.435223  0.713795  1
  N  N21  1  0.726732  0.288571  0.728222  1
  N  N22  1  0.288571  0.726732  0.728222  1
