# generated using pymatgen
data_Nd5Pa3(ZnRh)8
_symmetry_space_group_name_H-M   'P 1'
_cell_length_a   3.85957400
_cell_length_b   7.57800177
_cell_length_c   16.47802881
_cell_angle_alpha   90.57856985
_cell_angle_beta   90.00000000
_cell_angle_gamma   90.00000000
_symmetry_Int_Tables_number   1
_chemical_formula_structural   Nd5Pa3(ZnRh)8
_chemical_formula_sum   'Nd5 Pa3 Zn8 Rh8'
_cell_volume   481.92248545
_cell_formula_units_Z   1
loop_
 _symmetry_equiv_pos_site_id
 _symmetry_equiv_pos_as_xyz
  1  'x, y, z'
loop_
 _atom_site_type_symbol
 _atom_site_label
 _atom_site_symmetry_multiplicity
 _atom_site_fract_x
 _atom_site_fract_y
 _atom_site_fract_z
 _atom_site_occupancy
  Nd  Nd0  1  0.750000  0.942280  0.287332  1
  Nd  Nd1  1  0.750000  0.832413  0.062035  1
  Nd  Nd2  1  0.750000  0.450588  0.214491  1
  Nd  Nd3  1  0.250000  0.055446  0.712985  1
  Nd  Nd4  1  0.250000  0.550883  0.785517  1
  Pa  Pa5  1  0.250000  0.168402  0.939554  1
  Pa  Pa6  1  0.250000  0.673657  0.561241  1
  Pa  Pa7  1  0.750000  0.327675  0.439390  1
  Zn  Zn8  1  0.750000  0.010393  0.559966  1
  Zn  Zn9  1  0.250000  0.616905  0.347050  1
  Zn  Zn10  1  0.750000  0.382798  0.653949  1
  Zn  Zn11  1  0.250000  0.501971  0.057668  1
  Zn  Zn12  1  0.750000  0.510941  0.939286  1
  Zn  Zn13  1  0.250000  0.990215  0.440870  1
  Zn  Zn14  1  0.250000  0.117327  0.153507  1
  Zn  Zn15  1  0.750000  0.883056  0.842673  1
  Rh  Rh16  1  0.750000  0.726415  0.448500  1
  Rh  Rh17  1  0.250000  0.254307  0.329074  1
  Rh  Rh18  1  0.750000  0.238633  0.829017  1
  Rh  Rh19  1  0.750000  0.742650  0.670517  1
  Rh  Rh20  1  0.250000  0.273448  0.552753  1
  Rh  Rh21  1  0.250000  0.745013  0.187356  1
  Rh  Rh22  1  0.750000  0.240583  0.052298  1
  Rh  Rh23  1  0.250000  0.764002  0.932970  1
