# generated using pymatgen
data_VFe14Ge
_symmetry_space_group_name_H-M   'P 1'
_cell_length_a   4.04575339
_cell_length_b   4.04575431
_cell_length_c   13.40953290
_cell_angle_alpha   90.00000146
_cell_angle_beta   81.32359633
_cell_angle_gamma   119.99999838
_symmetry_Int_Tables_number   1
_chemical_formula_structural   VFe14Ge
_chemical_formula_sum   'V1 Fe14 Ge1'
_cell_volume   187.17696109
_cell_formula_units_Z   1
loop_
 _symmetry_equiv_pos_site_id
 _symmetry_equiv_pos_as_xyz
  1  'x, y, z'
loop_
 _atom_site_type_symbol
 _atom_site_label
 _atom_site_symmetry_multiplicity
 _atom_site_fract_x
 _atom_site_fract_y
 _atom_site_fract_z
 _atom_site_occupancy
  V  V0  1  0.875000  0.937500  0.187500  1
  Fe  Fe1  1  0.002012  0.501006  0.496982  1
  Fe  Fe2  1  0.497187  0.748593  0.754220  1
  Fe  Fe3  1  0.000224  0.000113  0.999663  1
  Fe  Fe4  1  0.499189  0.249595  0.251217  1
  Fe  Fe5  1  0.252813  0.126407  0.620780  1
  Fe  Fe6  1  0.747988  0.373994  0.878018  1
  Fe  Fe7  1  0.250811  0.625405  0.123783  1
  Fe  Fe8  1  0.749776  0.874887  0.375337  1
  Fe  Fe9  1  0.374557  0.187279  0.438163  1
  Fe  Fe10  1  0.375443  0.687721  0.936837  1
  Fe  Fe11  1  0.624329  0.812165  0.563506  1
  Fe  Fe12  1  0.125671  0.062835  0.811494  1
  Fe  Fe13  1  0.626146  0.313073  0.060781  1
  Fe  Fe14  1  0.123854  0.561927  0.314219  1
  Ge  Ge15  1  0.875000  0.437500  0.687500  1
