# generated using pymatgen
data_Tb3Y7Cd3Tc
_symmetry_space_group_name_H-M   'P 1'
_cell_length_a   9.59384900
_cell_length_b   9.59384879
_cell_length_c   9.98577300
_cell_angle_alpha   90.00000000
_cell_angle_beta   90.00000000
_cell_angle_gamma   119.99999728
_symmetry_Int_Tables_number   1
_chemical_formula_structural   Tb3Y7Cd3Tc
_chemical_formula_sum   'Tb6 Y14 Cd6 Tc2'
_cell_volume   795.97253159
_cell_formula_units_Z   2
loop_
 _symmetry_equiv_pos_site_id
 _symmetry_equiv_pos_as_xyz
  1  'x, y, z'
loop_
 _atom_site_type_symbol
 _atom_site_label
 _atom_site_symmetry_multiplicity
 _atom_site_fract_x
 _atom_site_fract_y
 _atom_site_fract_z
 _atom_site_occupancy
  Tb  Tb0  1  0.209705  0.790295  0.440441  1
  Tb  Tb1  1  0.209705  0.419413  0.440441  1
  Tb  Tb2  1  0.580587  0.790295  0.440441  1
  Tb  Tb3  1  0.790295  0.209705  0.559559  1
  Tb  Tb4  1  0.790295  0.580587  0.559559  1
  Tb  Tb5  1  0.419413  0.209705  0.559559  1
  Y  Y6  1  0.000000  0.000000  0.500000  1
  Y  Y7  1  0.000000  0.000000  0.000000  1
  Y  Y8  1  0.790223  0.209777  0.941047  1
  Y  Y9  1  0.790223  0.580444  0.941047  1
  Y  Y10  1  0.419556  0.209777  0.941047  1
  Y  Y11  1  0.209777  0.790223  0.058953  1
  Y  Y12  1  0.209777  0.419556  0.058953  1
  Y  Y13  1  0.580444  0.790223  0.058953  1
  Y  Y14  1  0.540196  0.459804  0.249699  1
  Y  Y15  1  0.540196  0.080392  0.249699  1
  Y  Y16  1  0.919608  0.459804  0.249699  1
  Y  Y17  1  0.459804  0.540196  0.750301  1
  Y  Y18  1  0.459804  0.919608  0.750301  1
  Y  Y19  1  0.080392  0.540196  0.750301  1
  Cd  Cd20  1  0.885336  0.114664  0.249367  1
  Cd  Cd21  1  0.885336  0.770673  0.249367  1
  Cd  Cd22  1  0.229327  0.114664  0.249367  1
  Cd  Cd23  1  0.114664  0.885336  0.750633  1
  Cd  Cd24  1  0.114664  0.229327  0.750633  1
  Cd  Cd25  1  0.770673  0.885336  0.750633  1
  Tc  Tc26  1  0.333333  0.666667  0.253037  1
  Tc  Tc27  1  0.666667  0.333333  0.746963  1
