# generated using pymatgen
data_Th10Zn2(SnBi)3
_symmetry_space_group_name_H-M   'P 1'
_cell_length_a   9.64316700
_cell_length_b   9.64316673
_cell_length_c   6.55789100
_cell_angle_alpha   90.00000000
_cell_angle_beta   90.00000000
_cell_angle_gamma   120.00000434
_symmetry_Int_Tables_number   1
_chemical_formula_structural   Th10Zn2(SnBi)3
_chemical_formula_sum   'Th10 Zn2 Sn3 Bi3'
_cell_volume   528.12189203
_cell_formula_units_Z   1
loop_
 _symmetry_equiv_pos_site_id
 _symmetry_equiv_pos_as_xyz
  1  'x, y, z'
loop_
 _atom_site_type_symbol
 _atom_site_label
 _atom_site_symmetry_multiplicity
 _atom_site_fract_x
 _atom_site_fract_y
 _atom_site_fract_z
 _atom_site_occupancy
  Th  Th0  1  0.666667  0.333333  0.004073  1
  Th  Th1  1  0.333333  0.666667  0.004073  1
  Th  Th2  1  0.333333  0.666667  0.495927  1
  Th  Th3  1  0.666667  0.333333  0.495927  1
  Th  Th4  1  0.736909  0.736909  0.750000  1
  Th  Th5  1  0.263091  0.000000  0.750000  1
  Th  Th6  1  0.000000  0.263091  0.750000  1
  Th  Th7  1  0.268596  0.268596  0.250000  1
  Th  Th8  1  0.731404  0.000000  0.250000  1
  Th  Th9  1  0.000000  0.731404  0.250000  1
  Zn  Zn10  1  0.000000  0.000000  0.008791  1
  Zn  Zn11  1  0.000000  0.000000  0.491209  1
  Sn  Sn12  1  0.620117  0.620117  0.250000  1
  Sn  Sn13  1  0.379883  0.000000  0.250000  1
  Sn  Sn14  1  0.000000  0.379883  0.250000  1
  Bi  Bi15  1  0.384210  0.384210  0.750000  1
  Bi  Bi16  1  0.615790  0.000000  0.750000  1
  Bi  Bi17  1  0.000000  0.615790  0.750000  1
