# generated using pymatgen
data_Li2ErTm7(Sc5Si8)2
_symmetry_space_group_name_H-M   'P 1'
_cell_length_a   6.93963002
_cell_length_b   7.34507622
_cell_length_c   13.91265943
_cell_angle_alpha   90.02803820
_cell_angle_beta   90.00457365
_cell_angle_gamma   89.94405027
_symmetry_Int_Tables_number   1
_chemical_formula_structural   Li2ErTm7(Sc5Si8)2
_chemical_formula_sum   'Li2 Er1 Tm7 Sc10 Si16'
_cell_volume   709.15720186
_cell_formula_units_Z   1
loop_
 _symmetry_equiv_pos_site_id
 _symmetry_equiv_pos_as_xyz
  1  'x, y, z'
loop_
 _atom_site_type_symbol
 _atom_site_label
 _atom_site_symmetry_multiplicity
 _atom_site_fract_x
 _atom_site_fract_y
 _atom_site_fract_z
 _atom_site_occupancy
  Li  Li0  1  0.159888  0.506553  0.749995  1
  Li  Li1  1  0.840087  0.493497  0.250024  1
  Er  Er2  1  0.009922  0.184485  0.097934  1
  Tm  Tm3  1  0.989846  0.815286  0.901922  1
  Tm  Tm4  1  0.485353  0.674912  0.902910  1
  Tm  Tm5  1  0.989853  0.815317  0.598043  1
  Tm  Tm6  1  0.514672  0.325127  0.097061  1
  Tm  Tm7  1  0.010117  0.184655  0.401929  1
  Tm  Tm8  1  0.514685  0.325067  0.402943  1
  Tm  Tm9  1  0.485325  0.674922  0.597073  1
  Sc  Sc10  1  0.341383  0.003998  0.250047  1
  Sc  Sc11  1  0.658742  0.995936  0.750003  1
  Sc  Sc12  1  0.326333  0.181222  0.626268  1
  Sc  Sc13  1  0.673680  0.818764  0.373762  1
  Sc  Sc14  1  0.165829  0.674824  0.373106  1
  Sc  Sc15  1  0.673634  0.818697  0.126245  1
  Sc  Sc16  1  0.834157  0.325154  0.626913  1
  Sc  Sc17  1  0.326379  0.181209  0.873705  1
  Sc  Sc18  1  0.834090  0.325230  0.873068  1
  Sc  Sc19  1  0.165856  0.674824  0.126901  1
  Si  Si20  1  0.029206  0.099870  0.749981  1
  Si  Si21  1  0.970722  0.899898  0.250099  1
  Si  Si22  1  0.466591  0.610832  0.250020  1
  Si  Si23  1  0.533365  0.389181  0.749998  1
  Si  Si24  1  0.287085  0.876426  0.750010  1
  Si  Si25  1  0.712708  0.123487  0.250137  1
  Si  Si26  1  0.220401  0.371199  0.250123  1
  Si  Si27  1  0.779850  0.629038  0.749995  1
  Si  Si28  1  0.161194  0.461588  0.533425  1
  Si  Si29  1  0.838823  0.538422  0.466590  1
  Si  Si30  1  0.341982  0.967103  0.461249  1
  Si  Si31  1  0.838767  0.538691  0.033340  1
  Si  Si32  1  0.658002  0.032912  0.538764  1
  Si  Si33  1  0.161264  0.461861  0.966499  1
  Si  Si34  1  0.657896  0.032876  0.961226  1
  Si  Si35  1  0.342314  0.966938  0.038694  1
