# generated using pymatgen
data_Rb8Hf3PaBr24
_symmetry_space_group_name_H-M   'P 1'
_cell_length_a   13.61154778
_cell_length_b   13.61154758
_cell_length_c   13.61154767
_cell_angle_alpha   132.32419402
_cell_angle_beta   132.32419560
_cell_angle_gamma   69.71747505
_symmetry_Int_Tables_number   1
_chemical_formula_structural   Rb8Hf3PaBr24
_chemical_formula_sum   'Rb8 Hf3 Pa1 Br24'
_cell_volume   1352.01344682
_cell_formula_units_Z   1
loop_
 _symmetry_equiv_pos_site_id
 _symmetry_equiv_pos_as_xyz
  1  'x, y, z'
loop_
 _atom_site_type_symbol
 _atom_site_label
 _atom_site_symmetry_multiplicity
 _atom_site_fract_x
 _atom_site_fract_y
 _atom_site_fract_z
 _atom_site_occupancy
  Rb  Rb0  1  0.375234  0.371557  0.497714  1
  Rb  Rb1  1  0.122480  0.624766  0.996322  1
  Rb  Rb2  1  0.873842  0.877520  0.502286  1
  Rb  Rb3  1  0.125559  0.131013  0.502261  1
  Rb  Rb4  1  0.376703  0.874441  0.005454  1
  Rb  Rb5  1  0.628752  0.623297  0.497739  1
  Rb  Rb6  1  0.628443  0.126158  0.003678  1
  Rb  Rb7  1  0.868987  0.371248  0.994546  1
  Hf  Hf8  1  0.500000  0.500000  0.000000  1
  Hf  Hf9  1  0.750000  0.250000  0.500000  1
  Hf  Hf10  1  0.000000  0.000000  0.000000  1
  Pa  Pa11  1  0.250000  0.750000  0.500000  1
  Br  Br12  1  0.998163  0.785155  0.282685  1
  Br  Br13  1  0.015602  0.237290  0.254844  1
  Br  Br14  1  0.284520  0.001837  0.786991  1
  Br  Br15  1  0.987037  0.223361  0.710268  1
  Br  Br16  1  0.124451  0.624451  0.500000  1
  Br  Br17  1  0.261600  0.522951  0.786147  1
  Br  Br18  1  0.502471  0.715480  0.717315  1
  Br  Br19  1  0.513093  0.276768  0.289732  1
  Br  Br20  1  0.477049  0.263196  0.738651  1
  Br  Br21  1  0.617609  0.617609  0.000000  1
  Br  Br22  1  0.524546  0.738400  0.261349  1
  Br  Br23  1  0.117614  0.117614  0.000000  1
  Br  Br24  1  0.882386  0.882386  0.000000  1
  Br  Br25  1  0.982446  0.760758  0.745156  1
  Br  Br26  1  0.762710  0.017554  0.778312  1
  Br  Br27  1  0.239242  0.984398  0.221688  1
  Br  Br28  1  0.736804  0.475454  0.213853  1
  Br  Br29  1  0.214845  0.497529  0.213009  1
  Br  Br30  1  0.375549  0.875549  0.500000  1
  Br  Br31  1  0.868020  0.368020  0.500000  1
  Br  Br32  1  0.382391  0.382391  0.000000  1
  Br  Br33  1  0.631980  0.131980  0.500000  1
  Br  Br34  1  0.776639  0.486907  0.763676  1
  Br  Br35  1  0.723232  0.012963  0.236324  1
