# generated using pymatgen
data_Tm5Sc3(P3Ir4)4
_symmetry_space_group_name_H-M   'P 1'
_cell_length_a   12.83380300
_cell_length_b   12.83380288
_cell_length_c   3.95002000
_cell_angle_alpha   90.00000000
_cell_angle_beta   90.00000000
_cell_angle_gamma   120.00000288
_symmetry_Int_Tables_number   1
_chemical_formula_structural   Tm5Sc3(P3Ir4)4
_chemical_formula_sum   'Tm5 Sc3 P12 Ir16'
_cell_volume   563.43088136
_cell_formula_units_Z   1
loop_
 _symmetry_equiv_pos_site_id
 _symmetry_equiv_pos_as_xyz
  1  'x, y, z'
loop_
 _atom_site_type_symbol
 _atom_site_label
 _atom_site_symmetry_multiplicity
 _atom_site_fract_x
 _atom_site_fract_y
 _atom_site_fract_z
 _atom_site_occupancy
  Tm  Tm0  1  0.333333  0.666667  0.500000  1
  Tm  Tm1  1  0.666667  0.333333  0.500000  1
  Tm  Tm2  1  0.000000  0.811869  0.000000  1
  Tm  Tm3  1  0.188131  0.188131  0.000000  1
  Tm  Tm4  1  0.811869  0.000000  0.000000  1
  Sc  Sc5  1  0.000000  0.444989  0.500000  1
  Sc  Sc6  1  0.555011  0.555011  0.500000  1
  Sc  Sc7  1  0.444989  0.000000  0.500000  1
  P  P8  1  0.000000  0.646231  0.500000  1
  P  P9  1  0.353769  0.353769  0.500000  1
  P  P10  1  0.646231  0.000000  0.500000  1
  P  P11  1  0.516348  0.686377  0.000000  1
  P  P12  1  0.313623  0.829971  0.000000  1
  P  P13  1  0.170029  0.483652  0.000000  1
  P  P14  1  0.483652  0.170029  0.000000  1
  P  P15  1  0.686377  0.516348  0.000000  1
  P  P16  1  0.829971  0.313623  0.000000  1
  P  P17  1  0.000000  0.176246  0.500000  1
  P  P18  1  0.823754  0.823754  0.500000  1
  P  P19  1  0.176246  0.000000  0.500000  1
  Ir  Ir20  1  0.509393  0.867163  0.000000  1
  Ir  Ir21  1  0.132837  0.642231  0.000000  1
  Ir  Ir22  1  0.357769  0.490607  0.000000  1
  Ir  Ir23  1  0.490607  0.357769  0.000000  1
  Ir  Ir24  1  0.867163  0.509393  0.000000  1
  Ir  Ir25  1  0.642231  0.132837  0.000000  1
  Ir  Ir26  1  0.000000  0.277556  0.000000  1
  Ir  Ir27  1  0.722444  0.722444  0.000000  1
  Ir  Ir28  1  0.277556  0.000000  0.000000  1
  Ir  Ir29  1  0.628369  0.807402  0.500000  1
  Ir  Ir30  1  0.192598  0.820967  0.500000  1
  Ir  Ir31  1  0.179033  0.371631  0.500000  1
  Ir  Ir32  1  0.371631  0.179033  0.500000  1
  Ir  Ir33  1  0.807402  0.628369  0.500000  1
  Ir  Ir34  1  0.820967  0.192598  0.500000  1
  Ir  Ir35  1  0.000000  0.000000  0.500000  1
