# generated using pymatgen
data_Hf18ZnMo8S
_symmetry_space_group_name_H-M   'P 1'
_cell_length_a   8.69793300
_cell_length_b   8.69793280
_cell_length_c   8.59331000
_cell_angle_alpha   90.00000000
_cell_angle_beta   90.00000000
_cell_angle_gamma   119.99999694
_symmetry_Int_Tables_number   1
_chemical_formula_structural   Hf18ZnMo8S
_chemical_formula_sum   'Hf18 Zn1 Mo8 S1'
_cell_volume   563.01923231
_cell_formula_units_Z   1
loop_
 _symmetry_equiv_pos_site_id
 _symmetry_equiv_pos_as_xyz
  1  'x, y, z'
loop_
 _atom_site_type_symbol
 _atom_site_label
 _atom_site_symmetry_multiplicity
 _atom_site_fract_x
 _atom_site_fract_y
 _atom_site_fract_z
 _atom_site_occupancy
  Hf  Hf0  1  0.195863  0.804137  0.450677  1
  Hf  Hf1  1  0.195863  0.391725  0.450677  1
  Hf  Hf2  1  0.608275  0.804137  0.450677  1
  Hf  Hf3  1  0.802638  0.197362  0.549347  1
  Hf  Hf4  1  0.802638  0.605276  0.549347  1
  Hf  Hf5  1  0.394724  0.197362  0.549347  1
  Hf  Hf6  1  0.802638  0.197362  0.950653  1
  Hf  Hf7  1  0.802638  0.605276  0.950653  1
  Hf  Hf8  1  0.394724  0.197362  0.950653  1
  Hf  Hf9  1  0.195863  0.804137  0.049323  1
  Hf  Hf10  1  0.195863  0.391725  0.049323  1
  Hf  Hf11  1  0.608275  0.804137  0.049323  1
  Hf  Hf12  1  0.541472  0.458528  0.250000  1
  Hf  Hf13  1  0.541472  0.082945  0.250000  1
  Hf  Hf14  1  0.917055  0.458528  0.250000  1
  Hf  Hf15  1  0.456773  0.543227  0.750000  1
  Hf  Hf16  1  0.456773  0.913545  0.750000  1
  Hf  Hf17  1  0.086455  0.543227  0.750000  1
  Zn  Zn18  1  0.333333  0.666667  0.250000  1
  Mo  Mo19  1  0.888764  0.111236  0.250000  1
  Mo  Mo20  1  0.888764  0.777527  0.250000  1
  Mo  Mo21  1  0.222473  0.111236  0.250000  1
  Mo  Mo22  1  0.110895  0.889105  0.750000  1
  Mo  Mo23  1  0.110895  0.221790  0.750000  1
  Mo  Mo24  1  0.778210  0.889105  0.750000  1
  Mo  Mo25  1  0.000000  0.000000  0.500534  1
  Mo  Mo26  1  0.000000  0.000000  0.999466  1
  S  S27  1  0.666667  0.333333  0.750000  1
