# generated using pymatgen
data_Tb12Th4Mg4RuRh3
_symmetry_space_group_name_H-M   'P 1'
_cell_length_a   9.85443391
_cell_length_b   9.85443429
_cell_length_c   9.85443490
_cell_angle_alpha   59.56804637
_cell_angle_beta   59.56804484
_cell_angle_gamma   59.56804539
_symmetry_Int_Tables_number   1
_chemical_formula_structural   Tb12Th4Mg4RuRh3
_chemical_formula_sum   'Tb12 Th4 Mg4 Ru1 Rh3'
_cell_volume   670.03018915
_cell_formula_units_Z   1
loop_
 _symmetry_equiv_pos_site_id
 _symmetry_equiv_pos_as_xyz
  1  'x, y, z'
loop_
 _atom_site_type_symbol
 _atom_site_label
 _atom_site_symmetry_multiplicity
 _atom_site_fract_x
 _atom_site_fract_y
 _atom_site_fract_z
 _atom_site_occupancy
  Tb  Tb0  1  0.813333  0.187410  0.187410  1
  Tb  Tb1  1  0.185406  0.813445  0.813445  1
  Tb  Tb2  1  0.187410  0.813333  0.187410  1
  Tb  Tb3  1  0.813445  0.185406  0.813445  1
  Tb  Tb4  1  0.187410  0.187410  0.813333  1
  Tb  Tb5  1  0.813445  0.813445  0.185406  1
  Tb  Tb6  1  0.934850  0.566189  0.566189  1
  Tb  Tb7  1  0.563736  0.934898  0.934898  1
  Tb  Tb8  1  0.566189  0.934850  0.566189  1
  Tb  Tb9  1  0.934898  0.563736  0.934898  1
  Tb  Tb10  1  0.566189  0.566189  0.934850  1
  Tb  Tb11  1  0.934898  0.934898  0.563736  1
  Th  Th12  1  0.347144  0.347144  0.347144  1
  Th  Th13  1  0.346092  0.346092  0.958707  1
  Th  Th14  1  0.346092  0.958707  0.346092  1
  Th  Th15  1  0.958707  0.346092  0.346092  1
  Mg  Mg16  1  0.579737  0.579737  0.579737  1
  Mg  Mg17  1  0.579006  0.579006  0.260097  1
  Mg  Mg18  1  0.579006  0.260097  0.579006  1
  Mg  Mg19  1  0.260097  0.579006  0.579006  1
  Ru  Ru20  1  0.145638  0.145638  0.145638  1
  Rh  Rh21  1  0.144914  0.144914  0.567443  1
  Rh  Rh22  1  0.144914  0.567443  0.144914  1
  Rh  Rh23  1  0.567443  0.144914  0.144914  1
