# generated using pymatgen
data_Mn21CrWC6
_symmetry_space_group_name_H-M   'P 1'
_cell_length_a   7.38055125
_cell_length_b   7.38004739
_cell_length_c   7.38027300
_cell_angle_alpha   59.99755887
_cell_angle_beta   60.00073168
_cell_angle_gamma   59.99758066
_symmetry_Int_Tables_number   1
_chemical_formula_structural   Mn21CrWC6
_chemical_formula_sum   'Mn21 Cr1 W1 C6'
_cell_volume   284.24434118
_cell_formula_units_Z   1
loop_
 _symmetry_equiv_pos_site_id
 _symmetry_equiv_pos_as_xyz
  1  'x, y, z'
loop_
 _atom_site_type_symbol
 _atom_site_label
 _atom_site_symmetry_multiplicity
 _atom_site_fract_x
 _atom_site_fract_y
 _atom_site_fract_z
 _atom_site_occupancy
  Mn  Mn0  1  0.614310  0.614293  0.157071  1
  Mn  Mn1  1  0.379868  0.379890  0.379773  1
  Mn  Mn2  1  0.662692  0.000238  0.336813  1
  Mn  Mn3  1  0.000234  0.000221  0.336848  1
  Mn  Mn4  1  0.337027  0.000169  0.662595  1
  Mn  Mn5  1  0.336914  0.000210  0.000280  1
  Mn  Mn6  1  0.000186  0.336919  0.000247  1
  Mn  Mn7  1  0.662625  0.000249  0.000301  1
  Mn  Mn8  1  0.000148  0.337034  0.662645  1
  Mn  Mn9  1  0.336953  0.662580  0.000247  1
  Mn  Mn10  1  0.614316  0.157108  0.614264  1
  Mn  Mn11  1  0.000223  0.662631  0.000263  1
  Mn  Mn12  1  0.614327  0.614304  0.614288  1
  Mn  Mn13  1  0.157126  0.614298  0.614258  1
  Mn  Mn14  1  0.999946  0.000012  0.000117  1
  Mn  Mn15  1  0.000206  0.000189  0.662629  1
  Mn  Mn16  1  0.379922  0.860371  0.379842  1
  Mn  Mn17  1  0.860370  0.379931  0.379843  1
  Mn  Mn18  1  0.662623  0.336902  0.000255  1
  Mn  Mn19  1  0.000212  0.662697  0.336867  1
  Mn  Mn20  1  0.379856  0.379868  0.860500  1
  Cr  Cr21  1  0.249871  0.249981  0.250087  1
  W  W22  1  0.750020  0.749907  0.749988  1
  C  C23  1  0.274268  0.725728  0.274242  1
  C  C24  1  0.274245  0.274272  0.725742  1
  C  C25  1  0.274325  0.725692  0.725726  1
  C  C26  1  0.725742  0.274266  0.274209  1
  C  C27  1  0.725727  0.725730  0.274293  1
  C  C28  1  0.725721  0.274306  0.725766  1
