# generated using pymatgen
data_Ho10Tl5In3NiAu3
_symmetry_space_group_name_H-M   'P 1'
_cell_length_a   8.20724337
_cell_length_b   18.42412865
_cell_length_c   3.64211900
_cell_angle_alpha   90.00000000
_cell_angle_beta   90.00000000
_cell_angle_gamma   89.84366544
_symmetry_Int_Tables_number   1
_chemical_formula_structural   Ho10Tl5In3NiAu3
_chemical_formula_sum   'Ho10 Tl5 In3 Ni1 Au3'
_cell_volume   550.72752648
_cell_formula_units_Z   1
loop_
 _symmetry_equiv_pos_site_id
 _symmetry_equiv_pos_as_xyz
  1  'x, y, z'
loop_
 _atom_site_type_symbol
 _atom_site_label
 _atom_site_symmetry_multiplicity
 _atom_site_fract_x
 _atom_site_fract_y
 _atom_site_fract_z
 _atom_site_occupancy
  Ho  Ho0  1  0.499220  0.496352  0.000000  1
  Ho  Ho1  1  0.001099  0.002009  0.000000  1
  Ho  Ho2  1  0.762975  0.283116  0.000000  1
  Ho  Ho3  1  0.258419  0.715614  0.000000  1
  Ho  Ho4  1  0.758409  0.784218  0.000000  1
  Ho  Ho5  1  0.227647  0.223200  0.000000  1
  Ho  Ho6  1  0.620418  0.084276  0.000000  1
  Ho  Ho7  1  0.378158  0.920411  0.000000  1
  Ho  Ho8  1  0.879938  0.579303  0.000000  1
  Ho  Ho9  1  0.114234  0.409418  0.000000  1
  Tl  Tl10  1  0.712301  0.936537  0.500000  1
  Tl  Tl11  1  0.289249  0.068901  0.500000  1
  Tl  Tl12  1  0.792723  0.431049  0.500000  1
  Tl  Tl13  1  0.205905  0.559993  0.500000  1
  Tl  Tl14  1  0.580713  0.644072  0.500000  1
  In  In15  1  0.416744  0.351503  0.500000  1
  In  In16  1  0.923449  0.151497  0.500000  1
  In  In17  1  0.081214  0.853545  0.500000  1
  Ni  Ni18  1  0.032367  0.302208  0.500000  1
  Au  Au19  1  0.533569  0.201633  0.500000  1
  Au  Au20  1  0.463246  0.803330  0.500000  1
  Au  Au21  1  0.968002  0.697816  0.500000  1
