# generated using pymatgen
data_Hf3Mn4Si4W
_symmetry_space_group_name_H-M   'P 1'
_cell_length_a   3.57863900
_cell_length_b   6.49424660
_cell_length_c   7.57759898
_cell_angle_alpha   90.52030032
_cell_angle_beta   90.00000000
_cell_angle_gamma   90.00000000
_symmetry_Int_Tables_number   1
_chemical_formula_structural   Hf3Mn4Si4W
_chemical_formula_sum   'Hf3 Mn4 Si4 W1'
_cell_volume   176.10041412
_cell_formula_units_Z   1
loop_
 _symmetry_equiv_pos_site_id
 _symmetry_equiv_pos_as_xyz
  1  'x, y, z'
loop_
 _atom_site_type_symbol
 _atom_site_label
 _atom_site_symmetry_multiplicity
 _atom_site_fract_x
 _atom_site_fract_y
 _atom_site_fract_z
 _atom_site_occupancy
  Hf  Hf0  1  0.250000  0.469414  0.179473  1
  Hf  Hf1  1  0.750000  0.030034  0.671744  1
  Hf  Hf2  1  0.750000  0.536629  0.825172  1
  Mn  Mn3  1  0.250000  0.359701  0.561935  1
  Mn  Mn4  1  0.250000  0.864871  0.938180  1
  Mn  Mn5  1  0.750000  0.633739  0.434773  1
  Mn  Mn6  1  0.750000  0.137284  0.064111  1
  Si  Si7  1  0.250000  0.731661  0.618252  1
  Si  Si8  1  0.250000  0.232411  0.874223  1
  Si  Si9  1  0.750000  0.256785  0.371085  1
  Si  Si10  1  0.750000  0.778549  0.133862  1
  W  W11  1  0.250000  0.968923  0.327189  1
