# generated using pymatgen
data_Tb5Sm2Ho3(In2Pd)4
_symmetry_space_group_name_H-M   'P 1'
_cell_length_a   3.64368900
_cell_length_b   8.19804121
_cell_length_c   18.38148346
_cell_angle_alpha   89.97434629
_cell_angle_beta   90.00000000
_cell_angle_gamma   90.00000000
_symmetry_Int_Tables_number   1
_chemical_formula_structural   Tb5Sm2Ho3(In2Pd)4
_chemical_formula_sum   'Tb5 Sm2 Ho3 In8 Pd4'
_cell_volume   549.07530647
_cell_formula_units_Z   1
loop_
 _symmetry_equiv_pos_site_id
 _symmetry_equiv_pos_as_xyz
  1  'x, y, z'
loop_
 _atom_site_type_symbol
 _atom_site_label
 _atom_site_symmetry_multiplicity
 _atom_site_fract_x
 _atom_site_fract_y
 _atom_site_fract_z
 _atom_site_occupancy
  Tb  Tb0  1  0.000000  0.739471  0.280945  1
  Tb  Tb1  1  0.000000  0.260630  0.719134  1
  Tb  Tb2  1  0.000000  0.760710  0.780850  1
  Tb  Tb3  1  0.000000  0.239200  0.219302  1
  Tb  Tb4  1  0.000000  0.618416  0.083069  1
  Sm  Sm5  1  0.000000  0.500055  0.500023  1
  Sm  Sm6  1  0.000000  0.000031  0.999967  1
  Ho  Ho7  1  0.000000  0.381972  0.916190  1
  Ho  Ho8  1  0.000000  0.882111  0.583755  1
  Ho  Ho9  1  0.000000  0.117934  0.416328  1
  In  In10  1  0.500000  0.705655  0.931183  1
  In  In11  1  0.500000  0.293839  0.068626  1
  In  In12  1  0.500000  0.794849  0.431485  1
  In  In13  1  0.500000  0.205210  0.568524  1
  In  In14  1  0.500000  0.581971  0.651257  1
  In  In15  1  0.500000  0.418013  0.348783  1
  In  In16  1  0.500000  0.918488  0.151341  1
  In  In17  1  0.500000  0.081917  0.848750  1
  Pd  Pd18  1  0.500000  0.523360  0.195952  1
  Pd  Pd19  1  0.500000  0.476126  0.804529  1
  Pd  Pd20  1  0.500000  0.976220  0.695427  1
  Pd  Pd21  1  0.500000  0.023822  0.304581  1
