# generated using pymatgen
data_Nb12AlSi3(IrN)4
_symmetry_space_group_name_H-M   'P 1'
_cell_length_a   6.99909520
_cell_length_b   6.99909520
_cell_length_c   6.99909520
_cell_angle_alpha   89.95247763
_cell_angle_beta   89.95247763
_cell_angle_gamma   89.95247763
_symmetry_Int_Tables_number   1
_chemical_formula_structural   Nb12AlSi3(IrN)4
_chemical_formula_sum   'Nb12 Al1 Si3 Ir4 N4'
_cell_volume   342.86665845
_cell_formula_units_Z   1
loop_
 _symmetry_equiv_pos_site_id
 _symmetry_equiv_pos_as_xyz
  1  'x, y, z'
loop_
 _atom_site_type_symbol
 _atom_site_label
 _atom_site_symmetry_multiplicity
 _atom_site_fract_x
 _atom_site_fract_y
 _atom_site_fract_z
 _atom_site_occupancy
  Nb  Nb0  1  0.790800  0.951779  0.381233  1
  Nb  Nb1  1  0.707788  0.048165  0.881854  1
  Nb  Nb2  1  0.211065  0.453032  0.117298  1
  Nb  Nb3  1  0.290532  0.547734  0.618173  1
  Nb  Nb4  1  0.951779  0.381233  0.790800  1
  Nb  Nb5  1  0.048165  0.881854  0.707788  1
  Nb  Nb6  1  0.453032  0.117298  0.211065  1
  Nb  Nb7  1  0.547734  0.618173  0.290532  1
  Nb  Nb8  1  0.381233  0.790800  0.951779  1
  Nb  Nb9  1  0.881854  0.707788  0.048165  1
  Nb  Nb10  1  0.117298  0.211065  0.453032  1
  Nb  Nb11  1  0.618173  0.290532  0.547734  1
  Al  Al12  1  0.071578  0.071578  0.071578  1
  Si  Si13  1  0.571060  0.429019  0.928205  1
  Si  Si14  1  0.429019  0.928205  0.571060  1
  Si  Si15  1  0.928205  0.571060  0.429019  1
  Ir  Ir16  1  0.177341  0.820738  0.327526  1
  Ir  Ir17  1  0.327526  0.177341  0.820738  1
  Ir  Ir18  1  0.820738  0.327526  0.177341  1
  Ir  Ir19  1  0.676004  0.676004  0.676004  1
  N  N20  1  0.871884  0.126754  0.627763  1
  N  N21  1  0.627763  0.871884  0.126754  1
  N  N22  1  0.126754  0.627763  0.871884  1
  N  N23  1  0.372673  0.372673  0.372673  1
