# generated using pymatgen
data_LiSc2(Co3As2)3
_symmetry_space_group_name_H-M   'P 1'
_cell_length_a   3.73502400
_cell_length_b   10.59363600
_cell_length_c   12.17052300
_cell_angle_alpha   90.00000000
_cell_angle_beta   90.00000000
_cell_angle_gamma   90.00000000
_symmetry_Int_Tables_number   1
_chemical_formula_structural   LiSc2(Co3As2)3
_chemical_formula_sum   'Li2 Sc4 Co18 As12'
_cell_volume   481.55698268
_cell_formula_units_Z   2
loop_
 _symmetry_equiv_pos_site_id
 _symmetry_equiv_pos_as_xyz
  1  'x, y, z'
loop_
 _atom_site_type_symbol
 _atom_site_label
 _atom_site_symmetry_multiplicity
 _atom_site_fract_x
 _atom_site_fract_y
 _atom_site_fract_z
 _atom_site_occupancy
  Li  Li0  1  0.250000  0.701338  0.990784  1
  Li  Li1  1  0.250000  0.798662  0.490784  1
  Sc  Sc2  1  0.250000  0.575046  0.701692  1
  Sc  Sc3  1  0.250000  0.924954  0.201692  1
  Sc  Sc4  1  0.750000  0.426060  0.300113  1
  Sc  Sc5  1  0.750000  0.073940  0.800113  1
  Co  Co6  1  0.750000  0.290905  0.007261  1
  Co  Co7  1  0.750000  0.209095  0.507261  1
  Co  Co8  1  0.250000  0.406578  0.486183  1
  Co  Co9  1  0.250000  0.093422  0.986183  1
  Co  Co10  1  0.750000  0.589053  0.517133  1
  Co  Co11  1  0.750000  0.910947  0.017133  1
  Co  Co12  1  0.250000  0.219167  0.176076  1
  Co  Co13  1  0.250000  0.280834  0.676076  1
  Co  Co14  1  0.750000  0.786006  0.824247  1
  Co  Co15  1  0.750000  0.713994  0.324247  1
  Co  Co16  1  0.250000  0.882440  0.698902  1
  Co  Co17  1  0.250000  0.617560  0.198902  1
  Co  Co18  1  0.750000  0.120093  0.300615  1
  Co  Co19  1  0.750000  0.379907  0.800615  1
  Co  Co20  1  0.250000  0.462559  0.930190  1
  Co  Co21  1  0.250000  0.037441  0.430190  1
  Co  Co22  1  0.750000  0.533414  0.066841  1
  Co  Co23  1  0.750000  0.966586  0.566841  1
  As  As24  1  0.250000  0.419008  0.115981  1
  As  As25  1  0.250000  0.080992  0.615981  1
  As  As26  1  0.750000  0.580718  0.879734  1
  As  As27  1  0.750000  0.919282  0.379734  1
  As  As28  1  0.250000  0.260757  0.866250  1
  As  As29  1  0.250000  0.239243  0.366250  1
  As  As30  1  0.750000  0.737101  0.136199  1
  As  As31  1  0.750000  0.762899  0.636199  1
  As  As32  1  0.250000  0.599383  0.391955  1
  As  As33  1  0.250000  0.900617  0.891955  1
  As  As34  1  0.750000  0.398236  0.609847  1
  As  As35  1  0.750000  0.101764  0.109847  1
