# generated using pymatgen
data_Dy2Ga2Si2IrPt3
_symmetry_space_group_name_H-M   'P 1'
_cell_length_a   4.09643000
_cell_length_b   4.09643000
_cell_length_c   10.55878300
_cell_angle_alpha   90.00000000
_cell_angle_beta   90.00000000
_cell_angle_gamma   90.00000000
_symmetry_Int_Tables_number   1
_chemical_formula_structural   Dy2Ga2Si2IrPt3
_chemical_formula_sum   'Dy2 Ga2 Si2 Ir1 Pt3'
_cell_volume   177.18417899
_cell_formula_units_Z   1
loop_
 _symmetry_equiv_pos_site_id
 _symmetry_equiv_pos_as_xyz
  1  'x, y, z'
loop_
 _atom_site_type_symbol
 _atom_site_label
 _atom_site_symmetry_multiplicity
 _atom_site_fract_x
 _atom_site_fract_y
 _atom_site_fract_z
 _atom_site_occupancy
  Dy  Dy0  1  0.000000  0.500000  0.248623  1
  Dy  Dy1  1  0.500000  0.000000  0.751377  1
  Ga  Ga2  1  0.000000  0.000000  0.500000  1
  Ga  Ga3  1  0.500000  0.500000  0.500000  1
  Si  Si4  1  0.000000  0.500000  0.869976  1
  Si  Si5  1  0.500000  0.000000  0.130024  1
  Ir  Ir6  1  0.500000  0.500000  0.000000  1
  Pt  Pt7  1  0.000000  0.000000  0.000000  1
  Pt  Pt8  1  0.000000  0.500000  0.649584  1
  Pt  Pt9  1  0.500000  0.000000  0.350416  1
