# generated using pymatgen
data_HoTm15(LuIr3)4
_symmetry_space_group_name_H-M   'P 1'
_cell_length_a   10.73175602
_cell_length_b   10.73415036
_cell_length_c   6.29320204
_cell_angle_alpha   89.98906672
_cell_angle_beta   89.99722865
_cell_angle_gamma   90.00101965
_symmetry_Int_Tables_number   1
_chemical_formula_structural   HoTm15(LuIr3)4
_chemical_formula_sum   'Ho1 Tm15 Lu4 Ir12'
_cell_volume   724.95346735
_cell_formula_units_Z   1
loop_
 _symmetry_equiv_pos_site_id
 _symmetry_equiv_pos_as_xyz
  1  'x, y, z'
loop_
 _atom_site_type_symbol
 _atom_site_label
 _atom_site_symmetry_multiplicity
 _atom_site_fract_x
 _atom_site_fract_y
 _atom_site_fract_z
 _atom_site_occupancy
  Ho  Ho0  1  0.087686  0.290372  0.123572  1
  Tm  Tm1  1  0.291511  0.086875  0.377302  1
  Tm  Tm2  1  0.291077  0.912599  0.877319  1
  Tm  Tm3  1  0.708883  0.087357  0.876932  1
  Tm  Tm4  1  0.708898  0.912545  0.377217  1
  Tm  Tm5  1  0.587391  0.791118  0.877223  1
  Tm  Tm6  1  0.587391  0.208885  0.377213  1
  Tm  Tm7  1  0.412641  0.791046  0.377096  1
  Tm  Tm8  1  0.412667  0.208903  0.877026  1
  Tm  Tm9  1  0.209016  0.412926  0.622850  1
  Tm  Tm10  1  0.208939  0.587870  0.122860  1
  Tm  Tm11  1  0.790791  0.412804  0.122898  1
  Tm  Tm12  1  0.790840  0.587540  0.622957  1
  Tm  Tm13  1  0.912495  0.709011  0.122989  1
  Tm  Tm14  1  0.912284  0.291252  0.622837  1
  Tm  Tm15  1  0.087495  0.709099  0.622934  1
  Lu  Lu16  1  0.999861  0.999891  0.499888  1
  Lu  Lu17  1  0.999743  0.999477  0.999723  1
  Lu  Lu18  1  0.500028  0.500123  0.999811  1
  Lu  Lu19  1  0.500142  0.500102  0.499970  1
  Ir  Ir20  1  0.846036  0.152696  0.250455  1
  Ir  Ir21  1  0.846830  0.846700  0.750050  1
  Ir  Ir22  1  0.153505  0.152543  0.748140  1
  Ir  Ir23  1  0.153130  0.846807  0.249884  1
  Ir  Ir24  1  0.653200  0.346819  0.750045  1
  Ir  Ir25  1  0.653182  0.653178  0.249971  1
  Ir  Ir26  1  0.347966  0.346950  0.250726  1
  Ir  Ir27  1  0.346911  0.653194  0.750034  1
  Ir  Ir28  1  0.500138  0.999934  0.122047  1
  Ir  Ir29  1  0.500025  0.999881  0.622192  1
  Ir  Ir30  1  0.999674  0.500763  0.877230  1
  Ir  Ir31  1  0.999623  0.500740  0.378610  1
