# generated using pymatgen
data_Tm10Bi5Sb
_symmetry_space_group_name_H-M   'P 1'
_cell_length_a   8.12152100
_cell_length_b   9.41226800
_cell_length_c   11.85325700
_cell_angle_alpha   90.00000000
_cell_angle_beta   90.00000000
_cell_angle_gamma   90.00000000
_symmetry_Int_Tables_number   1
_chemical_formula_structural   Tm10Bi5Sb
_chemical_formula_sum   'Tm20 Bi10 Sb2'
_cell_volume   906.08586818
_cell_formula_units_Z   2
loop_
 _symmetry_equiv_pos_site_id
 _symmetry_equiv_pos_as_xyz
  1  'x, y, z'
loop_
 _atom_site_type_symbol
 _atom_site_label
 _atom_site_symmetry_multiplicity
 _atom_site_fract_x
 _atom_site_fract_y
 _atom_site_fract_z
 _atom_site_occupancy
  Tm  Tm0  1  0.354072  0.750000  0.214101  1
  Tm  Tm1  1  0.854072  0.750000  0.285899  1
  Tm  Tm2  1  0.646915  0.250000  0.782899  1
  Tm  Tm3  1  0.146915  0.250000  0.717101  1
  Tm  Tm4  1  0.689902  0.567176  0.058107  1
  Tm  Tm5  1  0.189902  0.932824  0.441893  1
  Tm  Tm6  1  0.308706  0.061253  0.940949  1
  Tm  Tm7  1  0.808706  0.438747  0.559051  1
  Tm  Tm8  1  0.308706  0.438747  0.940949  1
  Tm  Tm9  1  0.808706  0.061253  0.559051  1
  Tm  Tm10  1  0.689902  0.932824  0.058107  1
  Tm  Tm11  1  0.189902  0.567176  0.441893  1
  Tm  Tm12  1  0.477089  0.250000  0.488938  1
  Tm  Tm13  1  0.977089  0.250000  0.011062  1
  Tm  Tm14  1  0.527194  0.750000  0.511546  1
  Tm  Tm15  1  0.027194  0.750000  0.988454  1
  Tm  Tm16  1  0.313758  0.250000  0.218114  1
  Tm  Tm17  1  0.813758  0.250000  0.281886  1
  Tm  Tm18  1  0.683599  0.750000  0.782857  1
  Tm  Tm19  1  0.183599  0.750000  0.717143  1
  Bi  Bi20  1  0.594763  0.250000  0.042549  1
  Bi  Bi21  1  0.094763  0.250000  0.457451  1
  Bi  Bi22  1  0.566060  0.996065  0.325636  1
  Bi  Bi23  1  0.066060  0.503935  0.174364  1
  Bi  Bi24  1  0.433539  0.496269  0.674337  1
  Bi  Bi25  1  0.933539  0.003731  0.825663  1
  Bi  Bi26  1  0.433539  0.003731  0.674337  1
  Bi  Bi27  1  0.933539  0.496269  0.825663  1
  Bi  Bi28  1  0.566060  0.503935  0.325636  1
  Bi  Bi29  1  0.066060  0.996065  0.174364  1
  Sb  Sb30  1  0.406197  0.750000  0.958444  1
  Sb  Sb31  1  0.906197  0.750000  0.541556  1
