# generated using pymatgen
data_Ba9Ca3Nd4(Co4O15)2
_symmetry_space_group_name_H-M   'P 1'
_cell_length_a   6.87392556
_cell_length_b   11.68041633
_cell_length_c   11.67946557
_cell_angle_alpha   119.98027505
_cell_angle_beta   89.91705840
_cell_angle_gamma   90.09918259
_symmetry_Int_Tables_number   1
_chemical_formula_structural   Ba9Ca3Nd4(Co4O15)2
_chemical_formula_sum   'Ba9 Ca3 Nd4 Co8 O30'
_cell_volume   812.27350566
_cell_formula_units_Z   1
loop_
 _symmetry_equiv_pos_site_id
 _symmetry_equiv_pos_as_xyz
  1  'x, y, z'
loop_
 _atom_site_type_symbol
 _atom_site_label
 _atom_site_symmetry_multiplicity
 _atom_site_fract_x
 _atom_site_fract_y
 _atom_site_fract_z
 _atom_site_occupancy
  Ba  Ba0  1  0.689905  0.355254  0.179048  1
  Ba  Ba1  1  0.685448  0.826481  0.178200  1
  Ba  Ba2  1  0.687667  0.819135  0.642263  1
  Ba  Ba3  1  0.170455  0.656253  0.826916  1
  Ba  Ba4  1  0.173785  0.170107  0.824388  1
  Ba  Ba5  1  0.173910  0.171061  0.347566  1
  Ba  Ba6  1  0.990904  0.669610  0.335520  1
  Ba  Ba7  1  0.485228  0.331579  0.664051  1
  Ba  Ba8  1  0.500920  0.999619  0.999507  1
  Ca  Ca9  1  0.997591  0.000242  0.001200  1
  Ca  Ca10  1  0.350732  0.951636  0.473914  1
  Ca  Ca11  1  0.857189  0.474586  0.526614  1
  Nd  Nd12  1  0.342455  0.524574  0.475931  1
  Nd  Nd13  1  0.344879  0.523711  0.047107  1
  Nd  Nd14  1  0.844418  0.049913  0.523330  1
  Nd  Nd15  1  0.842255  0.474980  0.948933  1
  Co  Co16  1  0.518816  0.668398  0.333826  1
  Co  Co17  1  0.021189  0.335003  0.665750  1
  Co  Co18  1  0.169468  0.351832  0.177496  1
  Co  Co19  1  0.173103  0.824843  0.179256  1
  Co  Co20  1  0.171566  0.824903  0.645430  1
  Co  Co21  1  0.676640  0.650115  0.819498  1
  Co  Co22  1  0.675936  0.169555  0.821765  1
  Co  Co23  1  0.677989  0.180999  0.351024  1
  O  O24  1  0.350563  0.499875  0.249248  1
  O  O25  1  0.349305  0.747476  0.248181  1
  O  O26  1  0.348616  0.747851  0.497632  1
  O  O27  1  0.847491  0.498056  0.750979  1
  O  O28  1  0.849153  0.251326  0.750149  1
  O  O29  1  0.846856  0.251629  0.504338  1
  O  O30  1  0.546397  0.605759  0.937982  1
  O  O31  1  0.541853  0.063337  0.671948  1
  O  O32  1  0.533901  0.327021  0.389877  1
  O  O33  1  0.546606  0.332710  0.938332  1
  O  O34  1  0.532342  0.609922  0.673739  1
  O  O35  1  0.550598  0.063008  0.395465  1
  O  O36  1  0.045579  0.400444  0.064425  1
  O  O37  1  0.038223  0.933817  0.333154  1
  O  O38  1  0.048426  0.664367  0.599142  1
  O  O39  1  0.045693  0.664106  0.064606  1
  O  O40  1  0.046595  0.399800  0.334849  1
  O  O41  1  0.036107  0.934744  0.601644  1
  O  O42  1  0.789396  0.811474  0.909030  1
  O  O43  1  0.788479  0.099039  0.912430  1
  O  O44  1  0.788330  0.090645  0.188225  1
  O  O45  1  0.230014  0.178611  0.086691  1
  O  O46  1  0.231085  0.908514  0.089043  1
  O  O47  1  0.229221  0.910233  0.819828  1
  O  O48  1  0.673997  0.828023  0.414279  1
  O  O49  1  0.666299  0.586005  0.414640  1
  O  O50  1  0.671433  0.585930  0.171064  1
  O  O51  1  0.166532  0.171813  0.584957  1
  O  O52  1  0.175465  0.414659  0.585496  1
  O  O53  1  0.170997  0.415421  0.830094  1
