# generated using pymatgen
data_YbMgCu3Ir
_symmetry_space_group_name_H-M   'P 1'
_cell_length_a   5.21280472
_cell_length_b   5.21280450
_cell_length_c   5.21280572
_cell_angle_alpha   57.05665638
_cell_angle_beta   57.05665691
_cell_angle_gamma   57.05666081
_symmetry_Int_Tables_number   1
_chemical_formula_structural   YbMgCu3Ir
_chemical_formula_sum   'Yb1 Mg1 Cu3 Ir1'
_cell_volume   93.36548115
_cell_formula_units_Z   1
loop_
 _symmetry_equiv_pos_site_id
 _symmetry_equiv_pos_as_xyz
  1  'x, y, z'
loop_
 _atom_site_type_symbol
 _atom_site_label
 _atom_site_symmetry_multiplicity
 _atom_site_fract_x
 _atom_site_fract_y
 _atom_site_fract_z
 _atom_site_occupancy
  Yb  Yb0  1  0.250504  0.250504  0.250504  1
  Mg  Mg1  1  0.997921  0.997921  0.997921  1
  Cu  Cu2  1  0.624975  0.624975  0.125299  1
  Cu  Cu3  1  0.624975  0.125299  0.624975  1
  Cu  Cu4  1  0.125299  0.624975  0.624975  1
  Ir  Ir5  1  0.626325  0.626325  0.626325  1
