# generated using pymatgen
data_Y6Hf3Zr(Sn3O)2
_symmetry_space_group_name_H-M   'P 1'
_cell_length_a   8.75850800
_cell_length_b   8.75850850
_cell_length_c   6.01372300
_cell_angle_alpha   90.00000000
_cell_angle_beta   90.00000000
_cell_angle_gamma   119.99999813
_symmetry_Int_Tables_number   1
_chemical_formula_structural   Y6Hf3Zr(Sn3O)2
_chemical_formula_sum   'Y6 Hf3 Zr1 Sn6 O2'
_cell_volume   399.51615611
_cell_formula_units_Z   1
loop_
 _symmetry_equiv_pos_site_id
 _symmetry_equiv_pos_as_xyz
  1  'x, y, z'
loop_
 _atom_site_type_symbol
 _atom_site_label
 _atom_site_symmetry_multiplicity
 _atom_site_fract_x
 _atom_site_fract_y
 _atom_site_fract_z
 _atom_site_occupancy
  Y  Y0  1  0.000053  0.772249  0.749963  1
  Y  Y1  1  0.000053  0.227805  0.250037  1
  Y  Y2  1  0.227751  0.227805  0.749963  1
  Y  Y3  1  0.227751  0.999947  0.250037  1
  Y  Y4  1  0.772195  0.772249  0.250037  1
  Y  Y5  1  0.772195  0.999947  0.749963  1
  Hf  Hf6  1  0.333333  0.666667  0.000000  1
  Hf  Hf7  1  0.333333  0.666667  0.500000  1
  Hf  Hf8  1  0.666667  0.333333  0.000000  1
  Zr  Zr9  1  0.666667  0.333333  0.500000  1
  Sn  Sn10  1  0.000519  0.594029  0.249514  1
  Sn  Sn11  1  0.000519  0.406491  0.750486  1
  Sn  Sn12  1  0.405971  0.406491  0.249514  1
  Sn  Sn13  1  0.593509  0.594029  0.750486  1
  Sn  Sn14  1  0.405971  0.999481  0.750486  1
  Sn  Sn15  1  0.593509  0.999481  0.249514  1
  O  O16  1  0.000000  0.000000  0.000000  1
  O  O17  1  0.000000  0.000000  0.500000  1
