# generated using pymatgen
data_Tm3PuB16
_symmetry_space_group_name_H-M   'P 1'
_cell_length_a   7.06467911
_cell_length_b   7.06467911
_cell_length_c   3.99137800
_cell_angle_alpha   90.00000000
_cell_angle_beta   90.00000000
_cell_angle_gamma   90.36129265
_symmetry_Int_Tables_number   1
_chemical_formula_structural   Tm3PuB16
_chemical_formula_sum   'Tm3 Pu1 B16'
_cell_volume   199.20448206
_cell_formula_units_Z   1
loop_
 _symmetry_equiv_pos_site_id
 _symmetry_equiv_pos_as_xyz
  1  'x, y, z'
loop_
 _atom_site_type_symbol
 _atom_site_label
 _atom_site_symmetry_multiplicity
 _atom_site_fract_x
 _atom_site_fract_y
 _atom_site_fract_z
 _atom_site_occupancy
  Tm  Tm0  1  0.183341  0.683341  0.000000  1
  Tm  Tm1  1  0.683262  0.817384  0.000000  1
  Tm  Tm2  1  0.317384  0.183262  0.000000  1
  Pu  Pu3  1  0.814242  0.314242  0.000000  1
  B  B4  1  0.322391  0.462388  0.500000  1
  B  B5  1  0.676883  0.538837  0.500000  1
  B  B6  1  0.537639  0.323650  0.500000  1
  B  B7  1  0.461006  0.677461  0.500000  1
  B  B8  1  0.001489  0.998598  0.201722  1
  B  B9  1  0.498598  0.501489  0.798278  1
  B  B10  1  0.001489  0.998598  0.798278  1
  B  B11  1  0.498598  0.501489  0.201722  1
  B  B12  1  0.587708  0.087708  0.500000  1
  B  B13  1  0.086260  0.414046  0.500000  1
  B  B14  1  0.914046  0.586260  0.500000  1
  B  B15  1  0.413328  0.913328  0.500000  1
  B  B16  1  0.038837  0.176883  0.500000  1
  B  B17  1  0.177461  0.961006  0.500000  1
  B  B18  1  0.823650  0.037639  0.500000  1
  B  B19  1  0.962388  0.822391  0.500000  1
