# generated using pymatgen
data_Ca2Ga3Ag
_symmetry_space_group_name_H-M   'P 1'
_cell_length_a   5.88106934
_cell_length_b   5.88106948
_cell_length_c   7.30980039
_cell_angle_alpha   50.92564559
_cell_angle_beta   50.92564615
_cell_angle_gamma   45.73925976
_symmetry_Int_Tables_number   1
_chemical_formula_structural   Ca2Ga3Ag
_chemical_formula_sum   'Ca2 Ga3 Ag1'
_cell_volume   132.06599283
_cell_formula_units_Z   1
loop_
 _symmetry_equiv_pos_site_id
 _symmetry_equiv_pos_as_xyz
  1  'x, y, z'
loop_
 _atom_site_type_symbol
 _atom_site_label
 _atom_site_symmetry_multiplicity
 _atom_site_fract_x
 _atom_site_fract_y
 _atom_site_fract_z
 _atom_site_occupancy
  Ca  Ca0  1  0.456493  0.456493  0.792198  1
  Ca  Ca1  1  0.543796  0.543796  0.206348  1
  Ga  Ga2  1  0.164299  0.164299  0.392547  1
  Ga  Ga3  1  0.163720  0.163720  0.779300  1
  Ga  Ga4  1  0.837167  0.837167  0.217076  1
  Ag  Ag5  1  0.834524  0.834524  0.612530  1
