# generated using pymatgen
data_Zr10AlGa2Sb5
_symmetry_space_group_name_H-M   'P 1'
_cell_length_a   8.66194247
_cell_length_b   8.66194305
_cell_length_c   5.86694500
_cell_angle_alpha   90.00000000
_cell_angle_beta   90.00000000
_cell_angle_gamma   120.16143169
_symmetry_Int_Tables_number   1
_chemical_formula_structural   Zr10AlGa2Sb5
_chemical_formula_sum   'Zr10 Al1 Ga2 Sb5'
_cell_volume   380.59624839
_cell_formula_units_Z   1
loop_
 _symmetry_equiv_pos_site_id
 _symmetry_equiv_pos_as_xyz
  1  'x, y, z'
loop_
 _atom_site_type_symbol
 _atom_site_label
 _atom_site_symmetry_multiplicity
 _atom_site_fract_x
 _atom_site_fract_y
 _atom_site_fract_z
 _atom_site_occupancy
  Zr  Zr0  1  0.664708  0.333377  0.997521  1
  Zr  Zr1  1  0.333377  0.664708  0.997521  1
  Zr  Zr2  1  0.333377  0.664708  0.502479  1
  Zr  Zr3  1  0.664708  0.333377  0.502479  1
  Zr  Zr4  1  0.726923  0.726923  0.750000  1
  Zr  Zr5  1  0.272810  0.007399  0.750000  1
  Zr  Zr6  1  0.007399  0.272810  0.750000  1
  Zr  Zr7  1  0.264977  0.264977  0.250000  1
  Zr  Zr8  1  0.734202  0.998934  0.250000  1
  Zr  Zr9  1  0.998934  0.734202  0.250000  1
  Al  Al10  1  0.388423  0.388423  0.750000  1
  Ga  Ga11  1  0.000263  0.000263  0.994065  1
  Ga  Ga12  1  0.000263  0.000263  0.505935  1
  Sb  Sb13  1  0.614429  0.001271  0.750000  1
  Sb  Sb14  1  0.001271  0.614429  0.750000  1
  Sb  Sb15  1  0.605316  0.605316  0.250000  1
  Sb  Sb16  1  0.389119  0.999501  0.250000  1
  Sb  Sb17  1  0.999501  0.389119  0.250000  1
