# generated using pymatgen
data_Hf11Th8Si16Au
_symmetry_space_group_name_H-M   'P 1'
_cell_length_a   7.41639540
_cell_length_b   7.41639483
_cell_length_c   13.50576288
_cell_angle_alpha   89.55978048
_cell_angle_beta   90.44021841
_cell_angle_gamma   89.76566767
_symmetry_Int_Tables_number   1
_chemical_formula_structural   Hf11Th8Si16Au
_chemical_formula_sum   'Hf11 Th8 Si16 Au1'
_cell_volume   742.80610190
_cell_formula_units_Z   1
loop_
 _symmetry_equiv_pos_site_id
 _symmetry_equiv_pos_as_xyz
  1  'x, y, z'
loop_
 _atom_site_type_symbol
 _atom_site_label
 _atom_site_symmetry_multiplicity
 _atom_site_fract_x
 _atom_site_fract_y
 _atom_site_fract_z
 _atom_site_occupancy
  Hf  Hf0  1  0.825725  0.825725  0.500000  1
  Hf  Hf1  1  0.323429  0.676612  0.249257  1
  Hf  Hf2  1  0.676612  0.323429  0.750743  1
  Hf  Hf3  1  0.149007  0.998408  0.374690  1
  Hf  Hf4  1  0.855012  0.999520  0.879927  1
  Hf  Hf5  1  0.504023  0.651416  0.626791  1
  Hf  Hf6  1  0.352103  0.488134  0.878760  1
  Hf  Hf7  1  0.488134  0.352103  0.121240  1
  Hf  Hf8  1  0.651416  0.504023  0.373209  1
  Hf  Hf9  1  0.998408  0.149007  0.625310  1
  Hf  Hf10  1  0.999520  0.855012  0.120073  1
  Th  Th11  1  0.997990  0.345612  0.212775  1
  Th  Th12  1  0.005349  0.655964  0.716487  1
  Th  Th13  1  0.154588  0.497172  0.465956  1
  Th  Th14  1  0.496482  0.849109  0.032975  1
  Th  Th15  1  0.849109  0.496482  0.967025  1
  Th  Th16  1  0.497172  0.154588  0.534044  1
  Th  Th17  1  0.345612  0.997990  0.787225  1
  Th  Th18  1  0.655964  0.005349  0.283513  1
  Si  Si19  1  0.364793  0.299740  0.315165  1
  Si  Si20  1  0.635289  0.701860  0.818419  1
  Si  Si21  1  0.204309  0.865047  0.566848  1
  Si  Si22  1  0.132016  0.775373  0.928525  1
  Si  Si23  1  0.775373  0.132016  0.071475  1
  Si  Si24  1  0.865047  0.204309  0.433152  1
  Si  Si25  1  0.299740  0.364793  0.684835  1
  Si  Si26  1  0.701860  0.635289  0.181581  1
  Si  Si27  1  0.289719  0.048040  0.188832  1
  Si  Si28  1  0.710418  0.952055  0.687627  1
  Si  Si29  1  0.452557  0.790108  0.435494  1
  Si  Si30  1  0.211170  0.567377  0.065449  1
  Si  Si31  1  0.567377  0.211170  0.934551  1
  Si  Si32  1  0.790108  0.452557  0.564506  1
  Si  Si33  1  0.048040  0.289719  0.811168  1
  Si  Si34  1  0.952055  0.710418  0.312373  1
  Au  Au35  1  0.174474  0.174474  0.000000  1
