# generated using pymatgen
data_Y3Er5CdHgIr2
_symmetry_space_group_name_H-M   'P 1'
_cell_length_a   9.58581728
_cell_length_b   9.58581739
_cell_length_c   9.58940700
_cell_angle_alpha   59.98761527
_cell_angle_beta   59.98761489
_cell_angle_gamma   60.00137551
_symmetry_Int_Tables_number   1
_chemical_formula_structural   Y3Er5CdHgIr2
_chemical_formula_sum   'Y6 Er10 Cd2 Hg2 Ir4'
_cell_volume   622.95724302
_cell_formula_units_Z   2
loop_
 _symmetry_equiv_pos_site_id
 _symmetry_equiv_pos_as_xyz
  1  'x, y, z'
loop_
 _atom_site_type_symbol
 _atom_site_label
 _atom_site_symmetry_multiplicity
 _atom_site_fract_x
 _atom_site_fract_y
 _atom_site_fract_z
 _atom_site_occupancy
  Y  Y0  1  0.938662  0.560626  0.561063  1
  Y  Y1  1  0.560626  0.938662  0.939649  1
  Y  Y2  1  0.560626  0.938662  0.561063  1
  Y  Y3  1  0.938662  0.560626  0.939649  1
  Y  Y4  1  0.560757  0.560757  0.939243  1
  Y  Y5  1  0.939061  0.939061  0.560939  1
  Er  Er6  1  0.349192  0.349192  0.347766  1
  Er  Er7  1  0.349192  0.349192  0.953851  1
  Er  Er8  1  0.350486  0.951375  0.349070  1
  Er  Er9  1  0.951375  0.350486  0.349070  1
  Er  Er10  1  0.810009  0.188329  0.190799  1
  Er  Er11  1  0.188329  0.810009  0.810864  1
  Er  Er12  1  0.188329  0.810009  0.190799  1
  Er  Er13  1  0.810009  0.188329  0.810864  1
  Er  Er14  1  0.189018  0.189018  0.810982  1
  Er  Er15  1  0.809805  0.809805  0.190195  1
  Cd  Cd16  1  0.580277  0.258022  0.580851  1
  Cd  Cd17  1  0.258022  0.580277  0.580851  1
  Hg  Hg18  1  0.583188  0.583188  0.584817  1
  Hg  Hg19  1  0.583188  0.583188  0.248808  1
  Ir  Ir20  1  0.141940  0.141940  0.141290  1
  Ir  Ir21  1  0.141940  0.141940  0.574830  1
  Ir  Ir22  1  0.141971  0.575340  0.141345  1
  Ir  Ir23  1  0.575340  0.141971  0.141345  1
