# generated using pymatgen
data_Dy2Y2GaSi3Ni4
_symmetry_space_group_name_H-M   'P 1'
_cell_length_a   4.19686100
_cell_length_b   6.90590123
_cell_length_c   7.22154019
_cell_angle_alpha   89.97728693
_cell_angle_beta   90.00000000
_cell_angle_gamma   90.00000000
_symmetry_Int_Tables_number   1
_chemical_formula_structural   Dy2Y2GaSi3Ni4
_chemical_formula_sum   'Dy2 Y2 Ga1 Si3 Ni4'
_cell_volume   209.30265949
_cell_formula_units_Z   1
loop_
 _symmetry_equiv_pos_site_id
 _symmetry_equiv_pos_as_xyz
  1  'x, y, z'
loop_
 _atom_site_type_symbol
 _atom_site_label
 _atom_site_symmetry_multiplicity
 _atom_site_fract_x
 _atom_site_fract_y
 _atom_site_fract_z
 _atom_site_occupancy
  Dy  Dy0  1  0.750000  0.985923  0.205125  1
  Dy  Dy1  1  0.750000  0.490246  0.301476  1
  Y  Y2  1  0.250000  0.007737  0.795713  1
  Y  Y3  1  0.250000  0.510050  0.699308  1
  Ga  Ga4  1  0.750000  0.306420  0.913959  1
  Si  Si5  1  0.250000  0.189200  0.410976  1
  Si  Si6  1  0.250000  0.684269  0.084753  1
  Si  Si7  1  0.750000  0.808505  0.588191  1
  Ni  Ni8  1  0.250000  0.810259  0.416446  1
  Ni  Ni9  1  0.250000  0.316773  0.093562  1
  Ni  Ni10  1  0.750000  0.185456  0.573671  1
  Ni  Ni11  1  0.750000  0.705164  0.916824  1
