# generated using pymatgen
data_Sc4B4As2IrRh9
_symmetry_space_group_name_H-M   'P 1'
_cell_length_a   3.20349100
_cell_length_b   9.23104713
_cell_length_c   9.23104713
_cell_angle_alpha   90.07784639
_cell_angle_beta   90.00000000
_cell_angle_gamma   90.00000000
_symmetry_Int_Tables_number   1
_chemical_formula_structural   Sc4B4As2IrRh9
_chemical_formula_sum   'Sc4 B4 As2 Ir1 Rh9'
_cell_volume   272.97636352
_cell_formula_units_Z   1
loop_
 _symmetry_equiv_pos_site_id
 _symmetry_equiv_pos_as_xyz
  1  'x, y, z'
loop_
 _atom_site_type_symbol
 _atom_site_label
 _atom_site_symmetry_multiplicity
 _atom_site_fract_x
 _atom_site_fract_y
 _atom_site_fract_z
 _atom_site_occupancy
  Sc  Sc0  1  0.000000  0.325291  0.174707  1
  Sc  Sc1  1  0.000000  0.825871  0.325870  1
  Sc  Sc2  1  0.000000  0.174128  0.674129  1
  Sc  Sc3  1  0.000000  0.674708  0.825292  1
  B  B4  1  0.000000  0.622047  0.122047  1
  B  B5  1  0.000000  0.122947  0.377052  1
  B  B6  1  0.000000  0.877052  0.622947  1
  B  B7  1  0.000000  0.377952  0.877952  1
  As  As8  1  0.000000  0.000000  0.000000  1
  As  As9  1  0.000000  0.500000  0.500000  1
  Ir  Ir10  1  0.499999  0.500000  0.000000  1
  Rh  Rh11  1  0.499999  0.784252  0.072598  1
  Rh  Rh12  1  0.499999  0.072163  0.216662  1
  Rh  Rh13  1  0.499999  0.572599  0.284251  1
  Rh  Rh14  1  0.499999  0.283336  0.427835  1
  Rh  Rh15  1  0.499999  0.000000  0.500000  1
  Rh  Rh16  1  0.499999  0.716663  0.572164  1
  Rh  Rh17  1  0.499999  0.427400  0.715748  1
  Rh  Rh18  1  0.499999  0.927835  0.783337  1
  Rh  Rh19  1  0.499999  0.215747  0.927400  1
