# generated using pymatgen
data_PuAlB4
_symmetry_space_group_name_H-M   'P 1'
_cell_length_a   3.58555400
_cell_length_b   5.93190700
_cell_length_c   11.50401100
_cell_angle_alpha   90.00000000
_cell_angle_beta   90.00000000
_cell_angle_gamma   90.00000000
_symmetry_Int_Tables_number   1
_chemical_formula_structural   PuAlB4
_chemical_formula_sum   'Pu4 Al4 B16'
_cell_volume   244.68079867
_cell_formula_units_Z   4
loop_
 _symmetry_equiv_pos_site_id
 _symmetry_equiv_pos_as_xyz
  1  'x, y, z'
loop_
 _atom_site_type_symbol
 _atom_site_label
 _atom_site_symmetry_multiplicity
 _atom_site_fract_x
 _atom_site_fract_y
 _atom_site_fract_z
 _atom_site_occupancy
  Pu  Pu0  1  0.000000  0.630221  0.350336  1
  Pu  Pu1  1  0.000000  0.369779  0.649664  1
  Pu  Pu2  1  0.000000  0.130221  0.149664  1
  Pu  Pu3  1  0.000000  0.869779  0.850336  1
  Al  Al4  1  0.000000  0.638734  0.090661  1
  Al  Al5  1  0.000000  0.361266  0.909339  1
  Al  Al6  1  0.000000  0.138734  0.409339  1
  Al  Al7  1  0.000000  0.861266  0.590661  1
  B  B8  1  0.500000  0.789974  0.187891  1
  B  B9  1  0.500000  0.210026  0.812109  1
  B  B10  1  0.500000  0.289974  0.312109  1
  B  B11  1  0.500000  0.710026  0.687891  1
  B  B12  1  0.500000  0.867126  0.031533  1
  B  B13  1  0.500000  0.132874  0.968467  1
  B  B14  1  0.500000  0.367126  0.468467  1
  B  B15  1  0.500000  0.632874  0.531533  1
  B  B16  1  0.500000  0.885976  0.453245  1
  B  B17  1  0.500000  0.114024  0.546755  1
  B  B18  1  0.500000  0.385976  0.046755  1
  B  B19  1  0.500000  0.614024  0.953245  1
  B  B20  1  0.500000  0.973300  0.306994  1
  B  B21  1  0.500000  0.026700  0.693006  1
  B  B22  1  0.500000  0.473300  0.193006  1
  B  B23  1  0.500000  0.526700  0.806994  1
