# generated using pymatgen
data_Be7B3Ru4
_symmetry_space_group_name_H-M   'P 1'
_cell_length_a   5.57231048
_cell_length_b   5.57611361
_cell_length_c   5.82434179
_cell_angle_alpha   98.31466045
_cell_angle_beta   98.75885223
_cell_angle_gamma   43.99284493
_symmetry_Int_Tables_number   1
_chemical_formula_structural   Be7B3Ru4
_chemical_formula_sum   'Be7 B3 Ru4'
_cell_volume   124.07014189
_cell_formula_units_Z   1
loop_
 _symmetry_equiv_pos_site_id
 _symmetry_equiv_pos_as_xyz
  1  'x, y, z'
loop_
 _atom_site_type_symbol
 _atom_site_label
 _atom_site_symmetry_multiplicity
 _atom_site_fract_x
 _atom_site_fract_y
 _atom_site_fract_z
 _atom_site_occupancy
  Be  Be0  1  0.752103  0.056233  0.423123  1
  Be  Be1  1  0.073875  0.355391  0.811163  1
  Be  Be2  1  0.640968  0.921433  0.691436  1
  Be  Be3  1  0.931988  0.637425  0.182680  1
  Be  Be4  1  0.345965  0.084846  0.313491  1
  Be  Be5  1  0.839200  0.166016  0.756927  1
  Be  Be6  1  0.178449  0.821610  0.246832  1
  B  B7  1  0.061179  0.740792  0.923410  1
  B  B8  1  0.241154  0.943382  0.572302  1
  B  B9  1  0.936112  0.258329  0.078839  1
  Ru  Ru10  1  0.235249  0.542235  0.576142  1
  Ru  Ru11  1  0.451696  0.773758  0.936148  1
  Ru  Ru12  1  0.767293  0.467687  0.431834  1
  Ru  Ru13  1  0.544769  0.230863  0.055674  1
