# generated using pymatgen
data_Y20Cd6NiRh
_symmetry_space_group_name_H-M   'P 1'
_cell_length_a   9.68648200
_cell_length_b   9.68648331
_cell_length_c   9.80198200
_cell_angle_alpha   90.00000000
_cell_angle_beta   90.00000000
_cell_angle_gamma   119.99999552
_symmetry_Int_Tables_number   1
_chemical_formula_structural   Y20Cd6NiRh
_chemical_formula_sum   'Y20 Cd6 Ni1 Rh1'
_cell_volume   796.48346140
_cell_formula_units_Z   1
loop_
 _symmetry_equiv_pos_site_id
 _symmetry_equiv_pos_as_xyz
  1  'x, y, z'
loop_
 _atom_site_type_symbol
 _atom_site_label
 _atom_site_symmetry_multiplicity
 _atom_site_fract_x
 _atom_site_fract_y
 _atom_site_fract_z
 _atom_site_occupancy
  Y  Y0  1  0.000000  0.000000  0.499552  1
  Y  Y1  1  0.000000  0.000000  0.000448  1
  Y  Y2  1  0.543321  0.456679  0.250000  1
  Y  Y3  1  0.543321  0.086643  0.250000  1
  Y  Y4  1  0.913357  0.456679  0.250000  1
  Y  Y5  1  0.456567  0.543433  0.750000  1
  Y  Y6  1  0.456567  0.913134  0.750000  1
  Y  Y7  1  0.086866  0.543433  0.750000  1
  Y  Y8  1  0.208801  0.791199  0.439734  1
  Y  Y9  1  0.208801  0.417603  0.439734  1
  Y  Y10  1  0.582397  0.791199  0.439734  1
  Y  Y11  1  0.789190  0.210810  0.563361  1
  Y  Y12  1  0.789190  0.578379  0.563361  1
  Y  Y13  1  0.421621  0.210810  0.563361  1
  Y  Y14  1  0.789190  0.210810  0.936639  1
  Y  Y15  1  0.789190  0.578379  0.936639  1
  Y  Y16  1  0.421621  0.210810  0.936639  1
  Y  Y17  1  0.208801  0.791199  0.060266  1
  Y  Y18  1  0.208801  0.417603  0.060266  1
  Y  Y19  1  0.582397  0.791199  0.060266  1
  Cd  Cd20  1  0.884443  0.115557  0.250000  1
  Cd  Cd21  1  0.884443  0.768886  0.250000  1
  Cd  Cd22  1  0.231114  0.115557  0.250000  1
  Cd  Cd23  1  0.115711  0.884289  0.750000  1
  Cd  Cd24  1  0.115711  0.231422  0.750000  1
  Cd  Cd25  1  0.768578  0.884289  0.750000  1
  Ni  Ni26  1  0.666667  0.333333  0.750000  1
  Rh  Rh27  1  0.333333  0.666667  0.250000  1
