# generated using pymatgen
data_ScTiAsRh5
_symmetry_space_group_name_H-M   'P 1'
_cell_length_a   4.00188800
_cell_length_b   5.49995438
_cell_length_c   10.75943807
_cell_angle_alpha   90.31808011
_cell_angle_beta   90.00000000
_cell_angle_gamma   90.00000000
_symmetry_Int_Tables_number   1
_chemical_formula_structural   ScTiAsRh5
_chemical_formula_sum   'Sc2 Ti2 As2 Rh10'
_cell_volume   236.81375008
_cell_formula_units_Z   2
loop_
 _symmetry_equiv_pos_site_id
 _symmetry_equiv_pos_as_xyz
  1  'x, y, z'
loop_
 _atom_site_type_symbol
 _atom_site_label
 _atom_site_symmetry_multiplicity
 _atom_site_fract_x
 _atom_site_fract_y
 _atom_site_fract_z
 _atom_site_occupancy
  Sc  Sc0  1  0.500000  0.325572  0.140516  1
  Sc  Sc1  1  0.500000  0.674428  0.859484  1
  Ti  Ti2  1  0.500000  0.831942  0.355676  1
  Ti  Ti3  1  0.500000  0.168058  0.644324  1
  As  As4  1  0.000000  0.000000  0.000000  1
  As  As5  1  0.000000  0.500000  0.500000  1
  Rh  Rh6  1  0.000000  0.000000  0.500000  1
  Rh  Rh7  1  0.000000  0.500000  0.000000  1
  Rh  Rh8  1  0.000000  0.066609  0.249544  1
  Rh  Rh9  1  0.000000  0.933391  0.750456  1
  Rh  Rh10  1  0.000000  0.576806  0.263280  1
  Rh  Rh11  1  0.000000  0.423194  0.736720  1
  Rh  Rh12  1  0.500000  0.308168  0.398875  1
  Rh  Rh13  1  0.500000  0.691832  0.601125  1
  Rh  Rh14  1  0.500000  0.816878  0.113005  1
  Rh  Rh15  1  0.500000  0.183122  0.886995  1
