# generated using pymatgen
data_Tb2YbPr3(CoSn6)2
_symmetry_space_group_name_H-M   'P 1'
_cell_length_a   8.52915231
_cell_length_b   8.52915328
_cell_length_c   13.35230231
_cell_angle_alpha   90.12126262
_cell_angle_beta   89.87873621
_cell_angle_gamma   148.33879043
_symmetry_Int_Tables_number   1
_chemical_formula_structural   Tb2YbPr3(CoSn6)2
_chemical_formula_sum   'Tb2 Yb1 Pr3 Co2 Sn12'
_cell_volume   509.84686814
_cell_formula_units_Z   1
loop_
 _symmetry_equiv_pos_site_id
 _symmetry_equiv_pos_as_xyz
  1  'x, y, z'
loop_
 _atom_site_type_symbol
 _atom_site_label
 _atom_site_symmetry_multiplicity
 _atom_site_fract_x
 _atom_site_fract_y
 _atom_site_fract_z
 _atom_site_occupancy
  Tb  Tb0  1  0.899391  0.100609  0.750769  1
  Tb  Tb1  1  0.100876  0.899124  0.250854  1
  Yb  Yb2  1  0.899056  0.100944  0.403993  1
  Pr  Pr3  1  0.899443  0.100557  0.094422  1
  Pr  Pr4  1  0.099561  0.900439  0.592083  1
  Pr  Pr5  1  0.099597  0.900403  0.907791  1
  Co  Co6  1  0.297851  0.702149  0.250757  1
  Co  Co7  1  0.702413  0.297587  0.748899  1
  Sn  Sn8  1  0.757989  0.242011  0.571397  1
  Sn  Sn9  1  0.427131  0.572869  0.576415  1
  Sn  Sn10  1  0.572042  0.427958  0.420799  1
  Sn  Sn11  1  0.734324  0.265676  0.250045  1
  Sn  Sn12  1  0.266295  0.733705  0.749748  1
  Sn  Sn13  1  0.244007  0.755993  0.073006  1
  Sn  Sn14  1  0.246284  0.753716  0.428188  1
  Sn  Sn15  1  0.571499  0.428501  0.080298  1
  Sn  Sn16  1  0.453798  0.546202  0.251941  1
  Sn  Sn17  1  0.545778  0.454222  0.749851  1
  Sn  Sn18  1  0.755388  0.244612  0.927229  1
  Sn  Sn19  1  0.427276  0.572724  0.921516  1
