# generated using pymatgen
data_La18Pr2Si15Cl
_symmetry_space_group_name_H-M   'P 1'
_cell_length_a   8.08795563
_cell_length_b   7.99424241
_cell_length_c   15.48944504
_cell_angle_alpha   89.49649048
_cell_angle_beta   89.22323436
_cell_angle_gamma   90.69333073
_symmetry_Int_Tables_number   1
_chemical_formula_structural   La18Pr2Si15Cl
_chemical_formula_sum   'La18 Pr2 Si15 Cl1'
_cell_volume   1001.29676639
_cell_formula_units_Z   1
loop_
 _symmetry_equiv_pos_site_id
 _symmetry_equiv_pos_as_xyz
  1  'x, y, z'
loop_
 _atom_site_type_symbol
 _atom_site_label
 _atom_site_symmetry_multiplicity
 _atom_site_fract_x
 _atom_site_fract_y
 _atom_site_fract_z
 _atom_site_occupancy
  La  La0  1  0.310901  0.312062  0.998066  1
  La  La1  1  0.185702  0.804800  0.250032  1
  La  La2  1  0.794583  0.190602  0.753564  1
  La  La3  1  0.686554  0.686609  0.496560  1
  La  La4  1  0.381356  0.002648  0.442763  1
  La  La5  1  0.501806  0.862807  0.700978  1
  La  La6  1  0.510641  0.120973  0.196481  1
  La  La7  1  0.873629  0.483572  0.299311  1
  La  La8  1  0.121812  0.518926  0.799822  1
  La  La9  1  0.635582  0.985944  0.953955  1
  La  La10  1  0.995302  0.383362  0.546669  1
  La  La11  1  0.996696  0.622729  0.051709  1
  La  La12  1  0.142524  0.993607  0.872219  1
  La  La13  1  0.518217  0.631032  0.125000  1
  La  La14  1  0.474498  0.361357  0.632413  1
  La  La15  1  0.637954  0.520997  0.876557  1
  La  La16  1  0.365823  0.477479  0.377034  1
  La  La17  1  0.871502  0.017906  0.377726  1
  Pr  Pr18  1  0.985647  0.125527  0.123686  1
  Pr  Pr19  1  0.016902  0.872126  0.621798  1
  Si  Si20  1  0.334544  0.702909  0.947896  1
  Si  Si21  1  0.659954  0.301401  0.454850  1
  Si  Si22  1  0.706538  0.335189  0.051852  1
  Si  Si23  1  0.299946  0.664976  0.553615  1
  Si  Si24  1  0.803633  0.832648  0.201997  1
  Si  Si25  1  0.166603  0.194513  0.296063  1
  Si  Si26  1  0.846755  0.803818  0.796294  1
  Si  Si27  1  0.290050  0.923095  0.057036  1
  Si  Si28  1  0.576091  0.786768  0.307206  1
  Si  Si29  1  0.452143  0.206628  0.823825  1
  Si  Si30  1  0.792972  0.580769  0.687832  1
  Si  Si31  1  0.210344  0.420772  0.190651  1
  Si  Si32  1  0.704775  0.074631  0.561213  1
  Si  Si33  1  0.927253  0.290790  0.941337  1
  Si  Si34  1  0.077760  0.711832  0.443158  1
  Cl  Cl35  1  0.143009  0.194200  0.688834  1
