# generated using pymatgen
data_LiCoPtO4
_symmetry_space_group_name_H-M   'P 1'
_cell_length_a   5.94149227
_cell_length_b   5.94149287
_cell_length_c   5.94149302
_cell_angle_alpha   121.99065858
_cell_angle_beta   117.63102643
_cell_angle_gamma   90.36917425
_symmetry_Int_Tables_number   1
_chemical_formula_structural   LiCoPtO4
_chemical_formula_sum   'Li2 Co2 Pt2 O8'
_cell_volume   148.46405354
_cell_formula_units_Z   2
loop_
 _symmetry_equiv_pos_site_id
 _symmetry_equiv_pos_as_xyz
  1  'x, y, z'
loop_
 _atom_site_type_symbol
 _atom_site_label
 _atom_site_symmetry_multiplicity
 _atom_site_fract_x
 _atom_site_fract_y
 _atom_site_fract_z
 _atom_site_occupancy
  Li  Li0  1  0.120019  0.870019  0.250000  1
  Li  Li1  1  0.879981  0.129981  0.750000  1
  Co  Co2  1  0.500000  0.500000  0.500000  1
  Co  Co3  1  0.500000  0.000000  0.000000  1
  Pt  Pt4  1  0.000000  0.500000  0.500000  1
  Pt  Pt5  1  0.500000  0.500000  0.000000  1
  O  O6  1  0.719415  0.257017  0.462398  1
  O  O7  1  0.294617  0.257017  0.037602  1
  O  O8  1  0.731050  0.249602  0.018552  1
  O  O9  1  0.731050  0.712498  0.481448  1
  O  O10  1  0.268950  0.287502  0.518552  1
  O  O11  1  0.268950  0.750398  0.981448  1
  O  O12  1  0.705383  0.742983  0.962398  1
  O  O13  1  0.280585  0.742983  0.537602  1
