# generated using pymatgen
data_Ti2GaH
_symmetry_space_group_name_H-M   'P 1'
_cell_length_a   5.16891100
_cell_length_b   5.16891159
_cell_length_c   5.16891209
_cell_angle_alpha   104.37658698
_cell_angle_beta   104.37658426
_cell_angle_gamma   120.22598287
_symmetry_Int_Tables_number   1
_chemical_formula_structural   Ti2GaH
_chemical_formula_sum   'Ti4 Ga2 H2'
_cell_volume   103.45666516
_cell_formula_units_Z   2
loop_
 _symmetry_equiv_pos_site_id
 _symmetry_equiv_pos_as_xyz
  1  'x, y, z'
loop_
 _atom_site_type_symbol
 _atom_site_label
 _atom_site_symmetry_multiplicity
 _atom_site_fract_x
 _atom_site_fract_y
 _atom_site_fract_z
 _atom_site_occupancy
  Ti  Ti0  1  0.158330  0.658330  0.816662  1
  Ti  Ti1  1  0.841670  0.341670  0.183338  1
  Ti  Ti2  1  0.341670  0.158330  0.500000  1
  Ti  Ti3  1  0.658330  0.841670  0.500000  1
  Ga  Ga4  1  0.250000  0.250000  0.000000  1
  Ga  Ga5  1  0.750000  0.750000  0.000000  1
  H  H6  1  0.750000  0.250000  0.500000  1
  H  H7  1  0.250000  0.750000  0.500000  1
