# generated using pymatgen
data_Er8Tc3B24Ir
_symmetry_space_group_name_H-M   'P 1'
_cell_length_a   3.65121100
_cell_length_b   9.11401256
_cell_length_c   11.49254541
_cell_angle_alpha   90.09712324
_cell_angle_beta   90.00000000
_cell_angle_gamma   90.00000000
_symmetry_Int_Tables_number   1
_chemical_formula_structural   Er8Tc3B24Ir
_chemical_formula_sum   'Er8 Tc3 B24 Ir1'
_cell_volume   382.43898622
_cell_formula_units_Z   1
loop_
 _symmetry_equiv_pos_site_id
 _symmetry_equiv_pos_as_xyz
  1  'x, y, z'
loop_
 _atom_site_type_symbol
 _atom_site_label
 _atom_site_symmetry_multiplicity
 _atom_site_fract_x
 _atom_site_fract_y
 _atom_site_fract_z
 _atom_site_occupancy
  Er  Er0  1  0.000000  0.318312  0.415667  1
  Er  Er1  1  0.000000  0.678403  0.591416  1
  Er  Er2  1  0.000000  0.827056  0.081330  1
  Er  Er3  1  0.000000  0.176821  0.912500  1
  Er  Er4  1  0.000000  0.944651  0.370417  1
  Er  Er5  1  0.000000  0.056365  0.629447  1
  Er  Er6  1  0.000000  0.440081  0.128022  1
  Er  Er7  1  0.000000  0.557081  0.871188  1
  Tc  Tc8  1  0.000000  0.362991  0.677666  1
  Tc  Tc9  1  0.000000  0.138229  0.180216  1
  Tc  Tc10  1  0.000000  0.861764  0.820936  1
  B  B11  1  0.500000  0.553451  0.433930  1
  B  B12  1  0.500000  0.446895  0.566317  1
  B  B13  1  0.500000  0.053195  0.066480  1
  B  B14  1  0.500000  0.947342  0.933007  1
  B  B15  1  0.500000  0.749221  0.420392  1
  B  B16  1  0.500000  0.250540  0.580660  1
  B  B17  1  0.500000  0.248876  0.080726  1
  B  B18  1  0.500000  0.751626  0.919388  1
  B  B19  1  0.500000  0.791601  0.264870  1
  B  B20  1  0.500000  0.208463  0.734375  1
  B  B21  1  0.500000  0.291784  0.235297  1
  B  B22  1  0.500000  0.708150  0.765748  1
  B  B23  1  0.500000  0.631430  0.183956  1
  B  B24  1  0.500000  0.369464  0.814449  1
  B  B25  1  0.500000  0.130756  0.315249  1
  B  B26  1  0.500000  0.868607  0.685247  1
  B  B27  1  0.500000  0.982334  0.212124  1
  B  B28  1  0.500000  0.018093  0.787227  1
  B  B29  1  0.500000  0.482060  0.287764  1
  B  B30  1  0.500000  0.518766  0.712256  1
  B  B31  1  0.500000  0.603409  0.029240  1
  B  B32  1  0.500000  0.397034  0.971631  1
  B  B33  1  0.500000  0.101781  0.471433  1
  B  B34  1  0.500000  0.895590  0.528373  1
  Ir  Ir35  1  0.000000  0.637774  0.321055  1
