# generated using pymatgen
data_Dy9Lu3Ga20
_symmetry_space_group_name_H-M   'P 1'
_cell_length_a   11.51549716
_cell_length_b   9.60129700
_cell_length_c   6.07547809
_cell_angle_alpha   90.00000000
_cell_angle_beta   89.98076428
_cell_angle_gamma   90.00000000
_symmetry_Int_Tables_number   1
_chemical_formula_structural   Dy9Lu3Ga20
_chemical_formula_sum   'Dy9 Lu3 Ga20'
_cell_volume   671.72734933
_cell_formula_units_Z   1
loop_
 _symmetry_equiv_pos_site_id
 _symmetry_equiv_pos_as_xyz
  1  'x, y, z'
loop_
 _atom_site_type_symbol
 _atom_site_label
 _atom_site_symmetry_multiplicity
 _atom_site_fract_x
 _atom_site_fract_y
 _atom_site_fract_z
 _atom_site_occupancy
  Dy  Dy0  1  0.351678  0.009838  0.109339  1
  Dy  Dy1  1  0.148908  0.991021  0.608991  1
  Dy  Dy2  1  0.851629  0.490239  0.390101  1
  Dy  Dy3  1  0.648243  0.509356  0.890820  1
  Dy  Dy4  1  0.648243  0.990645  0.890820  1
  Dy  Dy5  1  0.851629  0.009762  0.390101  1
  Dy  Dy6  1  0.148908  0.508980  0.608991  1
  Dy  Dy7  1  0.351678  0.490163  0.109339  1
  Dy  Dy8  1  0.926187  0.750000  0.848305  1
  Lu  Lu9  1  0.073804  0.250000  0.152360  1
  Lu  Lu10  1  0.426550  0.750000  0.652204  1
  Lu  Lu11  1  0.573869  0.250000  0.347903  1
  Ga  Ga12  1  0.298194  0.250000  0.398079  1
  Ga  Ga13  1  0.202540  0.750000  0.898092  1
  Ga  Ga14  1  0.798110  0.250000  0.102570  1
  Ga  Ga15  1  0.700219  0.750000  0.601747  1
  Ga  Ga16  1  0.004668  0.250000  0.627081  1
  Ga  Ga17  1  0.495020  0.750000  0.127783  1
  Ga  Ga18  1  0.504615  0.250000  0.872202  1
  Ga  Ga19  1  0.995939  0.750000  0.370111  1
  Ga  Ga20  1  0.251477  0.250000  0.830510  1
  Ga  Ga21  1  0.248973  0.750000  0.330523  1
  Ga  Ga22  1  0.751345  0.250000  0.669623  1
  Ga  Ga23  1  0.747630  0.750000  0.172071  1
  Ga  Ga24  1  0.090657  0.551837  0.124644  1
  Ga  Ga25  1  0.409843  0.447653  0.624306  1
  Ga  Ga26  1  0.589931  0.947834  0.375800  1
  Ga  Ga27  1  0.909541  0.053741  0.875417  1
  Ga  Ga28  1  0.909541  0.446259  0.875417  1
  Ga  Ga29  1  0.589931  0.552165  0.375800  1
  Ga  Ga30  1  0.409843  0.052347  0.624306  1
  Ga  Ga31  1  0.090657  0.948162  0.124644  1
