# generated using pymatgen
data_Nd3In3CuNiAu
_symmetry_space_group_name_H-M   'P 1'
_cell_length_a   7.73463400
_cell_length_b   7.73463354
_cell_length_c   4.02507700
_cell_angle_alpha   90.00000000
_cell_angle_beta   90.00000000
_cell_angle_gamma   120.00000197
_symmetry_Int_Tables_number   1
_chemical_formula_structural   Nd3In3CuNiAu
_chemical_formula_sum   'Nd3 In3 Cu1 Ni1 Au1'
_cell_volume   208.53757824
_cell_formula_units_Z   1
loop_
 _symmetry_equiv_pos_site_id
 _symmetry_equiv_pos_as_xyz
  1  'x, y, z'
loop_
 _atom_site_type_symbol
 _atom_site_label
 _atom_site_symmetry_multiplicity
 _atom_site_fract_x
 _atom_site_fract_y
 _atom_site_fract_z
 _atom_site_occupancy
  Nd  Nd0  1  0.408204  0.423028  0.500000  1
  Nd  Nd1  1  0.576972  0.985177  0.500000  1
  Nd  Nd2  1  0.014823  0.591796  0.500000  1
  In  In3  1  0.751575  0.755999  0.000000  1
  In  In4  1  0.244001  0.995577  0.000000  1
  In  In5  1  0.004423  0.248425  0.000000  1
  Cu  Cu6  1  0.000000  0.000000  0.500000  1
  Ni  Ni7  1  0.333333  0.666667  0.000000  1
  Au  Au8  1  0.666667  0.333333  0.000000  1
