# generated using pymatgen
data_Tb3Cd2Sb3O14
_symmetry_space_group_name_H-M   'P 1'
_cell_length_a   7.33314528
_cell_length_b   7.33315061
_cell_length_c   7.33314802
_cell_angle_alpha   117.97691003
_cell_angle_beta   62.02308808
_cell_angle_gamma   117.97691553
_symmetry_Int_Tables_number   1
_chemical_formula_structural   Tb3Cd2Sb3O14
_chemical_formula_sum   'Tb3 Cd2 Sb3 O14'
_cell_volume   291.45668195
_cell_formula_units_Z   1
loop_
 _symmetry_equiv_pos_site_id
 _symmetry_equiv_pos_as_xyz
  1  'x, y, z'
loop_
 _atom_site_type_symbol
 _atom_site_label
 _atom_site_symmetry_multiplicity
 _atom_site_fract_x
 _atom_site_fract_y
 _atom_site_fract_z
 _atom_site_occupancy
  Tb  Tb0  1  0.999999  0.500001  0.000001  1
  Tb  Tb1  1  0.499999  0.000001  0.999998  1
  Tb  Tb2  1  0.499999  0.500001  0.500000  1
  Cd  Cd3  1  0.500001  0.500003  0.000000  1
  Cd  Cd4  1  0.000001  0.999999  0.500001  1
  Sb  Sb5  1  0.500001  0.999999  0.500000  1
  Sb  Sb6  1  0.999999  0.500000  0.500000  1
  Sb  Sb7  1  0.000000  0.999999  0.000001  1
  O  O8  1  0.622573  0.377426  0.122574  1
  O  O9  1  0.377425  0.622575  0.877425  1
  O  O10  1  0.080840  0.317958  0.182043  1
  O  O11  1  0.682041  0.919157  0.182042  1
  O  O12  1  0.682042  0.317958  0.580840  1
  O  O13  1  0.919161  0.682042  0.817958  1
  O  O14  1  0.317959  0.080839  0.817958  1
  O  O15  1  0.317958  0.682042  0.419161  1
  O  O16  1  0.629427  0.897831  0.602169  1
  O  O17  1  0.102170  0.370572  0.602170  1
  O  O18  1  0.102170  0.897830  0.129426  1
  O  O19  1  0.370575  0.102170  0.397829  1
  O  O20  1  0.897831  0.629425  0.397830  1
  O  O21  1  0.897829  0.102170  0.870575  1
