# generated using pymatgen
data_Er8ReB24MoOs2
_symmetry_space_group_name_H-M   'P 1'
_cell_length_a   3.63978300
_cell_length_b   9.13992134
_cell_length_c   11.51702518
_cell_angle_alpha   89.99845997
_cell_angle_beta   90.00000000
_cell_angle_gamma   90.00000000
_symmetry_Int_Tables_number   1
_chemical_formula_structural   Er8ReB24MoOs2
_chemical_formula_sum   'Er8 Re1 B24 Mo1 Os2'
_cell_volume   383.14068068
_cell_formula_units_Z   1
loop_
 _symmetry_equiv_pos_site_id
 _symmetry_equiv_pos_as_xyz
  1  'x, y, z'
loop_
 _atom_site_type_symbol
 _atom_site_label
 _atom_site_symmetry_multiplicity
 _atom_site_fract_x
 _atom_site_fract_y
 _atom_site_fract_z
 _atom_site_occupancy
  Er  Er0  1  0.000000  0.322254  0.414064  1
  Er  Er1  1  0.000000  0.678947  0.587093  1
  Er  Er2  1  0.000000  0.822303  0.085235  1
  Er  Er3  1  0.000000  0.176337  0.913716  1
  Er  Er4  1  0.000000  0.944752  0.371527  1
  Er  Er5  1  0.000000  0.057478  0.628993  1
  Er  Er6  1  0.000000  0.442128  0.127911  1
  Er  Er7  1  0.000000  0.556872  0.870745  1
  Re  Re8  1  0.000000  0.862640  0.821052  1
  B  B9  1  0.500000  0.550899  0.435534  1
  B  B10  1  0.500000  0.446384  0.567869  1
  B  B11  1  0.500000  0.053244  0.067055  1
  B  B12  1  0.500000  0.947253  0.933529  1
  B  B13  1  0.500000  0.751320  0.421639  1
  B  B14  1  0.500000  0.251857  0.581070  1
  B  B15  1  0.500000  0.248030  0.080754  1
  B  B16  1  0.500000  0.750582  0.919169  1
  B  B17  1  0.500000  0.794460  0.264109  1
  B  B18  1  0.500000  0.208576  0.734107  1
  B  B19  1  0.500000  0.290806  0.233834  1
  B  B20  1  0.500000  0.708204  0.765471  1
  B  B21  1  0.500000  0.631106  0.183085  1
  B  B22  1  0.500000  0.368269  0.814625  1
  B  B23  1  0.500000  0.131278  0.314143  1
  B  B24  1  0.500000  0.869332  0.685290  1
  B  B25  1  0.500000  0.983241  0.212289  1
  B  B26  1  0.500000  0.018611  0.787939  1
  B  B27  1  0.500000  0.477962  0.287487  1
  B  B28  1  0.500000  0.516842  0.712684  1
  B  B29  1  0.500000  0.602235  0.027859  1
  B  B30  1  0.500000  0.395900  0.970663  1
  B  B31  1  0.500000  0.104599  0.471031  1
  B  B32  1  0.500000  0.898149  0.529239  1
  Mo  Mo33  1  0.000000  0.637745  0.321159  1
  Os  Os34  1  0.000000  0.361299  0.679749  1
  Os  Os35  1  0.000000  0.138104  0.178280  1
