# generated using pymatgen
data_TbCe3Hf4O14
_symmetry_space_group_name_H-M   'P 1'
_cell_length_a   7.56869437
_cell_length_b   7.56946733
_cell_length_c   7.56946700
_cell_angle_alpha   59.99999707
_cell_angle_beta   59.99661872
_cell_angle_gamma   59.99661739
_symmetry_Int_Tables_number   1
_chemical_formula_structural   TbCe3Hf4O14
_chemical_formula_sum   'Tb1 Ce3 Hf4 O14'
_cell_volume   306.62981264
_cell_formula_units_Z   1
loop_
 _symmetry_equiv_pos_site_id
 _symmetry_equiv_pos_as_xyz
  1  'x, y, z'
loop_
 _atom_site_type_symbol
 _atom_site_label
 _atom_site_symmetry_multiplicity
 _atom_site_fract_x
 _atom_site_fract_y
 _atom_site_fract_z
 _atom_site_occupancy
  Tb  Tb0  1  0.625000  0.125000  0.125000  1
  Ce  Ce1  1  0.125000  0.625000  0.125000  1
  Ce  Ce2  1  0.125000  0.125000  0.625000  1
  Ce  Ce3  1  0.125000  0.125000  0.125000  1
  Hf  Hf4  1  0.125000  0.625000  0.625000  1
  Hf  Hf5  1  0.625000  0.125000  0.625000  1
  Hf  Hf6  1  0.625000  0.625000  0.125000  1
  Hf  Hf7  1  0.625000  0.625000  0.625000  1
  O  O8  1  0.706029  0.710337  0.291817  1
  O  O9  1  0.293155  0.292902  0.706971  1
  O  O10  1  0.706029  0.291817  0.710337  1
  O  O11  1  0.293155  0.706971  0.292902  1
  O  O12  1  0.293155  0.706971  0.706971  1
  O  O13  1  0.706029  0.291817  0.291817  1
  O  O14  1  0.543971  0.539663  0.958183  1
  O  O15  1  0.956845  0.957098  0.543029  1
  O  O16  1  0.543971  0.958183  0.539663  1
  O  O17  1  0.956845  0.543029  0.957098  1
  O  O18  1  0.956845  0.543029  0.543029  1
  O  O19  1  0.543971  0.958183  0.958183  1
  O  O20  1  0.259183  0.246939  0.246939  1
  O  O21  1  0.990817  0.003061  0.003061  1
