# generated using pymatgen
data_SmEuYGa8Ag3
_symmetry_space_group_name_H-M   'P 1'
_cell_length_a   4.40551806
_cell_length_b   8.48956434
_cell_length_c   8.48956533
_cell_angle_alpha   69.85004864
_cell_angle_beta   74.96157332
_cell_angle_gamma   74.96158216
_symmetry_Int_Tables_number   1
_chemical_formula_structural   SmEuYGa8Ag3
_chemical_formula_sum   'Sm1 Eu1 Y1 Ga8 Ag3'
_cell_volume   282.76390929
_cell_formula_units_Z   1
loop_
 _symmetry_equiv_pos_site_id
 _symmetry_equiv_pos_as_xyz
  1  'x, y, z'
loop_
 _atom_site_type_symbol
 _atom_site_label
 _atom_site_symmetry_multiplicity
 _atom_site_fract_x
 _atom_site_fract_y
 _atom_site_fract_z
 _atom_site_occupancy
  Sm  Sm0  1  0.300473  0.699527  0.699527  1
  Eu  Eu1  1  0.999697  0.000303  0.000303  1
  Y  Y2  1  0.699147  0.300853  0.300853  1
  Ga  Ga3  1  0.338653  0.293453  0.029239  1
  Ga  Ga4  1  0.660774  0.706672  0.971781  1
  Ga  Ga5  1  0.338653  0.029239  0.293453  1
  Ga  Ga6  1  0.660774  0.971781  0.706672  1
  Ga  Ga7  1  0.144700  0.572836  0.137764  1
  Ga  Ga8  1  0.855438  0.426039  0.863083  1
  Ga  Ga9  1  0.144700  0.137764  0.572836  1
  Ga  Ga10  1  0.855438  0.863083  0.426039  1
  Ag  Ag11  1  0.500487  0.306216  0.692810  1
  Ag  Ag12  1  0.500487  0.692810  0.306216  1
  Ag  Ag13  1  0.000577  0.499423  0.499423  1
