# generated using pymatgen
data_Ho3Lu9ZnCo4Bi
_symmetry_space_group_name_H-M   'P 1'
_cell_length_a   8.20267094
_cell_length_b   8.22453235
_cell_length_c   8.22114355
_cell_angle_alpha   111.64982726
_cell_angle_beta   109.84901346
_cell_angle_gamma   107.04231528
_symmetry_Int_Tables_number   1
_chemical_formula_structural   Ho3Lu9ZnCo4Bi
_chemical_formula_sum   'Ho3 Lu9 Zn1 Co4 Bi1'
_cell_volume   425.75400629
_cell_formula_units_Z   1
loop_
 _symmetry_equiv_pos_site_id
 _symmetry_equiv_pos_as_xyz
  1  'x, y, z'
loop_
 _atom_site_type_symbol
 _atom_site_label
 _atom_site_symmetry_multiplicity
 _atom_site_fract_x
 _atom_site_fract_y
 _atom_site_fract_z
 _atom_site_occupancy
  Ho  Ho0  1  0.427518  0.220702  0.206716  1
  Ho  Ho1  1  0.985803  0.778939  0.207014  1
  Ho  Ho2  1  0.013433  0.220984  0.792404  1
  Lu  Lu3  1  0.818698  0.714868  0.534867  1
  Lu  Lu4  1  0.181975  0.286433  0.467220  1
  Lu  Lu5  1  0.181873  0.714700  0.895505  1
  Lu  Lu6  1  0.818869  0.283887  0.103940  1
  Lu  Lu7  1  0.685358  0.379792  0.692433  1
  Lu  Lu8  1  0.315563  0.621811  0.309153  1
  Lu  Lu9  1  0.685354  0.992952  0.305627  1
  Lu  Lu10  1  0.315539  0.006422  0.693760  1
  Lu  Lu11  1  0.571068  0.779312  0.791717  1
  Zn  Zn12  1  0.996874  0.998154  0.998687  1
  Co  Co13  1  0.622253  0.999026  0.623285  1
  Co  Co14  1  0.378579  0.000899  0.377627  1
  Co  Co15  1  0.114311  0.613522  0.500732  1
  Co  Co16  1  0.887205  0.386990  0.500194  1
  Bi  Bi17  1  0.499724  0.500606  0.999118  1
