# generated using pymatgen
data_La6Cu4IrPd12
_symmetry_space_group_name_H-M   'P 1'
_cell_length_a   8.40271625
_cell_length_b   8.40271631
_cell_length_c   8.40271700
_cell_angle_alpha   109.47121748
_cell_angle_beta   109.47121762
_cell_angle_gamma   109.47122691
_symmetry_Int_Tables_number   1
_chemical_formula_structural   La6Cu4IrPd12
_chemical_formula_sum   'La6 Cu4 Ir1 Pd12'
_cell_volume   456.70655491
_cell_formula_units_Z   1
loop_
 _symmetry_equiv_pos_site_id
 _symmetry_equiv_pos_as_xyz
  1  'x, y, z'
loop_
 _atom_site_type_symbol
 _atom_site_label
 _atom_site_symmetry_multiplicity
 _atom_site_fract_x
 _atom_site_fract_y
 _atom_site_fract_z
 _atom_site_occupancy
  La  La0  1  0.701792  0.701792  0.000000  1
  La  La1  1  0.298208  0.000000  0.298208  1
  La  La2  1  0.000000  0.298208  0.298208  1
  La  La3  1  0.298208  0.298208  0.000000  1
  La  La4  1  0.701792  0.000000  0.701792  1
  La  La5  1  0.000000  0.701792  0.701792  1
  Cu  Cu6  1  0.000000  0.000000  0.500000  1
  Cu  Cu7  1  0.000000  0.500000  0.000000  1
  Cu  Cu8  1  0.500000  0.000000  0.000000  1
  Cu  Cu9  1  0.500000  0.500000  0.500000  1
  Ir  Ir10  1  0.000000  0.000000  0.000000  1
  Pd  Pd11  1  0.331358  0.331358  0.662716  1
  Pd  Pd12  1  0.668642  0.000000  0.331358  1
  Pd  Pd13  1  0.000000  0.668642  0.331358  1
  Pd  Pd14  1  0.668642  0.331358  0.000000  1
  Pd  Pd15  1  0.331358  0.662716  0.331358  1
  Pd  Pd16  1  0.000000  0.331358  0.668642  1
  Pd  Pd17  1  0.331358  0.668642  0.000000  1
  Pd  Pd18  1  0.331358  0.000000  0.668642  1
  Pd  Pd19  1  0.662716  0.331358  0.331358  1
  Pd  Pd20  1  0.668642  0.668642  0.337284  1
  Pd  Pd21  1  0.668642  0.337284  0.668642  1
  Pd  Pd22  1  0.337284  0.668642  0.668642  1
