# generated using pymatgen
data_Nd3Ni8MoAs6
_symmetry_space_group_name_H-M   'P 1'
_cell_length_a   3.99438700
_cell_length_b   11.12956500
_cell_length_c   12.88189000
_cell_angle_alpha   90.00000000
_cell_angle_beta   90.00000000
_cell_angle_gamma   90.00000000
_symmetry_Int_Tables_number   1
_chemical_formula_structural   Nd3Ni8MoAs6
_chemical_formula_sum   'Nd6 Ni16 Mo2 As12'
_cell_volume   572.67459344
_cell_formula_units_Z   2
loop_
 _symmetry_equiv_pos_site_id
 _symmetry_equiv_pos_as_xyz
  1  'x, y, z'
loop_
 _atom_site_type_symbol
 _atom_site_label
 _atom_site_symmetry_multiplicity
 _atom_site_fract_x
 _atom_site_fract_y
 _atom_site_fract_z
 _atom_site_occupancy
  Nd  Nd0  1  0.000000  0.500000  0.521359  1
  Nd  Nd1  1  0.500000  0.000000  0.478641  1
  Nd  Nd2  1  0.500000  0.816579  0.206907  1
  Nd  Nd3  1  0.500000  0.183421  0.206907  1
  Nd  Nd4  1  0.000000  0.683421  0.793093  1
  Nd  Nd5  1  0.000000  0.316579  0.793093  1
  Ni  Ni6  1  0.500000  0.500000  0.697437  1
  Ni  Ni7  1  0.000000  0.000000  0.302563  1
  Ni  Ni8  1  0.000000  0.500000  0.981684  1
  Ni  Ni9  1  0.500000  0.000000  0.018316  1
  Ni  Ni10  1  0.500000  0.333697  0.991093  1
  Ni  Ni11  1  0.500000  0.666303  0.991093  1
  Ni  Ni12  1  0.000000  0.166303  0.008907  1
  Ni  Ni13  1  0.000000  0.833697  0.008907  1
  Ni  Ni14  1  0.500000  0.304559  0.422832  1
  Ni  Ni15  1  0.500000  0.695441  0.422832  1
  Ni  Ni16  1  0.000000  0.195441  0.577168  1
  Ni  Ni17  1  0.000000  0.804559  0.577168  1
  Ni  Ni18  1  0.500000  0.883552  0.712263  1
  Ni  Ni19  1  0.500000  0.116448  0.712263  1
  Ni  Ni20  1  0.000000  0.616448  0.287737  1
  Ni  Ni21  1  0.000000  0.383552  0.287737  1
  Mo  Mo22  1  0.500000  0.500000  0.145578  1
  Mo  Mo23  1  0.000000  0.000000  0.854422  1
  As  As24  1  0.500000  0.500000  0.878523  1
  As  As25  1  0.000000  0.000000  0.121477  1
  As  As26  1  0.500000  0.500000  0.341601  1
  As  As27  1  0.000000  0.000000  0.658399  1
  As  As28  1  0.500000  0.310020  0.611334  1
  As  As29  1  0.500000  0.689980  0.611334  1
  As  As30  1  0.000000  0.189980  0.388666  1
  As  As31  1  0.000000  0.810020  0.388666  1
  As  As32  1  0.500000  0.846141  0.894919  1
  As  As33  1  0.500000  0.153859  0.894919  1
  As  As34  1  0.000000  0.653859  0.105081  1
  As  As35  1  0.000000  0.346141  0.105081  1
