# generated using pymatgen
data_HfSc3(Co4As3)2
_symmetry_space_group_name_H-M   'P 1'
_cell_length_a   12.55575890
_cell_length_b   12.57604990
_cell_length_c   3.74665800
_cell_angle_alpha   90.00000000
_cell_angle_beta   90.00000000
_cell_angle_gamma   119.95319960
_symmetry_Int_Tables_number   1
_chemical_formula_structural   HfSc3(Co4As3)2
_chemical_formula_sum   'Hf2 Sc6 Co16 As12'
_cell_volume   512.58573956
_cell_formula_units_Z   2
loop_
 _symmetry_equiv_pos_site_id
 _symmetry_equiv_pos_as_xyz
  1  'x, y, z'
loop_
 _atom_site_type_symbol
 _atom_site_label
 _atom_site_symmetry_multiplicity
 _atom_site_fract_x
 _atom_site_fract_y
 _atom_site_fract_z
 _atom_site_occupancy
  Hf  Hf0  1  0.000380  0.558301  0.000000  1
  Hf  Hf1  1  0.183581  0.999553  0.500000  1
  Sc  Sc2  1  0.816343  0.816042  0.500000  1
  Sc  Sc3  1  0.442005  0.441304  0.000000  1
  Sc  Sc4  1  0.999640  0.182150  0.500000  1
  Sc  Sc5  1  0.558797  0.000072  0.000000  1
  Sc  Sc6  1  0.333676  0.665981  0.000000  1
  Sc  Sc7  1  0.666644  0.332741  0.000000  1
  Co  Co8  1  0.628222  0.823942  0.000000  1
  Co  Co9  1  0.369661  0.193291  0.000000  1
  Co  Co10  1  0.001672  0.720938  0.500000  1
  Co  Co11  1  0.280123  0.278906  0.500000  1
  Co  Co12  1  0.877101  0.357158  0.500000  1
  Co  Co13  1  0.719611  0.000225  0.500000  1
  Co  Co14  1  0.824451  0.628461  0.000000  1
  Co  Co15  1  0.175177  0.806105  0.000000  1
  Co  Co16  1  0.354258  0.876199  0.500000  1
  Co  Co17  1  0.123588  0.480540  0.500000  1
  Co  Co18  1  0.644114  0.519903  0.500000  1
  Co  Co19  1  0.002209  0.000910  0.000000  1
  Co  Co20  1  0.521724  0.644975  0.500000  1
  Co  Co21  1  0.476935  0.123122  0.500000  1
  Co  Co22  1  0.196195  0.373087  0.000000  1
  Co  Co23  1  0.803845  0.176491  0.000000  1
  As  As24  1  0.999860  0.346641  0.000000  1
  As  As25  1  0.824197  0.513933  0.500000  1
  As  As26  1  0.688226  0.174787  0.500000  1
  As  As27  1  0.175055  0.176365  0.000000  1
  As  As28  1  0.650346  0.650700  0.000000  1
  As  As29  1  0.825516  0.999975  0.000000  1
  As  As30  1  0.513966  0.825270  0.500000  1
  As  As31  1  0.176183  0.689556  0.500000  1
  As  As32  1  0.350219  0.000011  0.000000  1
  As  As33  1  0.485822  0.311213  0.500000  1
  As  As34  1  0.998565  0.825143  0.000000  1
  As  As35  1  0.312095  0.486004  0.500000  1
