# generated using pymatgen
data_Cs7NbTlIn2P5
_symmetry_space_group_name_H-M   'P 1'
_cell_length_a   8.90944894
_cell_length_b   9.76535057
_cell_length_c   14.88106494
_cell_angle_alpha   85.62063935
_cell_angle_beta   85.26820680
_cell_angle_gamma   84.78507546
_symmetry_Int_Tables_number   1
_chemical_formula_structural   Cs7NbTlIn2P5
_chemical_formula_sum   'Cs14 Nb2 Tl2 In4 P10'
_cell_volume   1281.86025770
_cell_formula_units_Z   2
loop_
 _symmetry_equiv_pos_site_id
 _symmetry_equiv_pos_as_xyz
  1  'x, y, z'
loop_
 _atom_site_type_symbol
 _atom_site_label
 _atom_site_symmetry_multiplicity
 _atom_site_fract_x
 _atom_site_fract_y
 _atom_site_fract_z
 _atom_site_occupancy
  Cs  Cs0  1  0.838399  0.365850  0.648867  1
  Cs  Cs1  1  0.814578  0.807833  0.137837  1
  Cs  Cs2  1  0.236083  0.003631  0.468576  1
  Cs  Cs3  1  0.269588  0.252446  0.253982  1
  Cs  Cs4  1  0.738669  0.499083  0.974128  1
  Cs  Cs5  1  0.261331  0.500917  0.025872  1
  Cs  Cs6  1  0.677208  0.083180  0.888542  1
  Cs  Cs7  1  0.763917  0.996369  0.531424  1
  Cs  Cs8  1  0.730412  0.747554  0.746018  1
  Cs  Cs9  1  0.329825  0.342892  0.596669  1
  Cs  Cs10  1  0.161601  0.634150  0.351133  1
  Cs  Cs11  1  0.185422  0.192167  0.862163  1
  Cs  Cs12  1  0.322792  0.916820  0.111458  1
  Cs  Cs13  1  0.670175  0.657108  0.403331  1
  Nb  Nb14  1  0.354002  0.604033  0.774050  1
  Nb  Nb15  1  0.645998  0.395967  0.225950  1
  Tl  Tl16  1  0.059857  0.813997  0.872029  1
  Tl  Tl17  1  0.940143  0.186003  0.127971  1
  In  In18  1  0.359358  0.942540  0.705585  1
  In  In19  1  0.098653  0.720757  0.627724  1
  In  In20  1  0.901347  0.279243  0.372276  1
  In  In21  1  0.640642  0.057460  0.294415  1
  P  P22  1  0.908303  0.449399  0.214410  1
  P  P23  1  0.620052  0.207979  0.128113  1
  P  P24  1  0.091697  0.550601  0.785590  1
  P  P25  1  0.591608  0.300003  0.381326  1
  P  P26  1  0.408392  0.699997  0.618674  1
  P  P27  1  0.043480  0.985484  0.700745  1
  P  P28  1  0.511357  0.404063  0.808059  1
  P  P29  1  0.488643  0.595937  0.191941  1
  P  P30  1  0.379948  0.792021  0.871887  1
  P  P31  1  0.956520  0.014516  0.299255  1
