# generated using pymatgen
data_Ho3MnCo4(Ni2P3)2
_symmetry_space_group_name_H-M   'P 1'
_cell_length_a   3.74002600
_cell_length_b   10.50965000
_cell_length_c   12.25606100
_cell_angle_alpha   90.00000000
_cell_angle_beta   90.00000000
_cell_angle_gamma   90.00000000
_symmetry_Int_Tables_number   1
_chemical_formula_structural   Ho3MnCo4(Ni2P3)2
_chemical_formula_sum   'Ho6 Mn2 Co8 Ni8 P12'
_cell_volume   481.74119795
_cell_formula_units_Z   2
loop_
 _symmetry_equiv_pos_site_id
 _symmetry_equiv_pos_as_xyz
  1  'x, y, z'
loop_
 _atom_site_type_symbol
 _atom_site_label
 _atom_site_symmetry_multiplicity
 _atom_site_fract_x
 _atom_site_fract_y
 _atom_site_fract_z
 _atom_site_occupancy
  Ho  Ho0  1  0.000000  0.500000  0.523288  1
  Ho  Ho1  1  0.500000  0.000000  0.476712  1
  Ho  Ho2  1  0.500000  0.819011  0.205640  1
  Ho  Ho3  1  0.500000  0.180989  0.205640  1
  Ho  Ho4  1  0.000000  0.680989  0.794360  1
  Ho  Ho5  1  0.000000  0.319011  0.794360  1
  Mn  Mn6  1  0.500000  0.500000  0.156000  1
  Mn  Mn7  1  0.000000  0.000000  0.844000  1
  Co  Co8  1  0.000000  0.500000  0.986453  1
  Co  Co9  1  0.500000  0.000000  0.013547  1
  Co  Co10  1  0.500000  0.333034  0.994538  1
  Co  Co11  1  0.500000  0.666966  0.994538  1
  Co  Co12  1  0.000000  0.166966  0.005462  1
  Co  Co13  1  0.000000  0.833034  0.005462  1
  Co  Co14  1  0.500000  0.500000  0.704304  1
  Co  Co15  1  0.000000  0.000000  0.295696  1
  Ni  Ni16  1  0.500000  0.299685  0.429271  1
  Ni  Ni17  1  0.500000  0.700315  0.429271  1
  Ni  Ni18  1  0.000000  0.200315  0.570729  1
  Ni  Ni19  1  0.000000  0.799685  0.570729  1
  Ni  Ni20  1  0.500000  0.879117  0.711079  1
  Ni  Ni21  1  0.500000  0.120883  0.711079  1
  Ni  Ni22  1  0.000000  0.620883  0.288921  1
  Ni  Ni23  1  0.000000  0.379117  0.288921  1
  P  P24  1  0.500000  0.315717  0.616989  1
  P  P25  1  0.500000  0.684283  0.616989  1
  P  P26  1  0.000000  0.184283  0.383011  1
  P  P27  1  0.000000  0.815717  0.383011  1
  P  P28  1  0.500000  0.500000  0.881705  1
  P  P29  1  0.000000  0.000000  0.118295  1
  P  P30  1  0.500000  0.844596  0.895207  1
  P  P31  1  0.500000  0.155404  0.895207  1
  P  P32  1  0.000000  0.655404  0.104793  1
  P  P33  1  0.000000  0.344596  0.104793  1
  P  P34  1  0.500000  0.500000  0.347677  1
  P  P35  1  0.000000  0.000000  0.652323  1
