# generated using pymatgen
data_Tm2LuIn3Ag2Pt
_symmetry_space_group_name_H-M   'P 1'
_cell_length_a   7.92923421
_cell_length_b   7.92473561
_cell_length_c   3.68920000
_cell_angle_alpha   90.00000000
_cell_angle_beta   90.00000000
_cell_angle_gamma   119.91570197
_symmetry_Int_Tables_number   1
_chemical_formula_structural   Tm2LuIn3Ag2Pt
_chemical_formula_sum   'Tm2 Lu1 In3 Ag2 Pt1'
_cell_volume   200.93109051
_cell_formula_units_Z   1
loop_
 _symmetry_equiv_pos_site_id
 _symmetry_equiv_pos_as_xyz
  1  'x, y, z'
loop_
 _atom_site_type_symbol
 _atom_site_label
 _atom_site_symmetry_multiplicity
 _atom_site_fract_x
 _atom_site_fract_y
 _atom_site_fract_z
 _atom_site_occupancy
  Tm  Tm0  1  0.024211  0.609627  0.500000  1
  Tm  Tm1  1  0.585486  0.975776  0.500000  1
  Lu  Lu2  1  0.390079  0.415135  0.500000  1
  In  In3  1  0.991596  0.266954  0.000000  1
  In  In4  1  0.275677  0.009137  0.000000  1
  In  In5  1  0.732914  0.724163  0.000000  1
  Ag  Ag6  1  0.000276  0.000250  0.500000  1
  Ag  Ag7  1  0.666010  0.333561  0.000000  1
  Pt  Pt8  1  0.333749  0.665398  0.000000  1
