# generated using pymatgen
data_Ti2V3AgO12
_symmetry_space_group_name_H-M   'P 1'
_cell_length_a   9.26722697
_cell_length_b   9.26722760
_cell_length_c   9.26722776
_cell_angle_alpha   59.32507048
_cell_angle_beta   59.32506723
_cell_angle_gamma   59.32507408
_symmetry_Int_Tables_number   1
_chemical_formula_structural   Ti2V3AgO12
_chemical_formula_sum   'Ti4 V6 Ag2 O24'
_cell_volume   554.12703857
_cell_formula_units_Z   2
loop_
 _symmetry_equiv_pos_site_id
 _symmetry_equiv_pos_as_xyz
  1  'x, y, z'
loop_
 _atom_site_type_symbol
 _atom_site_label
 _atom_site_symmetry_multiplicity
 _atom_site_fract_x
 _atom_site_fract_y
 _atom_site_fract_z
 _atom_site_occupancy
  Ti  Ti0  1  0.358637  0.358637  0.358637  1
  Ti  Ti1  1  0.858637  0.858637  0.858637  1
  Ti  Ti2  1  0.641363  0.641363  0.641363  1
  Ti  Ti3  1  0.141363  0.141363  0.141363  1
  V  V4  1  0.965518  0.534482  0.250000  1
  V  V5  1  0.250000  0.965518  0.534482  1
  V  V6  1  0.534482  0.250000  0.965518  1
  V  V7  1  0.750000  0.034482  0.465518  1
  V  V8  1  0.465518  0.750000  0.034482  1
  V  V9  1  0.034482  0.465518  0.750000  1
  Ag  Ag10  1  0.500000  0.500000  0.500000  1
  Ag  Ag11  1  0.000000  0.000000  0.000000  1
  O  O12  1  0.146758  0.496530  0.291811  1
  O  O13  1  0.291811  0.146758  0.496530  1
  O  O14  1  0.496530  0.291811  0.146758  1
  O  O15  1  0.791811  0.996530  0.646758  1
  O  O16  1  0.646758  0.791811  0.996530  1
  O  O17  1  0.996530  0.646758  0.791811  1
  O  O18  1  0.853242  0.503470  0.708189  1
  O  O19  1  0.708189  0.853242  0.503470  1
  O  O20  1  0.503470  0.708189  0.853242  1
  O  O21  1  0.208189  0.003470  0.353242  1
  O  O22  1  0.353242  0.208189  0.003470  1
  O  O23  1  0.003470  0.353242  0.208189  1
  O  O24  1  0.230662  0.439680  0.567990  1
  O  O25  1  0.567990  0.230662  0.439680  1
  O  O26  1  0.439680  0.567990  0.230662  1
  O  O27  1  0.067990  0.939680  0.730662  1
  O  O28  1  0.730662  0.067990  0.939680  1
  O  O29  1  0.939680  0.730662  0.067990  1
  O  O30  1  0.769338  0.560320  0.432010  1
  O  O31  1  0.432010  0.769338  0.560320  1
  O  O32  1  0.560320  0.432010  0.769338  1
  O  O33  1  0.932010  0.060320  0.269338  1
  O  O34  1  0.269338  0.932010  0.060320  1
  O  O35  1  0.060320  0.269338  0.932010  1
