# generated using pymatgen
data_Dy7Y3Th2(CoNi)2
_symmetry_space_group_name_H-M   'P 1'
_cell_length_a   6.32172728
_cell_length_b   6.90311969
_cell_length_c   9.61391732
_cell_angle_alpha   90.02832106
_cell_angle_beta   90.00917472
_cell_angle_gamma   89.90299903
_symmetry_Int_Tables_number   1
_chemical_formula_structural   Dy7Y3Th2(CoNi)2
_chemical_formula_sum   'Dy7 Y3 Th2 Co2 Ni2'
_cell_volume   419.54723375
_cell_formula_units_Z   1
loop_
 _symmetry_equiv_pos_site_id
 _symmetry_equiv_pos_as_xyz
  1  'x, y, z'
loop_
 _atom_site_type_symbol
 _atom_site_label
 _atom_site_symmetry_multiplicity
 _atom_site_fract_x
 _atom_site_fract_y
 _atom_site_fract_z
 _atom_site_occupancy
  Dy  Dy0  1  0.328962  0.674617  0.069961  1
  Dy  Dy1  1  0.171259  0.174515  0.430144  1
  Dy  Dy2  1  0.675594  0.323523  0.567774  1
  Dy  Dy3  1  0.823862  0.823325  0.931864  1
  Dy  Dy4  1  0.675381  0.323833  0.931649  1
  Dy  Dy5  1  0.824751  0.823607  0.568024  1
  Dy  Dy6  1  0.328842  0.674538  0.430099  1
  Y  Y7  1  0.170976  0.174802  0.068969  1
  Y  Y8  1  0.144403  0.467525  0.749833  1
  Y  Y9  1  0.355991  0.967476  0.749505  1
  Th  Th10  1  0.847345  0.552151  0.250024  1
  Th  Th11  1  0.652306  0.052146  0.250062  1
  Co  Co12  1  0.032287  0.871096  0.251118  1
  Co  Co13  1  0.467660  0.372631  0.251115  1
  Ni  Ni14  1  0.939387  0.112021  0.750129  1
  Ni  Ni15  1  0.560995  0.612198  0.749730  1
