# generated using pymatgen
data_Ce8Ti3Si16Mo9
_symmetry_space_group_name_H-M   'P 1'
_cell_length_a   6.97427704
_cell_length_b   6.97427704
_cell_length_c   12.97035926
_cell_angle_alpha   90.07960637
_cell_angle_beta   89.92039363
_cell_angle_gamma   89.70994530
_symmetry_Int_Tables_number   1
_chemical_formula_structural   Ce8Ti3Si16Mo9
_chemical_formula_sum   'Ce8 Ti3 Si16 Mo9'
_cell_volume   630.87597278
_cell_formula_units_Z   1
loop_
 _symmetry_equiv_pos_site_id
 _symmetry_equiv_pos_as_xyz
  1  'x, y, z'
loop_
 _atom_site_type_symbol
 _atom_site_label
 _atom_site_symmetry_multiplicity
 _atom_site_fract_x
 _atom_site_fract_y
 _atom_site_fract_z
 _atom_site_occupancy
  Ce  Ce0  1  0.995961  0.664618  0.030174  1
  Ce  Ce1  1  0.003875  0.335158  0.529847  1
  Ce  Ce2  1  0.664618  0.995961  0.969826  1
  Ce  Ce3  1  0.165697  0.505571  0.780261  1
  Ce  Ce4  1  0.833720  0.498105  0.281608  1
  Ce  Ce5  1  0.505571  0.165697  0.219739  1
  Ce  Ce6  1  0.498105  0.833720  0.718392  1
  Ce  Ce7  1  0.335158  0.003875  0.470153  1
  Ti  Ti8  1  0.828669  0.169387  0.748683  1
  Ti  Ti9  1  0.169387  0.828669  0.251317  1
  Ti  Ti10  1  0.330660  0.330660  0.000000  1
  Si  Si11  1  0.034314  0.715134  0.436566  1
  Si  Si12  1  0.961824  0.287881  0.934690  1
  Si  Si13  1  0.715134  0.034314  0.563434  1
  Si  Si14  1  0.211231  0.462343  0.184243  1
  Si  Si15  1  0.787570  0.538889  0.683129  1
  Si  Si16  1  0.462343  0.211231  0.815757  1
  Si  Si17  1  0.538889  0.787570  0.316871  1
  Si  Si18  1  0.287881  0.961824  0.065310  1
  Si  Si19  1  0.801407  0.875295  0.187250  1
  Si  Si20  1  0.304235  0.620432  0.561907  1
  Si  Si21  1  0.699509  0.376850  0.062688  1
  Si  Si22  1  0.620432  0.304235  0.438093  1
  Si  Si23  1  0.376850  0.699509  0.937312  1
  Si  Si24  1  0.124063  0.199779  0.311649  1
  Si  Si25  1  0.199779  0.124063  0.688351  1
  Si  Si26  1  0.875295  0.801407  0.812750  1
  Mo  Mo27  1  0.330964  0.502451  0.372991  1
  Mo  Mo28  1  0.837889  0.001918  0.374231  1
  Mo  Mo29  1  0.002246  0.162997  0.124173  1
  Mo  Mo30  1  0.001918  0.837889  0.625769  1
  Mo  Mo31  1  0.502451  0.330964  0.627009  1
  Mo  Mo32  1  0.162997  0.002246  0.875827  1
  Mo  Mo33  1  0.668189  0.668189  0.500000  1
  Mo  Mo34  1  0.496941  0.664228  0.126573  1
  Mo  Mo35  1  0.664228  0.496941  0.873427  1
