# generated using pymatgen
data_Ho2Mn3Co8NiP7
_symmetry_space_group_name_H-M   'P 1'
_cell_length_a   9.07810910
_cell_length_b   9.06251975
_cell_length_c   3.60328800
_cell_angle_alpha   90.00000000
_cell_angle_beta   90.00000000
_cell_angle_gamma   120.07315097
_symmetry_Int_Tables_number   1
_chemical_formula_structural   Ho2Mn3Co8NiP7
_chemical_formula_sum   'Ho2 Mn3 Co8 Ni1 P7'
_cell_volume   256.53898524
_cell_formula_units_Z   1
loop_
 _symmetry_equiv_pos_site_id
 _symmetry_equiv_pos_as_xyz
  1  'x, y, z'
loop_
 _atom_site_type_symbol
 _atom_site_label
 _atom_site_symmetry_multiplicity
 _atom_site_fract_x
 _atom_site_fract_y
 _atom_site_fract_z
 _atom_site_occupancy
  Ho  Ho0  1  0.665118  0.332991  0.000000  1
  Ho  Ho1  1  0.334197  0.667078  0.500000  1
  Mn  Mn2  1  0.098518  0.219621  0.500000  1
  Mn  Mn3  1  0.778751  0.879627  0.500000  1
  Mn  Mn4  1  0.121413  0.900169  0.500000  1
  Co  Co5  1  0.570618  0.631754  0.000000  1
  Co  Co6  1  0.369720  0.938508  0.000000  1
  Co  Co7  1  0.275618  0.157886  0.000000  1
  Co  Co8  1  0.841681  0.118476  0.000000  1
  Co  Co9  1  0.882240  0.724119  0.000000  1
  Co  Co10  1  0.437769  0.386999  0.500000  1
  Co  Co11  1  0.612131  0.049505  0.500000  1
  Co  Co12  1  0.949688  0.561723  0.500000  1
  Ni  Ni13  1  0.062773  0.432112  0.000000  1
  P  P14  1  0.304796  0.412740  0.000000  1
  P  P15  1  0.587900  0.888031  0.000000  1
  P  P16  1  0.112240  0.703271  0.000000  1
  P  P17  1  0.404444  0.115258  0.500000  1
  P  P18  1  0.878666  0.285811  0.500000  1
  P  P19  1  0.711961  0.594583  0.500000  1
  P  P20  1  0.999757  0.999738  0.000000  1
