# generated using pymatgen
data_Tb8Y12Ir11Ru
_symmetry_space_group_name_H-M   'P 1'
_cell_length_a   10.92759302
_cell_length_b   10.92630402
_cell_length_c   6.41915000
_cell_angle_alpha   90.00000000
_cell_angle_beta   90.00000000
_cell_angle_gamma   90.00768701
_symmetry_Int_Tables_number   1
_chemical_formula_structural   Tb8Y12Ir11Ru
_chemical_formula_sum   'Tb8 Y12 Ir11 Ru1'
_cell_volume   766.43497202
_cell_formula_units_Z   1
loop_
 _symmetry_equiv_pos_site_id
 _symmetry_equiv_pos_as_xyz
  1  'x, y, z'
loop_
 _atom_site_type_symbol
 _atom_site_label
 _atom_site_symmetry_multiplicity
 _atom_site_fract_x
 _atom_site_fract_y
 _atom_site_fract_z
 _atom_site_occupancy
  Tb  Tb0  1  0.292575  0.087345  0.378193  1
  Tb  Tb1  1  0.293007  0.912467  0.881191  1
  Tb  Tb2  1  0.706993  0.087533  0.881191  1
  Tb  Tb3  1  0.707425  0.912655  0.378193  1
  Tb  Tb4  1  0.000000  0.000000  0.498667  1
  Tb  Tb5  1  0.000000  0.000000  0.998586  1
  Tb  Tb6  1  0.500000  0.500000  0.999099  1
  Tb  Tb7  1  0.500000  0.500000  0.499151  1
  Y  Y8  1  0.587638  0.792536  0.880911  1
  Y  Y9  1  0.587467  0.207975  0.378042  1
  Y  Y10  1  0.412533  0.792025  0.378042  1
  Y  Y11  1  0.412362  0.207464  0.880911  1
  Y  Y12  1  0.208653  0.411426  0.621265  1
  Y  Y13  1  0.208649  0.588377  0.120882  1
  Y  Y14  1  0.791351  0.411623  0.120882  1
  Y  Y15  1  0.791347  0.588574  0.621265  1
  Y  Y16  1  0.911613  0.708810  0.120245  1
  Y  Y17  1  0.911359  0.291191  0.620744  1
  Y  Y18  1  0.088641  0.708809  0.620744  1
  Y  Y19  1  0.088387  0.291190  0.120245  1
  Ir  Ir20  1  0.847152  0.153184  0.249419  1
  Ir  Ir21  1  0.847185  0.847314  0.749154  1
  Ir  Ir22  1  0.152815  0.152686  0.749154  1
  Ir  Ir23  1  0.152848  0.846816  0.249419  1
  Ir  Ir24  1  0.652722  0.347192  0.749807  1
  Ir  Ir25  1  0.653264  0.652821  0.249934  1
  Ir  Ir26  1  0.346736  0.347179  0.249934  1
  Ir  Ir27  1  0.347278  0.652808  0.749807  1
  Ir  Ir28  1  0.500000  0.000000  0.625351  1
  Ir  Ir29  1  0.000000  0.500000  0.876275  1
  Ir  Ir30  1  0.000000  0.500000  0.376497  1
  Ru  Ru31  1  0.500000  0.000000  0.126800  1
