# generated using pymatgen
data_Tb4Fe3Co4CuO20
_symmetry_space_group_name_H-M   'P 1'
_cell_length_a   5.71645400
_cell_length_b   7.37407338
_cell_length_c   8.48501312
_cell_angle_alpha   90.52167372
_cell_angle_beta   90.00000000
_cell_angle_gamma   90.00000000
_symmetry_Int_Tables_number   1
_chemical_formula_structural   Tb4Fe3Co4CuO20
_chemical_formula_sum   'Tb4 Fe3 Co4 Cu1 O20'
_cell_volume   357.65861029
_cell_formula_units_Z   1
loop_
 _symmetry_equiv_pos_site_id
 _symmetry_equiv_pos_as_xyz
  1  'x, y, z'
loop_
 _atom_site_type_symbol
 _atom_site_label
 _atom_site_symmetry_multiplicity
 _atom_site_fract_x
 _atom_site_fract_y
 _atom_site_fract_z
 _atom_site_occupancy
  Tb  Tb0  1  0.500000  0.369316  0.325235  1
  Tb  Tb1  1  0.500000  0.638118  0.670961  1
  Tb  Tb2  1  0.500000  0.143368  0.832763  1
  Tb  Tb3  1  0.500000  0.857509  0.169748  1
  Fe  Fe4  1  0.000000  0.889058  0.853705  1
  Fe  Fe5  1  0.000000  0.391296  0.643678  1
  Fe  Fe6  1  0.000000  0.611879  0.353595  1
  Co  Co7  1  0.249097  0.001166  0.499709  1
  Co  Co8  1  0.750903  0.001166  0.499709  1
  Co  Co9  1  0.753716  0.498539  0.997662  1
  Co  Co10  1  0.246284  0.498539  0.997662  1
  Cu  Cu11  1  0.000000  0.076522  0.156992  1
  O  O12  1  0.227156  0.003496  0.004748  1
  O  O13  1  0.772844  0.003496  0.004748  1
  O  O14  1  0.764998  0.501451  0.499571  1
  O  O15  1  0.235002  0.501451  0.499571  1
  O  O16  1  0.000000  0.359236  0.061767  1
  O  O17  1  0.000000  0.649944  0.926776  1
  O  O18  1  0.000000  0.147697  0.567459  1
  O  O19  1  0.000000  0.851705  0.436689  1
  O  O20  1  0.255212  0.099974  0.296257  1
  O  O21  1  0.739187  0.901887  0.704454  1
  O  O22  1  0.260813  0.901887  0.704454  1
  O  O23  1  0.741431  0.395954  0.795610  1
  O  O24  1  0.744788  0.099974  0.296257  1
  O  O25  1  0.258808  0.604182  0.203468  1
  O  O26  1  0.741192  0.604182  0.203468  1
  O  O27  1  0.258569  0.395954  0.795610  1
  O  O28  1  0.500000  0.340072  0.055561  1
  O  O29  1  0.500000  0.657877  0.944861  1
  O  O30  1  0.500000  0.159880  0.552473  1
  O  O31  1  0.500000  0.843229  0.444780  1
