# generated using pymatgen
data_Hf8Ti12Ge11As5
_symmetry_space_group_name_H-M   'P 1'
_cell_length_a   6.82235600
_cell_length_b   6.87228852
_cell_length_c   13.04448576
_cell_angle_alpha   90.04421107
_cell_angle_beta   90.12454215
_cell_angle_gamma   89.99221066
_symmetry_Int_Tables_number   1
_chemical_formula_structural   Hf8Ti12Ge11As5
_chemical_formula_sum   'Hf8 Ti12 Ge11 As5'
_cell_volume   611.59167659
_cell_formula_units_Z   1
loop_
 _symmetry_equiv_pos_site_id
 _symmetry_equiv_pos_as_xyz
  1  'x, y, z'
loop_
 _atom_site_type_symbol
 _atom_site_label
 _atom_site_symmetry_multiplicity
 _atom_site_fract_x
 _atom_site_fract_y
 _atom_site_fract_z
 _atom_site_occupancy
  Hf  Hf0  1  0.483363  0.677455  0.592681  1
  Hf  Hf1  1  0.984757  0.824218  0.906964  1
  Hf  Hf2  1  0.513974  0.323308  0.092990  1
  Hf  Hf3  1  0.017019  0.177973  0.406399  1
  Hf  Hf4  1  0.515156  0.321140  0.407902  1
  Hf  Hf5  1  0.014024  0.177989  0.092308  1
  Hf  Hf6  1  0.486467  0.677276  0.907680  1
  Hf  Hf7  1  0.983514  0.821892  0.593594  1
  Ti  Ti8  1  0.656649  0.162629  0.622213  1
  Ti  Ti9  1  0.158801  0.335952  0.875994  1
  Ti  Ti10  1  0.341674  0.836275  0.124132  1
  Ti  Ti11  1  0.843366  0.661992  0.375984  1
  Ti  Ti12  1  0.343609  0.839190  0.377338  1
  Ti  Ti13  1  0.842971  0.663723  0.124846  1
  Ti  Ti14  1  0.656426  0.163464  0.875441  1
  Ti  Ti15  1  0.155370  0.335904  0.624020  1
  Ti  Ti16  1  0.829401  0.494076  0.749381  1
  Ti  Ti17  1  0.328139  0.006120  0.749297  1
  Ti  Ti18  1  0.170732  0.506381  0.249836  1
  Ti  Ti19  1  0.671262  0.993478  0.250771  1
  Ge  Ge20  1  0.809682  0.459364  0.958327  1
  Ge  Ge21  1  0.690353  0.959556  0.041914  1
  Ge  Ge22  1  0.192190  0.541046  0.458331  1
  Ge  Ge23  1  0.459356  0.379826  0.749450  1
  Ge  Ge24  1  0.957383  0.120807  0.750153  1
  Ge  Ge25  1  0.540458  0.620785  0.250460  1
  Ge  Ge26  1  0.042221  0.879499  0.250382  1
  Ge  Ge27  1  0.688916  0.854233  0.750211  1
  Ge  Ge28  1  0.189621  0.645024  0.750562  1
  Ge  Ge29  1  0.310782  0.145804  0.249544  1
  Ge  Ge30  1  0.809906  0.354204  0.249886  1
  As  As31  1  0.696622  0.958861  0.458280  1
  As  As32  1  0.187204  0.540517  0.040865  1
  As  As33  1  0.313109  0.040295  0.959112  1
  As  As34  1  0.811444  0.459587  0.540837  1
  As  As35  1  0.304078  0.040156  0.541921  1
