# generated using pymatgen
data_Yb(Co3Si2)2
_symmetry_space_group_name_H-M   'P 1'
_cell_length_a   6.61567100
_cell_length_b   6.61567112
_cell_length_c   3.59284000
_cell_angle_alpha   90.00000000
_cell_angle_beta   90.00000000
_cell_angle_gamma   120.00000440
_symmetry_Int_Tables_number   1
_chemical_formula_structural   Yb(Co3Si2)2
_chemical_formula_sum   'Yb1 Co6 Si4'
_cell_volume   136.18093024
_cell_formula_units_Z   1
loop_
 _symmetry_equiv_pos_site_id
 _symmetry_equiv_pos_as_xyz
  1  'x, y, z'
loop_
 _atom_site_type_symbol
 _atom_site_label
 _atom_site_symmetry_multiplicity
 _atom_site_fract_x
 _atom_site_fract_y
 _atom_site_fract_z
 _atom_site_occupancy
  Yb  Yb0  1  0.000000  0.000000  0.000000  1
  Co  Co1  1  0.534173  0.068347  0.000000  1
  Co  Co2  1  0.534172  0.465826  0.000000  1
  Co  Co3  1  0.931652  0.465826  0.000000  1
  Co  Co4  1  0.204584  0.409168  0.500000  1
  Co  Co5  1  0.204585  0.795416  0.500000  1
  Co  Co6  1  0.590832  0.795416  0.500000  1
  Si  Si7  1  0.333333  0.666667  0.000000  1
  Si  Si8  1  0.399047  0.199523  0.500000  1
  Si  Si9  1  0.800476  0.199523  0.500000  1
  Si  Si10  1  0.800477  0.600952  0.500000  1
