# generated using pymatgen
data_Rb7TaIn3P5
_symmetry_space_group_name_H-M   'P 1'
_cell_length_a   8.50215169
_cell_length_b   9.48997155
_cell_length_c   14.28260495
_cell_angle_alpha   85.54858166
_cell_angle_beta   84.59916176
_cell_angle_gamma   86.55363748
_symmetry_Int_Tables_number   1
_chemical_formula_structural   Rb7TaIn3P5
_chemical_formula_sum   'Rb14 Ta2 In6 P10'
_cell_volume   1142.19771695
_cell_formula_units_Z   2
loop_
 _symmetry_equiv_pos_site_id
 _symmetry_equiv_pos_as_xyz
  1  'x, y, z'
loop_
 _atom_site_type_symbol
 _atom_site_label
 _atom_site_symmetry_multiplicity
 _atom_site_fract_x
 _atom_site_fract_y
 _atom_site_fract_z
 _atom_site_occupancy
  Rb  Rb0  1  0.829732  0.365791  0.647422  1
  Rb  Rb1  1  0.815348  0.807344  0.133166  1
  Rb  Rb2  1  0.239279  0.006741  0.466057  1
  Rb  Rb3  1  0.271862  0.256149  0.251074  1
  Rb  Rb4  1  0.739866  0.498473  0.972818  1
  Rb  Rb5  1  0.260134  0.501527  0.027182  1
  Rb  Rb6  1  0.683836  0.084529  0.885081  1
  Rb  Rb7  1  0.760721  0.993259  0.533943  1
  Rb  Rb8  1  0.728138  0.743851  0.748926  1
  Rb  Rb9  1  0.325975  0.340902  0.600753  1
  Rb  Rb10  1  0.170268  0.634209  0.352578  1
  Rb  Rb11  1  0.184652  0.192656  0.866834  1
  Rb  Rb12  1  0.316164  0.915471  0.114919  1
  Rb  Rb13  1  0.674025  0.659098  0.399247  1
  Ta  Ta14  1  0.354057  0.603750  0.773436  1
  Ta  Ta15  1  0.645943  0.396250  0.226564  1
  In  In16  1  0.057820  0.813859  0.870810  1
  In  In17  1  0.942180  0.186141  0.129190  1
  In  In18  1  0.365109  0.951084  0.701976  1
  In  In19  1  0.092187  0.720332  0.622102  1
  In  In20  1  0.907813  0.279668  0.377898  1
  In  In21  1  0.634891  0.048916  0.298024  1
  P  P22  1  0.921188  0.451813  0.211067  1
  P  P23  1  0.621118  0.202415  0.125414  1
  P  P24  1  0.078812  0.548187  0.788933  1
  P  P25  1  0.584200  0.299965  0.388626  1
  P  P26  1  0.415800  0.700035  0.611374  1
  P  P27  1  0.034367  0.988642  0.702577  1
  P  P28  1  0.514079  0.401328  0.809773  1
  P  P29  1  0.485921  0.598672  0.190227  1
  P  P30  1  0.378882  0.797585  0.874586  1
  P  P31  1  0.965633  0.011358  0.297423  1
