# generated using pymatgen
data_Ta12Tc10B12RuPt
_symmetry_space_group_name_H-M   'P 1'
_cell_length_a   3.17410500
_cell_length_b   9.05640722
_cell_length_c   15.69605032
_cell_angle_alpha   89.74684565
_cell_angle_beta   90.00000000
_cell_angle_gamma   90.00000000
_symmetry_Int_Tables_number   1
_chemical_formula_structural   Ta12Tc10B12RuPt
_chemical_formula_sum   'Ta12 Tc10 B12 Ru1 Pt1'
_cell_volume   451.19406094
_cell_formula_units_Z   1
loop_
 _symmetry_equiv_pos_site_id
 _symmetry_equiv_pos_as_xyz
  1  'x, y, z'
loop_
 _atom_site_type_symbol
 _atom_site_label
 _atom_site_symmetry_multiplicity
 _atom_site_fract_x
 _atom_site_fract_y
 _atom_site_fract_z
 _atom_site_occupancy
  Ta  Ta0  1  0.000000  0.804419  0.493448  1
  Ta  Ta1  1  0.000000  0.195072  0.504896  1
  Ta  Ta2  1  0.000000  0.305722  0.008080  1
  Ta  Ta3  1  0.000000  0.696062  0.993542  1
  Ta  Ta4  1  0.000000  0.514849  0.595218  1
  Ta  Ta5  1  0.000000  0.483700  0.404269  1
  Ta  Ta6  1  0.000000  0.016751  0.906545  1
  Ta  Ta7  1  0.000000  0.984206  0.095632  1
  Ta  Ta8  1  0.000000  0.678906  0.207000  1
  Ta  Ta9  1  0.000000  0.326069  0.794457  1
  Ta  Ta10  1  0.000000  0.182031  0.294078  1
  Ta  Ta11  1  0.000000  0.812043  0.703811  1
  Tc  Tc12  1  0.500000  0.717996  0.357857  1
  Tc  Tc13  1  0.500000  0.280303  0.643034  1
  Tc  Tc14  1  0.500000  0.216096  0.142767  1
  Tc  Tc15  1  0.500000  0.786227  0.857221  1
  Tc  Tc16  1  0.500000  0.518990  0.094746  1
  Tc  Tc17  1  0.500000  0.482063  0.904310  1
  Tc  Tc18  1  0.500000  0.017493  0.404599  1
  Tc  Tc19  1  0.500000  0.980572  0.596603  1
  Tc  Tc20  1  0.500000  0.568230  0.732063  1
  Tc  Tc21  1  0.500000  0.431488  0.267817  1
  B  B22  1  0.500000  0.604145  0.494028  1
  B  B23  1  0.500000  0.394149  0.505935  1
  B  B24  1  0.500000  0.105228  0.005044  1
  B  B25  1  0.500000  0.896209  0.995721  1
  B  B26  1  0.000000  0.611623  0.832526  1
  B  B27  1  0.000000  0.390269  0.167692  1
  B  B28  1  0.000000  0.111660  0.661767  1
  B  B29  1  0.000000  0.889226  0.333694  1
  B  B30  1  0.500000  0.715491  0.601307  1
  B  B31  1  0.500000  0.282445  0.397116  1
  B  B32  1  0.500000  0.220283  0.901731  1
  B  B33  1  0.500000  0.783012  0.101627  1
  Ru  Ru34  1  0.500000  0.930364  0.232650  1
  Pt  Pt35  1  0.500000  0.066609  0.767169  1
