# generated using pymatgen
data_NaTbPr5IrI12
_symmetry_space_group_name_H-M   'P 1'
_cell_length_a   10.05028335
_cell_length_b   10.14342294
_cell_length_c   10.04161886
_cell_angle_alpha   107.32170417
_cell_angle_beta   107.12697435
_cell_angle_gamma   106.78794627
_symmetry_Int_Tables_number   1
_chemical_formula_structural   NaTbPr5IrI12
_chemical_formula_sum   'Na1 Tb1 Pr5 Ir1 I12'
_cell_volume   850.67952275
_cell_formula_units_Z   1
loop_
 _symmetry_equiv_pos_site_id
 _symmetry_equiv_pos_as_xyz
  1  'x, y, z'
loop_
 _atom_site_type_symbol
 _atom_site_label
 _atom_site_symmetry_multiplicity
 _atom_site_fract_x
 _atom_site_fract_y
 _atom_site_fract_z
 _atom_site_occupancy
  Na  Na0  1  0.500047  0.500111  0.499988  1
  Tb  Tb1  1  0.104321  0.309453  0.031928  1
  Pr  Pr2  1  0.305551  0.030755  0.102548  1
  Pr  Pr3  1  0.031475  0.104646  0.307201  1
  Pr  Pr4  1  0.969683  0.899125  0.693812  1
  Pr  Pr5  1  0.695030  0.970596  0.897553  1
  Pr  Pr6  1  0.893791  0.682700  0.968239  1
  Ir  Ir7  1  0.000876  0.001996  0.000935  1
  I  I8  1  0.225394  0.678446  0.075229  1
  I  I9  1  0.448296  0.377476  0.145892  1
  I  I10  1  0.683105  0.076330  0.227519  1
  I  I11  1  0.924781  0.775548  0.317882  1
  I  I12  1  0.148889  0.456245  0.369908  1
  I  I13  1  0.379253  0.150307  0.458944  1
  I  I14  1  0.620627  0.849648  0.541156  1
  I  I15  1  0.850611  0.543165  0.620838  1
  I  I16  1  0.076846  0.229402  0.690630  1
  I  I17  1  0.316955  0.923776  0.772648  1
  I  I18  1  0.541931  0.622866  0.850153  1
  I  I19  1  0.782541  0.317409  0.927000  1
