# generated using pymatgen
data_Pm2MnZnO6
_symmetry_space_group_name_H-M   'P 1'
_cell_length_a   5.41792623
_cell_length_b   5.41792595
_cell_length_c   5.41792604
_cell_angle_alpha   62.20602588
_cell_angle_beta   62.20602117
_cell_angle_gamma   62.20602499
_symmetry_Int_Tables_number   1
_chemical_formula_structural   Pm2MnZnO6
_chemical_formula_sum   'Pm2 Mn1 Zn1 O6'
_cell_volume   117.99705410
_cell_formula_units_Z   1
loop_
 _symmetry_equiv_pos_site_id
 _symmetry_equiv_pos_as_xyz
  1  'x, y, z'
loop_
 _atom_site_type_symbol
 _atom_site_label
 _atom_site_symmetry_multiplicity
 _atom_site_fract_x
 _atom_site_fract_y
 _atom_site_fract_z
 _atom_site_occupancy
  Pm  Pm0  1  0.254287  0.254287  0.254287  1
  Pm  Pm1  1  0.745713  0.745713  0.745713  1
  Mn  Mn2  1  0.500000  0.500000  0.500000  1
  Zn  Zn3  1  0.000000  0.000000  0.000000  1
  O  O4  1  0.728441  0.345172  0.175400  1
  O  O5  1  0.654827  0.824599  0.271560  1
  O  O6  1  0.175400  0.728440  0.345173  1
  O  O7  1  0.824600  0.271559  0.654826  1
  O  O8  1  0.345172  0.175401  0.728440  1
  O  O9  1  0.271558  0.654827  0.824600  1
