# generated using pymatgen
data_Nd11In9Pt4
_symmetry_space_group_name_H-M   'P 1'
_cell_length_a   13.52277867
_cell_length_b   13.52277853
_cell_length_c   3.82277200
_cell_angle_alpha   90.00000000
_cell_angle_beta   90.00000000
_cell_angle_gamma   111.33240070
_symmetry_Int_Tables_number   1
_chemical_formula_structural   Nd11In9Pt4
_chemical_formula_sum   'Nd11 In9 Pt4'
_cell_volume   651.15809682
_cell_formula_units_Z   1
loop_
 _symmetry_equiv_pos_site_id
 _symmetry_equiv_pos_as_xyz
  1  'x, y, z'
loop_
 _atom_site_type_symbol
 _atom_site_label
 _atom_site_symmetry_multiplicity
 _atom_site_fract_x
 _atom_site_fract_y
 _atom_site_fract_z
 _atom_site_occupancy
  Nd  Nd0  1  0.072581  0.417572  0.000000  1
  Nd  Nd1  1  0.927419  0.582428  0.000000  1
  Nd  Nd2  1  0.417572  0.072581  0.000000  1
  Nd  Nd3  1  0.582428  0.927419  0.000000  1
  Nd  Nd4  1  0.628543  0.371457  0.000000  1
  Nd  Nd5  1  0.371457  0.628543  0.000000  1
  Nd  Nd6  1  0.840779  0.159221  0.000000  1
  Nd  Nd7  1  0.159221  0.840779  0.000000  1
  Nd  Nd8  1  0.000000  0.000000  0.000000  1
  Nd  Nd9  1  0.309619  0.309619  0.000000  1
  Nd  Nd10  1  0.690381  0.690381  0.000000  1
  In  In11  1  0.839333  0.366307  0.500000  1
  In  In12  1  0.160667  0.633693  0.500000  1
  In  In13  1  0.366307  0.839333  0.500000  1
  In  In14  1  0.633693  0.160667  0.500000  1
  In  In15  1  0.074957  0.217797  0.500000  1
  In  In16  1  0.925043  0.782203  0.500000  1
  In  In17  1  0.217797  0.074957  0.500000  1
  In  In18  1  0.782203  0.925043  0.500000  1
  In  In19  1  0.500000  0.500000  0.500000  1
  Pt  Pt20  1  0.246533  0.449798  0.500000  1
  Pt  Pt21  1  0.753467  0.550202  0.500000  1
  Pt  Pt22  1  0.449798  0.246533  0.500000  1
  Pt  Pt23  1  0.550202  0.753467  0.500000  1
