# generated using pymatgen
data_Tm8MnB24Ru2W
_symmetry_space_group_name_H-M   'P 1'
_cell_length_a   3.57807500
_cell_length_b   9.09524024
_cell_length_c   11.47594642
_cell_angle_alpha   89.86709402
_cell_angle_beta   90.00000000
_cell_angle_gamma   90.00000000
_symmetry_Int_Tables_number   1
_chemical_formula_structural   Tm8MnB24Ru2W
_chemical_formula_sum   'Tm8 Mn1 B24 Ru2 W1'
_cell_volume   373.46590357
_cell_formula_units_Z   1
loop_
 _symmetry_equiv_pos_site_id
 _symmetry_equiv_pos_as_xyz
  1  'x, y, z'
loop_
 _atom_site_type_symbol
 _atom_site_label
 _atom_site_symmetry_multiplicity
 _atom_site_fract_x
 _atom_site_fract_y
 _atom_site_fract_z
 _atom_site_occupancy
  Tm  Tm0  1  0.000000  0.322296  0.418125  1
  Tm  Tm1  1  0.000000  0.674038  0.587116  1
  Tm  Tm2  1  0.000000  0.820884  0.085840  1
  Tm  Tm3  1  0.000000  0.179548  0.912034  1
  Tm  Tm4  1  0.000000  0.946297  0.372479  1
  Tm  Tm5  1  0.000000  0.061246  0.630604  1
  Tm  Tm6  1  0.000000  0.441582  0.126616  1
  Tm  Tm7  1  0.000000  0.554763  0.867528  1
  Mn  Mn8  1  0.000000  0.361556  0.680638  1
  B  B9  1  0.500000  0.549698  0.437436  1
  B  B10  1  0.500000  0.445193  0.569719  1
  B  B11  1  0.500000  0.053166  0.066050  1
  B  B12  1  0.500000  0.946080  0.933284  1
  B  B13  1  0.500000  0.752277  0.423304  1
  B  B14  1  0.500000  0.253913  0.583391  1
  B  B15  1  0.500000  0.248217  0.079573  1
  B  B16  1  0.500000  0.750190  0.918264  1
  B  B17  1  0.500000  0.796222  0.263089  1
  B  B18  1  0.500000  0.210387  0.734997  1
  B  B19  1  0.500000  0.290402  0.233647  1
  B  B20  1  0.500000  0.708484  0.764267  1
  B  B21  1  0.500000  0.631124  0.181165  1
  B  B22  1  0.500000  0.368522  0.813617  1
  B  B23  1  0.500000  0.131592  0.314729  1
  B  B24  1  0.500000  0.870228  0.685406  1
  B  B25  1  0.500000  0.982880  0.211946  1
  B  B26  1  0.500000  0.018721  0.788204  1
  B  B27  1  0.500000  0.475712  0.287100  1
  B  B28  1  0.500000  0.514833  0.711725  1
  B  B29  1  0.500000  0.602396  0.026062  1
  B  B30  1  0.500000  0.395734  0.969751  1
  B  B31  1  0.500000  0.105581  0.472388  1
  B  B32  1  0.500000  0.898966  0.530279  1
  Ru  Ru33  1  0.000000  0.137554  0.178032  1
  Ru  Ru34  1  0.000000  0.862104  0.820937  1
  W  W35  1  0.000000  0.637613  0.320659  1
