# generated using pymatgen
data_Dy18Ho2Ir11Os
_symmetry_space_group_name_H-M   'P 1'
_cell_length_a   10.86772900
_cell_length_b   10.86785200
_cell_length_c   6.39229600
_cell_angle_alpha   90.00000000
_cell_angle_beta   90.00000000
_cell_angle_gamma   89.99949388
_symmetry_Int_Tables_number   1
_chemical_formula_structural   Dy18Ho2Ir11Os
_chemical_formula_sum   'Dy18 Ho2 Ir11 Os1'
_cell_volume   754.98685948
_cell_formula_units_Z   1
loop_
 _symmetry_equiv_pos_site_id
 _symmetry_equiv_pos_as_xyz
  1  'x, y, z'
loop_
 _atom_site_type_symbol
 _atom_site_label
 _atom_site_symmetry_multiplicity
 _atom_site_fract_x
 _atom_site_fract_y
 _atom_site_fract_z
 _atom_site_occupancy
  Dy  Dy0  1  0.292407  0.087150  0.376046  1
  Dy  Dy1  1  0.292784  0.912904  0.879400  1
  Dy  Dy2  1  0.707216  0.087096  0.879400  1
  Dy  Dy3  1  0.707593  0.912850  0.376046  1
  Dy  Dy4  1  0.587045  0.792640  0.879393  1
  Dy  Dy5  1  0.587099  0.207738  0.376045  1
  Dy  Dy6  1  0.412901  0.792262  0.376045  1
  Dy  Dy7  1  0.412955  0.207360  0.879393  1
  Dy  Dy8  1  0.209201  0.412007  0.622024  1
  Dy  Dy9  1  0.209156  0.587839  0.121824  1
  Dy  Dy10  1  0.790844  0.412161  0.121824  1
  Dy  Dy11  1  0.790799  0.587993  0.622024  1
  Dy  Dy12  1  0.912111  0.709011  0.121826  1
  Dy  Dy13  1  0.911952  0.290940  0.622026  1
  Dy  Dy14  1  0.088048  0.709060  0.622026  1
  Dy  Dy15  1  0.087889  0.290989  0.121826  1
  Dy  Dy16  1  0.000000  0.000000  0.499602  1
  Dy  Dy17  1  0.000000  0.000000  0.999539  1
  Ho  Ho18  1  0.500000  0.500000  0.999551  1
  Ho  Ho19  1  0.500000  0.500000  0.499598  1
  Ir  Ir20  1  0.847321  0.153914  0.250339  1
  Ir  Ir21  1  0.847395  0.846338  0.749948  1
  Ir  Ir22  1  0.152605  0.153662  0.749948  1
  Ir  Ir23  1  0.152679  0.846086  0.250339  1
  Ir  Ir24  1  0.653385  0.347672  0.749942  1
  Ir  Ir25  1  0.653629  0.652392  0.250325  1
  Ir  Ir26  1  0.346371  0.347608  0.250325  1
  Ir  Ir27  1  0.346615  0.652328  0.749942  1
  Ir  Ir28  1  0.500000  0.000000  0.621890  1
  Ir  Ir29  1  0.000000  0.500000  0.879022  1
  Ir  Ir30  1  0.000000  0.500000  0.379301  1
  Os  Os31  1  0.500000  0.000000  0.123215  1
