# generated using pymatgen
data_Zr4V4TcOs3
_symmetry_space_group_name_H-M   'P 1'
_cell_length_a   5.18811218
_cell_length_b   5.18811172
_cell_length_c   8.68343700
_cell_angle_alpha   90.00000000
_cell_angle_beta   90.00000000
_cell_angle_gamma   120.37411816
_symmetry_Int_Tables_number   1
_chemical_formula_structural   Zr4V4TcOs3
_chemical_formula_sum   'Zr4 V4 Tc1 Os3'
_cell_volume   201.64681256
_cell_formula_units_Z   1
loop_
 _symmetry_equiv_pos_site_id
 _symmetry_equiv_pos_as_xyz
  1  'x, y, z'
loop_
 _atom_site_type_symbol
 _atom_site_label
 _atom_site_symmetry_multiplicity
 _atom_site_fract_x
 _atom_site_fract_y
 _atom_site_fract_z
 _atom_site_occupancy
  Zr  Zr0  1  0.334073  0.665927  0.437971  1
  Zr  Zr1  1  0.666430  0.333570  0.558603  1
  Zr  Zr2  1  0.666430  0.333570  0.941397  1
  Zr  Zr3  1  0.334073  0.665927  0.062029  1
  V  V4  1  0.831501  0.666308  0.250000  1
  V  V5  1  0.333692  0.168499  0.250000  1
  V  V6  1  0.168022  0.335150  0.750000  1
  V  V7  1  0.664850  0.831978  0.750000  1
  Tc  Tc8  1  0.176960  0.823040  0.750000  1
  Os  Os9  1  0.000643  0.999357  0.500703  1
  Os  Os10  1  0.000643  0.999357  0.999297  1
  Os  Os11  1  0.822683  0.177317  0.250000  1
