# generated using pymatgen
data_Th6MnI12
_symmetry_space_group_name_H-M   'P 1'
_cell_length_a   10.08700693
_cell_length_b   10.08700766
_cell_length_c   10.08700743
_cell_angle_alpha   106.95160562
_cell_angle_beta   106.95159598
_cell_angle_gamma   106.95160137
_symmetry_Int_Tables_number   1
_chemical_formula_structural   Th6MnI12
_chemical_formula_sum   'Th6 Mn1 I12'
_cell_volume   855.86339835
_cell_formula_units_Z   1
loop_
 _symmetry_equiv_pos_site_id
 _symmetry_equiv_pos_as_xyz
  1  'x, y, z'
loop_
 _atom_site_type_symbol
 _atom_site_label
 _atom_site_symmetry_multiplicity
 _atom_site_fract_x
 _atom_site_fract_y
 _atom_site_fract_z
 _atom_site_occupancy
  Th  Th0  1  0.971356  0.708441  0.901451  1
  Th  Th1  1  0.291559  0.098549  0.028644  1
  Th  Th2  1  0.098549  0.028644  0.291559  1
  Th  Th3  1  0.901451  0.971356  0.708441  1
  Th  Th4  1  0.708441  0.901451  0.971356  1
  Th  Th5  1  0.028644  0.291559  0.098549  1
  Mn  Mn6  1  0.000000  0.000000  0.000000  1
  I  I7  1  0.923061  0.317773  0.777241  1
  I  I8  1  0.682227  0.222759  0.076939  1
  I  I9  1  0.449193  0.144733  0.371059  1
  I  I10  1  0.855267  0.628941  0.550807  1
  I  I11  1  0.222759  0.076939  0.682227  1
  I  I12  1  0.628941  0.550807  0.855267  1
  I  I13  1  0.371059  0.449193  0.144733  1
  I  I14  1  0.777241  0.923061  0.317773  1
  I  I15  1  0.144733  0.371059  0.449193  1
  I  I16  1  0.550807  0.855267  0.628941  1
  I  I17  1  0.317773  0.777241  0.923061  1
  I  I18  1  0.076939  0.682227  0.222759  1
