# generated using pymatgen
data_Ba3DyIrOsO9
_symmetry_space_group_name_H-M   'P 1'
_cell_length_a   5.96123200
_cell_length_b   5.96123206
_cell_length_c   14.71020700
_cell_angle_alpha   90.00000000
_cell_angle_beta   90.00000000
_cell_angle_gamma   119.99998855
_symmetry_Int_Tables_number   1
_chemical_formula_structural   Ba3DyIrOsO9
_chemical_formula_sum   'Ba6 Dy2 Ir2 Os2 O18'
_cell_volume   452.71149152
_cell_formula_units_Z   2
loop_
 _symmetry_equiv_pos_site_id
 _symmetry_equiv_pos_as_xyz
  1  'x, y, z'
loop_
 _atom_site_type_symbol
 _atom_site_label
 _atom_site_symmetry_multiplicity
 _atom_site_fract_x
 _atom_site_fract_y
 _atom_site_fract_z
 _atom_site_occupancy
  Ba  Ba0  1  0.000000  0.000000  0.747156  1
  Ba  Ba1  1  0.000000  0.000000  0.247156  1
  Ba  Ba2  1  0.666667  0.333333  0.412105  1
  Ba  Ba3  1  0.333333  0.666667  0.598076  1
  Ba  Ba4  1  0.333333  0.666667  0.912105  1
  Ba  Ba5  1  0.666667  0.333333  0.098076  1
  Dy  Dy6  1  0.000000  0.000000  0.501370  1
  Dy  Dy7  1  0.000000  0.000000  0.001370  1
  Ir  Ir8  1  0.666667  0.333333  0.663795  1
  Ir  Ir9  1  0.333333  0.666667  0.163795  1
  Os  Os10  1  0.333333  0.666667  0.335340  1
  Os  Os11  1  0.666667  0.333333  0.835340  1
  O  O12  1  0.508933  0.017867  0.752684  1
  O  O13  1  0.508933  0.491067  0.752684  1
  O  O14  1  0.982133  0.491067  0.752684  1
  O  O15  1  0.491067  0.982133  0.252684  1
  O  O16  1  0.491067  0.508933  0.252684  1
  O  O17  1  0.017867  0.508933  0.252684  1
  O  O18  1  0.822627  0.645252  0.910331  1
  O  O19  1  0.822627  0.177373  0.910331  1
  O  O20  1  0.354748  0.177373  0.910331  1
  O  O21  1  0.175756  0.351512  0.084375  1
  O  O22  1  0.175756  0.824244  0.084375  1
  O  O23  1  0.648488  0.824244  0.084375  1
  O  O24  1  0.177373  0.354748  0.410331  1
  O  O25  1  0.177373  0.822627  0.410331  1
  O  O26  1  0.645252  0.822627  0.410331  1
  O  O27  1  0.824244  0.648488  0.584375  1
  O  O28  1  0.824244  0.175756  0.584375  1
  O  O29  1  0.351512  0.175756  0.584375  1
