# generated using pymatgen
data_Ti2P2OsRu
_symmetry_space_group_name_H-M   'P 1'
_cell_length_a   3.80029200
_cell_length_b   6.20069100
_cell_length_c   7.12421100
_cell_angle_alpha   90.00000000
_cell_angle_beta   90.00000000
_cell_angle_gamma   90.00000000
_symmetry_Int_Tables_number   1
_chemical_formula_structural   Ti2P2OsRu
_chemical_formula_sum   'Ti4 P4 Os2 Ru2'
_cell_volume   167.87801702
_cell_formula_units_Z   2
loop_
 _symmetry_equiv_pos_site_id
 _symmetry_equiv_pos_as_xyz
  1  'x, y, z'
loop_
 _atom_site_type_symbol
 _atom_site_label
 _atom_site_symmetry_multiplicity
 _atom_site_fract_x
 _atom_site_fract_y
 _atom_site_fract_z
 _atom_site_occupancy
  Ti  Ti0  1  0.750000  0.523844  0.322215  1
  Ti  Ti1  1  0.250000  0.976469  0.824043  1
  Ti  Ti2  1  0.750000  0.023844  0.177785  1
  Ti  Ti3  1  0.250000  0.476469  0.675957  1
  P  P4  1  0.250000  0.728642  0.125228  1
  P  P5  1  0.250000  0.228642  0.374772  1
  P  P6  1  0.750000  0.270456  0.874198  1
  P  P7  1  0.750000  0.770456  0.625802  1
  Os  Os8  1  0.250000  0.344279  0.058837  1
  Os  Os9  1  0.250000  0.844279  0.441163  1
  Ru  Ru10  1  0.750000  0.156308  0.559976  1
  Ru  Ru11  1  0.750000  0.656308  0.940024  1
