# generated using pymatgen
data_Tm3Al12(RePd)2
_symmetry_space_group_name_H-M   'P 1'
_cell_length_a   8.91101400
_cell_length_b   8.81106036
_cell_length_c   9.59279700
_cell_angle_alpha   90.00000000
_cell_angle_beta   90.00000000
_cell_angle_gamma   119.62963802
_symmetry_Int_Tables_number   1
_chemical_formula_structural   Tm3Al12(RePd)2
_chemical_formula_sum   'Tm6 Al24 Re4 Pd4'
_cell_volume   654.69634041
_cell_formula_units_Z   2
loop_
 _symmetry_equiv_pos_site_id
 _symmetry_equiv_pos_as_xyz
  1  'x, y, z'
loop_
 _atom_site_type_symbol
 _atom_site_label
 _atom_site_symmetry_multiplicity
 _atom_site_fract_x
 _atom_site_fract_y
 _atom_site_fract_z
 _atom_site_occupancy
  Tm  Tm0  1  0.183614  0.389306  0.250000  1
  Tm  Tm1  1  0.816386  0.610694  0.750000  1
  Tm  Tm2  1  0.620893  0.810447  0.250000  1
  Tm  Tm3  1  0.379107  0.189553  0.750000  1
  Tm  Tm4  1  0.183614  0.794309  0.250000  1
  Tm  Tm5  1  0.816386  0.205691  0.750000  1
  Al  Al6  1  0.331351  0.665676  0.028269  1
  Al  Al7  1  0.668649  0.334324  0.971731  1
  Al  Al8  1  0.668649  0.334324  0.528269  1
  Al  Al9  1  0.331351  0.665676  0.471731  1
  Al  Al10  1  0.159586  0.326244  0.577287  1
  Al  Al11  1  0.840414  0.673756  0.422713  1
  Al  Al12  1  0.678086  0.839042  0.580894  1
  Al  Al13  1  0.840414  0.673756  0.077287  1
  Al  Al14  1  0.321914  0.160958  0.419106  1
  Al  Al15  1  0.159586  0.326244  0.922713  1
  Al  Al16  1  0.159586  0.833342  0.577287  1
  Al  Al17  1  0.321914  0.160958  0.080894  1
  Al  Al18  1  0.840414  0.166658  0.422713  1
  Al  Al19  1  0.678086  0.839042  0.919106  1
  Al  Al20  1  0.840414  0.166658  0.077287  1
  Al  Al21  1  0.159586  0.833342  0.922713  1
  Al  Al22  1  0.561062  0.123273  0.250000  1
  Al  Al23  1  0.438938  0.876727  0.750000  1
  Al  Al24  1  0.870056  0.435027  0.250000  1
  Al  Al25  1  0.129944  0.564973  0.750000  1
  Al  Al26  1  0.561062  0.437790  0.250000  1
  Al  Al27  1  0.438938  0.562210  0.750000  1
  Al  Al28  1  0.999134  0.999568  0.250000  1
  Al  Al29  1  0.000866  0.000432  0.750000  1
  Re  Re30  1  0.000000  0.500000  0.000000  1
  Re  Re31  1  0.000000  0.500000  0.500000  1
  Re  Re32  1  0.000000  0.000000  0.000000  1
  Re  Re33  1  0.000000  0.000000  0.500000  1
  Pd  Pd34  1  0.500000  0.000000  0.000000  1
  Pd  Pd35  1  0.500000  0.000000  0.500000  1
  Pd  Pd36  1  0.500000  0.500000  0.000000  1
  Pd  Pd37  1  0.500000  0.500000  0.500000  1
