# generated using pymatgen
data_Tb9Dy(SiHg)4
_symmetry_space_group_name_H-M   'P 1'
_cell_length_a   8.81912944
_cell_length_b   8.81912944
_cell_length_c   7.59469300
_cell_angle_alpha   89.99902688
_cell_angle_beta   89.99903024
_cell_angle_gamma   129.11822067
_symmetry_Int_Tables_number   1
_chemical_formula_structural   Tb9Dy(SiHg)4
_chemical_formula_sum   'Tb9 Dy1 Si4 Hg4'
_cell_volume   458.28650997
_cell_formula_units_Z   1
loop_
 _symmetry_equiv_pos_site_id
 _symmetry_equiv_pos_as_xyz
  1  'x, y, z'
loop_
 _atom_site_type_symbol
 _atom_site_label
 _atom_site_symmetry_multiplicity
 _atom_site_fract_x
 _atom_site_fract_y
 _atom_site_fract_z
 _atom_site_occupancy
  Tb  Tb0  1  0.055917  0.310631  0.323799  1
  Tb  Tb1  1  0.944083  0.689369  0.676201  1
  Tb  Tb2  1  0.444145  0.189419  0.823750  1
  Tb  Tb3  1  0.810581  0.555855  0.176250  1
  Tb  Tb4  1  0.555855  0.810581  0.176250  1
  Tb  Tb5  1  0.189419  0.444145  0.823750  1
  Tb  Tb6  1  0.689369  0.944083  0.676201  1
  Tb  Tb7  1  0.310631  0.055917  0.323799  1
  Tb  Tb8  1  0.000000  0.000000  0.000000  1
  Dy  Dy9  1  0.500000  0.500000  0.500000  1
  Si  Si10  1  0.381978  0.381978  0.121466  1
  Si  Si11  1  0.618022  0.618022  0.878534  1
  Si  Si12  1  0.118140  0.118140  0.621345  1
  Si  Si13  1  0.881860  0.881860  0.378655  1
  Hg  Hg14  1  0.781660  0.218340  0.000000  1
  Hg  Hg15  1  0.218340  0.781660  0.000000  1
  Hg  Hg16  1  0.718320  0.281680  0.500000  1
  Hg  Hg17  1  0.281680  0.718320  0.500000  1
