# generated using pymatgen
data_Tb7Nd(Si3Pd)4
_symmetry_space_group_name_H-M   'P 1'
_cell_length_a   8.17942500
_cell_length_b   8.17942489
_cell_length_c   8.19718800
_cell_angle_alpha   90.00000000
_cell_angle_beta   90.00000000
_cell_angle_gamma   119.99999640
_symmetry_Int_Tables_number   1
_chemical_formula_structural   Tb7Nd(Si3Pd)4
_chemical_formula_sum   'Tb7 Nd1 Si12 Pd4'
_cell_volume   474.94255730
_cell_formula_units_Z   1
loop_
 _symmetry_equiv_pos_site_id
 _symmetry_equiv_pos_as_xyz
  1  'x, y, z'
loop_
 _atom_site_type_symbol
 _atom_site_label
 _atom_site_symmetry_multiplicity
 _atom_site_fract_x
 _atom_site_fract_y
 _atom_site_fract_z
 _atom_site_occupancy
  Tb  Tb0  1  0.499214  0.500786  0.750000  1
  Tb  Tb1  1  0.500795  0.499205  0.250000  1
  Tb  Tb2  1  0.001572  0.500786  0.750000  1
  Tb  Tb3  1  0.998410  0.499205  0.250000  1
  Tb  Tb4  1  0.499214  0.998428  0.750000  1
  Tb  Tb5  1  0.500795  0.001590  0.250000  1
  Tb  Tb6  1  0.000000  0.000000  0.750000  1
  Nd  Nd7  1  0.000000  0.000000  0.250000  1
  Si  Si8  1  0.833935  0.166065  0.995965  1
  Si  Si9  1  0.166063  0.833937  0.997625  1
  Si  Si10  1  0.332130  0.166065  0.995965  1
  Si  Si11  1  0.166063  0.833937  0.502375  1
  Si  Si12  1  0.667874  0.833937  0.997625  1
  Si  Si13  1  0.833935  0.166065  0.504035  1
  Si  Si14  1  0.833935  0.667870  0.995965  1
  Si  Si15  1  0.667874  0.833937  0.502375  1
  Si  Si16  1  0.166063  0.332126  0.997625  1
  Si  Si17  1  0.332130  0.166065  0.504035  1
  Si  Si18  1  0.166063  0.332126  0.502375  1
  Si  Si19  1  0.833935  0.667870  0.504035  1
  Pd  Pd20  1  0.666667  0.333333  0.999599  1
  Pd  Pd21  1  0.333333  0.666667  0.001100  1
  Pd  Pd22  1  0.333333  0.666667  0.498900  1
  Pd  Pd23  1  0.666667  0.333333  0.500401  1
