# generated using pymatgen
data_Sm(Ga3Pd)3
_symmetry_space_group_name_H-M   'P 1'
_cell_length_a   10.53757835
_cell_length_b   10.53757776
_cell_length_c   10.53757696
_cell_angle_alpha   42.37308964
_cell_angle_beta   42.37309140
_cell_angle_gamma   42.37309252
_symmetry_Int_Tables_number   1
_chemical_formula_structural   Sm(Ga3Pd)3
_chemical_formula_sum   'Sm2 Ga18 Pd6'
_cell_volume   481.11939655
_cell_formula_units_Z   2
loop_
 _symmetry_equiv_pos_site_id
 _symmetry_equiv_pos_as_xyz
  1  'x, y, z'
loop_
 _atom_site_type_symbol
 _atom_site_label
 _atom_site_symmetry_multiplicity
 _atom_site_fract_x
 _atom_site_fract_y
 _atom_site_fract_z
 _atom_site_occupancy
  Sm  Sm0  1  0.166855  0.166855  0.166855  1
  Sm  Sm1  1  0.833145  0.833145  0.833145  1
  Ga  Ga2  1  0.048858  0.048858  0.048858  1
  Ga  Ga3  1  0.703089  0.500000  0.296911  1
  Ga  Ga4  1  0.665228  0.334772  0.000000  1
  Ga  Ga5  1  0.108321  0.436507  0.765579  1
  Ga  Ga6  1  0.436507  0.765579  0.108321  1
  Ga  Ga7  1  0.384444  0.384444  0.384444  1
  Ga  Ga8  1  0.334772  0.000000  0.665228  1
  Ga  Ga9  1  0.615556  0.615556  0.615556  1
  Ga  Ga10  1  0.234421  0.563493  0.891679  1
  Ga  Ga11  1  0.563493  0.891679  0.234421  1
  Ga  Ga12  1  0.500000  0.296911  0.703089  1
  Ga  Ga13  1  0.765579  0.108321  0.436507  1
  Ga  Ga14  1  0.951142  0.951142  0.951142  1
  Ga  Ga15  1  0.296911  0.703089  0.500000  1
  Ga  Ga16  1  0.000000  0.665228  0.334772  1
  Ga  Ga17  1  0.714917  0.714917  0.714917  1
  Ga  Ga18  1  0.285083  0.285083  0.285083  1
  Ga  Ga19  1  0.891679  0.234421  0.563493  1
  Pd  Pd20  1  0.241018  0.921897  0.581515  1
  Pd  Pd21  1  0.921897  0.581515  0.241018  1
  Pd  Pd22  1  0.758982  0.418485  0.078103  1
  Pd  Pd23  1  0.078103  0.758982  0.418485  1
  Pd  Pd24  1  0.418485  0.078103  0.758982  1
  Pd  Pd25  1  0.581515  0.241018  0.921897  1
