# generated using pymatgen
data_YbErU6(ReB6)4
_symmetry_space_group_name_H-M   'P 1'
_cell_length_a   3.63696200
_cell_length_b   9.28544168
_cell_length_c   11.38476499
_cell_angle_alpha   89.92915508
_cell_angle_beta   90.00000000
_cell_angle_gamma   90.00000000
_symmetry_Int_Tables_number   1
_chemical_formula_structural   YbErU6(ReB6)4
_chemical_formula_sum   'Yb1 Er1 U6 Re4 B24'
_cell_volume   384.47231112
_cell_formula_units_Z   1
loop_
 _symmetry_equiv_pos_site_id
 _symmetry_equiv_pos_as_xyz
  1  'x, y, z'
loop_
 _atom_site_type_symbol
 _atom_site_label
 _atom_site_symmetry_multiplicity
 _atom_site_fract_x
 _atom_site_fract_y
 _atom_site_fract_z
 _atom_site_occupancy
  Yb  Yb0  1  0.000000  0.663011  0.591681  1
  Er  Er1  1  0.000000  0.336713  0.408504  1
  U  U2  1  0.000000  0.835990  0.092683  1
  U  U3  1  0.000000  0.164050  0.907011  1
  U  U4  1  0.000000  0.955552  0.396995  1
  U  U5  1  0.000000  0.042846  0.603679  1
  U  U6  1  0.000000  0.457500  0.103464  1
  U  U7  1  0.000000  0.542873  0.895307  1
  Re  Re8  1  0.000000  0.647072  0.315875  1
  Re  Re9  1  0.000000  0.351765  0.683787  1
  Re  Re10  1  0.000000  0.143737  0.178159  1
  Re  Re11  1  0.000000  0.856995  0.822595  1
  B  B12  1  0.500000  0.551903  0.431147  1
  B  B13  1  0.500000  0.448261  0.569177  1
  B  B14  1  0.500000  0.049984  0.067641  1
  B  B15  1  0.500000  0.950354  0.932546  1
  B  B16  1  0.500000  0.742358  0.423104  1
  B  B17  1  0.500000  0.257552  0.576539  1
  B  B18  1  0.500000  0.243136  0.076514  1
  B  B19  1  0.500000  0.757192  0.923393  1
  B  B20  1  0.500000  0.803328  0.273608  1
  B  B21  1  0.500000  0.196152  0.726341  1
  B  B22  1  0.500000  0.302492  0.225823  1
  B  B23  1  0.500000  0.698378  0.774577  1
  B  B24  1  0.500000  0.644836  0.187832  1
  B  B25  1  0.500000  0.354766  0.811905  1
  B  B26  1  0.500000  0.144934  0.311860  1
  B  B27  1  0.500000  0.855645  0.688669  1
  B  B28  1  0.500000  0.987157  0.219262  1
  B  B29  1  0.500000  0.012684  0.781047  1
  B  B30  1  0.500000  0.487804  0.281351  1
  B  B31  1  0.500000  0.511262  0.718601  1
  B  B32  1  0.500000  0.643126  0.039072  1
  B  B33  1  0.500000  0.356816  0.960616  1
  B  B34  1  0.500000  0.140752  0.460866  1
  B  B35  1  0.500000  0.861025  0.538769  1
