# generated using pymatgen
data_DyTm19Sn16
_symmetry_space_group_name_H-M   'P 1'
_cell_length_a   7.95080285
_cell_length_b   8.07186351
_cell_length_c   15.26812968
_cell_angle_alpha   90.00711024
_cell_angle_beta   89.93261826
_cell_angle_gamma   89.96002350
_symmetry_Int_Tables_number   1
_chemical_formula_structural   DyTm19Sn16
_chemical_formula_sum   'Dy1 Tm19 Sn16'
_cell_volume   979.87397895
_cell_formula_units_Z   1
loop_
 _symmetry_equiv_pos_site_id
 _symmetry_equiv_pos_as_xyz
  1  'x, y, z'
loop_
 _atom_site_type_symbol
 _atom_site_label
 _atom_site_symmetry_multiplicity
 _atom_site_fract_x
 _atom_site_fract_y
 _atom_site_fract_z
 _atom_site_occupancy
  Dy  Dy0  1  0.021590  0.179655  0.903016  1
  Tm  Tm1  1  0.368230  0.836298  0.877467  1
  Tm  Tm2  1  0.868363  0.663654  0.622311  1
  Tm  Tm3  1  0.631587  0.163520  0.377560  1
  Tm  Tm4  1  0.132026  0.336680  0.122678  1
  Tm  Tm5  1  0.632010  0.163490  0.122541  1
  Tm  Tm6  1  0.131634  0.336447  0.377550  1
  Tm  Tm7  1  0.368452  0.836338  0.622384  1
  Tm  Tm8  1  0.868255  0.663578  0.877492  1
  Tm  Tm9  1  0.522246  0.320691  0.902774  1
  Tm  Tm10  1  0.022459  0.179562  0.597385  1
  Tm  Tm11  1  0.477680  0.679442  0.402786  1
  Tm  Tm12  1  0.977944  0.820312  0.097260  1
  Tm  Tm13  1  0.477867  0.679589  0.097203  1
  Tm  Tm14  1  0.977677  0.820545  0.402800  1
  Tm  Tm15  1  0.522372  0.320649  0.597062  1
  Tm  Tm16  1  0.198508  0.503522  0.749791  1
  Tm  Tm17  1  0.698151  0.996443  0.749734  1
  Tm  Tm18  1  0.801603  0.496598  0.250089  1
  Tm  Tm19  1  0.301651  0.003341  0.250054  1
  Sn  Sn20  1  0.292786  0.034925  0.042096  1
  Sn  Sn21  1  0.791762  0.464582  0.458361  1
  Sn  Sn22  1  0.708264  0.964815  0.541520  1
  Sn  Sn23  1  0.208432  0.536100  0.958599  1
  Sn  Sn24  1  0.706783  0.963653  0.958674  1
  Sn  Sn25  1  0.208200  0.535322  0.541501  1
  Sn  Sn26  1  0.291807  0.035350  0.458393  1
  Sn  Sn27  1  0.791965  0.464616  0.041604  1
  Sn  Sn28  1  0.564804  0.618977  0.749948  1
  Sn  Sn29  1  0.064794  0.880551  0.749927  1
  Sn  Sn30  1  0.435400  0.380945  0.250032  1
  Sn  Sn31  1  0.935402  0.119183  0.250087  1
  Sn  Sn32  1  0.331506  0.148479  0.749822  1
  Sn  Sn33  1  0.830410  0.352067  0.749478  1
  Sn  Sn34  1  0.668724  0.851371  0.249994  1
  Sn  Sn35  1  0.168657  0.648710  0.250029  1
