# generated using pymatgen
data_Cu7NiGe4(Mo3C)4
_symmetry_space_group_name_H-M   'P 1'
_cell_length_a   7.96586932
_cell_length_b   7.97904240
_cell_length_c   7.96586900
_cell_angle_alpha   60.05459547
_cell_angle_beta   59.99999718
_cell_angle_gamma   60.05459880
_symmetry_Int_Tables_number   1
_chemical_formula_structural   Cu7NiGe4(Mo3C)4
_chemical_formula_sum   'Cu7 Ni1 Ge4 Mo12 C4'
_cell_volume   358.31088856
_cell_formula_units_Z   1
loop_
 _symmetry_equiv_pos_site_id
 _symmetry_equiv_pos_as_xyz
  1  'x, y, z'
loop_
 _atom_site_type_symbol
 _atom_site_label
 _atom_site_symmetry_multiplicity
 _atom_site_fract_x
 _atom_site_fract_y
 _atom_site_fract_z
 _atom_site_occupancy
  Cu  Cu0  1  0.917437  0.915992  0.249134  1
  Cu  Cu1  1  0.333037  0.332098  0.333037  1
  Cu  Cu2  1  0.249134  0.915992  0.917437  1
  Cu  Cu3  1  0.332797  0.001609  0.332797  1
  Cu  Cu4  1  0.001829  0.332098  0.333037  1
  Cu  Cu5  1  0.333037  0.332098  0.001829  1
  Cu  Cu6  1  0.917437  0.915992  0.917437  1
  Ni  Ni7  1  0.916828  0.249517  0.916828  1
  Ge  Ge8  1  0.122024  0.127068  0.122024  1
  Ge  Ge9  1  0.628884  0.127068  0.122024  1
  Ge  Ge10  1  0.122024  0.127068  0.628884  1
  Ge  Ge11  1  0.125097  0.624710  0.125097  1
  Mo  Mo12  1  0.689175  0.311225  0.310425  1
  Mo  Mo13  1  0.939458  0.938777  0.560883  1
  Mo  Mo14  1  0.689346  0.688656  0.310999  1
  Mo  Mo15  1  0.689175  0.311225  0.689175  1
  Mo  Mo16  1  0.310999  0.688656  0.310999  1
  Mo  Mo17  1  0.560883  0.938777  0.560883  1
  Mo  Mo18  1  0.560883  0.938777  0.939458  1
  Mo  Mo19  1  0.937589  0.560351  0.564472  1
  Mo  Mo20  1  0.937589  0.560351  0.937589  1
  Mo  Mo21  1  0.310425  0.311225  0.689175  1
  Mo  Mo22  1  0.564472  0.560351  0.937589  1
  Mo  Mo23  1  0.310999  0.688656  0.689346  1
  C  C24  1  0.624796  0.625098  0.624796  1
  C  C25  1  0.624796  0.625098  0.125311  1
  C  C26  1  0.125311  0.625098  0.624796  1
  C  C27  1  0.624544  0.126369  0.624544  1
