# generated using pymatgen
data_Er5(In2Ru)2
_symmetry_space_group_name_H-M   'P 1'
_cell_length_a   3.50752600
_cell_length_b   8.08331200
_cell_length_c   18.35333900
_cell_angle_alpha   90.00000000
_cell_angle_beta   90.00000000
_cell_angle_gamma   90.00000000
_symmetry_Int_Tables_number   1
_chemical_formula_structural   Er5(In2Ru)2
_chemical_formula_sum   'Er10 In8 Ru4'
_cell_volume   520.36170432
_cell_formula_units_Z   2
loop_
 _symmetry_equiv_pos_site_id
 _symmetry_equiv_pos_as_xyz
  1  'x, y, z'
loop_
 _atom_site_type_symbol
 _atom_site_label
 _atom_site_symmetry_multiplicity
 _atom_site_fract_x
 _atom_site_fract_y
 _atom_site_fract_z
 _atom_site_occupancy
  Er  Er0  1  0.000000  0.500000  0.500000  1
  Er  Er1  1  0.000000  0.000000  0.000000  1
  Er  Er2  1  0.000000  0.747906  0.277305  1
  Er  Er3  1  0.000000  0.252094  0.722695  1
  Er  Er4  1  0.000000  0.752094  0.777305  1
  Er  Er5  1  0.000000  0.247906  0.222695  1
  Er  Er6  1  0.000000  0.621604  0.088468  1
  Er  Er7  1  0.000000  0.378396  0.911532  1
  Er  Er8  1  0.000000  0.878396  0.588468  1
  Er  Er9  1  0.000000  0.121604  0.411532  1
  In  In10  1  0.500000  0.703853  0.931265  1
  In  In11  1  0.500000  0.296147  0.068735  1
  In  In12  1  0.500000  0.796147  0.431265  1
  In  In13  1  0.500000  0.203853  0.568735  1
  In  In14  1  0.500000  0.562530  0.649713  1
  In  In15  1  0.500000  0.437470  0.350287  1
  In  In16  1  0.500000  0.937470  0.149713  1
  In  In17  1  0.500000  0.062530  0.850287  1
  Ru  Ru18  1  0.500000  0.520650  0.196146  1
  Ru  Ru19  1  0.500000  0.479350  0.803854  1
  Ru  Ru20  1  0.500000  0.979350  0.696146  1
  Ru  Ru21  1  0.500000  0.020650  0.303854  1
