# generated using pymatgen
data_La8Nd12Sn9Bi7
_symmetry_space_group_name_H-M   'P 1'
_cell_length_a   8.49477911
_cell_length_b   8.50836813
_cell_length_c   16.16357800
_cell_angle_alpha   89.92959549
_cell_angle_beta   90.02928602
_cell_angle_gamma   89.95437239
_symmetry_Int_Tables_number   1
_chemical_formula_structural   La8Nd12Sn9Bi7
_chemical_formula_sum   'La8 Nd12 Sn9 Bi7'
_cell_volume   1168.24879867
_cell_formula_units_Z   1
loop_
 _symmetry_equiv_pos_site_id
 _symmetry_equiv_pos_as_xyz
  1  'x, y, z'
loop_
 _atom_site_type_symbol
 _atom_site_label
 _atom_site_symmetry_multiplicity
 _atom_site_fract_x
 _atom_site_fract_y
 _atom_site_fract_z
 _atom_site_occupancy
  La  La0  1  0.464961  0.820971  0.896239  1
  La  La1  1  0.961774  0.676564  0.604822  1
  La  La2  1  0.537878  0.176541  0.394682  1
  La  La3  1  0.032964  0.326198  0.103768  1
  La  La4  1  0.537452  0.180245  0.104507  1
  La  La5  1  0.037569  0.323926  0.394800  1
  La  La6  1  0.461797  0.824153  0.605398  1
  La  La7  1  0.959508  0.673518  0.896666  1
  Nd  Nd8  1  0.624381  0.341858  0.879337  1
  Nd  Nd9  1  0.122436  0.160921  0.623806  1
  Nd  Nd10  1  0.378053  0.661603  0.377033  1
  Nd  Nd11  1  0.875658  0.835345  0.121896  1
  Nd  Nd12  1  0.382812  0.659950  0.122125  1
  Nd  Nd13  1  0.878291  0.839070  0.376675  1
  Nd  Nd14  1  0.621910  0.338847  0.622746  1
  Nd  Nd15  1  0.121999  0.160321  0.877230  1
  Nd  Nd16  1  0.291867  0.502936  0.750352  1
  Nd  Nd17  1  0.791756  0.996346  0.750519  1
  Nd  Nd18  1  0.708206  0.497114  0.246569  1
  Nd  Nd19  1  0.207660  0.003499  0.248691  1
  Sn  Sn20  1  0.719789  0.530653  0.044761  1
  Sn  Sn21  1  0.657889  0.640439  0.749670  1
  Sn  Sn22  1  0.157611  0.857975  0.750645  1
  Sn  Sn23  1  0.340517  0.360145  0.250334  1
  Sn  Sn24  1  0.841317  0.140063  0.250052  1
  Sn  Sn25  1  0.424202  0.124268  0.751050  1
  Sn  Sn26  1  0.922999  0.375777  0.749882  1
  Sn  Sn27  1  0.576904  0.876903  0.250577  1
  Sn  Sn28  1  0.078068  0.624403  0.250304  1
  Bi  Bi29  1  0.220009  0.969232  0.044253  1
  Bi  Bi30  1  0.719661  0.530431  0.454769  1
  Bi  Bi31  1  0.780622  0.030544  0.544569  1
  Bi  Bi32  1  0.281376  0.468286  0.955785  1
  Bi  Bi33  1  0.780662  0.030684  0.955458  1
  Bi  Bi34  1  0.279743  0.469895  0.544663  1
  Bi  Bi35  1  0.219699  0.970372  0.455368  1
