# generated using pymatgen
data_Ti2Co4Si3Mo2P
_symmetry_space_group_name_H-M   'P 1'
_cell_length_a   3.59750800
_cell_length_b   6.06842635
_cell_length_c   6.91773865
_cell_angle_alpha   90.00343932
_cell_angle_beta   90.00000000
_cell_angle_gamma   90.00000000
_symmetry_Int_Tables_number   1
_chemical_formula_structural   Ti2Co4Si3Mo2P
_chemical_formula_sum   'Ti2 Co4 Si3 Mo2 P1'
_cell_volume   151.02262093
_cell_formula_units_Z   1
loop_
 _symmetry_equiv_pos_site_id
 _symmetry_equiv_pos_as_xyz
  1  'x, y, z'
loop_
 _atom_site_type_symbol
 _atom_site_label
 _atom_site_symmetry_multiplicity
 _atom_site_fract_x
 _atom_site_fract_y
 _atom_site_fract_z
 _atom_site_occupancy
  Ti  Ti0  1  0.250000  0.480139  0.177882  1
  Ti  Ti1  1  0.250000  0.975472  0.319130  1
  Co  Co2  1  0.750000  0.646030  0.429837  1
  Co  Co3  1  0.250000  0.854352  0.946567  1
  Co  Co4  1  0.750000  0.137136  0.065781  1
  Co  Co5  1  0.250000  0.359016  0.557901  1
  Si  Si6  1  0.250000  0.727629  0.623459  1
  Si  Si7  1  0.250000  0.227178  0.876152  1
  Si  Si8  1  0.750000  0.270539  0.381179  1
  Mo  Mo9  1  0.750000  0.025562  0.676816  1
  Mo  Mo10  1  0.750000  0.527153  0.826159  1
  P  P11  1  0.750000  0.769793  0.119135  1
