# generated using pymatgen
data_Be6V3Ga2Mo
_symmetry_space_group_name_H-M   'P 1'
_cell_length_a   4.52531500
_cell_length_b   4.52531460
_cell_length_c   7.39443900
_cell_angle_alpha   90.00000000
_cell_angle_beta   90.00000000
_cell_angle_gamma   120.00001023
_symmetry_Int_Tables_number   1
_chemical_formula_structural   Be6V3Ga2Mo
_chemical_formula_sum   'Be6 V3 Ga2 Mo1'
_cell_volume   131.13946557
_cell_formula_units_Z   1
loop_
 _symmetry_equiv_pos_site_id
 _symmetry_equiv_pos_as_xyz
  1  'x, y, z'
loop_
 _atom_site_type_symbol
 _atom_site_label
 _atom_site_symmetry_multiplicity
 _atom_site_fract_x
 _atom_site_fract_y
 _atom_site_fract_z
 _atom_site_occupancy
  Be  Be0  1  0.822408  0.177592  0.252073  1
  Be  Be1  1  0.822408  0.644816  0.252073  1
  Be  Be2  1  0.355184  0.177592  0.252073  1
  Be  Be3  1  0.177809  0.822191  0.748042  1
  Be  Be4  1  0.177809  0.355620  0.748042  1
  Be  Be5  1  0.644380  0.822191  0.748042  1
  V  V6  1  0.333333  0.666667  0.432408  1
  V  V7  1  0.666667  0.333333  0.567557  1
  V  V8  1  0.666667  0.333333  0.933898  1
  Ga  Ga9  1  0.000000  0.000000  0.501695  1
  Ga  Ga10  1  0.000000  0.000000  0.998198  1
  Mo  Mo11  1  0.333333  0.666667  0.065900  1
