# generated using pymatgen
data_NdEu3(SbAu)4
_symmetry_space_group_name_H-M   'P 1'
_cell_length_a   4.68679500
_cell_length_b   4.68679616
_cell_length_c   17.01442800
_cell_angle_alpha   90.00000000
_cell_angle_beta   90.00000000
_cell_angle_gamma   120.00001302
_symmetry_Int_Tables_number   1
_chemical_formula_structural   NdEu3(SbAu)4
_chemical_formula_sum   'Nd1 Eu3 Sb4 Au4'
_cell_volume   323.66813914
_cell_formula_units_Z   1
loop_
 _symmetry_equiv_pos_site_id
 _symmetry_equiv_pos_as_xyz
  1  'x, y, z'
loop_
 _atom_site_type_symbol
 _atom_site_label
 _atom_site_symmetry_multiplicity
 _atom_site_fract_x
 _atom_site_fract_y
 _atom_site_fract_z
 _atom_site_occupancy
  Nd  Nd0  1  0.000000  0.000000  0.750000  1
  Eu  Eu1  1  0.000000  0.000000  0.503060  1
  Eu  Eu2  1  0.000000  0.000000  0.996940  1
  Eu  Eu3  1  0.000000  0.000000  0.250000  1
  Sb  Sb4  1  0.333333  0.666667  0.382879  1
  Sb  Sb5  1  0.666667  0.333333  0.613484  1
  Sb  Sb6  1  0.666667  0.333333  0.886516  1
  Sb  Sb7  1  0.333333  0.666667  0.117121  1
  Au  Au8  1  0.666667  0.333333  0.369707  1
  Au  Au9  1  0.333333  0.666667  0.659801  1
  Au  Au10  1  0.333333  0.666667  0.840199  1
  Au  Au11  1  0.666667  0.333333  0.130293  1
