# generated using pymatgen
data_Y5Mo3(As3Rh4)4
_symmetry_space_group_name_H-M   'P 1'
_cell_length_a   13.13844600
_cell_length_b   13.13844650
_cell_length_c   4.02194600
_cell_angle_alpha   90.00000000
_cell_angle_beta   90.00000000
_cell_angle_gamma   120.00000378
_symmetry_Int_Tables_number   1
_chemical_formula_structural   Y5Mo3(As3Rh4)4
_chemical_formula_sum   'Y5 Mo3 As12 Rh16'
_cell_volume   601.24969319
_cell_formula_units_Z   1
loop_
 _symmetry_equiv_pos_site_id
 _symmetry_equiv_pos_as_xyz
  1  'x, y, z'
loop_
 _atom_site_type_symbol
 _atom_site_label
 _atom_site_symmetry_multiplicity
 _atom_site_fract_x
 _atom_site_fract_y
 _atom_site_fract_z
 _atom_site_occupancy
  Y  Y0  1  0.188777  0.188777  0.500000  1
  Y  Y1  1  0.811223  0.000000  0.500000  1
  Y  Y2  1  0.000000  0.811223  0.500000  1
  Y  Y3  1  0.333333  0.666667  0.000000  1
  Y  Y4  1  0.666667  0.333333  0.000000  1
  Mo  Mo5  1  0.550504  0.550504  0.000000  1
  Mo  Mo6  1  0.449496  0.000000  0.000000  1
  Mo  Mo7  1  0.000000  0.449496  0.000000  1
  As  As8  1  0.823771  0.823771  0.000000  1
  As  As9  1  0.176229  0.000000  0.000000  1
  As  As10  1  0.000000  0.176229  0.000000  1
  As  As11  1  0.164356  0.484476  0.500000  1
  As  As12  1  0.515524  0.679879  0.500000  1
  As  As13  1  0.320121  0.835644  0.500000  1
  As  As14  1  0.679879  0.515524  0.500000  1
  As  As15  1  0.835644  0.320121  0.500000  1
  As  As16  1  0.484476  0.164356  0.500000  1
  As  As17  1  0.361875  0.361875  0.000000  1
  As  As18  1  0.638125  0.000000  0.000000  1
  As  As19  1  0.000000  0.638125  0.000000  1
  Rh  Rh20  1  0.717183  0.717183  0.500000  1
  Rh  Rh21  1  0.282817  0.000000  0.500000  1
  Rh  Rh22  1  0.000000  0.282817  0.500000  1
  Rh  Rh23  1  0.176589  0.375564  0.000000  1
  Rh  Rh24  1  0.624436  0.801026  0.000000  1
  Rh  Rh25  1  0.198974  0.823411  0.000000  1
  Rh  Rh26  1  0.801026  0.624436  0.000000  1
  Rh  Rh27  1  0.823411  0.198974  0.000000  1
  Rh  Rh28  1  0.375564  0.176589  0.000000  1
  Rh  Rh29  1  0.353545  0.483394  0.500000  1
  Rh  Rh30  1  0.516606  0.870152  0.500000  1
  Rh  Rh31  1  0.129848  0.646455  0.500000  1
  Rh  Rh32  1  0.870152  0.516606  0.500000  1
  Rh  Rh33  1  0.646455  0.129848  0.500000  1
  Rh  Rh34  1  0.483394  0.353545  0.500000  1
  Rh  Rh35  1  0.000000  0.000000  0.000000  1
