# generated using pymatgen
data_V4Ga(Se3S)2
_symmetry_space_group_name_H-M   'P 1'
_cell_length_a   7.18592314
_cell_length_b   7.18592344
_cell_length_c   7.17555600
_cell_angle_alpha   60.04772329
_cell_angle_beta   60.04772192
_cell_angle_gamma   60.17637077
_symmetry_Int_Tables_number   1
_chemical_formula_structural   V4Ga(Se3S)2
_chemical_formula_sum   'V4 Ga1 Se6 S2'
_cell_volume   262.53969792
_cell_formula_units_Z   1
loop_
 _symmetry_equiv_pos_site_id
 _symmetry_equiv_pos_as_xyz
  1  'x, y, z'
loop_
 _atom_site_type_symbol
 _atom_site_label
 _atom_site_symmetry_multiplicity
 _atom_site_fract_x
 _atom_site_fract_y
 _atom_site_fract_z
 _atom_site_occupancy
  V  V0  1  0.604196  0.604196  0.192759  1
  V  V1  1  0.606516  0.192222  0.600632  1
  V  V2  1  0.192222  0.606516  0.600632  1
  V  V3  1  0.604196  0.604196  0.598850  1
  Ga  Ga4  1  0.002309  0.002309  0.997691  1
  Se  Se5  1  0.863939  0.863939  0.410581  1
  Se  Se6  1  0.863056  0.415045  0.860950  1
  Se  Se7  1  0.415045  0.863056  0.860950  1
  Se  Se8  1  0.863939  0.863939  0.861541  1
  Se  Se9  1  0.367455  0.367455  0.896807  1
  Se  Se10  1  0.367455  0.367455  0.368282  1
  S  S11  1  0.873241  0.376431  0.375163  1
  S  S12  1  0.376431  0.873241  0.375163  1
