# generated using pymatgen
data_Tb(BeB14)2
_symmetry_space_group_name_H-M   'P 1'
_cell_length_a   7.18869574
_cell_length_b   7.18869515
_cell_length_c   5.72596174
_cell_angle_alpha   66.66920031
_cell_angle_beta   66.66922089
_cell_angle_gamma   92.09417501
_symmetry_Int_Tables_number   1
_chemical_formula_structural   Tb(BeB14)2
_chemical_formula_sum   'Tb1 Be2 B28'
_cell_volume   242.83984563
_cell_formula_units_Z   1
loop_
 _symmetry_equiv_pos_site_id
 _symmetry_equiv_pos_as_xyz
  1  'x, y, z'
loop_
 _atom_site_type_symbol
 _atom_site_label
 _atom_site_symmetry_multiplicity
 _atom_site_fract_x
 _atom_site_fract_y
 _atom_site_fract_z
 _atom_site_occupancy
  Tb  Tb0  1  0.884630  0.884630  0.371228  1
  Be  Be1  1  0.532554  0.532554  0.441268  1
  Be  Be2  1  0.247621  0.247621  0.307411  1
  B  B3  1  0.415256  0.732350  0.183134  1
  B  B4  1  0.578234  0.255194  0.837351  1
  B  B5  1  0.255194  0.578234  0.837351  1
  B  B6  1  0.732350  0.415256  0.183134  1
  B  B7  1  0.692033  0.858401  0.981447  1
  B  B8  1  0.301841  0.129198  0.039978  1
  B  B9  1  0.129198  0.301841  0.039978  1
  B  B10  1  0.858401  0.692033  0.981447  1
  B  B11  1  0.527683  0.868627  0.310857  1
  B  B12  1  0.466932  0.118411  0.219851  1
  B  B13  1  0.118411  0.466932  0.219851  1
  B  B14  1  0.868627  0.527683  0.310857  1
  B  B15  1  0.459989  0.116692  0.717616  1
  B  B16  1  0.528218  0.866321  0.805036  1
  B  B17  1  0.866321  0.528218  0.805036  1
  B  B18  1  0.116692  0.459989  0.717616  1
  B  B19  1  0.718989  0.097448  0.008463  1
  B  B20  1  0.274521  0.889434  0.336773  1
  B  B21  1  0.889434  0.274521  0.336773  1
  B  B22  1  0.097448  0.718989  0.008463  1
  B  B23  1  0.273678  0.889924  0.014926  1
  B  B24  1  0.716496  0.096481  0.690656  1
  B  B25  1  0.096481  0.716496  0.690656  1
  B  B26  1  0.889924  0.273678  0.014926  1
  B  B27  1  0.283367  0.464935  0.390671  1
  B  B28  1  0.697811  0.516730  0.653285  1
  B  B29  1  0.516730  0.697811  0.653285  1
  B  B30  1  0.464935  0.283367  0.390671  1
