# generated using pymatgen
data_Ba3InNiO6
_symmetry_space_group_name_H-M   'P 1'
_cell_length_a   6.94868653
_cell_length_b   7.19985257
_cell_length_c   7.11534713
_cell_angle_alpha   92.07029748
_cell_angle_beta   94.40501637
_cell_angle_gamma   93.81505386
_symmetry_Int_Tables_number   1
_chemical_formula_structural   Ba3InNiO6
_chemical_formula_sum   'Ba6 In2 Ni2 O12'
_cell_volume   353.83498149
_cell_formula_units_Z   2
loop_
 _symmetry_equiv_pos_site_id
 _symmetry_equiv_pos_as_xyz
  1  'x, y, z'
loop_
 _atom_site_type_symbol
 _atom_site_label
 _atom_site_symmetry_multiplicity
 _atom_site_fract_x
 _atom_site_fract_y
 _atom_site_fract_z
 _atom_site_occupancy
  Ba  Ba0  1  0.618659  0.882924  0.253163  1
  Ba  Ba1  1  0.881375  0.247225  0.617177  1
  Ba  Ba2  1  0.249343  0.618790  0.881117  1
  Ba  Ba3  1  0.118510  0.752744  0.382741  1
  Ba  Ba4  1  0.750615  0.381258  0.118924  1
  Ba  Ba5  1  0.381308  0.117073  0.746863  1
  In  In6  1  0.250410  0.249333  0.250278  1
  In  In7  1  0.749779  0.750362  0.749522  1
  Ni  Ni8  1  0.500145  0.500186  0.499955  1
  Ni  Ni9  1  0.000267  0.999997  0.000079  1
  O  O10  1  0.529766  0.209978  0.399271  1
  O  O11  1  0.229998  0.412641  0.533348  1
  O  O12  1  0.406675  0.535476  0.228538  1
  O  O13  1  0.028522  0.902427  0.712994  1
  O  O14  1  0.902579  0.722383  0.033987  1
  O  O15  1  0.732122  0.035693  0.913214  1
  O  O16  1  0.470246  0.790082  0.600837  1
  O  O17  1  0.769728  0.587291  0.466749  1
  O  O18  1  0.593213  0.464504  0.771513  1
  O  O19  1  0.971509  0.097621  0.287034  1
  O  O20  1  0.097470  0.277658  0.965980  1
  O  O21  1  0.267758  0.964355  0.086717  1
