# generated using pymatgen
data_SrHfPa2Sb5
_symmetry_space_group_name_H-M   'P 1'
_cell_length_a   9.38822500
_cell_length_b   9.40803047
_cell_length_c   6.30886300
_cell_angle_alpha   90.00000000
_cell_angle_beta   90.00000000
_cell_angle_gamma   119.93038255
_symmetry_Int_Tables_number   1
_chemical_formula_structural   SrHfPa2Sb5
_chemical_formula_sum   'Sr2 Hf2 Pa4 Sb10'
_cell_volume   482.91218998
_cell_formula_units_Z   2
loop_
 _symmetry_equiv_pos_site_id
 _symmetry_equiv_pos_as_xyz
  1  'x, y, z'
loop_
 _atom_site_type_symbol
 _atom_site_label
 _atom_site_symmetry_multiplicity
 _atom_site_fract_x
 _atom_site_fract_y
 _atom_site_fract_z
 _atom_site_occupancy
  Sr  Sr0  1  0.613731  0.000000  0.250000  1
  Sr  Sr1  1  0.386269  0.000000  0.750000  1
  Hf  Hf2  1  0.000000  0.000000  0.000000  1
  Hf  Hf3  1  0.000000  0.000000  0.500000  1
  Pa  Pa4  1  0.012653  0.619200  0.250000  1
  Pa  Pa5  1  0.987347  0.380800  0.750000  1
  Pa  Pa6  1  0.393452  0.380800  0.250000  1
  Pa  Pa7  1  0.606548  0.619200  0.750000  1
  Sb  Sb8  1  0.260048  0.000000  0.250000  1
  Sb  Sb9  1  0.739952  0.000000  0.750000  1
  Sb  Sb10  1  0.010125  0.271779  0.250000  1
  Sb  Sb11  1  0.989875  0.728221  0.750000  1
  Sb  Sb12  1  0.738347  0.728221  0.250000  1
  Sb  Sb13  1  0.261653  0.271779  0.750000  1
  Sb  Sb14  1  0.322446  0.644892  0.000000  1
  Sb  Sb15  1  0.677554  0.355108  0.000000  1
  Sb  Sb16  1  0.677554  0.355108  0.500000  1
  Sb  Sb17  1  0.322446  0.644892  0.500000  1
