# generated using pymatgen
data_Lu3Hf3(Co5B2)2
_symmetry_space_group_name_H-M   'P 1'
_cell_length_a   8.98440764
_cell_length_b   8.98440764
_cell_length_c   3.09385200
_cell_angle_alpha   90.00000000
_cell_angle_beta   90.00000000
_cell_angle_gamma   90.47944277
_symmetry_Int_Tables_number   1
_chemical_formula_structural   Lu3Hf3(Co5B2)2
_chemical_formula_sum   'Lu3 Hf3 Co10 B4'
_cell_volume   249.72569257
_cell_formula_units_Z   1
loop_
 _symmetry_equiv_pos_site_id
 _symmetry_equiv_pos_as_xyz
  1  'x, y, z'
loop_
 _atom_site_type_symbol
 _atom_site_label
 _atom_site_symmetry_multiplicity
 _atom_site_fract_x
 _atom_site_fract_y
 _atom_site_fract_z
 _atom_site_occupancy
  Lu  Lu0  1  0.824775  0.324775  0.000000  1
  Lu  Lu1  1  0.324152  0.174937  0.000000  1
  Lu  Lu2  1  0.674937  0.824152  0.000000  1
  Hf  Hf3  1  0.999576  0.001317  0.000000  1
  Hf  Hf4  1  0.501317  0.499576  0.000000  1
  Hf  Hf5  1  0.174873  0.674873  0.000000  1
  Co  Co6  1  0.496330  0.996330  0.500000  1
  Co  Co7  1  0.004373  0.504373  0.500000  1
  Co  Co8  1  0.070890  0.234186  0.500000  1
  Co  Co9  1  0.225340  0.922198  0.500000  1
  Co  Co10  1  0.768047  0.068965  0.500000  1
  Co  Co11  1  0.938184  0.770256  0.500000  1
  Co  Co12  1  0.422198  0.725340  0.500000  1
  Co  Co13  1  0.568965  0.268047  0.500000  1
  Co  Co14  1  0.734186  0.570890  0.500000  1
  Co  Co15  1  0.270256  0.438184  0.500000  1
  B  B16  1  0.615991  0.115991  0.000000  1
  B  B17  1  0.120569  0.386166  0.000000  1
  B  B18  1  0.886166  0.620569  0.000000  1
  B  B19  1  0.378875  0.878875  0.000000  1
