# generated using pymatgen
data_Cs3TmPBr9
_symmetry_space_group_name_H-M   'P 1'
_cell_length_a   10.36845254
_cell_length_b   10.36845323
_cell_length_c   10.36845409
_cell_angle_alpha   81.69238306
_cell_angle_beta   81.69238124
_cell_angle_gamma   81.69237281
_symmetry_Int_Tables_number   1
_chemical_formula_structural   Cs3TmPBr9
_chemical_formula_sum   'Cs6 Tm2 P2 Br18'
_cell_volume   1082.65597846
_cell_formula_units_Z   2
loop_
 _symmetry_equiv_pos_site_id
 _symmetry_equiv_pos_as_xyz
  1  'x, y, z'
loop_
 _atom_site_type_symbol
 _atom_site_label
 _atom_site_symmetry_multiplicity
 _atom_site_fract_x
 _atom_site_fract_y
 _atom_site_fract_z
 _atom_site_occupancy
  Cs  Cs0  1  0.760686  0.408036  0.069064  1
  Cs  Cs1  1  0.069064  0.760686  0.408036  1
  Cs  Cs2  1  0.239314  0.591964  0.930936  1
  Cs  Cs3  1  0.408036  0.069064  0.760686  1
  Cs  Cs4  1  0.930936  0.239314  0.591964  1
  Cs  Cs5  1  0.591964  0.930936  0.239314  1
  Tm  Tm6  1  0.837875  0.837875  0.837875  1
  Tm  Tm7  1  0.162125  0.162125  0.162125  1
  P  P8  1  0.350836  0.350836  0.350836  1
  P  P9  1  0.649164  0.649164  0.649164  1
  Br  Br10  1  0.442198  0.742932  0.592681  1
  Br  Br11  1  0.257068  0.407319  0.557802  1
  Br  Br12  1  0.410104  0.251237  0.080467  1
  Br  Br13  1  0.080467  0.410104  0.251237  1
  Br  Br14  1  0.902629  0.738252  0.082804  1
  Br  Br15  1  0.917196  0.097371  0.261748  1
  Br  Br16  1  0.589896  0.748763  0.919533  1
  Br  Br17  1  0.748763  0.919533  0.589896  1
  Br  Br18  1  0.592681  0.442198  0.742932  1
  Br  Br19  1  0.251237  0.080467  0.410104  1
  Br  Br20  1  0.742932  0.592681  0.442198  1
  Br  Br21  1  0.738252  0.082804  0.902629  1
  Br  Br22  1  0.097371  0.261748  0.917196  1
  Br  Br23  1  0.407319  0.557802  0.257068  1
  Br  Br24  1  0.557802  0.257068  0.407319  1
  Br  Br25  1  0.919533  0.589896  0.748763  1
  Br  Br26  1  0.261748  0.917196  0.097371  1
  Br  Br27  1  0.082804  0.902629  0.738252  1
