# generated using pymatgen
data_Ho9Er(Bi2Rh)2
_symmetry_space_group_name_H-M   'P 1'
_cell_length_a   7.99479508
_cell_length_b   8.98706471
_cell_length_c   12.43273933
_cell_angle_alpha   89.99243572
_cell_angle_beta   90.06954035
_cell_angle_gamma   89.95509678
_symmetry_Int_Tables_number   1
_chemical_formula_structural   Ho9Er(Bi2Rh)2
_chemical_formula_sum   'Ho18 Er2 Bi8 Rh4'
_cell_volume   893.28815690
_cell_formula_units_Z   2
loop_
 _symmetry_equiv_pos_site_id
 _symmetry_equiv_pos_as_xyz
  1  'x, y, z'
loop_
 _atom_site_type_symbol
 _atom_site_label
 _atom_site_symmetry_multiplicity
 _atom_site_fract_x
 _atom_site_fract_y
 _atom_site_fract_z
 _atom_site_occupancy
  Ho  Ho0  1  0.839678  0.750034  0.793904  1
  Ho  Ho1  1  0.160322  0.249966  0.206096  1
  Ho  Ho2  1  0.339929  0.249939  0.705985  1
  Ho  Ho3  1  0.660071  0.750061  0.294015  1
  Ho  Ho4  1  0.374972  0.750131  0.690505  1
  Ho  Ho5  1  0.625028  0.249869  0.309495  1
  Ho  Ho6  1  0.874867  0.250006  0.809265  1
  Ho  Ho7  1  0.125133  0.749994  0.190735  1
  Ho  Ho8  1  0.952551  0.750148  0.501609  1
  Ho  Ho9  1  0.047449  0.249852  0.498391  1
  Ho  Ho10  1  0.452590  0.249992  0.998473  1
  Ho  Ho11  1  0.547410  0.750008  0.001527  1
  Ho  Ho12  1  0.177194  0.957780  0.933583  1
  Ho  Ho13  1  0.322912  0.542167  0.433593  1
  Ho  Ho14  1  0.822806  0.042220  0.066417  1
  Ho  Ho15  1  0.677088  0.457833  0.566407  1
  Ho  Ho16  1  0.822845  0.457766  0.066410  1
  Ho  Ho17  1  0.177155  0.542234  0.933590  1
  Er  Er18  1  0.676160  0.042345  0.566308  1
  Er  Er19  1  0.323840  0.957655  0.433692  1
  Bi  Bi20  1  0.567011  0.492009  0.826119  1
  Bi  Bi21  1  0.432989  0.507991  0.173881  1
  Bi  Bi22  1  0.066955  0.507998  0.673882  1
  Bi  Bi23  1  0.432962  0.991993  0.173985  1
  Bi  Bi24  1  0.933045  0.492002  0.326118  1
  Bi  Bi25  1  0.567038  0.008007  0.826015  1
  Bi  Bi26  1  0.933340  0.008016  0.326208  1
  Bi  Bi27  1  0.066660  0.991984  0.673792  1
  Rh  Rh28  1  0.572049  0.750574  0.509061  1
  Rh  Rh29  1  0.427951  0.249426  0.490939  1
  Rh  Rh30  1  0.072245  0.250035  0.990769  1
  Rh  Rh31  1  0.927755  0.749965  0.009231  1
