# generated using pymatgen
data_RbSe27
_symmetry_space_group_name_H-M   'P 1'
_cell_length_a   14.68251617
_cell_length_b   14.68251730
_cell_length_c   14.68251779
_cell_angle_alpha   117.97509349
_cell_angle_beta   117.97509618
_cell_angle_gamma   117.97509941
_symmetry_Int_Tables_number   1
_chemical_formula_structural   RbSe27
_chemical_formula_sum   'Rb1 Se27'
_cell_volume   1156.19110400
_cell_formula_units_Z   1
loop_
 _symmetry_equiv_pos_site_id
 _symmetry_equiv_pos_as_xyz
  1  'x, y, z'
loop_
 _atom_site_type_symbol
 _atom_site_label
 _atom_site_symmetry_multiplicity
 _atom_site_fract_x
 _atom_site_fract_y
 _atom_site_fract_z
 _atom_site_occupancy
  Rb  Rb0  1  0.451408  0.451408  0.451408  1
  Se  Se1  1  0.010905  0.638288  0.638288  1
  Se  Se2  1  0.638288  0.638288  0.010905  1
  Se  Se3  1  0.638288  0.010905  0.638288  1
  Se  Se4  1  0.223263  0.864283  0.712689  1
  Se  Se5  1  0.864283  0.712689  0.223263  1
  Se  Se6  1  0.712689  0.223263  0.864283  1
  Se  Se7  1  0.864283  0.223263  0.712689  1
  Se  Se8  1  0.223263  0.712689  0.864283  1
  Se  Se9  1  0.712689  0.864283  0.223263  1
  Se  Se10  1  0.104760  0.650369  0.436819  1
  Se  Se11  1  0.650369  0.436819  0.104760  1
  Se  Se12  1  0.436819  0.104760  0.650369  1
  Se  Se13  1  0.650369  0.104760  0.436819  1
  Se  Se14  1  0.104760  0.436819  0.650369  1
  Se  Se15  1  0.436819  0.650369  0.104760  1
  Se  Se16  1  0.361779  0.739429  0.589895  1
  Se  Se17  1  0.739429  0.589895  0.361779  1
  Se  Se18  1  0.589895  0.361779  0.739429  1
  Se  Se19  1  0.739429  0.361779  0.589895  1
  Se  Se20  1  0.361779  0.589895  0.739429  1
  Se  Se21  1  0.589895  0.739429  0.361779  1
  Se  Se22  1  0.196100  0.448520  0.448520  1
  Se  Se23  1  0.448520  0.448520  0.196100  1
  Se  Se24  1  0.448520  0.196100  0.448520  1
  Se  Se25  1  0.015492  0.916503  0.916503  1
  Se  Se26  1  0.916503  0.916503  0.015492  1
  Se  Se27  1  0.916503  0.015492  0.916503  1
