# generated using pymatgen
data_Cs2Li2U3Se8
_symmetry_space_group_name_H-M   'P 1'
_cell_length_a   4.13502596
_cell_length_b   8.04641392
_cell_length_c   14.28800600
_cell_angle_alpha   94.26069204
_cell_angle_beta   98.19177767
_cell_angle_gamma   104.94385451
_symmetry_Int_Tables_number   1
_chemical_formula_structural   Cs2Li2U3Se8
_chemical_formula_sum   'Cs2 Li2 U3 Se8'
_cell_volume   451.55270450
_cell_formula_units_Z   1
loop_
 _symmetry_equiv_pos_site_id
 _symmetry_equiv_pos_as_xyz
  1  'x, y, z'
loop_
 _atom_site_type_symbol
 _atom_site_label
 _atom_site_symmetry_multiplicity
 _atom_site_fract_x
 _atom_site_fract_y
 _atom_site_fract_z
 _atom_site_occupancy
  Cs  Cs0  1  0.876288  0.559154  0.193228  1
  Cs  Cs1  1  0.123712  0.440846  0.806771  1
  Li  Li2  1  0.155849  0.119820  0.194340  1
  Li  Li3  1  0.844150  0.880181  0.805659  1
  U  U4  1  0.500000  0.000000  0.000000  1
  U  U5  1  0.729728  0.082830  0.385323  1
  U  U6  1  0.270271  0.917170  0.614676  1
  Se  Se7  1  0.141614  0.245378  0.037866  1
  Se  Se8  1  0.565388  0.936631  0.192156  1
  Se  Se9  1  0.327123  0.311102  0.349662  1
  Se  Se10  1  0.124486  0.839859  0.415289  1
  Se  Se11  1  0.875514  0.160142  0.584710  1
  Se  Se12  1  0.672878  0.688899  0.650339  1
  Se  Se13  1  0.434612  0.063369  0.807844  1
  Se  Se14  1  0.858385  0.754621  0.962133  1
