# generated using pymatgen
data_HoMn2(Al4Fe)2
_symmetry_space_group_name_H-M   'P 1'
_cell_length_a   6.67961745
_cell_length_b   6.70301248
_cell_length_c   6.70301133
_cell_angle_alpha   98.62645357
_cell_angle_beta   98.29657826
_cell_angle_gamma   135.12828370
_symmetry_Int_Tables_number   1
_chemical_formula_structural   HoMn2(Al4Fe)2
_chemical_formula_sum   'Ho1 Mn2 Al8 Fe2'
_cell_volume   195.36830766
_cell_formula_units_Z   1
loop_
 _symmetry_equiv_pos_site_id
 _symmetry_equiv_pos_as_xyz
  1  'x, y, z'
loop_
 _atom_site_type_symbol
 _atom_site_label
 _atom_site_symmetry_multiplicity
 _atom_site_fract_x
 _atom_site_fract_y
 _atom_site_fract_z
 _atom_site_occupancy
  Ho  Ho0  1  0.000000  0.000000  0.000000  1
  Mn  Mn1  1  0.500000  0.000000  0.000000  1
  Mn  Mn2  1  0.500000  0.500000  0.500000  1
  Al  Al3  1  0.662204  0.000820  0.661384  1
  Al  Al4  1  0.000000  0.661644  0.661644  1
  Al  Al5  1  0.000000  0.338356  0.338356  1
  Al  Al6  1  0.337796  0.999180  0.338616  1
  Al  Al7  1  0.727598  0.504880  0.222718  1
  Al  Al8  1  0.500000  0.723170  0.223170  1
  Al  Al9  1  0.500000  0.276830  0.776830  1
  Al  Al10  1  0.272402  0.495120  0.777282  1
  Fe  Fe11  1  0.000000  0.000000  0.500000  1
  Fe  Fe12  1  0.000000  0.500000  0.000000  1
