# generated using pymatgen
data_Tb2Dy8(BiPb)3
_symmetry_space_group_name_H-M   'P 1'
_cell_length_a   9.14307739
_cell_length_b   9.13351511
_cell_length_c   6.52323100
_cell_angle_alpha   90.00000000
_cell_angle_beta   90.00000000
_cell_angle_gamma   119.98739499
_symmetry_Int_Tables_number   1
_chemical_formula_structural   Tb2Dy8(BiPb)3
_chemical_formula_sum   'Tb2 Dy8 Bi3 Pb3'
_cell_volume   471.82275917
_cell_formula_units_Z   1
loop_
 _symmetry_equiv_pos_site_id
 _symmetry_equiv_pos_as_xyz
  1  'x, y, z'
loop_
 _atom_site_type_symbol
 _atom_site_label
 _atom_site_symmetry_multiplicity
 _atom_site_fract_x
 _atom_site_fract_y
 _atom_site_fract_z
 _atom_site_occupancy
  Tb  Tb0  1  0.242169  0.239246  0.750000  1
  Tb  Tb1  1  0.237614  0.996094  0.250000  1
  Dy  Dy2  1  0.333175  0.670481  0.999943  1
  Dy  Dy3  1  0.666692  0.330709  0.000220  1
  Dy  Dy4  1  0.004410  0.763546  0.750000  1
  Dy  Dy5  1  0.760099  0.760674  0.250000  1
  Dy  Dy6  1  0.995324  0.237859  0.250000  1
  Dy  Dy7  1  0.759972  0.001151  0.750000  1
  Dy  Dy8  1  0.333175  0.670481  0.500057  1
  Dy  Dy9  1  0.666692  0.330709  0.499780  1
  Bi  Bi10  1  0.000290  0.392040  0.750000  1
  Bi  Bi11  1  0.389147  0.390462  0.250000  1
  Bi  Bi12  1  0.610896  0.610266  0.750000  1
  Pb  Pb13  1  0.607329  0.000276  0.250000  1
  Pb  Pb14  1  0.393921  0.000100  0.750000  1
  Pb  Pb15  1  0.999093  0.605907  0.250000  1
