# generated using pymatgen
data_TbPr5(MoO7)2
_symmetry_space_group_name_H-M   'P 1'
_cell_length_a   6.71004224
_cell_length_b   6.66656142
_cell_length_c   7.75395500
_cell_angle_alpha   90.02237149
_cell_angle_beta   90.03488104
_cell_angle_gamma   109.29726366
_symmetry_Int_Tables_number   1
_chemical_formula_structural   TbPr5(MoO7)2
_chemical_formula_sum   'Tb1 Pr5 Mo2 O14'
_cell_volume   327.36928004
_cell_formula_units_Z   1
loop_
 _symmetry_equiv_pos_site_id
 _symmetry_equiv_pos_as_xyz
  1  'x, y, z'
loop_
 _atom_site_type_symbol
 _atom_site_label
 _atom_site_symmetry_multiplicity
 _atom_site_fract_x
 _atom_site_fract_y
 _atom_site_fract_z
 _atom_site_occupancy
  Tb  Tb0  1  0.996081  0.464725  0.747279  1
  Pr  Pr1  1  0.472975  0.478754  0.998986  1
  Pr  Pr2  1  0.469407  0.997252  0.250657  1
  Pr  Pr3  1  0.535604  0.996476  0.751812  1
  Pr  Pr4  1  0.994938  0.542760  0.249552  1
  Pr  Pr5  1  0.479345  0.482838  0.501756  1
  Mo  Mo6  1  0.000525  0.000879  0.997971  1
  Mo  Mo7  1  0.999849  0.000964  0.502524  1
  O  O8  1  0.063491  0.314131  0.474907  1
  O  O9  1  0.065787  0.939002  0.250199  1
  O  O10  1  0.630517  0.370672  0.249625  1
  O  O11  1  0.320107  0.084895  0.527734  1
  O  O12  1  0.953066  0.697508  0.537888  1
  O  O13  1  0.935571  0.071226  0.749770  1
  O  O14  1  0.687196  0.918148  0.473940  1
  O  O15  1  0.358355  0.627013  0.250699  1
  O  O16  1  0.687682  0.919230  0.027824  1
  O  O17  1  0.646683  0.370788  0.751227  1
  O  O18  1  0.066516  0.314150  0.023320  1
  O  O19  1  0.960630  0.703150  0.958430  1
  O  O20  1  0.352079  0.620615  0.749405  1
  O  O21  1  0.323596  0.084823  0.974496  1
