# generated using pymatgen
data_LiTm6Co14(NiP4)3
_symmetry_space_group_name_H-M   'P 1'
_cell_length_a   3.69026700
_cell_length_b   10.49441800
_cell_length_c   12.14512900
_cell_angle_alpha   90.00000000
_cell_angle_beta   90.00000000
_cell_angle_gamma   90.00000000
_symmetry_Int_Tables_number   1
_chemical_formula_structural   LiTm6Co14(NiP4)3
_chemical_formula_sum   'Li1 Tm6 Co14 Ni3 P12'
_cell_volume   470.34689361
_cell_formula_units_Z   1
loop_
 _symmetry_equiv_pos_site_id
 _symmetry_equiv_pos_as_xyz
  1  'x, y, z'
loop_
 _atom_site_type_symbol
 _atom_site_label
 _atom_site_symmetry_multiplicity
 _atom_site_fract_x
 _atom_site_fract_y
 _atom_site_fract_z
 _atom_site_occupancy
  Li  Li0  1  0.500000  0.500000  0.152608  1
  Tm  Tm1  1  0.000000  0.500000  0.520757  1
  Tm  Tm2  1  0.500000  0.000000  0.478764  1
  Tm  Tm3  1  0.500000  0.817447  0.206296  1
  Tm  Tm4  1  0.500000  0.182553  0.206296  1
  Tm  Tm5  1  0.000000  0.683045  0.795268  1
  Tm  Tm6  1  0.000000  0.316955  0.795268  1
  Co  Co7  1  0.000000  0.500000  0.986629  1
  Co  Co8  1  0.500000  0.000000  0.014120  1
  Co  Co9  1  0.500000  0.331296  0.995261  1
  Co  Co10  1  0.500000  0.668704  0.995261  1
  Co  Co11  1  0.000000  0.165013  0.002985  1
  Co  Co12  1  0.000000  0.834987  0.002985  1
  Co  Co13  1  0.500000  0.297033  0.432618  1
  Co  Co14  1  0.500000  0.702967  0.432618  1
  Co  Co15  1  0.000000  0.201559  0.570040  1
  Co  Co16  1  0.000000  0.798441  0.570040  1
  Co  Co17  1  0.500000  0.877620  0.709051  1
  Co  Co18  1  0.500000  0.122380  0.709051  1
  Co  Co19  1  0.000000  0.623106  0.292326  1
  Co  Co20  1  0.000000  0.376894  0.292326  1
  Ni  Ni21  1  0.000000  0.000000  0.837670  1
  Ni  Ni22  1  0.500000  0.500000  0.703658  1
  Ni  Ni23  1  0.000000  0.000000  0.297190  1
  P  P24  1  0.500000  0.500000  0.884783  1
  P  P25  1  0.000000  0.000000  0.116502  1
  P  P26  1  0.500000  0.500000  0.346376  1
  P  P27  1  0.000000  0.000000  0.653706  1
  P  P28  1  0.500000  0.310608  0.616662  1
  P  P29  1  0.500000  0.689392  0.616662  1
  P  P30  1  0.000000  0.189826  0.385057  1
  P  P31  1  0.000000  0.810174  0.385057  1
  P  P32  1  0.500000  0.846885  0.892009  1
  P  P33  1  0.500000  0.153115  0.892009  1
  P  P34  1  0.000000  0.657870  0.106043  1
  P  P35  1  0.000000  0.342130  0.106043  1
