# generated using pymatgen
data_RbMnCuSe2
_symmetry_space_group_name_H-M   'P 1'
_cell_length_a   7.77441064
_cell_length_b   7.77441066
_cell_length_c   7.77441097
_cell_angle_alpha   149.08471610
_cell_angle_beta   149.08471381
_cell_angle_gamma   44.28662678
_symmetry_Int_Tables_number   1
_chemical_formula_structural   RbMnCuSe2
_chemical_formula_sum   'Rb1 Mn1 Cu1 Se2'
_cell_volume   123.67066759
_cell_formula_units_Z   1
loop_
 _symmetry_equiv_pos_site_id
 _symmetry_equiv_pos_as_xyz
  1  'x, y, z'
loop_
 _atom_site_type_symbol
 _atom_site_label
 _atom_site_symmetry_multiplicity
 _atom_site_fract_x
 _atom_site_fract_y
 _atom_site_fract_z
 _atom_site_occupancy
  Rb  Rb0  1  0.000000  0.000000  0.000000  1
  Mn  Mn1  1  0.750000  0.250000  0.500000  1
  Cu  Cu2  1  0.250000  0.750000  0.500000  1
  Se  Se3  1  0.646982  0.646982  0.000000  1
  Se  Se4  1  0.353018  0.353018  0.000000  1
