# generated using pymatgen
data_Y10Tl3BiPb2
_symmetry_space_group_name_H-M   'P 1'
_cell_length_a   9.04897200
_cell_length_b   9.05377901
_cell_length_c   6.57775600
_cell_angle_alpha   90.00000000
_cell_angle_beta   90.00000000
_cell_angle_gamma   120.03673005
_symmetry_Int_Tables_number   1
_chemical_formula_structural   Y10Tl3BiPb2
_chemical_formula_sum   'Y10 Tl3 Bi1 Pb2'
_cell_volume   466.52687458
_cell_formula_units_Z   1
loop_
 _symmetry_equiv_pos_site_id
 _symmetry_equiv_pos_as_xyz
  1  'x, y, z'
loop_
 _atom_site_type_symbol
 _atom_site_label
 _atom_site_symmetry_multiplicity
 _atom_site_fract_x
 _atom_site_fract_y
 _atom_site_fract_z
 _atom_site_occupancy
  Y  Y0  1  0.765841  0.762455  0.250000  1
  Y  Y1  1  0.998776  0.238196  0.250000  1
  Y  Y2  1  0.766226  0.008285  0.750000  1
  Y  Y3  1  0.326293  0.667598  0.500083  1
  Y  Y4  1  0.233130  0.995019  0.250000  1
  Y  Y5  1  0.668749  0.329838  0.499907  1
  Y  Y6  1  0.008492  0.765244  0.750000  1
  Y  Y7  1  0.326293  0.667598  0.999917  1
  Y  Y8  1  0.233830  0.233568  0.750000  1
  Y  Y9  1  0.668749  0.329838  0.000093  1
  Tl  Tl10  1  0.399070  0.003008  0.750000  1
  Tl  Tl11  1  0.001309  0.399823  0.750000  1
  Tl  Tl12  1  0.996633  0.599733  0.250000  1
  Bi  Bi13  1  0.607352  0.608492  0.750000  1
  Pb  Pb14  1  0.604119  0.996548  0.250000  1
  Pb  Pb15  1  0.395142  0.394761  0.250000  1
