# generated using pymatgen
data_Dy3Lu3Al24Os7Ru
_symmetry_space_group_name_H-M   'P 1'
_cell_length_a   8.76953800
_cell_length_b   8.76953827
_cell_length_c   9.59373300
_cell_angle_alpha   90.00000000
_cell_angle_beta   90.00000000
_cell_angle_gamma   119.99999898
_symmetry_Int_Tables_number   1
_chemical_formula_structural   Dy3Lu3Al24Os7Ru
_chemical_formula_sum   'Dy3 Lu3 Al24 Os7 Ru1'
_cell_volume   638.95710803
_cell_formula_units_Z   1
loop_
 _symmetry_equiv_pos_site_id
 _symmetry_equiv_pos_as_xyz
  1  'x, y, z'
loop_
 _atom_site_type_symbol
 _atom_site_label
 _atom_site_symmetry_multiplicity
 _atom_site_fract_x
 _atom_site_fract_y
 _atom_site_fract_z
 _atom_site_occupancy
  Dy  Dy0  1  0.806564  0.193436  0.750185  1
  Dy  Dy1  1  0.806564  0.613128  0.750185  1
  Dy  Dy2  1  0.386872  0.193436  0.750185  1
  Lu  Lu3  1  0.195515  0.804485  0.249723  1
  Lu  Lu4  1  0.195515  0.391030  0.249723  1
  Lu  Lu5  1  0.608970  0.804485  0.249723  1
  Al  Al6  1  0.561118  0.438882  0.250017  1
  Al  Al7  1  0.561118  0.122237  0.250017  1
  Al  Al8  1  0.877763  0.438882  0.250017  1
  Al  Al9  1  0.437992  0.562008  0.750017  1
  Al  Al10  1  0.437992  0.875983  0.750017  1
  Al  Al11  1  0.124017  0.562008  0.750017  1
  Al  Al12  1  0.325771  0.162885  0.422102  1
  Al  Al13  1  0.837115  0.162885  0.422102  1
  Al  Al14  1  0.837115  0.674229  0.422102  1
  Al  Al15  1  0.673109  0.836555  0.575115  1
  Al  Al16  1  0.163445  0.836555  0.575115  1
  Al  Al17  1  0.163445  0.326891  0.575115  1
  Al  Al18  1  0.673336  0.836668  0.924511  1
  Al  Al19  1  0.163332  0.836668  0.924511  1
  Al  Al20  1  0.163332  0.326664  0.924511  1
  Al  Al21  1  0.325586  0.162793  0.078277  1
  Al  Al22  1  0.837207  0.162793  0.078277  1
  Al  Al23  1  0.837207  0.674414  0.078277  1
  Al  Al24  1  0.666667  0.333333  0.518861  1
  Al  Al25  1  0.333333  0.666667  0.477891  1
  Al  Al26  1  0.333333  0.666667  0.021416  1
  Al  Al27  1  0.666667  0.333333  0.981808  1
  Al  Al28  1  0.000000  0.000000  0.248344  1
  Al  Al29  1  0.000000  0.000000  0.751732  1
  Os  Os30  1  0.000000  0.000000  0.499848  1
  Os  Os31  1  0.499366  0.500634  0.498307  1
  Os  Os32  1  0.499366  0.998732  0.498307  1
  Os  Os33  1  0.001268  0.500634  0.498307  1
  Os  Os34  1  0.499370  0.500630  0.001698  1
  Os  Os35  1  0.499370  0.998739  0.001698  1
  Os  Os36  1  0.001261  0.500630  0.001698  1
  Ru  Ru37  1  0.000000  0.000000  0.000245  1
