# generated using pymatgen
data_Li6Tb2PaN6
_symmetry_space_group_name_H-M   'P 1'
_cell_length_a   6.09931800
_cell_length_b   6.09931908
_cell_length_c   5.49343300
_cell_angle_alpha   90.00000000
_cell_angle_beta   90.00000000
_cell_angle_gamma   120.00000501
_symmetry_Int_Tables_number   1
_chemical_formula_structural   Li6Tb2PaN6
_chemical_formula_sum   'Li6 Tb2 Pa1 N6'
_cell_volume   176.98524934
_cell_formula_units_Z   1
loop_
 _symmetry_equiv_pos_site_id
 _symmetry_equiv_pos_as_xyz
  1  'x, y, z'
loop_
 _atom_site_type_symbol
 _atom_site_label
 _atom_site_symmetry_multiplicity
 _atom_site_fract_x
 _atom_site_fract_y
 _atom_site_fract_z
 _atom_site_occupancy
  Li  Li0  1  0.986534  0.656771  0.604620  1
  Li  Li1  1  0.343229  0.329764  0.604620  1
  Li  Li2  1  0.670236  0.013466  0.604620  1
  Li  Li3  1  0.011616  0.337404  0.394591  1
  Li  Li4  1  0.662596  0.674211  0.394591  1
  Li  Li5  1  0.325789  0.988384  0.394591  1
  Tb  Tb6  1  0.000000  0.000000  0.996679  1
  Tb  Tb7  1  0.333333  0.666667  0.992262  1
  Pa  Pa8  1  0.666667  0.333333  0.007626  1
  N  N9  1  0.986301  0.652914  0.230181  1
  N  N10  1  0.347086  0.333385  0.230181  1
  N  N11  1  0.666615  0.013699  0.230181  1
  N  N12  1  0.983418  0.333490  0.771752  1
  N  N13  1  0.666510  0.649928  0.771752  1
  N  N14  1  0.350072  0.016582  0.771752  1
