# generated using pymatgen
data_Lu3Pa2Os3
_symmetry_space_group_name_H-M   'P 1'
_cell_length_a   6.15419300
_cell_length_b   7.95956495
_cell_length_c   8.20772795
_cell_angle_alpha   119.00477182
_cell_angle_beta   90.00000000
_cell_angle_gamma   90.00000000
_symmetry_Int_Tables_number   1
_chemical_formula_structural   Lu3Pa2Os3
_chemical_formula_sum   'Lu6 Pa4 Os6'
_cell_volume   351.62731402
_cell_formula_units_Z   2
loop_
 _symmetry_equiv_pos_site_id
 _symmetry_equiv_pos_as_xyz
  1  'x, y, z'
loop_
 _atom_site_type_symbol
 _atom_site_label
 _atom_site_symmetry_multiplicity
 _atom_site_fract_x
 _atom_site_fract_y
 _atom_site_fract_z
 _atom_site_occupancy
  Lu  Lu0  1  0.000000  0.663893  0.327786  1
  Lu  Lu1  1  0.000000  0.336107  0.672214  1
  Lu  Lu2  1  0.500000  0.336107  0.672214  1
  Lu  Lu3  1  0.500000  0.663893  0.327786  1
  Lu  Lu4  1  0.750000  0.253196  0.000000  1
  Lu  Lu5  1  0.250000  0.746804  0.000000  1
  Pa  Pa6  1  0.750000  0.752608  0.748622  1
  Pa  Pa7  1  0.250000  0.247392  0.251378  1
  Pa  Pa8  1  0.750000  0.003987  0.251378  1
  Pa  Pa9  1  0.250000  0.996013  0.748622  1
  Os  Os10  1  0.750000  0.378014  0.392191  1
  Os  Os11  1  0.250000  0.621986  0.607809  1
  Os  Os12  1  0.750000  0.985822  0.607809  1
  Os  Os13  1  0.250000  0.014178  0.392191  1
  Os  Os14  1  0.750000  0.632723  0.000000  1
  Os  Os15  1  0.250000  0.367277  0.000000  1
