# generated using pymatgen
data_Tb2Ho14CdIn3Rh4
_symmetry_space_group_name_H-M   'P 1'
_cell_length_a   9.62516512
_cell_length_b   9.62828622
_cell_length_c   9.61841100
_cell_angle_alpha   60.03391889
_cell_angle_beta   60.02320639
_cell_angle_gamma   60.01529572
_symmetry_Int_Tables_number   1
_chemical_formula_structural   Tb2Ho14CdIn3Rh4
_chemical_formula_sum   'Tb2 Ho14 Cd1 In3 Rh4'
_cell_volume   630.64228626
_cell_formula_units_Z   1
loop_
 _symmetry_equiv_pos_site_id
 _symmetry_equiv_pos_as_xyz
  1  'x, y, z'
loop_
 _atom_site_type_symbol
 _atom_site_label
 _atom_site_symmetry_multiplicity
 _atom_site_fract_x
 _atom_site_fract_y
 _atom_site_fract_z
 _atom_site_occupancy
  Tb  Tb0  1  0.934838  0.931886  0.566638  1
  Tb  Tb1  1  0.564015  0.560417  0.937783  1
  Ho  Ho2  1  0.690793  0.690769  0.309220  1
  Ho  Ho3  1  0.148861  0.551287  0.149926  1
  Ho  Ho4  1  0.688914  0.312389  0.687997  1
  Ho  Ho5  1  0.150980  0.149503  0.154697  1
  Ho  Ho6  1  0.548563  0.149034  0.151201  1
  Ho  Ho7  1  0.688914  0.312389  0.310698  1
  Ho  Ho8  1  0.150980  0.149503  0.544818  1
  Ho  Ho9  1  0.311046  0.690312  0.308996  1
  Ho  Ho10  1  0.311046  0.690312  0.689648  1
  Ho  Ho11  1  0.937946  0.559291  0.564397  1
  Ho  Ho12  1  0.937946  0.559291  0.938365  1
  Ho  Ho13  1  0.562049  0.936283  0.563100  1
  Ho  Ho14  1  0.562049  0.936283  0.938569  1
  Ho  Ho15  1  0.311328  0.310608  0.689032  1
  Cd  Cd16  1  0.919292  0.246569  0.917069  1
  In  In17  1  0.916833  0.920676  0.246441  1
  In  In18  1  0.247023  0.920735  0.916121  1
  In  In19  1  0.916833  0.920676  0.916051  1
  Rh  Rh20  1  0.356472  0.358239  0.927466  1
  Rh  Rh21  1  0.360244  0.924446  0.357655  1
  Rh  Rh22  1  0.926564  0.360858  0.356289  1
  Rh  Rh23  1  0.356472  0.358239  0.357823  1
