# generated using pymatgen
data_Ho3LuGa7Ag5
_symmetry_space_group_name_H-M   'P 1'
_cell_length_a   4.33315000
_cell_length_b   6.99412000
_cell_length_c   10.29988561
_cell_angle_alpha   90.02147691
_cell_angle_beta   90.00000000
_cell_angle_gamma   90.00000000
_symmetry_Int_Tables_number   1
_chemical_formula_structural   Ho3LuGa7Ag5
_chemical_formula_sum   'Ho3 Lu1 Ga7 Ag5'
_cell_volume   312.15419366
_cell_formula_units_Z   1
loop_
 _symmetry_equiv_pos_site_id
 _symmetry_equiv_pos_as_xyz
  1  'x, y, z'
loop_
 _atom_site_type_symbol
 _atom_site_label
 _atom_site_symmetry_multiplicity
 _atom_site_fract_x
 _atom_site_fract_y
 _atom_site_fract_z
 _atom_site_occupancy
  Ho  Ho0  1  0.500000  0.780778  0.173058  1
  Ho  Ho1  1  0.500000  0.276906  0.327634  1
  Ho  Ho2  1  0.000000  0.216514  0.828507  1
  Lu  Lu3  1  0.000000  0.724015  0.670050  1
  Ga  Ga4  1  0.500000  0.923450  0.845789  1
  Ga  Ga5  1  0.500000  0.427939  0.655767  1
  Ga  Ga6  1  0.000000  0.076965  0.153506  1
  Ga  Ga7  1  0.000000  0.573991  0.344144  1
  Ga  Ga8  1  0.500000  0.202231  0.035567  1
  Ga  Ga9  1  0.000000  0.300678  0.535386  1
  Ga  Ga10  1  0.000000  0.795826  0.963683  1
  Ag  Ag11  1  0.500000  0.541796  0.903588  1
  Ag  Ag12  1  0.500000  0.046309  0.600928  1
  Ag  Ag13  1  0.000000  0.456836  0.096589  1
  Ag  Ag14  1  0.000000  0.959813  0.401887  1
  Ag  Ag15  1  0.500000  0.695956  0.463916  1
