# generated using pymatgen
data_KFe2I7
_symmetry_space_group_name_H-M   'P 1'
_cell_length_a   12.34273600
_cell_length_b   12.03701540
_cell_length_c   15.87542984
_cell_angle_alpha   56.91055449
_cell_angle_beta   90.00000000
_cell_angle_gamma   90.00000000
_symmetry_Int_Tables_number   1
_chemical_formula_structural   KFe2I7
_chemical_formula_sum   'K4 Fe8 I28'
_cell_volume   1976.08722135
_cell_formula_units_Z   4
loop_
 _symmetry_equiv_pos_site_id
 _symmetry_equiv_pos_as_xyz
  1  'x, y, z'
loop_
 _atom_site_type_symbol
 _atom_site_label
 _atom_site_symmetry_multiplicity
 _atom_site_fract_x
 _atom_site_fract_y
 _atom_site_fract_z
 _atom_site_occupancy
  K  K0  1  0.381013  0.886482  0.379991  1
  K  K1  1  0.881013  0.113518  0.120009  1
  K  K2  1  0.618987  0.113518  0.620009  1
  K  K3  1  0.118987  0.886482  0.879991  1
  Fe  Fe4  1  0.289659  0.597510  0.800427  1
  Fe  Fe5  1  0.789659  0.402490  0.699573  1
  Fe  Fe6  1  0.710341  0.402490  0.199573  1
  Fe  Fe7  1  0.210341  0.597510  0.300427  1
  Fe  Fe8  1  0.215834  0.174579  0.544389  1
  Fe  Fe9  1  0.715834  0.825421  0.955611  1
  Fe  Fe10  1  0.784166  0.825421  0.455611  1
  Fe  Fe11  1  0.284166  0.174579  0.044389  1
  I  I12  1  0.409452  0.378834  0.916518  1
  I  I13  1  0.909452  0.621166  0.583482  1
  I  I14  1  0.590548  0.621166  0.083482  1
  I  I15  1  0.090548  0.378834  0.416518  1
  I  I16  1  0.128460  0.145882  0.952313  1
  I  I17  1  0.628460  0.854118  0.547687  1
  I  I18  1  0.871540  0.854118  0.047687  1
  I  I19  1  0.371540  0.145882  0.452313  1
  I  I20  1  0.212372  0.204061  0.180297  1
  I  I21  1  0.712372  0.795939  0.319703  1
  I  I22  1  0.787628  0.795939  0.819703  1
  I  I23  1  0.287628  0.204061  0.680297  1
  I  I24  1  0.415307  0.981713  0.120748  1
  I  I25  1  0.915307  0.018287  0.379252  1
  I  I26  1  0.584693  0.018287  0.879252  1
  I  I27  1  0.084693  0.981713  0.620748  1
  I  I28  1  0.224922  0.625224  0.130630  1
  I  I29  1  0.724922  0.374776  0.369370  1
  I  I30  1  0.775078  0.374776  0.869370  1
  I  I31  1  0.275078  0.625224  0.630630  1
  I  I32  1  0.105826  0.783361  0.293333  1
  I  I33  1  0.605826  0.216639  0.206667  1
  I  I34  1  0.894174  0.216639  0.706667  1
  I  I35  1  0.394174  0.783361  0.793333  1
  I  I36  1  0.394401  0.572065  0.378459  1
  I  I37  1  0.894401  0.427935  0.121541  1
  I  I38  1  0.605599  0.427935  0.621541  1
  I  I39  1  0.105599  0.572065  0.878459  1
