# generated using pymatgen
data_Pr6Y10Cd4TcPd3
_symmetry_space_group_name_H-M   'P 1'
_cell_length_a   9.89703902
_cell_length_b   9.89703929
_cell_length_c   9.89703848
_cell_angle_alpha   59.41741004
_cell_angle_beta   59.41740938
_cell_angle_gamma   59.41740987
_symmetry_Int_Tables_number   1
_chemical_formula_structural   Pr6Y10Cd4TcPd3
_chemical_formula_sum   'Pr6 Y10 Cd4 Tc1 Pd3'
_cell_volume   676.40250428
_cell_formula_units_Z   1
loop_
 _symmetry_equiv_pos_site_id
 _symmetry_equiv_pos_as_xyz
  1  'x, y, z'
loop_
 _atom_site_type_symbol
 _atom_site_label
 _atom_site_symmetry_multiplicity
 _atom_site_fract_x
 _atom_site_fract_y
 _atom_site_fract_z
 _atom_site_occupancy
  Pr  Pr0  1  0.935707  0.563073  0.563073  1
  Pr  Pr1  1  0.553900  0.939917  0.939917  1
  Pr  Pr2  1  0.563073  0.935707  0.563073  1
  Pr  Pr3  1  0.939917  0.553900  0.939917  1
  Pr  Pr4  1  0.563073  0.563073  0.935707  1
  Pr  Pr5  1  0.939917  0.939917  0.553900  1
  Y  Y6  1  0.353456  0.353456  0.353456  1
  Y  Y7  1  0.349131  0.349131  0.950936  1
  Y  Y8  1  0.349131  0.950936  0.349131  1
  Y  Y9  1  0.950936  0.349131  0.349131  1
  Y  Y10  1  0.818880  0.185424  0.185424  1
  Y  Y11  1  0.184637  0.811557  0.811557  1
  Y  Y12  1  0.185424  0.818880  0.185424  1
  Y  Y13  1  0.811557  0.184637  0.811557  1
  Y  Y14  1  0.185424  0.185424  0.818880  1
  Y  Y15  1  0.811557  0.811557  0.184637  1
  Cd  Cd16  1  0.578823  0.578823  0.578823  1
  Cd  Cd17  1  0.579320  0.579320  0.260474  1
  Cd  Cd18  1  0.579320  0.260474  0.579320  1
  Cd  Cd19  1  0.260474  0.579320  0.579320  1
  Tc  Tc20  1  0.144012  0.144012  0.144012  1
  Pd  Pd21  1  0.145380  0.145380  0.571572  1
  Pd  Pd22  1  0.145380  0.571572  0.145380  1
  Pd  Pd23  1  0.571572  0.145380  0.145380  1
