# generated using pymatgen
data_KV(PO3)4
_symmetry_space_group_name_H-M   'P 1'
_cell_length_a   10.61125643
_cell_length_b   10.61125608
_cell_length_c   5.34013412
_cell_angle_alpha   80.44507602
_cell_angle_beta   80.44507156
_cell_angle_gamma   71.96354124
_symmetry_Int_Tables_number   1
_chemical_formula_structural   KV(PO3)4
_chemical_formula_sum   'K2 V2 P8 O24'
_cell_volume   559.58632213
_cell_formula_units_Z   2
loop_
 _symmetry_equiv_pos_site_id
 _symmetry_equiv_pos_as_xyz
  1  'x, y, z'
loop_
 _atom_site_type_symbol
 _atom_site_label
 _atom_site_symmetry_multiplicity
 _atom_site_fract_x
 _atom_site_fract_y
 _atom_site_fract_z
 _atom_site_occupancy
  K  K0  1  0.407601  0.407601  0.732458  1
  K  K1  1  0.592399  0.592399  0.267542  1
  V  V2  1  0.500000  0.000000  0.000000  1
  V  V3  1  0.000000  0.500000  0.000000  1
  P  P4  1  0.799274  0.353845  0.834275  1
  P  P5  1  0.068575  0.306881  0.535336  1
  P  P6  1  0.306881  0.068575  0.535336  1
  P  P7  1  0.646155  0.200726  0.165725  1
  P  P8  1  0.353845  0.799274  0.834275  1
  P  P9  1  0.693119  0.931425  0.464664  1
  P  P10  1  0.931425  0.693119  0.464664  1
  P  P11  1  0.200726  0.646155  0.165725  1
  O  O12  1  0.425569  0.848048  0.006791  1
  O  O13  1  0.395048  0.101665  0.693235  1
  O  O14  1  0.429236  0.678178  0.711899  1
  O  O15  1  0.151952  0.574431  0.993209  1
  O  O16  1  0.574431  0.151952  0.993209  1
  O  O17  1  0.913927  0.658689  0.751258  1
  O  O18  1  0.215575  0.784425  0.000000  1
  O  O19  1  0.570764  0.321822  0.288101  1
  O  O20  1  0.604952  0.898335  0.306765  1
  O  O21  1  0.709131  0.077443  0.375135  1
  O  O22  1  0.321822  0.570764  0.288101  1
  O  O23  1  0.898335  0.604952  0.306765  1
  O  O24  1  0.848048  0.425569  0.006791  1
  O  O25  1  0.077443  0.709131  0.375135  1
  O  O26  1  0.154687  0.154687  0.603454  1
  O  O27  1  0.101665  0.395048  0.693235  1
  O  O28  1  0.678178  0.429236  0.711899  1
  O  O29  1  0.290869  0.922557  0.624865  1
  O  O30  1  0.784425  0.215575  0.000000  1
  O  O31  1  0.341311  0.086073  0.248742  1
  O  O32  1  0.658689  0.913927  0.751258  1
  O  O33  1  0.845313  0.845313  0.396546  1
  O  O34  1  0.922557  0.290869  0.624865  1
  O  O35  1  0.086073  0.341311  0.248742  1
