# generated using pymatgen
data_YbEr9(RuO6)4
_symmetry_space_group_name_H-M   'P 1'
_cell_length_a   5.76533100
_cell_length_b   7.36337920
_cell_length_c   12.26529036
_cell_angle_alpha   107.25656492
_cell_angle_beta   90.00000000
_cell_angle_gamma   90.00000000
_symmetry_Int_Tables_number   1
_chemical_formula_structural   YbEr9(RuO6)4
_chemical_formula_sum   'Yb1 Er9 Ru4 O24'
_cell_volume   497.25165073
_cell_formula_units_Z   1
loop_
 _symmetry_equiv_pos_site_id
 _symmetry_equiv_pos_as_xyz
  1  'x, y, z'
loop_
 _atom_site_type_symbol
 _atom_site_label
 _atom_site_symmetry_multiplicity
 _atom_site_fract_x
 _atom_site_fract_y
 _atom_site_fract_z
 _atom_site_occupancy
  Yb  Yb0  1  0.250000  0.610359  0.436841  1
  Er  Er1  1  0.750000  0.386495  0.561657  1
  Er  Er2  1  0.250000  0.083125  0.447895  1
  Er  Er3  1  0.750000  0.911960  0.549614  1
  Er  Er4  1  0.250000  0.886905  0.060560  1
  Er  Er5  1  0.750000  0.111722  0.939253  1
  Er  Er6  1  0.250000  0.412244  0.051542  1
  Er  Er7  1  0.750000  0.588959  0.949338  1
  Er  Er8  1  0.250000  0.249822  0.749729  1
  Er  Er9  1  0.750000  0.753682  0.253751  1
  Ru  Ru10  1  0.480592  0.749359  0.748874  1
  Ru  Ru11  1  0.979868  0.251272  0.250898  1
  Ru  Ru12  1  0.520132  0.251272  0.250898  1
  Ru  Ru13  1  0.019408  0.749359  0.748874  1
  O  O14  1  0.250000  0.949362  0.751590  1
  O  O15  1  0.750000  0.050094  0.245138  1
  O  O16  1  0.501769  0.329475  0.903071  1
  O  O17  1  0.002335  0.670102  0.096761  1
  O  O18  1  0.497665  0.670102  0.096761  1
  O  O19  1  0.998231  0.329475  0.903071  1
  O  O20  1  0.250000  0.550952  0.749478  1
  O  O21  1  0.750000  0.450615  0.252024  1
  O  O22  1  0.250000  0.071811  0.250069  1
  O  O23  1  0.750000  0.929490  0.750074  1
  O  O24  1  0.507418  0.830905  0.916359  1
  O  O25  1  0.006618  0.169679  0.083925  1
  O  O26  1  0.493382  0.169679  0.083925  1
  O  O27  1  0.992582  0.830905  0.916359  1
  O  O28  1  0.501400  0.171734  0.598789  1
  O  O29  1  0.995918  0.838796  0.402208  1
  O  O30  1  0.504082  0.838796  0.402208  1
  O  O31  1  0.998600  0.171734  0.598789  1
  O  O32  1  0.511716  0.668629  0.585750  1
  O  O33  1  0.002617  0.324083  0.414735  1
  O  O34  1  0.497383  0.324083  0.414735  1
  O  O35  1  0.988284  0.668629  0.585750  1
  O  O36  1  0.250000  0.423742  0.247075  1
  O  O37  1  0.750000  0.570594  0.751632  1
