# generated using pymatgen
data_HoTm2Fe2Co9B4
_symmetry_space_group_name_H-M   'P 1'
_cell_length_a   5.03726600
_cell_length_b   5.03731529
_cell_length_c   9.70304600
_cell_angle_alpha   89.99998612
_cell_angle_beta   90.00014153
_cell_angle_gamma   120.03054639
_symmetry_Int_Tables_number   1
_chemical_formula_structural   HoTm2Fe2Co9B4
_chemical_formula_sum   'Ho1 Tm2 Fe2 Co9 B4'
_cell_volume   213.15669659
_cell_formula_units_Z   1
loop_
 _symmetry_equiv_pos_site_id
 _symmetry_equiv_pos_as_xyz
  1  'x, y, z'
loop_
 _atom_site_type_symbol
 _atom_site_label
 _atom_site_symmetry_multiplicity
 _atom_site_fract_x
 _atom_site_fract_y
 _atom_site_fract_z
 _atom_site_occupancy
  Ho  Ho0  1  0.999981  0.999999  0.000040  1
  Tm  Tm1  1  0.999995  0.999999  0.341772  1
  Tm  Tm2  1  0.000005  0.000001  0.658235  1
  Fe  Fe3  1  0.333341  0.666666  0.999992  1
  Fe  Fe4  1  0.666620  0.333334  0.999992  1
  Co  Co5  1  0.499999  0.000001  0.499993  1
  Co  Co6  1  0.499999  0.500001  0.500003  1
  Co  Co7  1  0.999998  0.499999  0.499996  1
  Co  Co8  1  0.500017  0.000050  0.202304  1
  Co  Co9  1  0.500015  0.499978  0.202287  1
  Co  Co10  1  0.999939  0.499973  0.202290  1
  Co  Co11  1  0.500028  0.000048  0.797722  1
  Co  Co12  1  0.500028  0.499976  0.797687  1
  Co  Co13  1  0.999953  0.499975  0.797712  1
  B  B14  1  0.333296  0.666705  0.349543  1
  B  B15  1  0.666686  0.333294  0.349541  1
  B  B16  1  0.666707  0.333338  0.650445  1
  B  B17  1  0.333295  0.666661  0.650444  1
