# generated using pymatgen
data_Sc3FeSn3IrPt
_symmetry_space_group_name_H-M   'P 1'
_cell_length_a   7.60248600
_cell_length_b   7.60248599
_cell_length_c   3.35358400
_cell_angle_alpha   90.00000000
_cell_angle_beta   90.00000000
_cell_angle_gamma   120.00000003
_symmetry_Int_Tables_number   1
_chemical_formula_structural   Sc3FeSn3IrPt
_chemical_formula_sum   'Sc3 Fe1 Sn3 Ir1 Pt1'
_cell_volume   167.86149174
_cell_formula_units_Z   1
loop_
 _symmetry_equiv_pos_site_id
 _symmetry_equiv_pos_as_xyz
  1  'x, y, z'
loop_
 _atom_site_type_symbol
 _atom_site_label
 _atom_site_symmetry_multiplicity
 _atom_site_fract_x
 _atom_site_fract_y
 _atom_site_fract_z
 _atom_site_occupancy
  Sc  Sc0  1  0.612187  0.010268  0.000000  1
  Sc  Sc1  1  0.989732  0.601919  0.000000  1
  Sc  Sc2  1  0.398081  0.387813  0.000000  1
  Fe  Fe3  1  0.000000  0.000000  0.000000  1
  Sn  Sn4  1  0.266107  0.998089  0.500000  1
  Sn  Sn5  1  0.001911  0.268018  0.500000  1
  Sn  Sn6  1  0.731982  0.733893  0.500000  1
  Ir  Ir7  1  0.666667  0.333333  0.500000  1
  Pt  Pt8  1  0.333333  0.666667  0.500000  1
