# generated using pymatgen
data_Tm3LuGa18(PtRh2)2
_symmetry_space_group_name_H-M   'P 1'
_cell_length_a   7.59826002
_cell_length_b   7.59799158
_cell_length_c   9.45612000
_cell_angle_alpha   90.00000000
_cell_angle_beta   90.00000000
_cell_angle_gamma   119.88873372
_symmetry_Int_Tables_number   1
_chemical_formula_structural   Tm3LuGa18(PtRh2)2
_chemical_formula_sum   'Tm3 Lu1 Ga18 Pt2 Rh4'
_cell_volume   473.30642795
_cell_formula_units_Z   1
loop_
 _symmetry_equiv_pos_site_id
 _symmetry_equiv_pos_as_xyz
  1  'x, y, z'
loop_
 _atom_site_type_symbol
 _atom_site_label
 _atom_site_symmetry_multiplicity
 _atom_site_fract_x
 _atom_site_fract_y
 _atom_site_fract_z
 _atom_site_occupancy
  Tm  Tm0  1  0.996731  0.673443  0.250000  1
  Tm  Tm1  1  0.003274  0.326534  0.750000  1
  Tm  Tm2  1  0.673424  0.996719  0.250000  1
  Lu  Lu3  1  0.326552  0.003273  0.750000  1
  Ga  Ga4  1  0.336134  0.550324  0.250000  1
  Ga  Ga5  1  0.663749  0.449539  0.750000  1
  Ga  Ga6  1  0.550324  0.336136  0.250000  1
  Ga  Ga7  1  0.449639  0.663909  0.750000  1
  Ga  Ga8  1  0.997776  0.339212  0.082334  1
  Ga  Ga9  1  0.002390  0.660963  0.917590  1
  Ga  Ga10  1  0.002390  0.660963  0.582410  1
  Ga  Ga11  1  0.339203  0.997774  0.417765  1
  Ga  Ga12  1  0.997776  0.339212  0.417666  1
  Ga  Ga13  1  0.660628  0.002223  0.582414  1
  Ga  Ga14  1  0.660628  0.002223  0.917586  1
  Ga  Ga15  1  0.339203  0.997774  0.082235  1
  Ga  Ga16  1  0.336214  0.336060  0.570370  1
  Ga  Ga17  1  0.663779  0.663782  0.429720  1
  Ga  Ga18  1  0.663779  0.663782  0.070280  1
  Ga  Ga19  1  0.336214  0.336060  0.929630  1
  Ga  Ga20  1  0.136081  0.136072  0.250000  1
  Ga  Ga21  1  0.864041  0.863975  0.750000  1
  Pt  Pt22  1  0.000057  0.000018  0.999943  1
  Pt  Pt23  1  0.000057  0.000018  0.500057  1
  Rh  Rh24  1  0.671188  0.328759  0.999938  1
  Rh  Rh25  1  0.328791  0.671246  0.999946  1
  Rh  Rh26  1  0.328791  0.671246  0.500054  1
  Rh  Rh27  1  0.671188  0.328759  0.500062  1
