# generated using pymatgen
data_Dy2Zr2Ni6As5P
_symmetry_space_group_name_H-M   'P 1'
_cell_length_a   3.84307500
_cell_length_b   10.52464462
_cell_length_c   12.63426206
_cell_angle_alpha   90.06455597
_cell_angle_beta   90.00000000
_cell_angle_gamma   90.00000000
_symmetry_Int_Tables_number   1
_chemical_formula_structural   Dy2Zr2Ni6As5P
_chemical_formula_sum   'Dy4 Zr4 Ni12 As10 P2'
_cell_volume   511.01765602
_cell_formula_units_Z   2
loop_
 _symmetry_equiv_pos_site_id
 _symmetry_equiv_pos_as_xyz
  1  'x, y, z'
loop_
 _atom_site_type_symbol
 _atom_site_label
 _atom_site_symmetry_multiplicity
 _atom_site_fract_x
 _atom_site_fract_y
 _atom_site_fract_z
 _atom_site_occupancy
  Dy  Dy0  1  0.250000  0.075554  0.204184  1
  Dy  Dy1  1  0.750000  0.924446  0.795816  1
  Dy  Dy2  1  0.750000  0.570757  0.291609  1
  Dy  Dy3  1  0.250000  0.429243  0.708391  1
  Zr  Zr4  1  0.250000  0.162728  0.496159  1
  Zr  Zr5  1  0.750000  0.837272  0.503841  1
  Zr  Zr6  1  0.750000  0.663891  0.999794  1
  Zr  Zr7  1  0.250000  0.336109  0.000206  1
  Ni  Ni8  1  0.250000  0.727665  0.671168  1
  Ni  Ni9  1  0.750000  0.272335  0.328832  1
  Ni  Ni10  1  0.750000  0.224615  0.837417  1
  Ni  Ni11  1  0.250000  0.775385  0.162583  1
  Ni  Ni12  1  0.250000  0.359440  0.215036  1
  Ni  Ni13  1  0.750000  0.640560  0.784964  1
  Ni  Ni14  1  0.750000  0.863989  0.278515  1
  Ni  Ni15  1  0.250000  0.136011  0.721485  1
  Ni  Ni16  1  0.250000  0.601762  0.483332  1
  Ni  Ni17  1  0.750000  0.398238  0.516668  1
  Ni  Ni18  1  0.750000  0.112442  0.024470  1
  Ni  Ni19  1  0.250000  0.887558  0.975530  1
  As  As20  1  0.250000  0.946186  0.623990  1
  As  As21  1  0.750000  0.053814  0.376010  1
  As  As22  1  0.750000  0.444181  0.878775  1
  As  As23  1  0.250000  0.555819  0.121225  1
  As  As24  1  0.250000  0.396448  0.401262  1
  As  As25  1  0.750000  0.603552  0.598738  1
  As  As26  1  0.750000  0.899390  0.093539  1
  As  As27  1  0.250000  0.100610  0.906461  1
  As  As28  1  0.250000  0.770355  0.354839  1
  As  As29  1  0.750000  0.229645  0.645161  1
  P  P30  1  0.750000  0.272319  0.146986  1
  P  P31  1  0.250000  0.727681  0.853014  1
