# generated using pymatgen
data_Nd2SmIn2Pt3Pb
_symmetry_space_group_name_H-M   'P 1'
_cell_length_a   7.78176732
_cell_length_b   7.84812132
_cell_length_c   4.03112100
_cell_angle_alpha   90.00000000
_cell_angle_beta   90.00000000
_cell_angle_gamma   120.28246249
_symmetry_Int_Tables_number   1
_chemical_formula_structural   Nd2SmIn2Pt3Pb
_chemical_formula_sum   'Nd2 Sm1 In2 Pt3 Pb1'
_cell_volume   212.59705381
_cell_formula_units_Z   1
loop_
 _symmetry_equiv_pos_site_id
 _symmetry_equiv_pos_as_xyz
  1  'x, y, z'
loop_
 _atom_site_type_symbol
 _atom_site_label
 _atom_site_symmetry_multiplicity
 _atom_site_fract_x
 _atom_site_fract_y
 _atom_site_fract_z
 _atom_site_occupancy
  Nd  Nd0  1  0.589182  0.997160  0.500000  1
  Nd  Nd1  1  0.410818  0.407979  0.500000  1
  Sm  Sm2  1  0.000000  0.595614  0.500000  1
  In  In3  1  0.255514  0.998227  0.000000  1
  In  In4  1  0.744486  0.742713  0.000000  1
  Pt  Pt5  1  0.000000  0.986601  0.500000  1
  Pt  Pt6  1  0.662808  0.338875  0.000000  1
  Pt  Pt7  1  0.337192  0.676068  0.000000  1
  Pb  Pb8  1  0.000000  0.256764  0.000000  1
