# generated using pymatgen
data_Cs2BeTe2
_symmetry_space_group_name_H-M   'P 1'
_cell_length_a   9.22726946
_cell_length_b   9.22726928
_cell_length_c   9.22726958
_cell_angle_alpha   136.15397043
_cell_angle_beta   129.85430072
_cell_angle_gamma   68.77437509
_symmetry_Int_Tables_number   1
_chemical_formula_structural   Cs2BeTe2
_chemical_formula_sum   'Cs4 Be2 Te4'
_cell_volume   410.31609852
_cell_formula_units_Z   2
loop_
 _symmetry_equiv_pos_site_id
 _symmetry_equiv_pos_as_xyz
  1  'x, y, z'
loop_
 _atom_site_type_symbol
 _atom_site_label
 _atom_site_symmetry_multiplicity
 _atom_site_fract_x
 _atom_site_fract_y
 _atom_site_fract_z
 _atom_site_occupancy
  Cs  Cs0  1  0.971496  0.645146  0.326350  1
  Cs  Cs1  1  0.681204  0.854854  0.826350  1
  Cs  Cs2  1  0.318796  0.145146  0.173650  1
  Cs  Cs3  1  0.028504  0.354854  0.673650  1
  Be  Be4  1  0.500000  0.250000  0.750000  1
  Be  Be5  1  0.500000  0.750000  0.250000  1
  Te  Te6  1  0.572520  0.409919  0.162602  1
  Te  Te7  1  0.247316  0.909919  0.337398  1
  Te  Te8  1  0.752684  0.090081  0.662602  1
  Te  Te9  1  0.427480  0.590081  0.837398  1
