# generated using pymatgen
data_CaHf7(Si4Ru3)4
_symmetry_space_group_name_H-M   'P 1'
_cell_length_a   9.91621982
_cell_length_b   9.93206219
_cell_length_c   13.37548275
_cell_angle_alpha   53.94774771
_cell_angle_beta   53.81179353
_cell_angle_gamma   31.31751055
_symmetry_Int_Tables_number   1
_chemical_formula_structural   CaHf7(Si4Ru3)4
_chemical_formula_sum   'Ca1 Hf7 Si16 Ru12'
_cell_volume   541.40567781
_cell_formula_units_Z   1
loop_
 _symmetry_equiv_pos_site_id
 _symmetry_equiv_pos_as_xyz
  1  'x, y, z'
loop_
 _atom_site_type_symbol
 _atom_site_label
 _atom_site_symmetry_multiplicity
 _atom_site_fract_x
 _atom_site_fract_y
 _atom_site_fract_z
 _atom_site_occupancy
  Ca  Ca0  1  0.301331  0.559958  0.641765  1
  Hf  Hf1  1  0.444751  0.702542  0.853117  1
  Hf  Hf2  1  0.711205  0.439117  0.349507  1
  Hf  Hf3  1  0.553717  0.296889  0.150147  1
  Hf  Hf4  1  0.037335  0.295237  0.636610  1
  Hf  Hf5  1  0.705785  0.960487  0.864040  1
  Hf  Hf6  1  0.962715  0.705480  0.362593  1
  Hf  Hf7  1  0.294912  0.038605  0.135860  1
  Si  Si8  1  0.872045  0.126783  0.249187  1
  Si  Si9  1  0.123316  0.877839  0.750545  1
  Si  Si10  1  0.380659  0.614661  0.251250  1
  Si  Si11  1  0.623221  0.379804  0.751504  1
  Si  Si12  1  0.969931  0.255719  0.894916  1
  Si  Si13  1  0.744997  0.024936  0.607794  1
  Si  Si14  1  0.027628  0.745079  0.107636  1
  Si  Si15  1  0.250485  0.977219  0.390814  1
  Si  Si16  1  0.574596  0.082439  0.066270  1
  Si  Si17  1  0.911458  0.430601  0.436005  1
  Si  Si18  1  0.424661  0.919521  0.933585  1
  Si  Si19  1  0.085923  0.570435  0.565170  1
  Si  Si20  1  0.387627  0.142678  0.396662  1
  Si  Si21  1  0.857797  0.612321  0.103382  1
  Si  Si22  1  0.614215  0.855118  0.603401  1
  Si  Si23  1  0.143777  0.387654  0.895653  1
  Ru  Ru24  1  0.647749  0.827235  0.281471  1
  Ru  Ru25  1  0.171728  0.351832  0.218891  1
  Ru  Ru26  1  0.756767  0.485645  0.070537  1
  Ru  Ru27  1  0.827272  0.647170  0.783077  1
  Ru  Ru28  1  0.900593  0.144419  0.583611  1
  Ru  Ru29  1  0.863415  0.093658  0.917916  1
  Ru  Ru30  1  0.094948  0.865571  0.410101  1
  Ru  Ru31  1  0.139547  0.903842  0.083163  1
  Ru  Ru32  1  0.243147  0.514186  0.932160  1
  Ru  Ru33  1  0.481341  0.766584  0.568511  1
  Ru  Ru34  1  0.521162  0.233070  0.433287  1
  Ru  Ru35  1  0.348243  0.165667  0.719863  1
