# generated using pymatgen
data_TaNb4GaSi2
_symmetry_space_group_name_H-M   'P 1'
_cell_length_a   7.61462931
_cell_length_b   7.61462918
_cell_length_c   7.61462789
_cell_angle_alpha   128.11255343
_cell_angle_beta   128.11255032
_cell_angle_gamma   76.44276448
_symmetry_Int_Tables_number   1
_chemical_formula_structural   TaNb4GaSi2
_chemical_formula_sum   'Ta2 Nb8 Ga2 Si4'
_cell_volume   265.55510017
_cell_formula_units_Z   2
loop_
 _symmetry_equiv_pos_site_id
 _symmetry_equiv_pos_as_xyz
  1  'x, y, z'
loop_
 _atom_site_type_symbol
 _atom_site_label
 _atom_site_symmetry_multiplicity
 _atom_site_fract_x
 _atom_site_fract_y
 _atom_site_fract_z
 _atom_site_occupancy
  Ta  Ta0  1  0.000000  0.000000  0.000000  1
  Ta  Ta1  1  0.500000  0.500000  0.000000  1
  Nb  Nb2  1  0.017270  0.186570  0.500000  1
  Nb  Nb3  1  0.686570  0.517270  0.500000  1
  Nb  Nb4  1  0.517270  0.017270  0.830702  1
  Nb  Nb5  1  0.186570  0.686570  0.169298  1
  Nb  Nb6  1  0.982730  0.813430  0.500000  1
  Nb  Nb7  1  0.313430  0.482730  0.500000  1
  Nb  Nb8  1  0.482730  0.982730  0.169298  1
  Nb  Nb9  1  0.813430  0.313430  0.830702  1
  Ga  Ga10  1  0.750000  0.750000  0.000000  1
  Ga  Ga11  1  0.250000  0.250000  0.000000  1
  Si  Si12  1  0.370411  0.129589  0.500000  1
  Si  Si13  1  0.629589  0.870411  0.500000  1
  Si  Si14  1  0.870411  0.370411  0.240821  1
  Si  Si15  1  0.129589  0.629589  0.759179  1
