# generated using pymatgen
data_Ho3Fe2P6Ir7
_symmetry_space_group_name_H-M   'P 1'
_cell_length_a   3.89806600
_cell_length_b   11.17162700
_cell_length_c   12.49297800
_cell_angle_alpha   90.00000000
_cell_angle_beta   90.00000000
_cell_angle_gamma   90.00000000
_symmetry_Int_Tables_number   1
_chemical_formula_structural   Ho3Fe2P6Ir7
_chemical_formula_sum   'Ho6 Fe4 P12 Ir14'
_cell_volume   544.04094994
_cell_formula_units_Z   2
loop_
 _symmetry_equiv_pos_site_id
 _symmetry_equiv_pos_as_xyz
  1  'x, y, z'
loop_
 _atom_site_type_symbol
 _atom_site_label
 _atom_site_symmetry_multiplicity
 _atom_site_fract_x
 _atom_site_fract_y
 _atom_site_fract_z
 _atom_site_occupancy
  Ho  Ho0  1  0.000000  0.500000  0.524074  1
  Ho  Ho1  1  0.500000  0.000000  0.476315  1
  Ho  Ho2  1  0.500000  0.826311  0.197351  1
  Ho  Ho3  1  0.500000  0.173689  0.197351  1
  Ho  Ho4  1  0.000000  0.680947  0.801308  1
  Ho  Ho5  1  0.000000  0.319053  0.801308  1
  Fe  Fe6  1  0.000000  0.500000  0.999950  1
  Fe  Fe7  1  0.500000  0.000000  0.004785  1
  Fe  Fe8  1  0.000000  0.162726  0.002765  1
  Fe  Fe9  1  0.000000  0.837274  0.002765  1
  P  P10  1  0.500000  0.314470  0.621143  1
  P  P11  1  0.500000  0.685530  0.621143  1
  P  P12  1  0.000000  0.184792  0.378013  1
  P  P13  1  0.000000  0.815208  0.378013  1
  P  P14  1  0.500000  0.500000  0.886829  1
  P  P15  1  0.000000  0.000000  0.104452  1
  P  P16  1  0.500000  0.845373  0.902794  1
  P  P17  1  0.500000  0.154627  0.902794  1
  P  P18  1  0.000000  0.666054  0.100322  1
  P  P19  1  0.000000  0.333946  0.100322  1
  P  P20  1  0.500000  0.500000  0.354184  1
  P  P21  1  0.000000  0.000000  0.647975  1
  Ir  Ir22  1  0.500000  0.296489  0.428605  1
  Ir  Ir23  1  0.500000  0.703511  0.428605  1
  Ir  Ir24  1  0.000000  0.201389  0.570744  1
  Ir  Ir25  1  0.000000  0.798611  0.570744  1
  Ir  Ir26  1  0.500000  0.870889  0.718496  1
  Ir  Ir27  1  0.500000  0.129111  0.718496  1
  Ir  Ir28  1  0.000000  0.630198  0.281980  1
  Ir  Ir29  1  0.000000  0.369802  0.281980  1
  Ir  Ir30  1  0.500000  0.334072  0.995560  1
  Ir  Ir31  1  0.500000  0.665928  0.995560  1
  Ir  Ir32  1  0.500000  0.500000  0.167956  1
  Ir  Ir33  1  0.000000  0.000000  0.837304  1
  Ir  Ir34  1  0.500000  0.500000  0.703124  1
  Ir  Ir35  1  0.000000  0.000000  0.294888  1
