# generated using pymatgen
data_ZnFe2Sb12Os
_symmetry_space_group_name_H-M   'P 1'
_cell_length_a   8.07423092
_cell_length_b   8.05145541
_cell_length_c   9.34213879
_cell_angle_alpha   54.93248897
_cell_angle_beta   54.87761143
_cell_angle_gamma   70.53612328
_symmetry_Int_Tables_number   1
_chemical_formula_structural   ZnFe2Sb12Os
_chemical_formula_sum   'Zn1 Fe2 Sb12 Os1'
_cell_volume   406.57217741
_cell_formula_units_Z   1
loop_
 _symmetry_equiv_pos_site_id
 _symmetry_equiv_pos_as_xyz
  1  'x, y, z'
loop_
 _atom_site_type_symbol
 _atom_site_label
 _atom_site_symmetry_multiplicity
 _atom_site_fract_x
 _atom_site_fract_y
 _atom_site_fract_z
 _atom_site_occupancy
  Zn  Zn0  1  0.500000  0.000000  0.000000  1
  Fe  Fe1  1  0.500000  0.000000  0.500000  1
  Fe  Fe2  1  0.000000  0.500000  0.500000  1
  Sb  Sb3  1  0.674426  0.672389  0.487819  1
  Sb  Sb4  1  0.325574  0.327611  0.512181  1
  Sb  Sb5  1  0.657084  0.642621  0.198757  1
  Sb  Sb6  1  0.342916  0.357379  0.801243  1
  Sb  Sb7  1  0.164809  0.847895  0.663132  1
  Sb  Sb8  1  0.835191  0.152105  0.336868  1
  Sb  Sb9  1  0.860537  0.170495  0.638764  1
  Sb  Sb10  1  0.139463  0.829505  0.361236  1
  Sb  Sb11  1  0.827587  0.487787  0.836859  1
  Sb  Sb12  1  0.172413  0.512213  0.163141  1
  Sb  Sb13  1  0.500493  0.190595  0.170557  1
  Sb  Sb14  1  0.499507  0.809405  0.829443  1
  Os  Os15  1  0.000000  0.500000  0.000000  1
