# generated using pymatgen
data_Tb7Sm(Si3Pd)4
_symmetry_space_group_name_H-M   'P 1'
_cell_length_a   8.18826800
_cell_length_b   8.18826791
_cell_length_c   8.16971200
_cell_angle_alpha   90.00000000
_cell_angle_beta   90.00000000
_cell_angle_gamma   120.00000035
_symmetry_Int_Tables_number   1
_chemical_formula_structural   Tb7Sm(Si3Pd)4
_chemical_formula_sum   'Tb7 Sm1 Si12 Pd4'
_cell_volume   474.37464654
_cell_formula_units_Z   1
loop_
 _symmetry_equiv_pos_site_id
 _symmetry_equiv_pos_as_xyz
  1  'x, y, z'
loop_
 _atom_site_type_symbol
 _atom_site_label
 _atom_site_symmetry_multiplicity
 _atom_site_fract_x
 _atom_site_fract_y
 _atom_site_fract_z
 _atom_site_occupancy
  Tb  Tb0  1  0.499582  0.500418  0.750000  1
  Tb  Tb1  1  0.500408  0.499592  0.250000  1
  Tb  Tb2  1  0.000836  0.500418  0.750000  1
  Tb  Tb3  1  0.999183  0.499592  0.250000  1
  Tb  Tb4  1  0.499582  0.999164  0.750000  1
  Tb  Tb5  1  0.500408  0.000817  0.250000  1
  Tb  Tb6  1  0.000000  0.000000  0.750000  1
  Sm  Sm7  1  0.000000  0.000000  0.250000  1
  Si  Si8  1  0.834316  0.165684  0.997286  1
  Si  Si9  1  0.165690  0.834310  0.998450  1
  Si  Si10  1  0.331368  0.165684  0.997286  1
  Si  Si11  1  0.165690  0.834310  0.501550  1
  Si  Si12  1  0.668620  0.834310  0.998450  1
  Si  Si13  1  0.834316  0.165684  0.502714  1
  Si  Si14  1  0.834316  0.668632  0.997286  1
  Si  Si15  1  0.668620  0.834310  0.501550  1
  Si  Si16  1  0.165690  0.331380  0.998450  1
  Si  Si17  1  0.331368  0.165684  0.502714  1
  Si  Si18  1  0.165690  0.331380  0.501550  1
  Si  Si19  1  0.834316  0.668632  0.502714  1
  Pd  Pd20  1  0.666667  0.333333  0.999870  1
  Pd  Pd21  1  0.333333  0.666667  0.001439  1
  Pd  Pd22  1  0.333333  0.666667  0.498561  1
  Pd  Pd23  1  0.666667  0.333333  0.500130  1
