# generated using pymatgen
data_RbCe(PPt)2
_symmetry_space_group_name_H-M   'P 1'
_cell_length_a   4.12204100
_cell_length_b   4.12204019
_cell_length_c   9.42543400
_cell_angle_alpha   90.00000000
_cell_angle_beta   90.00000000
_cell_angle_gamma   120.00001451
_symmetry_Int_Tables_number   1
_chemical_formula_structural   RbCe(PPt)2
_chemical_formula_sum   'Rb1 Ce1 P2 Pt2'
_cell_volume   138.69361057
_cell_formula_units_Z   1
loop_
 _symmetry_equiv_pos_site_id
 _symmetry_equiv_pos_as_xyz
  1  'x, y, z'
loop_
 _atom_site_type_symbol
 _atom_site_label
 _atom_site_symmetry_multiplicity
 _atom_site_fract_x
 _atom_site_fract_y
 _atom_site_fract_z
 _atom_site_occupancy
  Rb  Rb0  1  0.000000  0.000000  0.500000  1
  Ce  Ce1  1  0.000000  0.000000  0.000000  1
  P  P2  1  0.333333  0.666667  0.801259  1
  P  P3  1  0.666667  0.333333  0.198741  1
  Pt  Pt4  1  0.333333  0.666667  0.215526  1
  Pt  Pt5  1  0.666667  0.333333  0.784474  1
