# generated using pymatgen
data_Zr10ZnSn(BiSb)2
_symmetry_space_group_name_H-M   'P 1'
_cell_length_a   5.66379398
_cell_length_b   8.44188475
_cell_length_c   8.48446267
_cell_angle_alpha   96.42873699
_cell_angle_beta   109.49803189
_cell_angle_gamma   70.39960657
_symmetry_Int_Tables_number   1
_chemical_formula_structural   Zr10ZnSn(BiSb)2
_chemical_formula_sum   'Zr10 Zn1 Sn1 Bi2 Sb2'
_cell_volume   360.24616935
_cell_formula_units_Z   1
loop_
 _symmetry_equiv_pos_site_id
 _symmetry_equiv_pos_as_xyz
  1  'x, y, z'
loop_
 _atom_site_type_symbol
 _atom_site_label
 _atom_site_symmetry_multiplicity
 _atom_site_fract_x
 _atom_site_fract_y
 _atom_site_fract_z
 _atom_site_occupancy
  Zr  Zr0  1  0.428412  0.863274  0.704627  1
  Zr  Zr1  1  0.587059  0.136726  0.295373  1
  Zr  Zr2  1  0.921262  0.289785  0.147086  1
  Zr  Zr3  1  0.063962  0.710215  0.852914  1
  Zr  Zr4  1  0.725823  0.710215  0.147086  1
  Zr  Zr5  1  0.288952  0.289785  0.852914  1
  Zr  Zr6  1  0.776216  0.136726  0.704627  1
  Zr  Zr7  1  0.208314  0.863274  0.295373  1
  Zr  Zr8  1  0.247960  0.500000  0.500000  1
  Zr  Zr9  1  0.752040  0.500000  0.500000  1
  Zn  Zn10  1  0.750000  0.000000  0.000000  1
  Sn  Sn11  1  0.250000  0.000000  0.000000  1
  Bi  Bi12  1  0.334379  0.500000  0.168760  1
  Bi  Bi13  1  0.665621  0.500000  0.831240  1
  Sb  Sb14  1  0.837198  0.825603  0.500000  1
  Sb  Sb15  1  0.162802  0.174397  0.500000  1
