# generated using pymatgen
data_LuMg3P7N12
_symmetry_space_group_name_H-M   'P 1'
_cell_length_a   7.30858183
_cell_length_b   7.30858152
_cell_length_c   7.30858156
_cell_angle_alpha   109.51913756
_cell_angle_beta   109.51913904
_cell_angle_gamma   109.51913209
_symmetry_Int_Tables_number   1
_chemical_formula_structural   LuMg3P7N12
_chemical_formula_sum   'Lu1 Mg3 P7 N12'
_cell_volume   299.98847285
_cell_formula_units_Z   1
loop_
 _symmetry_equiv_pos_site_id
 _symmetry_equiv_pos_as_xyz
  1  'x, y, z'
loop_
 _atom_site_type_symbol
 _atom_site_label
 _atom_site_symmetry_multiplicity
 _atom_site_fract_x
 _atom_site_fract_y
 _atom_site_fract_z
 _atom_site_occupancy
  Lu  Lu0  1  0.337102  0.337102  0.337102  1
  Mg  Mg1  1  0.001367  0.657156  0.001367  1
  Mg  Mg2  1  0.657156  0.001367  0.001367  1
  Mg  Mg3  1  0.001367  0.001367  0.657156  1
  P  P4  1  0.502776  0.250471  0.754539  1
  P  P5  1  0.502776  0.754539  0.250471  1
  P  P6  1  0.754539  0.250471  0.502776  1
  P  P7  1  0.250471  0.502776  0.754539  1
  P  P8  1  0.754539  0.502776  0.250471  1
  P  P9  1  0.250471  0.754539  0.502776  1
  P  P10  1  0.981815  0.981815  0.981815  1
  N  N11  1  0.001463  0.725352  0.433680  1
  N  N12  1  0.279252  0.704115  0.279252  1
  N  N13  1  0.282692  0.569659  0.569659  1
  N  N14  1  0.569659  0.569659  0.282692  1
  N  N15  1  0.569659  0.282692  0.569659  1
  N  N16  1  0.725352  0.001463  0.433680  1
  N  N17  1  0.433680  0.001463  0.725352  1
  N  N18  1  0.725352  0.433680  0.001463  1
  N  N19  1  0.279252  0.279252  0.704115  1
  N  N20  1  0.704115  0.279252  0.279252  1
  N  N21  1  0.001463  0.433680  0.725352  1
  N  N22  1  0.433680  0.725352  0.001463  1
