# generated using pymatgen
data_Nd8In3Ir
_symmetry_space_group_name_H-M   'P 1'
_cell_length_a   10.82226900
_cell_length_b   10.82226885
_cell_length_c   7.26153300
_cell_angle_alpha   90.00000000
_cell_angle_beta   90.00000000
_cell_angle_gamma   119.99999739
_symmetry_Int_Tables_number   1
_chemical_formula_structural   Nd8In3Ir
_chemical_formula_sum   'Nd16 In6 Ir2'
_cell_volume   736.53875237
_cell_formula_units_Z   2
loop_
 _symmetry_equiv_pos_site_id
 _symmetry_equiv_pos_as_xyz
  1  'x, y, z'
loop_
 _atom_site_type_symbol
 _atom_site_label
 _atom_site_symmetry_multiplicity
 _atom_site_fract_x
 _atom_site_fract_y
 _atom_site_fract_z
 _atom_site_occupancy
  Nd  Nd0  1  0.534704  0.069408  0.503748  1
  Nd  Nd1  1  0.930592  0.465296  0.503748  1
  Nd  Nd2  1  0.534704  0.465296  0.503748  1
  Nd  Nd3  1  0.465296  0.930592  0.003748  1
  Nd  Nd4  1  0.069408  0.534704  0.003748  1
  Nd  Nd5  1  0.465296  0.534704  0.003748  1
  Nd  Nd6  1  0.175339  0.350677  0.714562  1
  Nd  Nd7  1  0.649323  0.824661  0.714562  1
  Nd  Nd8  1  0.175339  0.824661  0.714562  1
  Nd  Nd9  1  0.824661  0.649323  0.214562  1
  Nd  Nd10  1  0.350677  0.175339  0.214562  1
  Nd  Nd11  1  0.824661  0.175339  0.214562  1
  Nd  Nd12  1  0.666667  0.333333  0.885816  1
  Nd  Nd13  1  0.333333  0.666667  0.385816  1
  Nd  Nd14  1  0.000000  0.000000  0.496490  1
  Nd  Nd15  1  0.000000  0.000000  0.996490  1
  In  In16  1  0.837031  0.674062  0.753678  1
  In  In17  1  0.325938  0.162969  0.753678  1
  In  In18  1  0.837031  0.162969  0.753678  1
  In  In19  1  0.162969  0.325938  0.253678  1
  In  In20  1  0.674062  0.837031  0.253678  1
  In  In21  1  0.162969  0.837031  0.253678  1
  Ir  Ir22  1  0.666667  0.333333  0.280752  1
  Ir  Ir23  1  0.333333  0.666667  0.780752  1
