# generated using pymatgen
data_Tb4ErOs2
_symmetry_space_group_name_H-M   'P 1'
_cell_length_a   6.39089228
_cell_length_b   7.34625957
_cell_length_c   8.46407191
_cell_angle_alpha   96.78186290
_cell_angle_beta   112.18080349
_cell_angle_gamma   90.00000017
_symmetry_Int_Tables_number   1
_chemical_formula_structural   Tb4ErOs2
_chemical_formula_sum   'Tb8 Er2 Os4'
_cell_volume   364.96920643
_cell_formula_units_Z   2
loop_
 _symmetry_equiv_pos_site_id
 _symmetry_equiv_pos_as_xyz
  1  'x, y, z'
loop_
 _atom_site_type_symbol
 _atom_site_label
 _atom_site_symmetry_multiplicity
 _atom_site_fract_x
 _atom_site_fract_y
 _atom_site_fract_z
 _atom_site_occupancy
  Tb  Tb0  1  0.792237  0.583679  0.816718  1
  Tb  Tb1  1  0.975519  0.916321  0.183282  1
  Tb  Tb2  1  0.207763  0.416321  0.183282  1
  Tb  Tb3  1  0.024481  0.083679  0.816718  1
  Tb  Tb4  1  0.204792  0.683882  0.566038  1
  Tb  Tb5  1  0.638754  0.816118  0.433962  1
  Tb  Tb6  1  0.795208  0.316118  0.433962  1
  Tb  Tb7  1  0.361246  0.183882  0.566038  1
  Er  Er8  1  0.422223  0.750000  0.000000  1
  Er  Er9  1  0.577777  0.250000  0.000000  1
  Os  Os10  1  0.602740  0.923506  0.783098  1
  Os  Os11  1  0.819642  0.576494  0.216902  1
  Os  Os12  1  0.397260  0.076494  0.216902  1
  Os  Os13  1  0.180358  0.423506  0.783098  1
