# generated using pymatgen
data_BaMgAs4F24
_symmetry_space_group_name_H-M   'P 1'
_cell_length_a   10.04426219
_cell_length_b   10.04426123
_cell_length_c   10.04426034
_cell_angle_alpha   134.29212891
_cell_angle_beta   134.29212499
_cell_angle_gamma   66.63208721
_symmetry_Int_Tables_number   1
_chemical_formula_structural   BaMgAs4F24
_chemical_formula_sum   'Ba1 Mg1 As4 F24'
_cell_volume   510.92977630
_cell_formula_units_Z   1
loop_
 _symmetry_equiv_pos_site_id
 _symmetry_equiv_pos_as_xyz
  1  'x, y, z'
loop_
 _atom_site_type_symbol
 _atom_site_label
 _atom_site_symmetry_multiplicity
 _atom_site_fract_x
 _atom_site_fract_y
 _atom_site_fract_z
 _atom_site_occupancy
  Ba  Ba0  1  0.750000  0.250000  0.500000  1
  Mg  Mg1  1  0.000000  0.000000  0.000000  1
  As  As2  1  0.800047  0.800047  0.000000  1
  As  As3  1  0.199953  0.199953  0.000000  1
  As  As4  1  0.983487  0.483487  0.500000  1
  As  As5  1  0.516513  0.016513  0.500000  1
  F  F6  1  0.872168  0.809320  0.222550  1
  F  F7  1  0.586769  0.649618  0.777450  1
  F  F8  1  0.424622  0.785623  0.318709  1
  F  F9  1  0.350382  0.127832  0.937152  1
  F  F10  1  0.190680  0.413231  0.062848  1
  F  F11  1  0.214377  0.533084  0.638997  1
  F  F12  1  0.615874  0.248392  0.675204  1
  F  F13  1  0.751608  0.426812  0.367481  1
  F  F14  1  0.059332  0.384126  0.632519  1
  F  F15  1  0.053850  0.257747  0.071074  1
  F  F16  1  0.186672  0.982775  0.928926  1
  F  F17  1  0.573188  0.940668  0.324796  1
  F  F18  1  0.742253  0.813328  0.796103  1
  F  F19  1  0.017225  0.946150  0.203897  1
  F  F20  1  0.287154  0.052223  0.299334  1
  F  F21  1  0.947777  0.247111  0.234932  1
  F  F22  1  0.012178  0.712846  0.765068  1
  F  F23  1  0.400096  0.305350  0.309152  1
  F  F24  1  0.996198  0.090944  0.690848  1
  F  F25  1  0.752889  0.987822  0.700666  1
  F  F26  1  0.694650  0.003802  0.094746  1
  F  F27  1  0.909056  0.599904  0.905254  1
  F  F28  1  0.466916  0.105912  0.681291  1
  F  F29  1  0.894088  0.575378  0.361003  1
