# generated using pymatgen
data_Dy14Ho6Bi11Sb
_symmetry_space_group_name_H-M   'P 1'
_cell_length_a   8.23724741
_cell_length_b   9.50873400
_cell_length_c   12.03379600
_cell_angle_alpha   89.99891492
_cell_angle_beta   90.03386851
_cell_angle_gamma   89.99980653
_symmetry_Int_Tables_number   1
_chemical_formula_structural   Dy14Ho6Bi11Sb
_chemical_formula_sum   'Dy14 Ho6 Bi11 Sb1'
_cell_volume   942.55646826
_cell_formula_units_Z   1
loop_
 _symmetry_equiv_pos_site_id
 _symmetry_equiv_pos_as_xyz
  1  'x, y, z'
loop_
 _atom_site_type_symbol
 _atom_site_label
 _atom_site_symmetry_multiplicity
 _atom_site_fract_x
 _atom_site_fract_y
 _atom_site_fract_z
 _atom_site_occupancy
  Dy  Dy0  1  0.353163  0.750006  0.212778  1
  Dy  Dy1  1  0.852490  0.749988  0.284196  1
  Dy  Dy2  1  0.647724  0.249998  0.784324  1
  Dy  Dy3  1  0.147616  0.250007  0.715865  1
  Dy  Dy4  1  0.690074  0.934091  0.057346  1
  Dy  Dy5  1  0.192643  0.563924  0.441343  1
  Dy  Dy6  1  0.475180  0.249970  0.487966  1
  Dy  Dy7  1  0.975746  0.250031  0.011728  1
  Dy  Dy8  1  0.525167  0.750036  0.512154  1
  Dy  Dy9  1  0.028218  0.749958  0.987797  1
  Dy  Dy10  1  0.312963  0.250001  0.218811  1
  Dy  Dy11  1  0.812702  0.250003  0.281253  1
  Dy  Dy12  1  0.683122  0.749962  0.783677  1
  Dy  Dy13  1  0.188634  0.750038  0.720374  1
  Ho  Ho14  1  0.689991  0.566008  0.057343  1
  Ho  Ho15  1  0.192608  0.935988  0.441309  1
  Ho  Ho16  1  0.308613  0.060317  0.941548  1
  Ho  Ho17  1  0.807399  0.436216  0.558540  1
  Ho  Ho18  1  0.308589  0.439708  0.941536  1
  Ho  Ho19  1  0.807379  0.063762  0.558559  1
  Bi  Bi20  1  0.907756  0.750098  0.543416  1
  Bi  Bi21  1  0.592769  0.250260  0.042941  1
  Bi  Bi22  1  0.092525  0.249736  0.457191  1
  Bi  Bi23  1  0.565320  0.995361  0.325420  1
  Bi  Bi24  1  0.065285  0.504372  0.174352  1
  Bi  Bi25  1  0.434577  0.495387  0.674519  1
  Bi  Bi26  1  0.934362  0.004199  0.825505  1
  Bi  Bi27  1  0.434568  0.004621  0.674480  1
  Bi  Bi28  1  0.934357  0.495795  0.825541  1
  Bi  Bi29  1  0.565397  0.504634  0.325374  1
  Bi  Bi30  1  0.065358  0.995635  0.174396  1
  Sb  Sb31  1  0.407707  0.749891  0.958418  1
