# generated using pymatgen
data_Dy3Ho3Pa2(ReB6)4
_symmetry_space_group_name_H-M   'P 1'
_cell_length_a   3.69981300
_cell_length_b   9.16553697
_cell_length_c   11.53287201
_cell_angle_alpha   90.34899737
_cell_angle_beta   90.00000000
_cell_angle_gamma   90.00000000
_symmetry_Int_Tables_number   1
_chemical_formula_structural   Dy3Ho3Pa2(ReB6)4
_chemical_formula_sum   'Dy3 Ho3 Pa2 Re4 B24'
_cell_volume   391.08134766
_cell_formula_units_Z   1
loop_
 _symmetry_equiv_pos_site_id
 _symmetry_equiv_pos_as_xyz
  1  'x, y, z'
loop_
 _atom_site_type_symbol
 _atom_site_label
 _atom_site_symmetry_multiplicity
 _atom_site_fract_x
 _atom_site_fract_y
 _atom_site_fract_z
 _atom_site_occupancy
  Dy  Dy0  1  0.000000  0.823977  0.085549  1
  Dy  Dy1  1  0.000000  0.176020  0.914374  1
  Dy  Dy2  1  0.000000  0.944761  0.372624  1
  Ho  Ho3  1  0.000000  0.055281  0.627586  1
  Ho  Ho4  1  0.000000  0.443805  0.126513  1
  Ho  Ho5  1  0.000000  0.556196  0.873438  1
  Pa  Pa6  1  0.000000  0.321677  0.413197  1
  Pa  Pa7  1  0.000000  0.678373  0.586922  1
  Re  Re8  1  0.000000  0.634740  0.324782  1
  Re  Re9  1  0.000000  0.364961  0.675232  1
  Re  Re10  1  0.000000  0.140771  0.181624  1
  Re  Re11  1  0.000000  0.859405  0.818229  1
  B  B12  1  0.500000  0.553484  0.432946  1
  B  B13  1  0.500000  0.446439  0.567093  1
  B  B14  1  0.500000  0.053544  0.067346  1
  B  B15  1  0.500000  0.946493  0.932579  1
  B  B16  1  0.500000  0.748002  0.419545  1
  B  B17  1  0.500000  0.251756  0.580509  1
  B  B18  1  0.500000  0.248008  0.080335  1
  B  B19  1  0.500000  0.752027  0.919639  1
  B  B20  1  0.500000  0.791165  0.265528  1
  B  B21  1  0.500000  0.208587  0.734386  1
  B  B22  1  0.500000  0.292161  0.233818  1
  B  B23  1  0.500000  0.707937  0.766165  1
  B  B24  1  0.500000  0.631281  0.185474  1
  B  B25  1  0.500000  0.368652  0.814479  1
  B  B26  1  0.500000  0.132355  0.313981  1
  B  B27  1  0.500000  0.867863  0.685949  1
  B  B28  1  0.500000  0.982530  0.212046  1
  B  B29  1  0.500000  0.017610  0.787752  1
  B  B30  1  0.500000  0.482948  0.286658  1
  B  B31  1  0.500000  0.517012  0.713330  1
  B  B32  1  0.500000  0.604827  0.029348  1
  B  B33  1  0.500000  0.395170  0.970634  1
  B  B34  1  0.500000  0.110731  0.469610  1
  B  B35  1  0.500000  0.889452  0.530782  1
