# generated using pymatgen
data_K2Rb3BaNbP4
_symmetry_space_group_name_H-M   'P 1'
_cell_length_a   10.53673858
_cell_length_b   10.53673814
_cell_length_c   7.96343640
_cell_angle_alpha   89.21024587
_cell_angle_beta   89.21025012
_cell_angle_gamma   120.35288553
_symmetry_Int_Tables_number   1
_chemical_formula_structural   K2Rb3BaNbP4
_chemical_formula_sum   'K4 Rb6 Ba2 Nb2 P8'
_cell_volume   762.64313352
_cell_formula_units_Z   2
loop_
 _symmetry_equiv_pos_site_id
 _symmetry_equiv_pos_as_xyz
  1  'x, y, z'
loop_
 _atom_site_type_symbol
 _atom_site_label
 _atom_site_symmetry_multiplicity
 _atom_site_fract_x
 _atom_site_fract_y
 _atom_site_fract_z
 _atom_site_occupancy
  K  K0  1  0.465214  0.527440  0.502169  1
  K  K1  1  0.060788  0.528528  0.501902  1
  K  K2  1  0.527440  0.465214  0.002169  1
  K  K3  1  0.528528  0.060788  0.001902  1
  Rb  Rb4  1  0.865558  0.142283  0.679344  1
  Rb  Rb5  1  0.291263  0.153271  0.710524  1
  Rb  Rb6  1  0.854456  0.715881  0.664212  1
  Rb  Rb7  1  0.142283  0.865558  0.179344  1
  Rb  Rb8  1  0.715881  0.854456  0.164212  1
  Rb  Rb9  1  0.153271  0.291263  0.210524  1
  Ba  Ba10  1  0.463318  0.932472  0.493086  1
  Ba  Ba11  1  0.932472  0.463318  0.993086  1
  Nb  Nb12  1  0.668382  0.332778  0.392224  1
  Nb  Nb13  1  0.332778  0.668382  0.892224  1
  P  P14  1  0.680604  0.335244  0.696943  1
  P  P15  1  0.335244  0.680604  0.196943  1
  P  P16  1  0.790266  0.204123  0.286983  1
  P  P17  1  0.413110  0.199459  0.311444  1
  P  P18  1  0.794729  0.580830  0.275457  1
  P  P19  1  0.204123  0.790266  0.786983  1
  P  P20  1  0.580830  0.794729  0.775457  1
  P  P21  1  0.199459  0.413110  0.811444  1
