# generated using pymatgen
data_Zr4FeRe4Os3
_symmetry_space_group_name_H-M   'P 1'
_cell_length_a   5.16830432
_cell_length_b   5.22619827
_cell_length_c   8.73258600
_cell_angle_alpha   90.00000000
_cell_angle_beta   90.00000000
_cell_angle_gamma   60.25913661
_symmetry_Int_Tables_number   1
_chemical_formula_structural   Zr4FeRe4Os3
_chemical_formula_sum   'Zr4 Fe1 Re4 Os3'
_cell_volume   204.80266072
_cell_formula_units_Z   1
loop_
 _symmetry_equiv_pos_site_id
 _symmetry_equiv_pos_as_xyz
  1  'x, y, z'
loop_
 _atom_site_type_symbol
 _atom_site_label
 _atom_site_symmetry_multiplicity
 _atom_site_fract_x
 _atom_site_fract_y
 _atom_site_fract_z
 _atom_site_occupancy
  Zr  Zr0  1  0.332894  0.332786  0.566034  1
  Zr  Zr1  1  0.661479  0.668123  0.439241  1
  Zr  Zr2  1  0.661479  0.668123  0.060759  1
  Zr  Zr3  1  0.332894  0.332786  0.933966  1
  Fe  Fe4  1  0.341029  0.835988  0.750000  1
  Re  Re5  1  0.830146  0.832301  0.750000  1
  Re  Re6  1  0.170277  0.655933  0.250000  1
  Re  Re7  1  0.660061  0.169368  0.250000  1
  Re  Re8  1  0.168757  0.171685  0.250000  1
  Os  Os9  1  0.005468  0.990902  0.505343  1
  Os  Os10  1  0.005468  0.990902  0.994657  1
  Os  Os11  1  0.830048  0.351102  0.750000  1
