# generated using pymatgen
data_Cs2KRbZrPaTe6
_symmetry_space_group_name_H-M   'P 1'
_cell_length_a   15.12567200
_cell_length_b   7.20826628
_cell_length_c   10.04591500
_cell_angle_alpha   71.20646477
_cell_angle_beta   90.00000000
_cell_angle_gamma   90.00000000
_symmetry_Int_Tables_number   1
_chemical_formula_structural   Cs2KRbZrPaTe6
_chemical_formula_sum   'Cs4 K2 Rb2 Zr2 Pa2 Te12'
_cell_volume   1036.90931858
_cell_formula_units_Z   2
loop_
 _symmetry_equiv_pos_site_id
 _symmetry_equiv_pos_as_xyz
  1  'x, y, z'
loop_
 _atom_site_type_symbol
 _atom_site_label
 _atom_site_symmetry_multiplicity
 _atom_site_fract_x
 _atom_site_fract_y
 _atom_site_fract_z
 _atom_site_occupancy
  Cs  Cs0  1  0.952655  0.669659  0.663336  1
  Cs  Cs1  1  0.452655  0.830341  0.336664  1
  Cs  Cs2  1  0.047461  0.331223  0.337456  1
  Cs  Cs3  1  0.547461  0.168777  0.662544  1
  K  K4  1  0.866156  0.081449  0.906718  1
  K  K5  1  0.366156  0.418551  0.093282  1
  Rb  Rb6  1  0.132306  0.926441  0.098727  1
  Rb  Rb7  1  0.632306  0.573559  0.901273  1
  Zr  Zr8  1  0.250243  0.345956  0.707264  1
  Zr  Zr9  1  0.750243  0.154044  0.292736  1
  Pa  Pa10  1  0.749782  0.652399  0.291882  1
  Pa  Pa11  1  0.249782  0.847601  0.708118  1
  Te  Te12  1  0.909399  0.918854  0.270885  1
  Te  Te13  1  0.409399  0.581146  0.729115  1
  Te  Te14  1  0.089583  0.098547  0.727262  1
  Te  Te15  1  0.589583  0.401453  0.272738  1
  Te  Te16  1  0.815926  0.291351  0.522620  1
  Te  Te17  1  0.315926  0.208649  0.477380  1
  Te  Te18  1  0.184447  0.691807  0.479952  1
  Te  Te19  1  0.684447  0.808193  0.520048  1
  Te  Te20  1  0.841621  0.491541  0.080262  1
  Te  Te21  1  0.341621  0.008459  0.919738  1
  Te  Te22  1  0.160422  0.493192  0.921060  1
  Te  Te23  1  0.660422  0.006808  0.078940  1
