# generated using pymatgen
data_Sc2Pa(GaRh)3
_symmetry_space_group_name_H-M   'P 1'
_cell_length_a   7.15486449
_cell_length_b   7.21537489
_cell_length_c   3.62925800
_cell_angle_alpha   90.00000000
_cell_angle_beta   90.00000000
_cell_angle_gamma   120.28017101
_symmetry_Int_Tables_number   1
_chemical_formula_structural   Sc2Pa(GaRh)3
_chemical_formula_sum   'Sc2 Pa1 Ga3 Rh3'
_cell_volume   161.79897167
_cell_formula_units_Z   1
loop_
 _symmetry_equiv_pos_site_id
 _symmetry_equiv_pos_as_xyz
  1  'x, y, z'
loop_
 _atom_site_type_symbol
 _atom_site_label
 _atom_site_symmetry_multiplicity
 _atom_site_fract_x
 _atom_site_fract_y
 _atom_site_fract_z
 _atom_site_occupancy
  Sc  Sc0  1  0.398718  0.404441  0.500000  1
  Sc  Sc1  1  0.601282  0.005723  0.500000  1
  Pa  Pa2  1  0.000000  0.586498  0.500000  1
  Ga  Ga3  1  0.716759  0.739558  0.000000  1
  Ga  Ga4  1  0.283241  0.022800  0.000000  1
  Ga  Ga5  1  0.000000  0.236686  0.000000  1
  Rh  Rh6  1  0.689381  0.354934  0.000000  1
  Rh  Rh7  1  0.310619  0.665554  0.000000  1
  Rh  Rh8  1  0.000000  0.983805  0.500000  1
