# generated using pymatgen
data_La2Pr3AsPb3
_symmetry_space_group_name_H-M   'P 1'
_cell_length_a   9.67371876
_cell_length_b   9.66709638
_cell_length_c   7.19468700
_cell_angle_alpha   90.00000000
_cell_angle_beta   90.00000000
_cell_angle_gamma   119.97736942
_symmetry_Int_Tables_number   1
_chemical_formula_structural   La2Pr3AsPb3
_chemical_formula_sum   'La4 Pr6 As2 Pb6'
_cell_volume   582.81542011
_cell_formula_units_Z   2
loop_
 _symmetry_equiv_pos_site_id
 _symmetry_equiv_pos_as_xyz
  1  'x, y, z'
loop_
 _atom_site_type_symbol
 _atom_site_label
 _atom_site_symmetry_multiplicity
 _atom_site_fract_x
 _atom_site_fract_y
 _atom_site_fract_z
 _atom_site_occupancy
  La  La0  1  0.000000  0.244977  0.750000  1
  La  La1  1  0.245030  0.244755  0.250000  1
  La  La2  1  0.754970  0.999724  0.250000  1
  La  La3  1  0.000000  0.754888  0.250000  1
  Pr  Pr4  1  0.755288  0.755243  0.750000  1
  Pr  Pr5  1  0.244712  0.999955  0.750000  1
  Pr  Pr6  1  0.666443  0.333356  0.999617  1
  Pr  Pr7  1  0.333557  0.666915  0.999617  1
  Pr  Pr8  1  0.333557  0.666915  0.500383  1
  Pr  Pr9  1  0.666443  0.333356  0.500383  1
  As  As10  1  0.000000  0.999817  0.999401  1
  As  As11  1  0.000000  0.999817  0.500599  1
  Pb  Pb12  1  0.401036  0.400556  0.750000  1
  Pb  Pb13  1  0.598964  0.999520  0.750000  1
  Pb  Pb14  1  0.000000  0.600179  0.750000  1
  Pb  Pb15  1  0.599281  0.599259  0.250000  1
  Pb  Pb16  1  0.400719  0.999978  0.250000  1
  Pb  Pb17  1  0.000000  0.400789  0.250000  1
