# generated using pymatgen
data_Tb5DyOs2
_symmetry_space_group_name_H-M   'P 1'
_cell_length_a   6.35324504
_cell_length_b   7.38833300
_cell_length_c   9.13880493
_cell_angle_alpha   90.00000000
_cell_angle_beta   90.09186910
_cell_angle_gamma   90.00000000
_symmetry_Int_Tables_number   1
_chemical_formula_structural   Tb5DyOs2
_chemical_formula_sum   'Tb10 Dy2 Os4'
_cell_volume   428.97394703
_cell_formula_units_Z   2
loop_
 _symmetry_equiv_pos_site_id
 _symmetry_equiv_pos_as_xyz
  1  'x, y, z'
loop_
 _atom_site_type_symbol
 _atom_site_label
 _atom_site_symmetry_multiplicity
 _atom_site_fract_x
 _atom_site_fract_y
 _atom_site_fract_z
 _atom_site_occupancy
  Tb  Tb0  1  0.330457  0.675508  0.063628  1
  Tb  Tb1  1  0.169543  0.175508  0.436372  1
  Tb  Tb2  1  0.669293  0.324729  0.563264  1
  Tb  Tb3  1  0.830707  0.824729  0.936736  1
  Tb  Tb4  1  0.669407  0.324458  0.936752  1
  Tb  Tb5  1  0.830593  0.824458  0.563248  1
  Tb  Tb6  1  0.868647  0.538886  0.250070  1
  Tb  Tb7  1  0.631353  0.038886  0.249930  1
  Tb  Tb8  1  0.131821  0.461253  0.749973  1
  Tb  Tb9  1  0.368179  0.961253  0.750027  1
  Dy  Dy10  1  0.330567  0.675160  0.436404  1
  Dy  Dy11  1  0.169433  0.175160  0.063596  1
  Os  Os12  1  0.040554  0.883800  0.250035  1
  Os  Os13  1  0.459446  0.383800  0.249965  1
  Os  Os14  1  0.960040  0.116205  0.750379  1
  Os  Os15  1  0.539960  0.616205  0.749621  1
