# generated using pymatgen
data_Pa3O7F
_symmetry_space_group_name_H-M   'P 1'
_cell_length_a   7.01248432
_cell_length_b   7.01248531
_cell_length_c   4.21190300
_cell_angle_alpha   90.00000000
_cell_angle_beta   90.00000000
_cell_angle_gamma   119.61068502
_symmetry_Int_Tables_number   1
_chemical_formula_structural   Pa3O7F
_chemical_formula_sum   'Pa3 O7 F1'
_cell_volume   180.07078721
_cell_formula_units_Z   1
loop_
 _symmetry_equiv_pos_site_id
 _symmetry_equiv_pos_as_xyz
  1  'x, y, z'
loop_
 _atom_site_type_symbol
 _atom_site_label
 _atom_site_symmetry_multiplicity
 _atom_site_fract_x
 _atom_site_fract_y
 _atom_site_fract_z
 _atom_site_occupancy
  Pa  Pa0  1  0.000000  0.000000  0.000000  1
  Pa  Pa1  1  0.694960  0.305040  0.000000  1
  Pa  Pa2  1  0.305040  0.694960  0.000000  1
  O  O3  1  0.336112  0.040152  0.000000  1
  O  O4  1  0.040152  0.336112  0.000000  1
  O  O5  1  0.000000  0.000000  0.500000  1
  O  O6  1  0.689502  0.310498  0.500000  1
  O  O7  1  0.310498  0.689502  0.500000  1
  O  O8  1  0.959848  0.663888  0.000000  1
  O  O9  1  0.663888  0.959848  0.000000  1
  F  F10  1  0.500000  0.500000  0.000000  1
