# generated using pymatgen
data_Tm3ThS6
_symmetry_space_group_name_H-M   'P 1'
_cell_length_a   3.90904600
_cell_length_b   10.93941524
_cell_length_c   11.24394425
_cell_angle_alpha   71.62895520
_cell_angle_beta   90.00000000
_cell_angle_gamma   90.00000000
_symmetry_Int_Tables_number   1
_chemical_formula_structural   Tm3ThS6
_chemical_formula_sum   'Tm6 Th2 S12'
_cell_volume   456.31630616
_cell_formula_units_Z   2
loop_
 _symmetry_equiv_pos_site_id
 _symmetry_equiv_pos_as_xyz
  1  'x, y, z'
loop_
 _atom_site_type_symbol
 _atom_site_label
 _atom_site_symmetry_multiplicity
 _atom_site_fract_x
 _atom_site_fract_y
 _atom_site_fract_z
 _atom_site_occupancy
  Tm  Tm0  1  0.250000  0.559916  0.833776  1
  Tm  Tm1  1  0.750000  0.440084  0.166224  1
  Tm  Tm2  1  0.250000  0.320552  0.500549  1
  Tm  Tm3  1  0.750000  0.679448  0.499451  1
  Tm  Tm4  1  0.250000  0.839635  0.083333  1
  Tm  Tm5  1  0.750000  0.160365  0.916667  1
  Th  Th6  1  0.250000  0.950137  0.696968  1
  Th  Th7  1  0.750000  0.049863  0.303032  1
  S  S8  1  0.250000  0.520451  0.613035  1
  S  S9  1  0.750000  0.479549  0.386965  1
  S  S10  1  0.250000  0.082859  0.093364  1
  S  S11  1  0.750000  0.917141  0.906636  1
  S  S12  1  0.250000  0.607466  0.056994  1
  S  S13  1  0.750000  0.392534  0.943006  1
  S  S14  1  0.250000  0.264733  0.271268  1
  S  S15  1  0.750000  0.735267  0.728732  1
  S  S16  1  0.250000  0.881742  0.465318  1
  S  S17  1  0.750000  0.118258  0.534682  1
  S  S18  1  0.250000  0.193797  0.749006  1
  S  S19  1  0.750000  0.806203  0.250994  1
