# generated using pymatgen
data_Pr5HoTl2In4O18
_symmetry_space_group_name_H-M   'P 1'
_cell_length_a   6.61338601
_cell_length_b   6.60539214
_cell_length_c   12.53298110
_cell_angle_alpha   89.99269642
_cell_angle_beta   90.01376642
_cell_angle_gamma   119.95171060
_symmetry_Int_Tables_number   1
_chemical_formula_structural   Pr5HoTl2In4O18
_chemical_formula_sum   'Pr5 Ho1 Tl2 In4 O18'
_cell_volume   474.37151374
_cell_formula_units_Z   1
loop_
 _symmetry_equiv_pos_site_id
 _symmetry_equiv_pos_as_xyz
  1  'x, y, z'
loop_
 _atom_site_type_symbol
 _atom_site_label
 _atom_site_symmetry_multiplicity
 _atom_site_fract_x
 _atom_site_fract_y
 _atom_site_fract_z
 _atom_site_occupancy
  Pr  Pr0  1  0.341426  0.673164  0.232117  1
  Pr  Pr1  1  0.000233  0.002950  0.265125  1
  Pr  Pr2  1  0.000074  0.997262  0.768977  1
  Pr  Pr3  1  0.340605  0.667896  0.728478  1
  Pr  Pr4  1  0.659558  0.327336  0.729753  1
  Ho  Ho5  1  0.657029  0.331164  0.228865  1
  Tl  Tl6  1  0.996885  0.662808  0.493362  1
  Tl  Tl7  1  0.998086  0.335595  0.997968  1
  In  In8  1  0.335211  0.333149  0.494060  1
  In  In9  1  0.666371  0.663973  0.998211  1
  In  In10  1  0.335428  0.000834  0.998099  1
  In  In11  1  0.667500  0.003105  0.494044  1
  O  O12  1  0.001383  0.689876  0.664009  1
  O  O13  1  0.986061  0.629064  0.324919  1
  O  O14  1  0.000635  0.358605  0.828717  1
  O  O15  1  0.986853  0.313818  0.168290  1
  O  O16  1  0.351619  0.683805  0.026660  1
  O  O17  1  0.000278  0.017960  0.463773  1
  O  O18  1  0.000187  0.982663  0.971045  1
  O  O19  1  0.351490  0.667647  0.518190  1
  O  O20  1  0.303506  0.305686  0.664752  1
  O  O21  1  0.372665  0.359227  0.325414  1
  O  O22  1  0.318367  0.011412  0.168567  1
  O  O23  1  0.640095  0.638669  0.829222  1
  O  O24  1  0.693239  0.680438  0.168810  1
  O  O25  1  0.359905  0.998294  0.829153  1
  O  O26  1  0.648894  0.316285  0.525453  1
  O  O27  1  0.649358  0.332262  0.026665  1
  O  O28  1  0.641708  0.015751  0.325298  1
  O  O29  1  0.695351  0.999303  0.664747  1
