# generated using pymatgen
data_Ta6Co6Si
_symmetry_space_group_name_H-M   'P 1'
_cell_length_a   4.89767154
_cell_length_b   4.89770945
_cell_length_c   9.08241207
_cell_angle_alpha   74.35885918
_cell_angle_beta   105.64113803
_cell_angle_gamma   120.00022040
_symmetry_Int_Tables_number   1
_chemical_formula_structural   Ta6Co6Si
_chemical_formula_sum   'Ta6 Co6 Si1'
_cell_volume   179.29848591
_cell_formula_units_Z   1
loop_
 _symmetry_equiv_pos_site_id
 _symmetry_equiv_pos_as_xyz
  1  'x, y, z'
loop_
 _atom_site_type_symbol
 _atom_site_label
 _atom_site_symmetry_multiplicity
 _atom_site_fract_x
 _atom_site_fract_y
 _atom_site_fract_z
 _atom_site_occupancy
  Ta  Ta0  1  0.346566  0.653429  0.039714  1
  Ta  Ta1  1  0.449790  0.550214  0.349356  1
  Ta  Ta2  1  0.169060  0.830939  0.507185  1
  Ta  Ta3  1  0.830932  0.169067  0.492801  1
  Ta  Ta4  1  0.550212  0.449791  0.650632  1
  Ta  Ta5  1  0.653432  0.346565  0.960305  1
  Co  Co6  1  0.408025  0.090985  0.226060  1
  Co  Co7  1  0.909022  0.090984  0.226053  1
  Co  Co8  1  0.909019  0.591984  0.226053  1
  Co  Co9  1  0.090985  0.408011  0.773947  1
  Co  Co10  1  0.090985  0.909019  0.773945  1
  Co  Co11  1  0.591996  0.909019  0.773950  1
  Si  Si12  1  0.999981  0.999998  0.999998  1
