# generated using pymatgen
data_CeY2(P2Rh3)3
_symmetry_space_group_name_H-M   'P 1'
_cell_length_a   3.95868100
_cell_length_b   11.21626400
_cell_length_c   12.78875900
_cell_angle_alpha   90.00000000
_cell_angle_beta   90.00000000
_cell_angle_gamma   90.00000000
_symmetry_Int_Tables_number   1
_chemical_formula_structural   CeY2(P2Rh3)3
_chemical_formula_sum   'Ce2 Y4 P12 Rh18'
_cell_volume   567.84150469
_cell_formula_units_Z   2
loop_
 _symmetry_equiv_pos_site_id
 _symmetry_equiv_pos_as_xyz
  1  'x, y, z'
loop_
 _atom_site_type_symbol
 _atom_site_label
 _atom_site_symmetry_multiplicity
 _atom_site_fract_x
 _atom_site_fract_y
 _atom_site_fract_z
 _atom_site_occupancy
  Ce  Ce0  1  0.000000  0.500000  0.524050  1
  Ce  Ce1  1  0.500000  0.000000  0.475950  1
  Y  Y2  1  0.500000  0.813805  0.205322  1
  Y  Y3  1  0.500000  0.186195  0.205322  1
  Y  Y4  1  0.000000  0.686195  0.794678  1
  Y  Y5  1  0.000000  0.313805  0.794678  1
  P  P6  1  0.500000  0.500000  0.878192  1
  P  P7  1  0.000000  0.000000  0.121808  1
  P  P8  1  0.500000  0.500000  0.350916  1
  P  P9  1  0.000000  0.000000  0.649084  1
  P  P10  1  0.500000  0.313008  0.618815  1
  P  P11  1  0.500000  0.686992  0.618815  1
  P  P12  1  0.000000  0.186992  0.381185  1
  P  P13  1  0.000000  0.813008  0.381185  1
  P  P14  1  0.500000  0.846589  0.893199  1
  P  P15  1  0.500000  0.153411  0.893199  1
  P  P16  1  0.000000  0.653411  0.106801  1
  P  P17  1  0.000000  0.346589  0.106801  1
  Rh  Rh18  1  0.500000  0.500000  0.169630  1
  Rh  Rh19  1  0.000000  0.000000  0.830370  1
  Rh  Rh20  1  0.500000  0.500000  0.700543  1
  Rh  Rh21  1  0.000000  0.000000  0.299457  1
  Rh  Rh22  1  0.000000  0.500000  0.979223  1
  Rh  Rh23  1  0.500000  0.000000  0.020777  1
  Rh  Rh24  1  0.500000  0.334164  0.993326  1
  Rh  Rh25  1  0.500000  0.665836  0.993326  1
  Rh  Rh26  1  0.000000  0.165836  0.006674  1
  Rh  Rh27  1  0.000000  0.834164  0.006674  1
  Rh  Rh28  1  0.500000  0.296281  0.431263  1
  Rh  Rh29  1  0.500000  0.703719  0.431263  1
  Rh  Rh30  1  0.000000  0.203719  0.568737  1
  Rh  Rh31  1  0.000000  0.796281  0.568737  1
  Rh  Rh32  1  0.500000  0.873292  0.711160  1
  Rh  Rh33  1  0.500000  0.126708  0.711160  1
  Rh  Rh34  1  0.000000  0.626708  0.288840  1
  Rh  Rh35  1  0.000000  0.373292  0.288840  1
