# generated using pymatgen
data_V3InPb2O11
_symmetry_space_group_name_H-M   'P 1'
_cell_length_a   7.09450472
_cell_length_b   7.12952279
_cell_length_c   10.24318947
_cell_angle_alpha   100.74267225
_cell_angle_beta   94.25930347
_cell_angle_gamma   95.52492270
_symmetry_Int_Tables_number   1
_chemical_formula_structural   V3InPb2O11
_chemical_formula_sum   'V6 In2 Pb4 O22'
_cell_volume   504.40230984
_cell_formula_units_Z   2
loop_
 _symmetry_equiv_pos_site_id
 _symmetry_equiv_pos_as_xyz
  1  'x, y, z'
loop_
 _atom_site_type_symbol
 _atom_site_label
 _atom_site_symmetry_multiplicity
 _atom_site_fract_x
 _atom_site_fract_y
 _atom_site_fract_z
 _atom_site_occupancy
  V  V0  1  0.623719  0.118086  0.355562  1
  V  V1  1  0.376281  0.881914  0.644438  1
  V  V2  1  0.159814  0.232856  0.961848  1
  V  V3  1  0.840186  0.767144  0.038152  1
  V  V4  1  0.146864  0.443256  0.267390  1
  V  V5  1  0.853136  0.556744  0.732610  1
  In  In6  1  0.879906  0.038145  0.642226  1
  In  In7  1  0.120094  0.961855  0.357774  1
  Pb  Pb8  1  0.652854  0.238916  0.992058  1
  Pb  Pb9  1  0.347146  0.761084  0.007942  1
  Pb  Pb10  1  0.326937  0.404996  0.632151  1
  Pb  Pb11  1  0.673063  0.595004  0.367849  1
  O  O12  1  0.952479  0.352117  0.659060  1
  O  O13  1  0.047521  0.647883  0.340940  1
  O  O14  1  0.031420  0.346769  0.098289  1
  O  O15  1  0.968580  0.653231  0.901711  1
  O  O16  1  0.419958  0.694752  0.524330  1
  O  O17  1  0.580042  0.305248  0.475670  1
  O  O18  1  0.694630  0.230204  0.229839  1
  O  O19  1  0.305370  0.769796  0.770161  1
  O  O20  1  0.982969  0.095786  0.849672  1
  O  O21  1  0.017031  0.904214  0.150328  1
  O  O22  1  0.670270  0.902903  0.985488  1
  O  O23  1  0.329730  0.097097  0.014512  1
  O  O24  1  0.583527  0.040611  0.693518  1
  O  O25  1  0.416473  0.959389  0.306482  1
  O  O26  1  0.185491  0.010046  0.577253  1
  O  O27  1  0.814509  0.989954  0.422747  1
  O  O28  1  0.288193  0.394466  0.891085  1
  O  O29  1  0.711807  0.605534  0.108915  1
  O  O30  1  0.630714  0.490633  0.765830  1
  O  O31  1  0.369286  0.509367  0.234170  1
  O  O32  1  0.853389  0.726231  0.629955  1
  O  O33  1  0.146611  0.273769  0.370045  1
