# generated using pymatgen
data_Y3Ho6ScCd3Os
_symmetry_space_group_name_H-M   'P 1'
_cell_length_a   9.51631300
_cell_length_b   9.51631292
_cell_length_c   9.77879100
_cell_angle_alpha   90.00000000
_cell_angle_beta   90.00000000
_cell_angle_gamma   119.99999682
_symmetry_Int_Tables_number   1
_chemical_formula_structural   Y3Ho6ScCd3Os
_chemical_formula_sum   'Y6 Ho12 Sc2 Cd6 Os2'
_cell_volume   766.92561241
_cell_formula_units_Z   2
loop_
 _symmetry_equiv_pos_site_id
 _symmetry_equiv_pos_as_xyz
  1  'x, y, z'
loop_
 _atom_site_type_symbol
 _atom_site_label
 _atom_site_symmetry_multiplicity
 _atom_site_fract_x
 _atom_site_fract_y
 _atom_site_fract_z
 _atom_site_occupancy
  Y  Y0  1  0.540301  0.459699  0.250000  1
  Y  Y1  1  0.540301  0.080602  0.250000  1
  Y  Y2  1  0.919398  0.459699  0.250000  1
  Y  Y3  1  0.459699  0.540301  0.750000  1
  Y  Y4  1  0.459699  0.919398  0.750000  1
  Y  Y5  1  0.080602  0.540301  0.750000  1
  Ho  Ho6  1  0.208514  0.791486  0.440780  1
  Ho  Ho7  1  0.208514  0.417028  0.440780  1
  Ho  Ho8  1  0.582972  0.791486  0.440780  1
  Ho  Ho9  1  0.791486  0.208514  0.559220  1
  Ho  Ho10  1  0.791486  0.582972  0.559220  1
  Ho  Ho11  1  0.417028  0.208514  0.559220  1
  Ho  Ho12  1  0.791486  0.208514  0.940780  1
  Ho  Ho13  1  0.791486  0.582972  0.940780  1
  Ho  Ho14  1  0.417028  0.208514  0.940780  1
  Ho  Ho15  1  0.208514  0.791486  0.059220  1
  Ho  Ho16  1  0.208514  0.417028  0.059220  1
  Ho  Ho17  1  0.582972  0.791486  0.059220  1
  Sc  Sc18  1  0.000000  0.000000  0.500000  1
  Sc  Sc19  1  0.000000  0.000000  0.000000  1
  Cd  Cd20  1  0.889267  0.110733  0.250000  1
  Cd  Cd21  1  0.889267  0.778537  0.250000  1
  Cd  Cd22  1  0.221463  0.110733  0.250000  1
  Cd  Cd23  1  0.110733  0.889267  0.750000  1
  Cd  Cd24  1  0.110733  0.221463  0.750000  1
  Cd  Cd25  1  0.778537  0.889267  0.750000  1
  Os  Os26  1  0.333333  0.666667  0.250000  1
  Os  Os27  1  0.666667  0.333333  0.750000  1
