# generated using pymatgen
data_Ti6BAsSe
_symmetry_space_group_name_H-M   'P 1'
_cell_length_a   6.70270700
_cell_length_b   6.70270629
_cell_length_c   3.44685200
_cell_angle_alpha   90.00000000
_cell_angle_beta   90.00000000
_cell_angle_gamma   119.99999859
_symmetry_Int_Tables_number   1
_chemical_formula_structural   Ti6BAsSe
_chemical_formula_sum   'Ti6 B1 As1 Se1'
_cell_volume   134.10769503
_cell_formula_units_Z   1
loop_
 _symmetry_equiv_pos_site_id
 _symmetry_equiv_pos_as_xyz
  1  'x, y, z'
loop_
 _atom_site_type_symbol
 _atom_site_label
 _atom_site_symmetry_multiplicity
 _atom_site_fract_x
 _atom_site_fract_y
 _atom_site_fract_z
 _atom_site_occupancy
  Ti  Ti0  1  0.234610  0.001495  0.500000  1
  Ti  Ti1  1  0.766884  0.765390  0.500000  1
  Ti  Ti2  1  0.998505  0.233116  0.500000  1
  Ti  Ti3  1  0.604895  0.002469  0.000000  1
  Ti  Ti4  1  0.397574  0.395105  0.000000  1
  Ti  Ti5  1  0.997531  0.602426  0.000000  1
  B  B6  1  0.000000  0.000000  0.000000  1
  As  As7  1  0.666667  0.333333  0.500000  1
  Se  Se8  1  0.333333  0.666667  0.500000  1
