# generated using pymatgen
data_La9Pr7(MgTc)4
_symmetry_space_group_name_H-M   'P 1'
_cell_length_a   10.11284943
_cell_length_b   10.11284902
_cell_length_c   10.09552000
_cell_angle_alpha   60.05667464
_cell_angle_beta   60.05667595
_cell_angle_gamma   60.44447938
_symmetry_Int_Tables_number   1
_chemical_formula_structural   La9Pr7(MgTc)4
_chemical_formula_sum   'La9 Pr7 Mg4 Tc4'
_cell_volume   733.11555930
_cell_formula_units_Z   1
loop_
 _symmetry_equiv_pos_site_id
 _symmetry_equiv_pos_as_xyz
  1  'x, y, z'
loop_
 _atom_site_type_symbol
 _atom_site_label
 _atom_site_symmetry_multiplicity
 _atom_site_fract_x
 _atom_site_fract_y
 _atom_site_fract_z
 _atom_site_occupancy
  La  La0  1  0.344584  0.344584  0.342796  1
  La  La1  1  0.344584  0.344584  0.968038  1
  La  La2  1  0.343088  0.971626  0.342643  1
  La  La3  1  0.971626  0.343088  0.342643  1
  La  La4  1  0.811723  0.185972  0.187394  1
  La  La5  1  0.185972  0.811723  0.814913  1
  La  La6  1  0.185972  0.811723  0.187394  1
  La  La7  1  0.811723  0.185972  0.814913  1
  La  La8  1  0.187753  0.187753  0.812247  1
  Pr  Pr9  1  0.810945  0.810945  0.189055  1
  Pr  Pr10  1  0.937462  0.560507  0.561320  1
  Pr  Pr11  1  0.560507  0.937462  0.940711  1
  Pr  Pr12  1  0.560507  0.937462  0.561320  1
  Pr  Pr13  1  0.937462  0.560507  0.940711  1
  Pr  Pr14  1  0.560743  0.560743  0.939257  1
  Pr  Pr15  1  0.941090  0.941090  0.558910  1
  Mg  Mg16  1  0.578613  0.578613  0.577556  1
  Mg  Mg17  1  0.578613  0.578613  0.265218  1
  Mg  Mg18  1  0.577806  0.266391  0.577902  1
  Mg  Mg19  1  0.266391  0.577806  0.577902  1
  Tc  Tc20  1  0.131438  0.131438  0.134083  1
  Tc  Tc21  1  0.131438  0.131438  0.603042  1
  Tc  Tc22  1  0.142245  0.597717  0.130019  1
  Tc  Tc23  1  0.597717  0.142245  0.130019  1
