# generated using pymatgen
data_LaPrZn21Pt
_symmetry_space_group_name_H-M   'P 1'
_cell_length_a   8.32036567
_cell_length_b   8.31540536
_cell_length_c   8.32036452
_cell_angle_alpha   100.12300756
_cell_angle_beta   99.77572109
_cell_angle_gamma   130.91519607
_symmetry_Int_Tables_number   1
_chemical_formula_structural   LaPrZn21Pt
_chemical_formula_sum   'La1 Pr1 Zn21 Pt1'
_cell_volume   395.59370774
_cell_formula_units_Z   1
loop_
 _symmetry_equiv_pos_site_id
 _symmetry_equiv_pos_as_xyz
  1  'x, y, z'
loop_
 _atom_site_type_symbol
 _atom_site_label
 _atom_site_symmetry_multiplicity
 _atom_site_fract_x
 _atom_site_fract_y
 _atom_site_fract_z
 _atom_site_occupancy
  La  La0  1  0.497876  0.493891  0.996015  1
  Pr  Pr1  1  0.752021  0.256066  0.504045  1
  Zn  Zn2  1  0.846263  0.430490  0.172979  1
  Zn  Zn3  1  0.125082  0.875032  0.749950  1
  Zn  Zn4  1  0.324730  0.151955  0.583525  1
  Zn  Zn5  1  0.257511  0.430490  0.584226  1
  Zn  Zn6  1  0.327883  0.741890  0.171817  1
  Zn  Zn7  1  0.992254  0.319402  0.915614  1
  Zn  Zn8  1  0.260845  0.676089  0.829093  1
  Zn  Zn9  1  0.246998  0.742997  0.495999  1
  Zn  Zn10  1  0.989014  0.073838  0.670808  1
  Zn  Zn11  1  0.002973  0.006934  0.003961  1
  Zn  Zn12  1  0.680016  0.008360  0.086101  1
  Zn  Zn13  1  0.624899  0.874945  0.749977  1
  Zn  Zn14  1  0.403789  0.319402  0.327148  1
  Zn  Zn15  1  0.922259  0.008360  0.328344  1
  Zn  Zn16  1  0.846995  0.676089  0.415243  1
  Zn  Zn17  1  0.570073  0.741890  0.414006  1
  Zn  Zn18  1  0.681631  0.598006  0.672628  1
  Zn  Zn19  1  0.403030  0.073838  0.084825  1
  Zn  Zn20  1  0.925379  0.598006  0.916376  1
  Zn  Zn21  1  0.568430  0.151955  0.827224  1
  Zn  Zn22  1  0.124968  0.874945  0.250046  1
  Pt  Pt23  1  0.125079  0.375128  0.250049  1
