# generated using pymatgen
data_Tb4Dy(SiAs)2
_symmetry_space_group_name_H-M   'P 1'
_cell_length_a   8.24424301
_cell_length_b   8.24424374
_cell_length_c   7.67174600
_cell_angle_alpha   90.00000000
_cell_angle_beta   90.00000000
_cell_angle_gamma   124.93754191
_symmetry_Int_Tables_number   1
_chemical_formula_structural   Tb4Dy(SiAs)2
_chemical_formula_sum   'Tb8 Dy2 Si4 As4'
_cell_volume   427.45603530
_cell_formula_units_Z   2
loop_
 _symmetry_equiv_pos_site_id
 _symmetry_equiv_pos_as_xyz
  1  'x, y, z'
loop_
 _atom_site_type_symbol
 _atom_site_label
 _atom_site_symmetry_multiplicity
 _atom_site_fract_x
 _atom_site_fract_y
 _atom_site_fract_z
 _atom_site_occupancy
  Tb  Tb0  1  0.035709  0.307261  0.332089  1
  Tb  Tb1  1  0.964291  0.692739  0.667911  1
  Tb  Tb2  1  0.464291  0.192739  0.832089  1
  Tb  Tb3  1  0.807261  0.535709  0.167911  1
  Tb  Tb4  1  0.535709  0.807261  0.167911  1
  Tb  Tb5  1  0.192739  0.464291  0.832089  1
  Tb  Tb6  1  0.692739  0.964291  0.667911  1
  Tb  Tb7  1  0.307261  0.035709  0.332089  1
  Dy  Dy8  1  0.000000  0.000000  0.000000  1
  Dy  Dy9  1  0.500000  0.500000  0.500000  1
  Si  Si10  1  0.378900  0.378900  0.121829  1
  Si  Si11  1  0.621100  0.621100  0.878171  1
  Si  Si12  1  0.121100  0.121100  0.621829  1
  Si  Si13  1  0.878900  0.878900  0.378171  1
  As  As14  1  0.798093  0.201907  0.000000  1
  As  As15  1  0.201907  0.798093  0.000000  1
  As  As16  1  0.701907  0.298093  0.500000  1
  As  As17  1  0.298093  0.701907  0.500000  1
