# generated using pymatgen
data_DyEr6Tm3(In2Pt)4
_symmetry_space_group_name_H-M   'P 1'
_cell_length_a   3.60257400
_cell_length_b   8.11414347
_cell_length_c   18.13921216
_cell_angle_alpha   89.98811450
_cell_angle_beta   90.00000000
_cell_angle_gamma   90.00000000
_symmetry_Int_Tables_number   1
_chemical_formula_structural   DyEr6Tm3(In2Pt)4
_chemical_formula_sum   'Dy1 Er6 Tm3 In8 Pt4'
_cell_volume   530.24185208
_cell_formula_units_Z   1
loop_
 _symmetry_equiv_pos_site_id
 _symmetry_equiv_pos_as_xyz
  1  'x, y, z'
loop_
 _atom_site_type_symbol
 _atom_site_label
 _atom_site_symmetry_multiplicity
 _atom_site_fract_x
 _atom_site_fract_y
 _atom_site_fract_z
 _atom_site_occupancy
  Dy  Dy0  1  0.000000  0.500122  0.500184  1
  Er  Er1  1  0.000000  0.616986  0.085301  1
  Er  Er2  1  0.000000  0.243313  0.220292  1
  Er  Er3  1  0.000000  0.757237  0.779970  1
  Er  Er4  1  0.000000  0.257088  0.719559  1
  Er  Er5  1  0.000000  0.742832  0.280532  1
  Er  Er6  1  0.000000  0.999545  0.999841  1
  Tm  Tm7  1  0.000000  0.117089  0.414437  1
  Tm  Tm8  1  0.000000  0.882953  0.585756  1
  Tm  Tm9  1  0.000000  0.383204  0.914025  1
  In  In10  1  0.500000  0.422010  0.351586  1
  In  In11  1  0.500000  0.577810  0.648777  1
  In  In12  1  0.500000  0.077226  0.851022  1
  In  In13  1  0.500000  0.923209  0.148882  1
  In  In14  1  0.500000  0.292500  0.065760  1
  In  In15  1  0.500000  0.706979  0.933518  1
  In  In16  1  0.500000  0.205481  0.565646  1
  In  In17  1  0.500000  0.794513  0.434644  1
  Pt  Pt18  1  0.500000  0.025483  0.304001  1
  Pt  Pt19  1  0.500000  0.974586  0.696131  1
  Pt  Pt20  1  0.500000  0.474218  0.803483  1
  Pt  Pt21  1  0.500000  0.525616  0.196652  1
