# generated using pymatgen
data_Dy5HoEr2(ReB6)4
_symmetry_space_group_name_H-M   'P 1'
_cell_length_a   3.67585400
_cell_length_b   9.16319100
_cell_length_c   11.55036300
_cell_angle_alpha   90.00119246
_cell_angle_beta   90.00000000
_cell_angle_gamma   90.00000000
_symmetry_Int_Tables_number   1
_chemical_formula_structural   Dy5HoEr2(ReB6)4
_chemical_formula_sum   'Dy5 Ho1 Er2 Re4 B24'
_cell_volume   389.04570579
_cell_formula_units_Z   1
loop_
 _symmetry_equiv_pos_site_id
 _symmetry_equiv_pos_as_xyz
  1  'x, y, z'
loop_
 _atom_site_type_symbol
 _atom_site_label
 _atom_site_symmetry_multiplicity
 _atom_site_fract_x
 _atom_site_fract_y
 _atom_site_fract_z
 _atom_site_occupancy
  Dy  Dy0  1  0.000000  0.323169  0.414018  1
  Dy  Dy1  1  0.000000  0.676697  0.586021  1
  Dy  Dy2  1  0.000000  0.823180  0.085898  1
  Dy  Dy3  1  0.000000  0.176892  0.913959  1
  Dy  Dy4  1  0.000000  0.942740  0.370274  1
  Ho  Ho5  1  0.000000  0.557328  0.870157  1
  Er  Er6  1  0.000000  0.057454  0.630290  1
  Er  Er7  1  0.000000  0.442621  0.129958  1
  Re  Re8  1  0.000000  0.637930  0.320520  1
  Re  Re9  1  0.000000  0.361302  0.679421  1
  Re  Re10  1  0.000000  0.138960  0.179089  1
  Re  Re11  1  0.000000  0.861687  0.820649  1
  B  B12  1  0.500000  0.552785  0.432757  1
  B  B13  1  0.500000  0.446692  0.567236  1
  B  B14  1  0.500000  0.053351  0.067012  1
  B  B15  1  0.500000  0.946948  0.932759  1
  B  B16  1  0.500000  0.748421  0.418306  1
  B  B17  1  0.500000  0.250660  0.581752  1
  B  B18  1  0.500000  0.249524  0.081522  1
  B  B19  1  0.500000  0.751043  0.918340  1
  B  B20  1  0.500000  0.791155  0.265248  1
  B  B21  1  0.500000  0.208135  0.734593  1
  B  B22  1  0.500000  0.292047  0.234376  1
  B  B23  1  0.500000  0.708498  0.765411  1
  B  B24  1  0.500000  0.629809  0.185253  1
  B  B25  1  0.500000  0.369742  0.814477  1
  B  B26  1  0.500000  0.130688  0.314235  1
  B  B27  1  0.500000  0.870012  0.685466  1
  B  B28  1  0.500000  0.982012  0.211698  1
  B  B29  1  0.500000  0.018431  0.787862  1
  B  B30  1  0.500000  0.481432  0.287709  1
  B  B31  1  0.500000  0.518234  0.711981  1
  B  B32  1  0.500000  0.598954  0.028009  1
  B  B33  1  0.500000  0.400832  0.972466  1
  B  B34  1  0.500000  0.099828  0.472768  1
  B  B35  1  0.500000  0.900804  0.528508  1
