# generated using pymatgen
data_TbDyB10Ir
_symmetry_space_group_name_H-M   'P 1'
_cell_length_a   4.17491900
_cell_length_b   5.68814900
_cell_length_c   11.35021060
_cell_angle_alpha   90.02042499
_cell_angle_beta   90.00000000
_cell_angle_gamma   90.00000000
_symmetry_Int_Tables_number   1
_chemical_formula_structural   TbDyB10Ir
_chemical_formula_sum   'Tb2 Dy2 B20 Ir2'
_cell_volume   269.53980533
_cell_formula_units_Z   2
loop_
 _symmetry_equiv_pos_site_id
 _symmetry_equiv_pos_as_xyz
  1  'x, y, z'
loop_
 _atom_site_type_symbol
 _atom_site_label
 _atom_site_symmetry_multiplicity
 _atom_site_fract_x
 _atom_site_fract_y
 _atom_site_fract_z
 _atom_site_occupancy
  Tb  Tb0  1  0.500000  0.295115  0.865482  1
  Tb  Tb1  1  0.500000  0.704885  0.134518  1
  Dy  Dy2  1  0.500000  0.204637  0.365952  1
  Dy  Dy3  1  0.500000  0.795363  0.634048  1
  B  B4  1  0.000000  0.381293  0.042598  1
  B  B5  1  0.000000  0.618707  0.957402  1
  B  B6  1  0.000000  0.118721  0.542427  1
  B  B7  1  0.000000  0.881279  0.457573  1
  B  B8  1  0.000000  0.364006  0.197255  1
  B  B9  1  0.000000  0.635994  0.802745  1
  B  B10  1  0.000000  0.136001  0.697006  1
  B  B11  1  0.000000  0.863999  0.302994  1
  B  B12  1  0.000000  0.056053  0.193372  1
  B  B13  1  0.000000  0.943947  0.806628  1
  B  B14  1  0.000000  0.443971  0.693121  1
  B  B15  1  0.000000  0.556029  0.306879  1
  B  B16  1  0.301360  0.219908  0.119544  1
  B  B17  1  0.698640  0.780092  0.880456  1
  B  B18  1  0.301360  0.780092  0.880456  1
  B  B19  1  0.698635  0.279695  0.619158  1
  B  B20  1  0.698640  0.219908  0.119544  1
  B  B21  1  0.301365  0.720305  0.380842  1
  B  B22  1  0.698635  0.720305  0.380842  1
  B  B23  1  0.301365  0.279695  0.619158  1
  Ir  Ir24  1  0.000000  0.000000  0.000000  1
  Ir  Ir25  1  0.000000  0.500000  0.500000  1
