# generated using pymatgen
data_Dy6YVO12
_symmetry_space_group_name_H-M   'P 1'
_cell_length_a   6.64351018
_cell_length_b   6.64351105
_cell_length_c   6.64351050
_cell_angle_alpha   93.51394143
_cell_angle_beta   93.51393780
_cell_angle_gamma   93.51394365
_symmetry_Int_Tables_number   1
_chemical_formula_structural   Dy6YVO12
_chemical_formula_sum   'Dy6 Y1 V1 O12'
_cell_volume   291.49466414
_cell_formula_units_Z   1
loop_
 _symmetry_equiv_pos_site_id
 _symmetry_equiv_pos_as_xyz
  1  'x, y, z'
loop_
 _atom_site_type_symbol
 _atom_site_label
 _atom_site_symmetry_multiplicity
 _atom_site_fract_x
 _atom_site_fract_y
 _atom_site_fract_z
 _atom_site_occupancy
  Dy  Dy0  1  0.738327  0.923418  0.434739  1
  Dy  Dy1  1  0.434739  0.738327  0.923418  1
  Dy  Dy2  1  0.076582  0.565261  0.261673  1
  Dy  Dy3  1  0.923418  0.434739  0.738327  1
  Dy  Dy4  1  0.565261  0.261673  0.076582  1
  Dy  Dy5  1  0.261673  0.076582  0.565261  1
  Y  Y6  1  0.000000  0.000000  0.000000  1
  V  V7  1  0.500000  0.500000  0.500000  1
  O  O8  1  0.067517  0.907256  0.319741  1
  O  O9  1  0.680259  0.932483  0.092744  1
  O  O10  1  0.461741  0.800062  0.588639  1
  O  O11  1  0.092744  0.680259  0.932483  1
  O  O12  1  0.800062  0.588639  0.461741  1
  O  O13  1  0.411361  0.538259  0.199938  1
  O  O14  1  0.588639  0.461741  0.800062  1
  O  O15  1  0.199938  0.411361  0.538259  1
  O  O16  1  0.907256  0.319741  0.067517  1
  O  O17  1  0.538259  0.199938  0.411361  1
  O  O18  1  0.319741  0.067517  0.907256  1
  O  O19  1  0.932483  0.092744  0.680259  1
