# generated using pymatgen
data_Sn8B6Ir11Rh3
_symmetry_space_group_name_H-M   'P 1'
_cell_length_a   9.35716400
_cell_length_b   9.35713742
_cell_length_c   5.69354100
_cell_angle_alpha   89.99977711
_cell_angle_beta   90.00024322
_cell_angle_gamma   120.00006385
_symmetry_Int_Tables_number   1
_chemical_formula_structural   Sn8B6Ir11Rh3
_chemical_formula_sum   'Sn8 B6 Ir11 Rh3'
_cell_volume   431.71789781
_cell_formula_units_Z   1
loop_
 _symmetry_equiv_pos_site_id
 _symmetry_equiv_pos_as_xyz
  1  'x, y, z'
loop_
 _atom_site_type_symbol
 _atom_site_label
 _atom_site_symmetry_multiplicity
 _atom_site_fract_x
 _atom_site_fract_y
 _atom_site_fract_z
 _atom_site_occupancy
  Sn  Sn0  1  0.666669  0.333333  0.255557  1
  Sn  Sn1  1  0.411340  0.501293  0.249623  1
  Sn  Sn2  1  0.089950  0.588662  0.249627  1
  Sn  Sn3  1  0.498709  0.910049  0.249611  1
  Sn  Sn4  1  0.502842  0.092245  0.749493  1
  Sn  Sn5  1  0.907758  0.410591  0.749506  1
  Sn  Sn6  1  0.589404  0.497161  0.749498  1
  Sn  Sn7  1  0.333335  0.666669  0.749264  1
  B  B8  1  0.208494  0.036475  0.249544  1
  B  B9  1  0.963523  0.172021  0.249538  1
  B  B10  1  0.827982  0.791508  0.249542  1
  B  B11  1  0.171237  0.208677  0.750154  1
  B  B12  1  0.037440  0.828765  0.750158  1
  B  B13  1  0.791329  0.962565  0.750154  1
  Ir  Ir14  1  0.000002  0.999999  0.000605  1
  Ir  Ir15  1  0.770420  0.123933  0.498781  1
  Ir  Ir16  1  0.353511  0.229583  0.498783  1
  Ir  Ir17  1  0.876071  0.646493  0.498788  1
  Ir  Ir18  1  0.000001  0.000002  0.500826  1
  Ir  Ir19  1  0.124120  0.354563  0.501003  1
  Ir  Ir20  1  0.645439  0.769560  0.501009  1
  Ir  Ir21  1  0.230443  0.875880  0.501009  1
  Ir  Ir22  1  0.123816  0.353935  0.998939  1
  Ir  Ir23  1  0.646068  0.769880  0.998944  1
  Ir  Ir24  1  0.230121  0.876187  0.998943  1
  Rh  Rh25  1  0.768644  0.124741  0.000368  1
  Rh  Rh26  1  0.356097  0.231341  0.000366  1
  Rh  Rh27  1  0.875235  0.643892  0.000368  1
