# generated using pymatgen
data_Ta6Be8Co7CuSi7
_symmetry_space_group_name_H-M   'P 1'
_cell_length_a   7.73762404
_cell_length_b   7.73582257
_cell_length_c   7.73762500
_cell_angle_alpha   59.99229648
_cell_angle_beta   60.00000019
_cell_angle_gamma   59.99229395
_symmetry_Int_Tables_number   1
_chemical_formula_structural   Ta6Be8Co7CuSi7
_chemical_formula_sum   'Ta6 Be8 Co7 Cu1 Si7'
_cell_volume   327.45846281
_cell_formula_units_Z   1
loop_
 _symmetry_equiv_pos_site_id
 _symmetry_equiv_pos_as_xyz
  1  'x, y, z'
loop_
 _atom_site_type_symbol
 _atom_site_label
 _atom_site_symmetry_multiplicity
 _atom_site_fract_x
 _atom_site_fract_y
 _atom_site_fract_z
 _atom_site_occupancy
  Ta  Ta0  1  0.198480  0.199773  0.800874  1
  Ta  Ta1  1  0.194491  0.802192  0.808827  1
  Ta  Ta2  1  0.800874  0.199773  0.198480  1
  Ta  Ta3  1  0.194491  0.802192  0.194491  1
  Ta  Ta4  1  0.800874  0.199773  0.800874  1
  Ta  Ta5  1  0.808827  0.802192  0.194491  1
  Be  Be6  1  0.827969  0.516096  0.827969  1
  Be  Be7  1  0.168711  0.174406  0.488171  1
  Be  Be8  1  0.488171  0.174406  0.168711  1
  Be  Be9  1  0.168711  0.174406  0.168711  1
  Be  Be10  1  0.515787  0.826690  0.828763  1
  Be  Be11  1  0.828763  0.826690  0.828763  1
  Be  Be12  1  0.828763  0.826690  0.515787  1
  Be  Be13  1  0.173643  0.479071  0.173643  1
  Co  Co14  1  0.624243  0.127269  0.624243  1
  Co  Co15  1  0.376097  0.376499  0.871310  1
  Co  Co16  1  0.871310  0.376499  0.376097  1
  Co  Co17  1  0.376097  0.376499  0.376097  1
  Co  Co18  1  0.131297  0.624145  0.622279  1
  Co  Co19  1  0.622279  0.624145  0.622279  1
  Co  Co20  1  0.622279  0.624145  0.131297  1
  Cu  Cu21  1  0.378401  0.864800  0.378401  1
  Si  Si22  1  0.503659  0.489021  0.503659  1
  Si  Si23  1  0.499652  0.501629  0.999359  1
  Si  Si24  1  0.999359  0.501629  0.499652  1
  Si  Si25  1  0.501632  0.002581  0.994153  1
  Si  Si26  1  0.994153  0.002581  0.501632  1
  Si  Si27  1  0.999359  0.501629  0.999359  1
  Si  Si28  1  0.501632  0.002581  0.501632  1
