# generated using pymatgen
data_TbDy6LuHf6O24
_symmetry_space_group_name_H-M   'P 1'
_cell_length_a   6.35205437
_cell_length_b   6.44160390
_cell_length_c   12.83649542
_cell_angle_alpha   99.13602846
_cell_angle_beta   99.38658268
_cell_angle_gamma   99.34584292
_symmetry_Int_Tables_number   1
_chemical_formula_structural   TbDy6LuHf6O24
_chemical_formula_sum   'Tb1 Dy6 Lu1 Hf6 O24'
_cell_volume   501.98051649
_cell_formula_units_Z   1
loop_
 _symmetry_equiv_pos_site_id
 _symmetry_equiv_pos_as_xyz
  1  'x, y, z'
loop_
 _atom_site_type_symbol
 _atom_site_label
 _atom_site_symmetry_multiplicity
 _atom_site_fract_x
 _atom_site_fract_y
 _atom_site_fract_z
 _atom_site_occupancy
  Tb  Tb0  1  0.295507  0.610047  0.817111  1
  Dy  Dy1  1  0.385843  0.866133  0.596251  1
  Dy  Dy2  1  0.860597  0.695364  0.948294  1
  Dy  Dy3  1  0.309982  0.615036  0.318178  1
  Dy  Dy4  1  0.141411  0.304704  0.052912  1
  Dy  Dy5  1  0.704757  0.387468  0.182702  1
  Dy  Dy6  1  0.691026  0.388022  0.681624  1
  Lu  Lu7  1  0.611733  0.136505  0.405281  1
  Hf  Hf8  1  0.009647  0.008400  0.255494  1
  Hf  Hf9  1  0.396463  0.855162  0.091509  1
  Hf  Hf10  1  0.991172  0.992695  0.745833  1
  Hf  Hf11  1  0.850914  0.669386  0.447031  1
  Hf  Hf12  1  0.145798  0.328368  0.550934  1
  Hf  Hf13  1  0.607152  0.144999  0.906835  1
  O  O14  1  0.316234  0.969290  0.796427  1
  O  O15  1  0.083466  0.921702  0.097921  1
  O  O16  1  0.321748  0.955578  0.293489  1
  O  O17  1  0.023870  0.880544  0.589892  1
  O  O18  1  0.565487  0.833418  0.961828  1
  O  O19  1  0.593117  0.822267  0.460277  1
  O  O20  1  0.188187  0.594724  0.971699  1
  O  O21  1  0.928253  0.683443  0.778833  1
  O  O22  1  0.428787  0.588032  0.158432  1
  O  O23  1  0.170677  0.576344  0.465356  1
  O  O24  1  0.925517  0.700021  0.295062  1
  O  O25  1  0.572924  0.412967  0.842282  1
  O  O26  1  0.405145  0.564785  0.655307  1
  O  O27  1  0.070922  0.316711  0.221509  1
  O  O28  1  0.812467  0.403750  0.028773  1
  O  O29  1  0.594797  0.429580  0.344362  1
  O  O30  1  0.074330  0.297711  0.703722  1
  O  O31  1  0.826504  0.420951  0.533488  1
  O  O32  1  0.435609  0.166523  0.036851  1
  O  O33  1  0.408393  0.182333  0.535513  1
  O  O34  1  0.921060  0.076612  0.903960  1
  O  O35  1  0.683477  0.029932  0.201807  1
  O  O36  1  0.966591  0.117512  0.410007  1
  O  O37  1  0.680432  0.052982  0.713211  1
