# generated using pymatgen
data_Zr8V11Si16Ni
_symmetry_space_group_name_H-M   'P 1'
_cell_length_a   6.64206429
_cell_length_b   6.64206593
_cell_length_c   12.27873800
_cell_angle_alpha   90.17476067
_cell_angle_beta   89.82523870
_cell_angle_gamma   89.89531006
_symmetry_Int_Tables_number   1
_chemical_formula_structural   Zr8V11Si16Ni
_chemical_formula_sum   'Zr8 V11 Si16 Ni1'
_cell_volume   541.69548657
_cell_formula_units_Z   1
loop_
 _symmetry_equiv_pos_site_id
 _symmetry_equiv_pos_as_xyz
  1  'x, y, z'
loop_
 _atom_site_type_symbol
 _atom_site_label
 _atom_site_symmetry_multiplicity
 _atom_site_fract_x
 _atom_site_fract_y
 _atom_site_fract_z
 _atom_site_occupancy
  Zr  Zr0  1  0.002466  0.662290  0.031390  1
  Zr  Zr1  1  0.840658  0.501422  0.279712  1
  Zr  Zr2  1  0.160018  0.501500  0.780915  1
  Zr  Zr3  1  0.501422  0.840658  0.720288  1
  Zr  Zr4  1  0.501500  0.160018  0.219085  1
  Zr  Zr5  1  0.998473  0.338501  0.530614  1
  Zr  Zr6  1  0.662290  0.002466  0.968610  1
  Zr  Zr7  1  0.338501  0.998473  0.469386  1
  V  V8  1  0.167165  0.830133  0.249307  1
  V  V9  1  0.830133  0.167165  0.750693  1
  V  V10  1  0.666646  0.666646  0.500000  1
  V  V11  1  0.000395  0.158068  0.127650  1
  V  V12  1  0.341150  0.505142  0.376227  1
  V  V13  1  0.664438  0.495646  0.875514  1
  V  V14  1  0.505142  0.341150  0.623773  1
  V  V15  1  0.495646  0.664438  0.124486  1
  V  V16  1  0.994997  0.841525  0.626829  1
  V  V17  1  0.158068  0.000395  0.872350  1
  V  V18  1  0.841525  0.994997  0.373171  1
  Si  Si19  1  0.287470  0.960170  0.062425  1
  Si  Si20  1  0.540896  0.789773  0.314070  1
  Si  Si21  1  0.456160  0.213343  0.817783  1
  Si  Si22  1  0.789773  0.540896  0.685930  1
  Si  Si23  1  0.213343  0.456160  0.182217  1
  Si  Si24  1  0.709573  0.040047  0.564324  1
  Si  Si25  1  0.960170  0.287470  0.937575  1
  Si  Si26  1  0.040047  0.709573  0.435676  1
  Si  Si27  1  0.703475  0.376743  0.069161  1
  Si  Si28  1  0.128006  0.205508  0.319254  1
  Si  Si29  1  0.872423  0.795240  0.821001  1
  Si  Si30  1  0.205508  0.128006  0.680746  1
  Si  Si31  1  0.795240  0.872423  0.178999  1
  Si  Si32  1  0.294611  0.627282  0.571202  1
  Si  Si33  1  0.376743  0.703475  0.930839  1
  Si  Si34  1  0.627282  0.294611  0.428798  1
  Ni  Ni35  1  0.328650  0.328650  0.000000  1
