# generated using pymatgen
data_Ac2PI
_symmetry_space_group_name_H-M   'P 1'
_cell_length_a   8.45879815
_cell_length_b   8.45879803
_cell_length_c   8.45879707
_cell_angle_alpha   30.75939996
_cell_angle_beta   30.75940032
_cell_angle_gamma   30.75939164
_symmetry_Int_Tables_number   1
_chemical_formula_structural   Ac2PI
_chemical_formula_sum   'Ac2 P1 I1'
_cell_volume   140.38693628
_cell_formula_units_Z   1
loop_
 _symmetry_equiv_pos_site_id
 _symmetry_equiv_pos_as_xyz
  1  'x, y, z'
loop_
 _atom_site_type_symbol
 _atom_site_label
 _atom_site_symmetry_multiplicity
 _atom_site_fract_x
 _atom_site_fract_y
 _atom_site_fract_z
 _atom_site_occupancy
  Ac  Ac0  1  0.230907  0.230907  0.230907  1
  Ac  Ac1  1  0.769093  0.769093  0.769093  1
  P  P2  1  0.500000  0.500000  0.500000  1
  I  I3  1  0.000000  0.000000  0.000000  1
