# generated using pymatgen
data_Ho11Tm9Co3Bi8Os
_symmetry_space_group_name_H-M   'P 1'
_cell_length_a   7.88928993
_cell_length_b   8.87532800
_cell_length_c   12.33611411
_cell_angle_alpha   90.00000000
_cell_angle_beta   89.79732379
_cell_angle_gamma   90.00000000
_symmetry_Int_Tables_number   1
_chemical_formula_structural   Ho11Tm9Co3Bi8Os
_chemical_formula_sum   'Ho11 Tm9 Co3 Bi8 Os1'
_cell_volume   863.76974759
_cell_formula_units_Z   1
loop_
 _symmetry_equiv_pos_site_id
 _symmetry_equiv_pos_as_xyz
  1  'x, y, z'
loop_
 _atom_site_type_symbol
 _atom_site_label
 _atom_site_symmetry_multiplicity
 _atom_site_fract_x
 _atom_site_fract_y
 _atom_site_fract_z
 _atom_site_occupancy
  Ho  Ho0  1  0.346699  0.750000  0.700714  1
  Ho  Ho1  1  0.847910  0.250000  0.800105  1
  Ho  Ho2  1  0.154690  0.750000  0.206408  1
  Ho  Ho3  1  0.881153  0.750000  0.806216  1
  Ho  Ho4  1  0.113902  0.250000  0.188328  1
  Ho  Ho5  1  0.385320  0.250000  0.687671  1
  Ho  Ho6  1  0.614535  0.750000  0.313461  1
  Ho  Ho7  1  0.053553  0.750000  0.497864  1
  Ho  Ho8  1  0.945651  0.250000  0.502353  1
  Ho  Ho9  1  0.555617  0.250000  0.003102  1
  Ho  Ho10  1  0.444102  0.750000  0.996713  1
  Tm  Tm11  1  0.652416  0.250000  0.301345  1
  Tm  Tm12  1  0.673341  0.536977  0.562686  1
  Tm  Tm13  1  0.326202  0.460963  0.437015  1
  Tm  Tm14  1  0.174750  0.457140  0.935632  1
  Tm  Tm15  1  0.326202  0.039037  0.437015  1
  Tm  Tm16  1  0.825760  0.537453  0.063510  1
  Tm  Tm17  1  0.673341  0.963023  0.562686  1
  Tm  Tm18  1  0.825760  0.962547  0.063510  1
  Tm  Tm19  1  0.174750  0.042860  0.935632  1
  Co  Co20  1  0.931467  0.250000  0.008534  1
  Co  Co21  1  0.564862  0.250000  0.507331  1
  Co  Co22  1  0.434180  0.750000  0.492736  1
  Bi  Bi23  1  0.571186  0.508609  0.826323  1
  Bi  Bi24  1  0.430544  0.490483  0.173610  1
  Bi  Bi25  1  0.071451  0.490377  0.672166  1
  Bi  Bi26  1  0.430544  0.009517  0.173610  1
  Bi  Bi27  1  0.927968  0.508554  0.327387  1
  Bi  Bi28  1  0.571186  0.991391  0.826323  1
  Bi  Bi29  1  0.927968  0.991446  0.327387  1
  Bi  Bi30  1  0.071451  0.009623  0.672166  1
  Os  Os31  1  0.071540  0.750000  0.990462  1
