# generated using pymatgen
data_HoTm5(Si3Pt2)4
_symmetry_space_group_name_H-M   'P 1'
_cell_length_a   4.22293900
_cell_length_b   8.52208872
_cell_length_c   12.89492344
_cell_angle_alpha   80.26306572
_cell_angle_beta   90.00000000
_cell_angle_gamma   90.00000000
_symmetry_Int_Tables_number   1
_chemical_formula_structural   HoTm5(Si3Pt2)4
_chemical_formula_sum   'Ho1 Tm5 Si12 Pt8'
_cell_volume   457.38083748
_cell_formula_units_Z   1
loop_
 _symmetry_equiv_pos_site_id
 _symmetry_equiv_pos_as_xyz
  1  'x, y, z'
loop_
 _atom_site_type_symbol
 _atom_site_label
 _atom_site_symmetry_multiplicity
 _atom_site_fract_x
 _atom_site_fract_y
 _atom_site_fract_z
 _atom_site_occupancy
  Ho  Ho0  1  0.250000  0.073568  0.184360  1
  Tm  Tm1  1  0.250000  0.766160  0.439316  1
  Tm  Tm2  1  0.250000  0.584065  0.186912  1
  Tm  Tm3  1  0.750000  0.233727  0.560715  1
  Tm  Tm4  1  0.750000  0.415603  0.813348  1
  Tm  Tm5  1  0.750000  0.927149  0.815769  1
  Si  Si6  1  0.750000  0.588842  0.571606  1
  Si  Si7  1  0.750000  0.127158  0.004651  1
  Si  Si8  1  0.750000  0.872550  0.573917  1
  Si  Si9  1  0.250000  0.696637  0.712753  1
  Si  Si10  1  0.750000  0.303262  0.287059  1
  Si  Si11  1  0.750000  0.805370  0.277311  1
  Si  Si12  1  0.250000  0.872772  0.995026  1
  Si  Si13  1  0.250000  0.194348  0.722722  1
  Si  Si14  1  0.250000  0.379206  0.001320  1
  Si  Si15  1  0.250000  0.127546  0.426198  1
  Si  Si16  1  0.750000  0.621318  0.998061  1
  Si  Si17  1  0.250000  0.410990  0.428359  1
  Pt  Pt18  1  0.750000  0.352538  0.100107  1
  Pt  Pt19  1  0.250000  0.971910  0.624335  1
  Pt  Pt20  1  0.750000  0.848348  0.089396  1
  Pt  Pt21  1  0.750000  0.027513  0.376790  1
  Pt  Pt22  1  0.250000  0.648485  0.899215  1
  Pt  Pt23  1  0.250000  0.151096  0.910371  1
  Pt  Pt24  1  0.750000  0.533742  0.376428  1
  Pt  Pt25  1  0.250000  0.466098  0.623954  1
