# generated using pymatgen
data_Sc6Ta5Ga11Os7
_symmetry_space_group_name_H-M   'P 1'
_cell_length_a   8.93459317
_cell_length_b   8.93459228
_cell_length_c   8.87908702
_cell_angle_alpha   59.79299046
_cell_angle_beta   59.79299375
_cell_angle_gamma   59.99999958
_symmetry_Int_Tables_number   1
_chemical_formula_structural   Sc6Ta5Ga11Os7
_chemical_formula_sum   'Sc6 Ta5 Ga11 Os7'
_cell_volume   499.61658876
_cell_formula_units_Z   1
loop_
 _symmetry_equiv_pos_site_id
 _symmetry_equiv_pos_as_xyz
  1  'x, y, z'
loop_
 _atom_site_type_symbol
 _atom_site_label
 _atom_site_symmetry_multiplicity
 _atom_site_fract_x
 _atom_site_fract_y
 _atom_site_fract_z
 _atom_site_occupancy
  Sc  Sc0  1  0.713418  0.713418  0.290591  1
  Sc  Sc1  1  0.282572  0.713418  0.290591  1
  Sc  Sc2  1  0.713418  0.282572  0.290591  1
  Sc  Sc3  1  0.295026  0.295026  0.714926  1
  Sc  Sc4  1  0.695021  0.295026  0.714926  1
  Sc  Sc5  1  0.295026  0.695021  0.714926  1
  Ta  Ta6  1  0.877951  0.877951  0.366147  1
  Ta  Ta7  1  0.875326  0.370218  0.879130  1
  Ta  Ta8  1  0.370218  0.875326  0.879130  1
  Ta  Ta9  1  0.875326  0.875326  0.879130  1
  Ta  Ta10  1  0.126950  0.126950  0.619151  1
  Ga  Ga11  1  0.118155  0.643612  0.120078  1
  Ga  Ga12  1  0.643612  0.118155  0.120078  1
  Ga  Ga13  1  0.118155  0.118155  0.120078  1
  Ga  Ga14  1  0.657045  0.657045  0.028866  1
  Ga  Ga15  1  0.657047  0.030496  0.655411  1
  Ga  Ga16  1  0.030496  0.657047  0.655411  1
  Ga  Ga17  1  0.657047  0.657047  0.655411  1
  Ga  Ga18  1  0.337697  0.337697  0.986909  1
  Ga  Ga19  1  0.341619  0.979033  0.337727  1
  Ga  Ga20  1  0.979033  0.341619  0.337727  1
  Ga  Ga21  1  0.341619  0.341619  0.337727  1
  Os  Os22  1  0.005892  0.005892  0.982323  1
  Os  Os23  1  0.997872  0.997872  0.506896  1
  Os  Os24  1  0.497361  0.997872  0.506896  1
  Os  Os25  1  0.997872  0.497361  0.506896  1
  Os  Os26  1  0.502796  0.502796  0.000776  1
  Os  Os27  1  0.993633  0.502796  0.000776  1
  Os  Os28  1  0.502796  0.993633  0.000776  1
