# generated using pymatgen
data_Sm8GePBr12
_symmetry_space_group_name_H-M   'P 1'
_cell_length_a   4.13905100
_cell_length_b   13.44627285
_cell_length_c   14.25069200
_cell_angle_alpha   89.92551344
_cell_angle_beta   90.00000000
_cell_angle_gamma   90.00000000
_symmetry_Int_Tables_number   1
_chemical_formula_structural   Sm8GePBr12
_chemical_formula_sum   'Sm8 Ge1 P1 Br12'
_cell_volume   793.11887242
_cell_formula_units_Z   1
loop_
 _symmetry_equiv_pos_site_id
 _symmetry_equiv_pos_as_xyz
  1  'x, y, z'
loop_
 _atom_site_type_symbol
 _atom_site_label
 _atom_site_symmetry_multiplicity
 _atom_site_fract_x
 _atom_site_fract_y
 _atom_site_fract_z
 _atom_site_occupancy
  Sm  Sm0  1  0.500000  0.116086  0.343951  1
  Sm  Sm1  1  0.500000  0.883914  0.656049  1
  Sm  Sm2  1  0.500000  0.620789  0.162263  1
  Sm  Sm3  1  0.500000  0.379211  0.837737  1
  Sm  Sm4  1  0.000000  0.113994  0.575443  1
  Sm  Sm5  1  0.000000  0.886006  0.424557  1
  Sm  Sm6  1  0.000000  0.621213  0.919562  1
  Sm  Sm7  1  0.000000  0.378787  0.080438  1
  Ge  Ge8  1  0.500000  0.500000  0.000000  1
  P  P9  1  0.500000  0.000000  0.500000  1
  Br  Br10  1  0.500000  0.242415  0.163419  1
  Br  Br11  1  0.500000  0.757585  0.836581  1
  Br  Br12  1  0.500000  0.745278  0.338492  1
  Br  Br13  1  0.500000  0.254722  0.661508  1
  Br  Br14  1  0.000000  0.254718  0.412109  1
  Br  Br15  1  0.000000  0.745282  0.587891  1
  Br  Br16  1  0.000000  0.756626  0.088358  1
  Br  Br17  1  0.000000  0.243374  0.911642  1
  Br  Br18  1  0.000000  0.001106  0.244328  1
  Br  Br19  1  0.000000  0.998894  0.755672  1
  Br  Br20  1  0.000000  0.501102  0.257753  1
  Br  Br21  1  0.000000  0.498898  0.742247  1
