# generated using pymatgen
data_NdSmTc2F14
_symmetry_space_group_name_H-M   'P 1'
_cell_length_a   5.70378400
_cell_length_b   9.13519034
_cell_length_c   12.27975410
_cell_angle_alpha   62.28299122
_cell_angle_beta   90.00000000
_cell_angle_gamma   90.00000000
_symmetry_Int_Tables_number   1
_chemical_formula_structural   NdSmTc2F14
_chemical_formula_sum   'Nd2 Sm2 Tc4 F28'
_cell_volume   566.42057582
_cell_formula_units_Z   2
loop_
 _symmetry_equiv_pos_site_id
 _symmetry_equiv_pos_as_xyz
  1  'x, y, z'
loop_
 _atom_site_type_symbol
 _atom_site_label
 _atom_site_symmetry_multiplicity
 _atom_site_fract_x
 _atom_site_fract_y
 _atom_site_fract_z
 _atom_site_occupancy
  Nd  Nd0  1  0.758878  0.810691  0.764895  1
  Nd  Nd1  1  0.258878  0.189309  0.735105  1
  Sm  Sm2  1  0.240928  0.187241  0.235516  1
  Sm  Sm3  1  0.740928  0.812759  0.264484  1
  Tc  Tc4  1  0.756156  0.271813  0.959781  1
  Tc  Tc5  1  0.256156  0.728187  0.540219  1
  Tc  Tc6  1  0.243083  0.725003  0.045211  1
  Tc  Tc7  1  0.743083  0.274997  0.454789  1
  F  F8  1  0.440439  0.707499  0.920969  1
  F  F9  1  0.940439  0.292501  0.579031  1
  F  F10  1  0.555905  0.290151  0.082699  1
  F  F11  1  0.055905  0.709849  0.417301  1
  F  F12  1  0.456378  0.282318  0.541819  1
  F  F13  1  0.956378  0.717682  0.958181  1
  F  F14  1  0.544596  0.721090  0.453646  1
  F  F15  1  0.044596  0.278910  0.046354  1
  F  F16  1  0.769260  0.513576  0.862478  1
  F  F17  1  0.269260  0.486424  0.637522  1
  F  F18  1  0.231639  0.482396  0.140393  1
  F  F19  1  0.731639  0.517604  0.359607  1
  F  F20  1  0.757597  0.030112  0.053755  1
  F  F21  1  0.257597  0.969888  0.446245  1
  F  F22  1  0.241905  0.966548  0.950099  1
  F  F23  1  0.741905  0.033452  0.549901  1
  F  F24  1  0.977629  0.729554  0.633525  1
  F  F25  1  0.477629  0.270446  0.866475  1
  F  F26  1  0.022082  0.269651  0.362520  1
  F  F27  1  0.522082  0.730349  0.137480  1
  F  F28  1  0.047109  0.744346  0.170391  1
  F  F29  1  0.547109  0.255654  0.329609  1
  F  F30  1  0.948701  0.255816  0.832419  1
  F  F31  1  0.448701  0.744184  0.667581  1
  F  F32  1  0.416306  0.970437  0.231681  1
  F  F33  1  0.916306  0.029563  0.268319  1
  F  F34  1  0.591409  0.032910  0.769952  1
  F  F35  1  0.091409  0.967090  0.730048  1
