# generated using pymatgen
data_Tb13Pr7(AlBi3)4
_symmetry_space_group_name_H-M   'P 1'
_cell_length_a   8.39855939
_cell_length_b   8.38262167
_cell_length_c   15.70044900
_cell_angle_alpha   90.01984903
_cell_angle_beta   90.17323375
_cell_angle_gamma   89.98835460
_symmetry_Int_Tables_number   1
_chemical_formula_structural   Tb13Pr7(AlBi3)4
_chemical_formula_sum   'Tb13 Pr7 Al4 Bi12'
_cell_volume   1105.33702083
_cell_formula_units_Z   1
loop_
 _symmetry_equiv_pos_site_id
 _symmetry_equiv_pos_as_xyz
  1  'x, y, z'
loop_
 _atom_site_type_symbol
 _atom_site_label
 _atom_site_symmetry_multiplicity
 _atom_site_fract_x
 _atom_site_fract_y
 _atom_site_fract_z
 _atom_site_occupancy
  Tb  Tb0  1  0.366737  0.851801  0.875719  1
  Tb  Tb1  1  0.865760  0.648203  0.625483  1
  Tb  Tb2  1  0.633030  0.148772  0.375012  1
  Tb  Tb3  1  0.130944  0.351304  0.124699  1
  Tb  Tb4  1  0.631442  0.149070  0.124389  1
  Tb  Tb5  1  0.133311  0.351225  0.374984  1
  Tb  Tb6  1  0.367065  0.851615  0.625977  1
  Tb  Tb7  1  0.869169  0.649112  0.875450  1
  Tb  Tb8  1  0.527767  0.311049  0.891895  1
  Tb  Tb9  1  0.189975  0.486466  0.750065  1
  Tb  Tb10  1  0.689312  0.014658  0.750212  1
  Tb  Tb11  1  0.810372  0.514030  0.249576  1
  Tb  Tb12  1  0.310004  0.985822  0.250229  1
  Pr  Pr13  1  0.022962  0.189888  0.604657  1
  Pr  Pr14  1  0.476974  0.689150  0.396318  1
  Pr  Pr15  1  0.975367  0.811175  0.103552  1
  Pr  Pr16  1  0.476203  0.688879  0.104181  1
  Pr  Pr17  1  0.977292  0.810941  0.396563  1
  Pr  Pr18  1  0.523150  0.311415  0.603474  1
  Pr  Pr19  1  0.023284  0.188739  0.896496  1
  Al  Al20  1  0.334424  0.147613  0.751404  1
  Al  Al21  1  0.830127  0.354142  0.750918  1
  Al  Al22  1  0.668365  0.854166  0.250007  1
  Al  Al23  1  0.167591  0.645970  0.249958  1
  Bi  Bi24  1  0.284317  0.043101  0.044745  1
  Bi  Bi25  1  0.785691  0.456562  0.455409  1
  Bi  Bi26  1  0.714667  0.956663  0.544782  1
  Bi  Bi27  1  0.221669  0.537298  0.954585  1
  Bi  Bi28  1  0.712957  0.959242  0.954921  1
  Bi  Bi29  1  0.214050  0.544329  0.544606  1
  Bi  Bi30  1  0.285318  0.043616  0.456067  1
  Bi  Bi31  1  0.782051  0.454931  0.042230  1
  Bi  Bi32  1  0.564414  0.617445  0.751340  1
  Bi  Bi33  1  0.064337  0.881661  0.750368  1
  Bi  Bi34  1  0.435110  0.381353  0.249836  1
  Bi  Bi35  1  0.934791  0.118594  0.249891  1
