# generated using pymatgen
data_Yb3Al10(SiIr2)2
_symmetry_space_group_name_H-M   'P 1'
_cell_length_a   8.70273800
_cell_length_b   8.70273697
_cell_length_c   9.59475400
_cell_angle_alpha   90.00000000
_cell_angle_beta   90.00000000
_cell_angle_gamma   120.00000392
_symmetry_Int_Tables_number   1
_chemical_formula_structural   Yb3Al10(SiIr2)2
_chemical_formula_sum   'Yb6 Al20 Si4 Ir8'
_cell_volume   629.32679846
_cell_formula_units_Z   2
loop_
 _symmetry_equiv_pos_site_id
 _symmetry_equiv_pos_as_xyz
  1  'x, y, z'
loop_
 _atom_site_type_symbol
 _atom_site_label
 _atom_site_symmetry_multiplicity
 _atom_site_fract_x
 _atom_site_fract_y
 _atom_site_fract_z
 _atom_site_occupancy
  Yb  Yb0  1  0.805315  0.194685  0.750000  1
  Yb  Yb1  1  0.194685  0.805315  0.250000  1
  Yb  Yb2  1  0.389369  0.194685  0.750000  1
  Yb  Yb3  1  0.610631  0.805315  0.250000  1
  Yb  Yb4  1  0.805315  0.610631  0.750000  1
  Yb  Yb5  1  0.194685  0.389369  0.250000  1
  Al  Al6  1  0.835310  0.164690  0.421510  1
  Al  Al7  1  0.164690  0.835310  0.578490  1
  Al  Al8  1  0.329380  0.164690  0.421510  1
  Al  Al9  1  0.164690  0.835310  0.921510  1
  Al  Al10  1  0.670620  0.835310  0.578490  1
  Al  Al11  1  0.835310  0.164690  0.078490  1
  Al  Al12  1  0.835310  0.670620  0.421510  1
  Al  Al13  1  0.670620  0.835310  0.921510  1
  Al  Al14  1  0.164690  0.329380  0.578490  1
  Al  Al15  1  0.329380  0.164690  0.078490  1
  Al  Al16  1  0.164690  0.329380  0.921510  1
  Al  Al17  1  0.835310  0.670620  0.078490  1
  Al  Al18  1  0.436063  0.563937  0.750000  1
  Al  Al19  1  0.563937  0.436063  0.250000  1
  Al  Al20  1  0.127873  0.563937  0.750000  1
  Al  Al21  1  0.872127  0.436063  0.250000  1
  Al  Al22  1  0.436063  0.872127  0.750000  1
  Al  Al23  1  0.563937  0.127873  0.250000  1
  Al  Al24  1  0.000000  0.000000  0.750000  1
  Al  Al25  1  0.000000  0.000000  0.250000  1
  Si  Si26  1  0.666667  0.333333  0.964223  1
  Si  Si27  1  0.333333  0.666667  0.035777  1
  Si  Si28  1  0.333333  0.666667  0.464223  1
  Si  Si29  1  0.666667  0.333333  0.535777  1
  Ir  Ir30  1  0.500000  0.500000  0.000000  1
  Ir  Ir31  1  0.000000  0.500000  0.000000  1
  Ir  Ir32  1  0.500000  0.500000  0.500000  1
  Ir  Ir33  1  0.500000  0.000000  0.000000  1
  Ir  Ir34  1  0.000000  0.500000  0.500000  1
  Ir  Ir35  1  0.500000  0.000000  0.500000  1
  Ir  Ir36  1  0.000000  0.000000  0.000000  1
  Ir  Ir37  1  0.000000  0.000000  0.500000  1
