# generated using pymatgen
data_SmHo7TiPd24
_symmetry_space_group_name_H-M   'P 1'
_cell_length_a   8.37090123
_cell_length_b   8.37090123
_cell_length_c   8.37090123
_cell_angle_alpha   90.01898545
_cell_angle_beta   89.98101455
_cell_angle_gamma   89.98101455
_symmetry_Int_Tables_number   1
_chemical_formula_structural   SmHo7TiPd24
_chemical_formula_sum   'Sm1 Ho7 Ti1 Pd24'
_cell_volume   586.56558887
_cell_formula_units_Z   1
loop_
 _symmetry_equiv_pos_site_id
 _symmetry_equiv_pos_as_xyz
  1  'x, y, z'
loop_
 _atom_site_type_symbol
 _atom_site_label
 _atom_site_symmetry_multiplicity
 _atom_site_fract_x
 _atom_site_fract_y
 _atom_site_fract_z
 _atom_site_occupancy
  Sm  Sm0  1  0.747151  0.252849  0.252849  1
  Ho  Ho1  1  0.252902  0.252925  0.252925  1
  Ho  Ho2  1  0.747052  0.747050  0.747050  1
  Ho  Ho3  1  0.747075  0.747098  0.252925  1
  Ho  Ho4  1  0.747075  0.252925  0.747098  1
  Ho  Ho5  1  0.252950  0.252948  0.747050  1
  Ho  Ho6  1  0.252950  0.747050  0.252948  1
  Ho  Ho7  1  0.252965  0.747035  0.747035  1
  Ti  Ti8  1  0.000392  0.999608  0.999608  1
  Pd  Pd9  1  0.262025  0.500117  0.999923  1
  Pd  Pd10  1  0.737947  0.501045  0.998765  1
  Pd  Pd11  1  0.001235  0.262053  0.501045  1
  Pd  Pd12  1  0.498955  0.262053  0.998765  1
  Pd  Pd13  1  0.000077  0.737975  0.500117  1
  Pd  Pd14  1  0.499883  0.737975  0.999923  1
  Pd  Pd15  1  0.498955  0.998765  0.262053  1
  Pd  Pd16  1  0.262025  0.999923  0.500117  1
  Pd  Pd17  1  0.499883  0.999923  0.737975  1
  Pd  Pd18  1  0.737947  0.998765  0.501045  1
  Pd  Pd19  1  0.001235  0.501045  0.262053  1
  Pd  Pd20  1  0.000077  0.500117  0.737975  1
  Pd  Pd21  1  0.253602  0.500071  0.500071  1
  Pd  Pd22  1  0.746383  0.501265  0.501265  1
  Pd  Pd23  1  0.498735  0.253617  0.501265  1
  Pd  Pd24  1  0.499929  0.746398  0.500071  1
  Pd  Pd25  1  0.498735  0.501265  0.253617  1
  Pd  Pd26  1  0.499929  0.500071  0.746398  1
  Pd  Pd27  1  0.296021  0.999988  0.999988  1
  Pd  Pd28  1  0.703761  0.998936  0.998936  1
  Pd  Pd29  1  0.001064  0.296239  0.998936  1
  Pd  Pd30  1  0.000012  0.703979  0.999988  1
  Pd  Pd31  1  0.001064  0.998936  0.296239  1
  Pd  Pd32  1  0.000012  0.999988  0.703979  1
