# generated using pymatgen
data_Sc20Cd3Tc3Ni2
_symmetry_space_group_name_H-M   'P 1'
_cell_length_a   8.94949000
_cell_length_b   8.94949063
_cell_length_c   8.64901300
_cell_angle_alpha   90.00000000
_cell_angle_beta   90.00000000
_cell_angle_gamma   119.99999027
_symmetry_Int_Tables_number   1
_chemical_formula_structural   Sc20Cd3Tc3Ni2
_chemical_formula_sum   'Sc20 Cd3 Tc3 Ni2'
_cell_volume   599.92067486
_cell_formula_units_Z   1
loop_
 _symmetry_equiv_pos_site_id
 _symmetry_equiv_pos_as_xyz
  1  'x, y, z'
loop_
 _atom_site_type_symbol
 _atom_site_label
 _atom_site_symmetry_multiplicity
 _atom_site_fract_x
 _atom_site_fract_y
 _atom_site_fract_z
 _atom_site_occupancy
  Sc  Sc0  1  0.000000  0.000000  0.460580  1
  Sc  Sc1  1  0.000000  0.000000  0.039420  1
  Sc  Sc2  1  0.542328  0.457672  0.250000  1
  Sc  Sc3  1  0.542328  0.084654  0.250000  1
  Sc  Sc4  1  0.915346  0.457672  0.250000  1
  Sc  Sc5  1  0.458177  0.541823  0.750000  1
  Sc  Sc6  1  0.458177  0.916355  0.750000  1
  Sc  Sc7  1  0.083645  0.541823  0.750000  1
  Sc  Sc8  1  0.204129  0.795871  0.429381  1
  Sc  Sc9  1  0.204129  0.408259  0.429381  1
  Sc  Sc10  1  0.591741  0.795871  0.429381  1
  Sc  Sc11  1  0.794476  0.205524  0.544575  1
  Sc  Sc12  1  0.794476  0.588952  0.544575  1
  Sc  Sc13  1  0.411048  0.205524  0.544575  1
  Sc  Sc14  1  0.794476  0.205524  0.955425  1
  Sc  Sc15  1  0.794476  0.588952  0.955425  1
  Sc  Sc16  1  0.411048  0.205524  0.955425  1
  Sc  Sc17  1  0.204129  0.795871  0.070619  1
  Sc  Sc18  1  0.204129  0.408259  0.070619  1
  Sc  Sc19  1  0.591741  0.795871  0.070619  1
  Cd  Cd20  1  0.112137  0.887863  0.750000  1
  Cd  Cd21  1  0.112137  0.224274  0.750000  1
  Cd  Cd22  1  0.775726  0.887863  0.750000  1
  Tc  Tc23  1  0.874199  0.125801  0.250000  1
  Tc  Tc24  1  0.874199  0.748398  0.250000  1
  Tc  Tc25  1  0.251602  0.125801  0.250000  1
  Ni  Ni26  1  0.333333  0.666667  0.250000  1
  Ni  Ni27  1  0.666667  0.333333  0.750000  1
