# generated using pymatgen
data_Lu2Al8SiRh3
_symmetry_space_group_name_H-M   'P 1'
_cell_length_a   7.50816528
_cell_length_b   7.48124148
_cell_length_c   9.35021589
_cell_angle_alpha   89.99712208
_cell_angle_beta   89.83010824
_cell_angle_gamma   119.69520830
_symmetry_Int_Tables_number   1
_chemical_formula_structural   Lu2Al8SiRh3
_chemical_formula_sum   'Lu4 Al16 Si2 Rh6'
_cell_volume   456.22897083
_cell_formula_units_Z   2
loop_
 _symmetry_equiv_pos_site_id
 _symmetry_equiv_pos_as_xyz
  1  'x, y, z'
loop_
 _atom_site_type_symbol
 _atom_site_label
 _atom_site_symmetry_multiplicity
 _atom_site_fract_x
 _atom_site_fract_y
 _atom_site_fract_z
 _atom_site_occupancy
  Lu  Lu0  1  0.994829  0.664881  0.242921  1
  Lu  Lu1  1  0.005171  0.335119  0.757079  1
  Lu  Lu2  1  0.676428  0.001612  0.247323  1
  Lu  Lu3  1  0.323572  0.998388  0.752677  1
  Al  Al4  1  0.128037  0.126277  0.250438  1
  Al  Al5  1  0.871963  0.873723  0.749562  1
  Al  Al6  1  0.999438  0.665498  0.570667  1
  Al  Al7  1  0.335008  0.998509  0.423775  1
  Al  Al8  1  0.000562  0.334502  0.429333  1
  Al  Al9  1  0.664992  0.001491  0.576225  1
  Al  Al10  1  0.661034  0.997325  0.921463  1
  Al  Al11  1  0.338966  0.002675  0.078537  1
  Al  Al12  1  0.332321  0.331273  0.555911  1
  Al  Al13  1  0.667679  0.668727  0.444089  1
  Al  Al14  1  0.664465  0.667718  0.056241  1
  Al  Al15  1  0.335535  0.332282  0.943759  1
  Al  Al16  1  0.339686  0.551172  0.249836  1
  Al  Al17  1  0.660314  0.448828  0.750164  1
  Al  Al18  1  0.548875  0.341479  0.250210  1
  Al  Al19  1  0.451125  0.658521  0.749790  1
  Si  Si20  1  0.001914  0.328622  0.078912  1
  Si  Si21  1  0.998086  0.671378  0.921088  1
  Rh  Rh22  1  0.690132  0.336929  0.001449  1
  Rh  Rh23  1  0.309868  0.663071  0.998551  1
  Rh  Rh24  1  0.326670  0.671674  0.500372  1
  Rh  Rh25  1  0.673330  0.328326  0.499628  1
  Rh  Rh26  1  0.000000  0.000000  0.000000  1
  Rh  Rh27  1  0.000000  0.000000  0.500000  1
