# generated using pymatgen
data_Pr5Dy5Pb6
_symmetry_space_group_name_H-M   'P 1'
_cell_length_a   9.29658600
_cell_length_b   9.25981958
_cell_length_c   6.78446400
_cell_angle_alpha   89.99993841
_cell_angle_beta   89.99983543
_cell_angle_gamma   120.13099138
_symmetry_Int_Tables_number   1
_chemical_formula_structural   Pr5Dy5Pb6
_chemical_formula_sum   'Pr5 Dy5 Pb6'
_cell_volume   505.12332795
_cell_formula_units_Z   1
loop_
 _symmetry_equiv_pos_site_id
 _symmetry_equiv_pos_as_xyz
  1  'x, y, z'
loop_
 _atom_site_type_symbol
 _atom_site_label
 _atom_site_symmetry_multiplicity
 _atom_site_fract_x
 _atom_site_fract_y
 _atom_site_fract_z
 _atom_site_occupancy
  Pr  Pr0  1  0.000254  0.239625  0.249995  1
  Pr  Pr1  1  0.760635  0.760373  0.249996  1
  Pr  Pr2  1  0.758066  0.000016  0.749995  1
  Pr  Pr3  1  0.000956  0.761094  0.750006  1
  Pr  Pr4  1  0.239859  0.238907  0.749998  1
  Dy  Dy5  1  0.666243  0.333088  0.000415  1
  Dy  Dy6  1  0.333169  0.666882  0.000414  1
  Dy  Dy7  1  0.241642  0.999992  0.249995  1
  Dy  Dy8  1  0.666278  0.333121  0.499598  1
  Dy  Dy9  1  0.333201  0.666915  0.499598  1
  Pb  Pb10  1  0.396554  0.393662  0.249999  1
  Pb  Pb11  1  0.599139  0.000001  0.249999  1
  Pb  Pb12  1  0.002880  0.606302  0.250000  1
  Pb  Pb13  1  0.602178  0.601703  0.749998  1
  Pb  Pb14  1  0.398464  0.000001  0.749999  1
  Pb  Pb15  1  0.000482  0.398318  0.749998  1
