# generated using pymatgen
data_Li4La4AsPt3
_symmetry_space_group_name_H-M   'P 1'
_cell_length_a   4.18611400
_cell_length_b   7.44961508
_cell_length_c   8.54649218
_cell_angle_alpha   92.23525849
_cell_angle_beta   90.00000000
_cell_angle_gamma   90.00000000
_symmetry_Int_Tables_number   1
_chemical_formula_structural   Li4La4AsPt3
_chemical_formula_sum   'Li4 La4 As1 Pt3'
_cell_volume   266.31903344
_cell_formula_units_Z   1
loop_
 _symmetry_equiv_pos_site_id
 _symmetry_equiv_pos_as_xyz
  1  'x, y, z'
loop_
 _atom_site_type_symbol
 _atom_site_label
 _atom_site_symmetry_multiplicity
 _atom_site_fract_x
 _atom_site_fract_y
 _atom_site_fract_z
 _atom_site_occupancy
  Li  Li0  1  0.250000  0.140923  0.948516  1
  Li  Li1  1  0.250000  0.631409  0.556740  1
  Li  Li2  1  0.750000  0.870534  0.062981  1
  Li  Li3  1  0.750000  0.361086  0.432711  1
  La  La4  1  0.250000  0.029396  0.318990  1
  La  La5  1  0.250000  0.546149  0.183351  1
  La  La6  1  0.750000  0.965013  0.701284  1
  La  La7  1  0.750000  0.467610  0.797991  1
  As  As8  1  0.750000  0.237528  0.110491  1
  Pt  Pt9  1  0.250000  0.248614  0.618999  1
  Pt  Pt10  1  0.250000  0.753330  0.883636  1
  Pt  Pt11  1  0.750000  0.748408  0.384313  1
