# generated using pymatgen
data_Zr10BeIn6P
_symmetry_space_group_name_H-M   'P 1'
_cell_length_a   8.75717800
_cell_length_b   8.75717747
_cell_length_c   5.78375400
_cell_angle_alpha   90.00000000
_cell_angle_beta   90.00000000
_cell_angle_gamma   120.00000201
_symmetry_Int_Tables_number   1
_chemical_formula_structural   Zr10BeIn6P
_chemical_formula_sum   'Zr10 Be1 In6 P1'
_cell_volume   384.12163090
_cell_formula_units_Z   1
loop_
 _symmetry_equiv_pos_site_id
 _symmetry_equiv_pos_as_xyz
  1  'x, y, z'
loop_
 _atom_site_type_symbol
 _atom_site_label
 _atom_site_symmetry_multiplicity
 _atom_site_fract_x
 _atom_site_fract_y
 _atom_site_fract_z
 _atom_site_occupancy
  Zr  Zr0  1  0.753900  0.753900  0.246416  1
  Zr  Zr1  1  0.246100  0.000000  0.246416  1
  Zr  Zr2  1  0.000000  0.246100  0.246416  1
  Zr  Zr3  1  0.246100  0.246100  0.753584  1
  Zr  Zr4  1  0.753900  0.000000  0.753584  1
  Zr  Zr5  1  0.000000  0.753900  0.753584  1
  Zr  Zr6  1  0.666667  0.333333  0.500000  1
  Zr  Zr7  1  0.333333  0.666667  0.500000  1
  Zr  Zr8  1  0.333333  0.666667  0.000000  1
  Zr  Zr9  1  0.666667  0.333333  0.000000  1
  Be  Be10  1  0.000000  0.000000  0.000000  1
  In  In11  1  0.391199  0.391199  0.248769  1
  In  In12  1  0.608801  0.000000  0.248769  1
  In  In13  1  0.000000  0.608801  0.248769  1
  In  In14  1  0.608801  0.608801  0.751231  1
  In  In15  1  0.391199  0.000000  0.751231  1
  In  In16  1  0.000000  0.391199  0.751231  1
  P  P17  1  0.000000  0.000000  0.500000  1
