# generated using pymatgen
data_Cs3ScBi2
_symmetry_space_group_name_H-M   'P 1'
_cell_length_a   10.49225716
_cell_length_b   10.49225708
_cell_length_c   10.49225804
_cell_angle_alpha   126.16744199
_cell_angle_beta   71.62985302
_cell_angle_gamma   136.46948011
_symmetry_Int_Tables_number   1
_chemical_formula_structural   Cs3ScBi2
_chemical_formula_sum   'Cs6 Sc2 Bi4'
_cell_volume   628.90436245
_cell_formula_units_Z   2
loop_
 _symmetry_equiv_pos_site_id
 _symmetry_equiv_pos_as_xyz
  1  'x, y, z'
loop_
 _atom_site_type_symbol
 _atom_site_label
 _atom_site_symmetry_multiplicity
 _atom_site_fract_x
 _atom_site_fract_y
 _atom_site_fract_z
 _atom_site_occupancy
  Cs  Cs0  1  0.817010  0.193503  0.010513  1
  Cs  Cs1  1  0.682991  0.693504  0.376495  1
  Cs  Cs2  1  0.749999  0.249999  0.500000  1
  Cs  Cs3  1  0.249999  0.750000  0.500001  1
  Cs  Cs4  1  0.317010  0.306497  0.623506  1
  Cs  Cs5  1  0.182990  0.806496  0.989487  1
  Sc  Sc6  1  0.249999  0.249999  0.000000  1
  Sc  Sc7  1  0.750000  0.750000  0.000000  1
  Bi  Bi8  1  0.411822  0.680856  0.092678  1
  Bi  Bi9  1  0.088178  0.180856  0.269035  1
  Bi  Bi10  1  0.911822  0.819145  0.730965  1
  Bi  Bi11  1  0.588178  0.319145  0.907323  1
