# generated using pymatgen
data_TlIr2Pd2Pb3O14
_symmetry_space_group_name_H-M   'P 1'
_cell_length_a   7.32272936
_cell_length_b   7.36039555
_cell_length_c   7.38825103
_cell_angle_alpha   60.12465279
_cell_angle_beta   59.75310120
_cell_angle_gamma   59.82970687
_symmetry_Int_Tables_number   1
_chemical_formula_structural   TlIr2Pd2Pb3O14
_chemical_formula_sum   'Tl1 Ir2 Pd2 Pb3 O14'
_cell_volume   280.94980333
_cell_formula_units_Z   1
loop_
 _symmetry_equiv_pos_site_id
 _symmetry_equiv_pos_as_xyz
  1  'x, y, z'
loop_
 _atom_site_type_symbol
 _atom_site_label
 _atom_site_symmetry_multiplicity
 _atom_site_fract_x
 _atom_site_fract_y
 _atom_site_fract_z
 _atom_site_occupancy
  Tl  Tl0  1  0.625000  0.125000  0.125000  1
  Ir  Ir1  1  0.125000  0.625000  0.625000  1
  Ir  Ir2  1  0.625000  0.625000  0.125000  1
  Pd  Pd3  1  0.625000  0.125000  0.625000  1
  Pd  Pd4  1  0.625000  0.625000  0.625000  1
  Pb  Pb5  1  0.125000  0.625000  0.125000  1
  Pb  Pb6  1  0.125000  0.125000  0.625000  1
  Pb  Pb7  1  0.125000  0.125000  0.125000  1
  O  O8  1  0.707272  0.705239  0.288522  1
  O  O9  1  0.287617  0.299774  0.707367  1
  O  O10  1  0.708379  0.291379  0.708863  1
  O  O11  1  0.295936  0.703695  0.296674  1
  O  O12  1  0.287617  0.705243  0.707367  1
  O  O13  1  0.707272  0.298967  0.288522  1
  O  O14  1  0.542728  0.544761  0.961478  1
  O  O15  1  0.962383  0.950226  0.542633  1
  O  O16  1  0.541621  0.958621  0.541137  1
  O  O17  1  0.954064  0.546305  0.953326  1
  O  O18  1  0.962383  0.544757  0.542633  1
  O  O19  1  0.542728  0.951033  0.961478  1
  O  O20  1  0.255059  0.245639  0.253662  1
  O  O21  1  0.994941  0.004361  0.996338  1
