# generated using pymatgen
data_Er4AlNiOs6
_symmetry_space_group_name_H-M   'P 1'
_cell_length_a   5.33924807
_cell_length_b   5.33924790
_cell_length_c   8.57819526
_cell_angle_alpha   89.72776358
_cell_angle_beta   90.27223936
_cell_angle_gamma   120.33685936
_symmetry_Int_Tables_number   1
_chemical_formula_structural   Er4AlNiOs6
_chemical_formula_sum   'Er4 Al1 Ni1 Os6'
_cell_volume   211.05518301
_cell_formula_units_Z   1
loop_
 _symmetry_equiv_pos_site_id
 _symmetry_equiv_pos_as_xyz
  1  'x, y, z'
loop_
 _atom_site_type_symbol
 _atom_site_label
 _atom_site_symmetry_multiplicity
 _atom_site_fract_x
 _atom_site_fract_y
 _atom_site_fract_z
 _atom_site_occupancy
  Er  Er0  1  0.330764  0.669236  0.428113  1
  Er  Er1  1  0.662738  0.337262  0.568704  1
  Er  Er2  1  0.668154  0.331846  0.939998  1
  Er  Er3  1  0.335977  0.664023  0.065457  1
  Al  Al4  1  0.001830  0.998170  0.497176  1
  Ni  Ni5  1  0.831341  0.168659  0.251729  1
  Os  Os6  1  0.002699  0.997301  0.999945  1
  Os  Os7  1  0.823301  0.656564  0.250657  1
  Os  Os8  1  0.343436  0.176699  0.250657  1
  Os  Os9  1  0.173887  0.826113  0.751708  1
  Os  Os10  1  0.168043  0.342170  0.747928  1
  Os  Os11  1  0.657830  0.831957  0.747928  1
