# generated using pymatgen
data_YbTlMoH9
_symmetry_space_group_name_H-M   'P 1'
_cell_length_a   8.75058100
_cell_length_b   8.75058087
_cell_length_c   5.39197600
_cell_angle_alpha   90.00000000
_cell_angle_beta   90.00000000
_cell_angle_gamma   120.00000429
_symmetry_Int_Tables_number   1
_chemical_formula_structural   YbTlMoH9
_chemical_formula_sum   'Yb3 Tl3 Mo3 H27'
_cell_volume   357.56280467
_cell_formula_units_Z   3
loop_
 _symmetry_equiv_pos_site_id
 _symmetry_equiv_pos_as_xyz
  1  'x, y, z'
loop_
 _atom_site_type_symbol
 _atom_site_label
 _atom_site_symmetry_multiplicity
 _atom_site_fract_x
 _atom_site_fract_y
 _atom_site_fract_z
 _atom_site_occupancy
  Yb  Yb0  1  0.000000  0.273910  0.500000  1
  Yb  Yb1  1  0.726090  0.726090  0.500000  1
  Yb  Yb2  1  0.273910  0.000000  0.500000  1
  Tl  Tl3  1  0.000000  0.585881  0.000000  1
  Tl  Tl4  1  0.414119  0.414119  0.000000  1
  Tl  Tl5  1  0.585881  0.000000  0.000000  1
  Mo  Mo6  1  0.666667  0.333333  0.500000  1
  Mo  Mo7  1  0.333333  0.666667  0.500000  1
  Mo  Mo8  1  0.000000  0.000000  0.000000  1
  H  H9  1  0.792448  0.303245  0.730987  1
  H  H10  1  0.696755  0.489202  0.730987  1
  H  H11  1  0.510798  0.207552  0.730987  1
  H  H12  1  0.207552  0.510798  0.269013  1
  H  H13  1  0.510798  0.207552  0.269013  1
  H  H14  1  0.792448  0.303245  0.269013  1
  H  H15  1  0.696755  0.489202  0.269013  1
  H  H16  1  0.303245  0.792448  0.730987  1
  H  H17  1  0.489202  0.696755  0.730987  1
  H  H18  1  0.198557  0.000000  0.000000  1
  H  H19  1  0.801443  0.801443  0.000000  1
  H  H20  1  0.000000  0.198557  0.000000  1
  H  H21  1  0.861066  0.000000  0.241336  1
  H  H22  1  0.138934  0.138934  0.758664  1
  H  H23  1  0.000000  0.861066  0.758664  1
  H  H24  1  0.000000  0.861066  0.241336  1
  H  H25  1  0.138934  0.138934  0.241336  1
  H  H26  1  0.861066  0.000000  0.758664  1
  H  H27  1  0.119438  0.627923  0.500000  1
  H  H28  1  0.508484  0.880562  0.500000  1
  H  H29  1  0.372077  0.491516  0.500000  1
  H  H30  1  0.491516  0.372077  0.500000  1
  H  H31  1  0.880562  0.508484  0.500000  1
  H  H32  1  0.627923  0.119438  0.500000  1
  H  H33  1  0.207552  0.510798  0.730987  1
  H  H34  1  0.303245  0.792448  0.269013  1
  H  H35  1  0.489202  0.696755  0.269013  1
