# generated using pymatgen
data_V3(Te2Se)2
_symmetry_space_group_name_H-M   'P 1'
_cell_length_a   7.50356623
_cell_length_b   7.50356626
_cell_length_c   9.30609051
_cell_angle_alpha   67.17183984
_cell_angle_beta   67.17184077
_cell_angle_gamma   26.86382551
_symmetry_Int_Tables_number   1
_chemical_formula_structural   V3(Te2Se)2
_chemical_formula_sum   'V3 Te4 Se2'
_cell_volume   217.11443347
_cell_formula_units_Z   1
loop_
 _symmetry_equiv_pos_site_id
 _symmetry_equiv_pos_as_xyz
  1  'x, y, z'
loop_
 _atom_site_type_symbol
 _atom_site_label
 _atom_site_symmetry_multiplicity
 _atom_site_fract_x
 _atom_site_fract_y
 _atom_site_fract_z
 _atom_site_occupancy
  V  V0  1  0.000000  0.000000  0.000000  1
  V  V1  1  0.366932  0.366932  0.284327  1
  V  V2  1  0.633068  0.633068  0.715673  1
  Te  Te3  1  0.709339  0.709339  0.386101  1
  Te  Te4  1  0.290661  0.290661  0.613899  1
  Te  Te5  1  0.000989  0.000989  0.703930  1
  Te  Te6  1  0.999011  0.999011  0.296070  1
  Se  Se7  1  0.365457  0.365457  0.031854  1
  Se  Se8  1  0.634543  0.634543  0.968146  1
