# generated using pymatgen
data_Mg4Zn(BRh2)4
_symmetry_space_group_name_H-M   'P 1'
_cell_length_a   9.57357055
_cell_length_b   9.57357110
_cell_length_c   2.92997300
_cell_angle_alpha   90.00000000
_cell_angle_beta   90.00000000
_cell_angle_gamma   126.16440377
_symmetry_Int_Tables_number   1
_chemical_formula_structural   Mg4Zn(BRh2)4
_chemical_formula_sum   'Mg4 Zn1 B4 Rh8'
_cell_volume   216.80088421
_cell_formula_units_Z   1
loop_
 _symmetry_equiv_pos_site_id
 _symmetry_equiv_pos_as_xyz
  1  'x, y, z'
loop_
 _atom_site_type_symbol
 _atom_site_label
 _atom_site_symmetry_multiplicity
 _atom_site_fract_x
 _atom_site_fract_y
 _atom_site_fract_z
 _atom_site_occupancy
  Mg  Mg0  1  0.205442  0.794558  0.500000  1
  Mg  Mg1  1  0.794558  0.205442  0.500000  1
  Mg  Mg2  1  0.345094  0.345094  0.500000  1
  Mg  Mg3  1  0.654906  0.654906  0.500000  1
  Zn  Zn4  1  0.000000  0.000000  0.500000  1
  B  B5  1  0.462161  0.152985  0.500000  1
  B  B6  1  0.152985  0.462161  0.500000  1
  B  B7  1  0.537839  0.847015  0.500000  1
  B  B8  1  0.847015  0.537839  0.500000  1
  Rh  Rh9  1  0.630679  0.369321  0.000000  1
  Rh  Rh10  1  0.369321  0.630679  0.000000  1
  Rh  Rh11  1  0.923932  0.734187  0.000000  1
  Rh  Rh12  1  0.076068  0.265813  0.000000  1
  Rh  Rh13  1  0.500000  0.000000  0.000000  1
  Rh  Rh14  1  0.265813  0.076068  0.000000  1
  Rh  Rh15  1  0.734187  0.923932  0.000000  1
  Rh  Rh16  1  0.000000  0.500000  0.000000  1
