# generated using pymatgen
data_Nd2Eu14Cd4NiPt3
_symmetry_space_group_name_H-M   'P 1'
_cell_length_a   10.23692640
_cell_length_b   10.23692656
_cell_length_c   10.23165461
_cell_angle_alpha   60.44658200
_cell_angle_beta   60.44658234
_cell_angle_gamma   60.40977233
_symmetry_Int_Tables_number   1
_chemical_formula_structural   Nd2Eu14Cd4NiPt3
_chemical_formula_sum   'Nd2 Eu14 Cd4 Ni1 Pt3'
_cell_volume   765.62080213
_cell_formula_units_Z   1
loop_
 _symmetry_equiv_pos_site_id
 _symmetry_equiv_pos_as_xyz
  1  'x, y, z'
loop_
 _atom_site_type_symbol
 _atom_site_label
 _atom_site_symmetry_multiplicity
 _atom_site_fract_x
 _atom_site_fract_y
 _atom_site_fract_z
 _atom_site_occupancy
  Nd  Nd0  1  0.562006  0.562006  0.939744  1
  Nd  Nd1  1  0.935044  0.935044  0.564878  1
  Eu  Eu2  1  0.349589  0.349589  0.349424  1
  Eu  Eu3  1  0.347020  0.347020  0.951247  1
  Eu  Eu4  1  0.346826  0.951227  0.347026  1
  Eu  Eu5  1  0.951227  0.346826  0.347026  1
  Eu  Eu6  1  0.814111  0.191386  0.191379  1
  Eu  Eu7  1  0.192599  0.808452  0.808473  1
  Eu  Eu8  1  0.191386  0.814111  0.191379  1
  Eu  Eu9  1  0.808452  0.192599  0.808473  1
  Eu  Eu10  1  0.191433  0.191433  0.814071  1
  Eu  Eu11  1  0.808426  0.808426  0.192629  1
  Eu  Eu12  1  0.939514  0.562203  0.562229  1
  Eu  Eu13  1  0.565145  0.934770  0.934762  1
  Eu  Eu14  1  0.562203  0.939514  0.562229  1
  Eu  Eu15  1  0.934770  0.565145  0.934762  1
  Cd  Cd16  1  0.579915  0.579915  0.580311  1
  Cd  Cd17  1  0.580895  0.580895  0.258258  1
  Cd  Cd18  1  0.581253  0.258277  0.580912  1
  Cd  Cd19  1  0.258277  0.581253  0.580912  1
  Ni  Ni20  1  0.142360  0.142360  0.142836  1
  Pt  Pt21  1  0.142385  0.142385  0.572291  1
  Pt  Pt22  1  0.142939  0.572228  0.142377  1
  Pt  Pt23  1  0.572228  0.142939  0.142377  1
