# generated using pymatgen
data_Sr3Ca3(C3Cl2)2
_symmetry_space_group_name_H-M   'P 1'
_cell_length_a   7.29353134
_cell_length_b   7.29353179
_cell_length_c   11.66322799
_cell_angle_alpha   89.00188496
_cell_angle_beta   90.99811469
_cell_angle_gamma   148.09686249
_symmetry_Int_Tables_number   1
_chemical_formula_structural   Sr3Ca3(C3Cl2)2
_chemical_formula_sum   'Sr3 Ca3 C6 Cl4'
_cell_volume   327.83531334
_cell_formula_units_Z   1
loop_
 _symmetry_equiv_pos_site_id
 _symmetry_equiv_pos_as_xyz
  1  'x, y, z'
loop_
 _atom_site_type_symbol
 _atom_site_label
 _atom_site_symmetry_multiplicity
 _atom_site_fract_x
 _atom_site_fract_y
 _atom_site_fract_z
 _atom_site_occupancy
  Sr  Sr0  1  0.655032  0.344968  0.561371  1
  Sr  Sr1  1  0.116517  0.883483  0.240127  1
  Sr  Sr2  1  0.884149  0.115851  0.755508  1
  Ca  Ca3  1  0.340357  0.659643  0.438629  1
  Ca  Ca4  1  0.339976  0.660024  0.060485  1
  Ca  Ca5  1  0.662035  0.337965  0.938972  1
  C  C6  1  0.271089  0.728911  0.636843  1
  C  C7  1  0.737514  0.262486  0.359412  1
  C  C8  1  0.736092  0.263908  0.131235  1
  C  C9  1  0.263927  0.736073  0.864976  1
  C  C10  1  0.745383  0.254617  0.245616  1
  C  C11  1  0.258201  0.741799  0.750054  1
  Cl  Cl12  1  0.534231  0.465769  0.758773  1
  Cl  Cl13  1  0.462771  0.537229  0.251732  1
  Cl  Cl14  1  0.000140  0.999860  0.003973  1
  Cl  Cl15  1  0.992584  0.007416  0.502295  1
