# generated using pymatgen
data_Rb3FeO4
_symmetry_space_group_name_H-M   'P 1'
_cell_length_a   6.28521000
_cell_length_b   8.89868800
_cell_length_c   12.03037300
_cell_angle_alpha   90.00000000
_cell_angle_beta   90.00000000
_cell_angle_gamma   90.00000000
_symmetry_Int_Tables_number   1
_chemical_formula_structural   Rb3FeO4
_chemical_formula_sum   'Rb12 Fe4 O16'
_cell_volume   672.86023927
_cell_formula_units_Z   4
loop_
 _symmetry_equiv_pos_site_id
 _symmetry_equiv_pos_as_xyz
  1  'x, y, z'
loop_
 _atom_site_type_symbol
 _atom_site_label
 _atom_site_symmetry_multiplicity
 _atom_site_fract_x
 _atom_site_fract_y
 _atom_site_fract_z
 _atom_site_occupancy
  Rb  Rb0  1  0.690511  0.008071  0.144534  1
  Rb  Rb1  1  0.809489  0.491929  0.644534  1
  Rb  Rb2  1  0.309489  0.508071  0.855466  1
  Rb  Rb3  1  0.190511  0.991929  0.355466  1
  Rb  Rb4  1  0.309489  0.991929  0.855466  1
  Rb  Rb5  1  0.190511  0.508071  0.355466  1
  Rb  Rb6  1  0.690511  0.491929  0.144534  1
  Rb  Rb7  1  0.809489  0.008071  0.644534  1
  Rb  Rb8  1  0.140591  0.250000  0.071348  1
  Rb  Rb9  1  0.359409  0.250000  0.571348  1
  Rb  Rb10  1  0.859409  0.750000  0.928652  1
  Rb  Rb11  1  0.640591  0.750000  0.428652  1
  Fe  Fe12  1  0.274040  0.750000  0.114420  1
  Fe  Fe13  1  0.225960  0.750000  0.614420  1
  Fe  Fe14  1  0.725960  0.250000  0.885580  1
  Fe  Fe15  1  0.774040  0.250000  0.385580  1
  O  O16  1  0.426886  0.750000  0.234006  1
  O  O17  1  0.073114  0.750000  0.734006  1
  O  O18  1  0.573114  0.250000  0.765994  1
  O  O19  1  0.926886  0.250000  0.265994  1
  O  O20  1  0.442884  0.750000  0.000315  1
  O  O21  1  0.057116  0.750000  0.500315  1
  O  O22  1  0.557116  0.250000  0.999685  1
  O  O23  1  0.942884  0.250000  0.499685  1
  O  O24  1  0.139596  0.576387  0.111870  1
  O  O25  1  0.360404  0.923613  0.611870  1
  O  O26  1  0.860404  0.076387  0.888130  1
  O  O27  1  0.639596  0.423613  0.388130  1
  O  O28  1  0.860404  0.423613  0.888130  1
  O  O29  1  0.639596  0.076387  0.388130  1
  O  O30  1  0.139596  0.923613  0.111870  1
  O  O31  1  0.360404  0.576387  0.611870  1
