# generated using pymatgen
data_Tb13Er2Lu(InRh)4
_symmetry_space_group_name_H-M   'P 1'
_cell_length_a   9.68734065
_cell_length_b   9.68213388
_cell_length_c   9.67722100
_cell_angle_alpha   60.00171471
_cell_angle_beta   59.96776868
_cell_angle_gamma   59.84739867
_symmetry_Int_Tables_number   1
_chemical_formula_structural   Tb13Er2Lu(InRh)4
_chemical_formula_sum   'Tb13 Er2 Lu1 In4 Rh4'
_cell_volume   640.92601815
_cell_formula_units_Z   1
loop_
 _symmetry_equiv_pos_site_id
 _symmetry_equiv_pos_as_xyz
  1  'x, y, z'
loop_
 _atom_site_type_symbol
 _atom_site_label
 _atom_site_symmetry_multiplicity
 _atom_site_fract_x
 _atom_site_fract_y
 _atom_site_fract_z
 _atom_site_occupancy
  Tb  Tb0  1  0.648892  0.051380  0.649534  1
  Tb  Tb1  1  0.060963  0.061615  0.439170  1
  Tb  Tb2  1  0.437049  0.435908  0.062715  1
  Tb  Tb3  1  0.651031  0.650438  0.651286  1
  Tb  Tb4  1  0.813178  0.187408  0.186638  1
  Tb  Tb5  1  0.186542  0.813988  0.812337  1
  Tb  Tb6  1  0.050695  0.648659  0.650101  1
  Tb  Tb7  1  0.438470  0.061826  0.060355  1
  Tb  Tb8  1  0.436677  0.062543  0.437953  1
  Tb  Tb9  1  0.062159  0.437112  0.061466  1
  Tb  Tb10  1  0.650086  0.649334  0.049908  1
  Tb  Tb11  1  0.187742  0.813063  0.187363  1
  Tb  Tb12  1  0.062120  0.436045  0.438642  1
  Er  Er13  1  0.811461  0.812363  0.187680  1
  Er  Er14  1  0.813089  0.187122  0.812452  1
  Lu  Lu15  1  0.187797  0.188166  0.811656  1
  In  In16  1  0.416861  0.416874  0.416876  1
  In  In17  1  0.417910  0.417664  0.748341  1
  In  In18  1  0.417863  0.748466  0.417788  1
  In  In19  1  0.748315  0.417971  0.418014  1
  Rh  Rh20  1  0.861333  0.424702  0.856860  1
  Rh  Rh21  1  0.856165  0.858382  0.858458  1
  Rh  Rh22  1  0.857704  0.857414  0.427011  1
  Rh  Rh23  1  0.425899  0.861560  0.857397  1
