# generated using pymatgen
data_NaMg2H7Os
_symmetry_space_group_name_H-M   'P 1'
_cell_length_a   4.68730600
_cell_length_b   4.68730644
_cell_length_c   11.78192000
_cell_angle_alpha   90.00000000
_cell_angle_beta   90.00000000
_cell_angle_gamma   120.00001102
_symmetry_Int_Tables_number   1
_chemical_formula_structural   NaMg2H7Os
_chemical_formula_sum   'Na2 Mg4 H14 Os2'
_cell_volume   224.17816313
_cell_formula_units_Z   2
loop_
 _symmetry_equiv_pos_site_id
 _symmetry_equiv_pos_as_xyz
  1  'x, y, z'
loop_
 _atom_site_type_symbol
 _atom_site_label
 _atom_site_symmetry_multiplicity
 _atom_site_fract_x
 _atom_site_fract_y
 _atom_site_fract_z
 _atom_site_occupancy
  Na  Na0  1  0.000000  0.000000  0.250000  1
  Na  Na1  1  0.000000  0.000000  0.750000  1
  Mg  Mg2  1  0.333333  0.666667  0.074010  1
  Mg  Mg3  1  0.666667  0.333333  0.925990  1
  Mg  Mg4  1  0.666667  0.333333  0.574010  1
  Mg  Mg5  1  0.333333  0.666667  0.425990  1
  H  H6  1  0.333333  0.666667  0.250000  1
  H  H7  1  0.666667  0.333333  0.750000  1
  H  H8  1  0.167538  0.335076  0.587428  1
  H  H9  1  0.832462  0.664924  0.412572  1
  H  H10  1  0.664924  0.832462  0.587428  1
  H  H11  1  0.832462  0.664924  0.087428  1
  H  H12  1  0.335076  0.167538  0.412572  1
  H  H13  1  0.167538  0.335076  0.912572  1
  H  H14  1  0.167538  0.832462  0.587428  1
  H  H15  1  0.335076  0.167538  0.087428  1
  H  H16  1  0.832462  0.167538  0.412572  1
  H  H17  1  0.664924  0.832462  0.912572  1
  H  H18  1  0.832462  0.167538  0.087428  1
  H  H19  1  0.167538  0.832462  0.912572  1
  Os  Os20  1  0.000000  0.000000  0.000000  1
  Os  Os21  1  0.000000  0.000000  0.500000  1
