# generated using pymatgen
data_NaGd8Cd3Au8
_symmetry_space_group_name_H-M   'P 1'
_cell_length_a   8.21491500
_cell_length_b   8.21491500
_cell_length_c   7.59427500
_cell_angle_alpha   90.00000000
_cell_angle_beta   90.00000000
_cell_angle_gamma   90.00000000
_symmetry_Int_Tables_number   1
_chemical_formula_structural   NaGd8Cd3Au8
_chemical_formula_sum   'Na1 Gd8 Cd3 Au8'
_cell_volume   512.49834563
_cell_formula_units_Z   1
loop_
 _symmetry_equiv_pos_site_id
 _symmetry_equiv_pos_as_xyz
  1  'x, y, z'
loop_
 _atom_site_type_symbol
 _atom_site_label
 _atom_site_symmetry_multiplicity
 _atom_site_fract_x
 _atom_site_fract_y
 _atom_site_fract_z
 _atom_site_occupancy
  Na  Na0  1  0.000000  0.500000  0.250000  1
  Gd  Gd1  1  0.820938  0.147142  0.503672  1
  Gd  Gd2  1  0.179062  0.852858  0.503672  1
  Gd  Gd3  1  0.352858  0.320938  0.996328  1
  Gd  Gd4  1  0.647142  0.679062  0.996328  1
  Gd  Gd5  1  0.653067  0.684532  0.503018  1
  Gd  Gd6  1  0.346933  0.315468  0.503018  1
  Gd  Gd7  1  0.184532  0.846933  0.996982  1
  Gd  Gd8  1  0.815468  0.153067  0.996982  1
  Cd  Cd9  1  0.500000  0.000000  0.250000  1
  Cd  Cd10  1  0.000000  0.500000  0.750000  1
  Cd  Cd11  1  0.500000  0.000000  0.750000  1
  Au  Au12  1  0.636051  0.374613  0.256529  1
  Au  Au13  1  0.363949  0.625387  0.256529  1
  Au  Au14  1  0.121560  0.139918  0.756527  1
  Au  Au15  1  0.878440  0.860082  0.756527  1
  Au  Au16  1  0.360082  0.621560  0.743473  1
  Au  Au17  1  0.639918  0.378440  0.743473  1
  Au  Au18  1  0.874613  0.863949  0.243471  1
  Au  Au19  1  0.125387  0.136051  0.243471  1
