# generated using pymatgen
data_Dy8Tm2IrPt5
_symmetry_space_group_name_H-M   'P 1'
_cell_length_a   11.01192900
_cell_length_b   11.01192900
_cell_length_c   6.40744300
_cell_angle_alpha   90.00000000
_cell_angle_beta   90.00000000
_cell_angle_gamma   90.00000000
_symmetry_Int_Tables_number   1
_chemical_formula_structural   Dy8Tm2IrPt5
_chemical_formula_sum   'Dy16 Tm4 Ir2 Pt10'
_cell_volume   776.98307131
_cell_formula_units_Z   2
loop_
 _symmetry_equiv_pos_site_id
 _symmetry_equiv_pos_as_xyz
  1  'x, y, z'
loop_
 _atom_site_type_symbol
 _atom_site_label
 _atom_site_symmetry_multiplicity
 _atom_site_fract_x
 _atom_site_fract_y
 _atom_site_fract_z
 _atom_site_occupancy
  Dy  Dy0  1  0.291262  0.087744  0.377085  1
  Dy  Dy1  1  0.291262  0.912256  0.877085  1
  Dy  Dy2  1  0.708738  0.087744  0.877085  1
  Dy  Dy3  1  0.708738  0.912256  0.377085  1
  Dy  Dy4  1  0.587744  0.791262  0.877085  1
  Dy  Dy5  1  0.587744  0.208738  0.377085  1
  Dy  Dy6  1  0.412256  0.791262  0.377085  1
  Dy  Dy7  1  0.412256  0.208738  0.877085  1
  Dy  Dy8  1  0.206650  0.413180  0.623388  1
  Dy  Dy9  1  0.206650  0.586820  0.123388  1
  Dy  Dy10  1  0.793350  0.413180  0.123388  1
  Dy  Dy11  1  0.793350  0.586820  0.623388  1
  Dy  Dy12  1  0.913180  0.706650  0.123388  1
  Dy  Dy13  1  0.913180  0.293350  0.623388  1
  Dy  Dy14  1  0.086820  0.706650  0.623388  1
  Dy  Dy15  1  0.086820  0.293350  0.123388  1
  Tm  Tm16  1  0.000000  0.000000  0.500105  1
  Tm  Tm17  1  0.000000  0.000000  0.000105  1
  Tm  Tm18  1  0.500000  0.500000  0.000105  1
  Tm  Tm19  1  0.500000  0.500000  0.500105  1
  Ir  Ir20  1  0.000000  0.500000  0.879055  1
  Ir  Ir21  1  0.000000  0.500000  0.379055  1
  Pt  Pt22  1  0.847461  0.151532  0.249914  1
  Pt  Pt23  1  0.847461  0.848468  0.749914  1
  Pt  Pt24  1  0.152539  0.151532  0.749914  1
  Pt  Pt25  1  0.152539  0.848468  0.249914  1
  Pt  Pt26  1  0.651532  0.347461  0.749914  1
  Pt  Pt27  1  0.651532  0.652539  0.249914  1
  Pt  Pt28  1  0.348468  0.347461  0.249914  1
  Pt  Pt29  1  0.348468  0.652539  0.749914  1
  Pt  Pt30  1  0.500000  0.000000  0.119189  1
  Pt  Pt31  1  0.500000  0.000000  0.619189  1
