# generated using pymatgen
data_Pr3InAg3Ge2
_symmetry_space_group_name_H-M   'P 1'
_cell_length_a   7.58859700
_cell_length_b   7.58859644
_cell_length_c   4.33535700
_cell_angle_alpha   90.00000000
_cell_angle_beta   90.00000000
_cell_angle_gamma   119.99998937
_symmetry_Int_Tables_number   1
_chemical_formula_structural   Pr3InAg3Ge2
_chemical_formula_sum   'Pr3 In1 Ag3 Ge2'
_cell_volume   216.21135152
_cell_formula_units_Z   1
loop_
 _symmetry_equiv_pos_site_id
 _symmetry_equiv_pos_as_xyz
  1  'x, y, z'
loop_
 _atom_site_type_symbol
 _atom_site_label
 _atom_site_symmetry_multiplicity
 _atom_site_fract_x
 _atom_site_fract_y
 _atom_site_fract_z
 _atom_site_occupancy
  Pr  Pr0  1  0.000000  0.428144  0.500000  1
  Pr  Pr1  1  0.571856  0.571856  0.500000  1
  Pr  Pr2  1  0.428144  0.000000  0.500000  1
  In  In3  1  0.000000  0.000000  0.500000  1
  Ag  Ag4  1  0.000000  0.742253  0.000000  1
  Ag  Ag5  1  0.257747  0.257747  0.000000  1
  Ag  Ag6  1  0.742253  0.000000  0.000000  1
  Ge  Ge7  1  0.333333  0.666667  0.000000  1
  Ge  Ge8  1  0.666667  0.333333  0.000000  1
