# generated using pymatgen
data_HoEr5Ti2(Al11Ru4)2
_symmetry_space_group_name_H-M   'P 1'
_cell_length_a   8.83833200
_cell_length_b   8.83679051
_cell_length_c   9.51752700
_cell_angle_alpha   89.99584080
_cell_angle_beta   90.00000000
_cell_angle_gamma   120.00577062
_symmetry_Int_Tables_number   1
_chemical_formula_structural   HoEr5Ti2(Al11Ru4)2
_chemical_formula_sum   'Ho1 Er5 Ti2 Al22 Ru8'
_cell_volume   643.71608551
_cell_formula_units_Z   1
loop_
 _symmetry_equiv_pos_site_id
 _symmetry_equiv_pos_as_xyz
  1  'x, y, z'
loop_
 _atom_site_type_symbol
 _atom_site_label
 _atom_site_symmetry_multiplicity
 _atom_site_fract_x
 _atom_site_fract_y
 _atom_site_fract_z
 _atom_site_occupancy
  Ho  Ho0  1  0.194233  0.388466  0.250275  1
  Er  Er1  1  0.805354  0.610708  0.749735  1
  Er  Er2  1  0.610775  0.805349  0.250292  1
  Er  Er3  1  0.389322  0.194732  0.749660  1
  Er  Er4  1  0.194573  0.805349  0.250292  1
  Er  Er5  1  0.805412  0.194732  0.749660  1
  Ti  Ti6  1  0.333271  0.666543  0.996583  1
  Ti  Ti7  1  0.666785  0.333571  0.003156  1
  Al  Al8  1  0.666727  0.333451  0.518181  1
  Al  Al9  1  0.333358  0.666716  0.482037  1
  Al  Al10  1  0.161420  0.322840  0.577639  1
  Al  Al11  1  0.838623  0.677247  0.422793  1
  Al  Al12  1  0.677303  0.838663  0.577455  1
  Al  Al13  1  0.840920  0.681838  0.078091  1
  Al  Al14  1  0.322913  0.161337  0.422815  1
  Al  Al15  1  0.159146  0.318292  0.921479  1
  Al  Al16  1  0.161361  0.838663  0.577455  1
  Al  Al17  1  0.318410  0.159066  0.078042  1
  Al  Al18  1  0.838424  0.161337  0.422815  1
  Al  Al19  1  0.681735  0.840897  0.921698  1
  Al  Al20  1  0.840657  0.159066  0.078042  1
  Al  Al21  1  0.159162  0.840897  0.921698  1
  Al  Al22  1  0.560635  0.121271  0.252474  1
  Al  Al23  1  0.439368  0.878737  0.747534  1
  Al  Al24  1  0.878522  0.439421  0.252545  1
  Al  Al25  1  0.121323  0.560754  0.747493  1
  Al  Al26  1  0.560899  0.439421  0.252545  1
  Al  Al27  1  0.439432  0.560754  0.747493  1
  Al  Al28  1  0.999650  0.999300  0.250517  1
  Al  Al29  1  0.000023  0.000046  0.749478  1
  Ru  Ru30  1  0.499997  0.999992  0.999950  1
  Ru  Ru31  1  0.999972  0.500024  0.999873  1
  Ru  Ru32  1  0.500023  0.000046  0.500073  1
  Ru  Ru33  1  0.500051  0.500024  0.999873  1
  Ru  Ru34  1  0.999992  0.500045  0.500134  1
  Ru  Ru35  1  0.500053  0.500045  0.500134  1
  Ru  Ru36  1  0.000088  0.000175  0.999985  1
  Ru  Ru37  1  0.000088  0.000177  0.500010  1
