# generated using pymatgen
data_Nd4Ga4IrPt3
_symmetry_space_group_name_H-M   'P 1'
_cell_length_a   4.52063700
_cell_length_b   7.07586210
_cell_length_c   7.84884811
_cell_angle_alpha   90.01906585
_cell_angle_beta   90.00000000
_cell_angle_gamma   90.00000000
_symmetry_Int_Tables_number   1
_chemical_formula_structural   Nd4Ga4IrPt3
_chemical_formula_sum   'Nd4 Ga4 Ir1 Pt3'
_cell_volume   251.06426154
_cell_formula_units_Z   1
loop_
 _symmetry_equiv_pos_site_id
 _symmetry_equiv_pos_as_xyz
  1  'x, y, z'
loop_
 _atom_site_type_symbol
 _atom_site_label
 _atom_site_symmetry_multiplicity
 _atom_site_fract_x
 _atom_site_fract_y
 _atom_site_fract_z
 _atom_site_occupancy
  Nd  Nd0  1  0.250000  0.031108  0.685094  1
  Nd  Nd1  1  0.250000  0.527347  0.812044  1
  Nd  Nd2  1  0.750000  0.977381  0.312408  1
  Nd  Nd3  1  0.750000  0.470633  0.190527  1
  Ga  Ga4  1  0.250000  0.158875  0.070873  1
  Ga  Ga5  1  0.250000  0.652217  0.432077  1
  Ga  Ga6  1  0.750000  0.843110  0.932758  1
  Ga  Ga7  1  0.750000  0.340885  0.565860  1
  Ir  Ir8  1  0.250000  0.278420  0.388882  1
  Pt  Pt9  1  0.250000  0.780430  0.110150  1
  Pt  Pt10  1  0.750000  0.720269  0.610785  1
  Pt  Pt11  1  0.750000  0.219325  0.888542  1
