# generated using pymatgen
data_TmLu3Ga17SiRh6
_symmetry_space_group_name_H-M   'P 1'
_cell_length_a   7.54546523
_cell_length_b   7.51776394
_cell_length_c   9.46258307
_cell_angle_alpha   90.04642685
_cell_angle_beta   89.90176878
_cell_angle_gamma   119.91257478
_symmetry_Int_Tables_number   1
_chemical_formula_structural   TmLu3Ga17SiRh6
_chemical_formula_sum   'Tm1 Lu3 Ga17 Si1 Rh6'
_cell_volume   465.26065193
_cell_formula_units_Z   1
loop_
 _symmetry_equiv_pos_site_id
 _symmetry_equiv_pos_as_xyz
  1  'x, y, z'
loop_
 _atom_site_type_symbol
 _atom_site_label
 _atom_site_symmetry_multiplicity
 _atom_site_fract_x
 _atom_site_fract_y
 _atom_site_fract_z
 _atom_site_occupancy
  Tm  Tm0  1  0.329849  0.002655  0.749526  1
  Lu  Lu1  1  0.995611  0.663199  0.247626  1
  Lu  Lu2  1  0.003583  0.330893  0.752552  1
  Lu  Lu3  1  0.674578  0.003347  0.247728  1
  Ga  Ga4  1  0.127785  0.127168  0.250507  1
  Ga  Ga5  1  0.872493  0.874679  0.750541  1
  Ga  Ga6  1  0.999583  0.670794  0.918279  1
  Ga  Ga7  1  0.000563  0.665245  0.579193  1
  Ga  Ga8  1  0.333898  0.997689  0.419681  1
  Ga  Ga9  1  0.999703  0.334761  0.421985  1
  Ga  Ga10  1  0.665540  0.000635  0.579273  1
  Ga  Ga11  1  0.659069  0.995639  0.918217  1
  Ga  Ga12  1  0.333057  0.997589  0.080660  1
  Ga  Ga13  1  0.333130  0.332444  0.566497  1
  Ga  Ga14  1  0.668888  0.669267  0.432981  1
  Ga  Ga15  1  0.667547  0.669224  0.069055  1
  Ga  Ga16  1  0.338482  0.332607  0.932125  1
  Ga  Ga17  1  0.339110  0.547901  0.250968  1
  Ga  Ga18  1  0.663256  0.451035  0.751123  1
  Ga  Ga19  1  0.547340  0.338226  0.250558  1
  Ga  Ga20  1  0.450275  0.659445  0.750277  1
  Si  Si21  1  0.000155  0.334459  0.074572  1
  Rh  Rh22  1  0.684798  0.329895  0.004043  1
  Rh  Rh23  1  0.313984  0.657624  0.001277  1
  Rh  Rh24  1  0.328163  0.671607  0.499960  1
  Rh  Rh25  1  0.671886  0.328261  0.499780  1
  Rh  Rh26  1  0.997763  0.013376  0.001178  1
  Rh  Rh27  1  0.999909  0.000338  0.499832  1
