# generated using pymatgen
data_Cs2CrS4
_symmetry_space_group_name_H-M   'P 1'
_cell_length_a   7.12946300
_cell_length_b   11.12702100
_cell_length_c   12.74970500
_cell_angle_alpha   90.00000000
_cell_angle_beta   90.00000000
_cell_angle_gamma   90.00000000
_symmetry_Int_Tables_number   1
_chemical_formula_structural   Cs2CrS4
_chemical_formula_sum   'Cs8 Cr4 S16'
_cell_volume   1011.43007537
_cell_formula_units_Z   4
loop_
 _symmetry_equiv_pos_site_id
 _symmetry_equiv_pos_as_xyz
  1  'x, y, z'
loop_
 _atom_site_type_symbol
 _atom_site_label
 _atom_site_symmetry_multiplicity
 _atom_site_fract_x
 _atom_site_fract_y
 _atom_site_fract_z
 _atom_site_occupancy
  Cs  Cs0  1  0.250000  0.835608  0.899171  1
  Cs  Cs1  1  0.250000  0.664392  0.399171  1
  Cs  Cs2  1  0.750000  0.164392  0.100829  1
  Cs  Cs3  1  0.750000  0.335608  0.600829  1
  Cs  Cs4  1  0.250000  0.408604  0.855314  1
  Cs  Cs5  1  0.250000  0.091396  0.355314  1
  Cs  Cs6  1  0.750000  0.591396  0.144686  1
  Cs  Cs7  1  0.750000  0.908604  0.644686  1
  Cr  Cr8  1  0.250000  0.118775  0.685906  1
  Cr  Cr9  1  0.250000  0.381225  0.185906  1
  Cr  Cr10  1  0.750000  0.881225  0.314094  1
  Cr  Cr11  1  0.750000  0.618775  0.814094  1
  S  S12  1  0.012640  0.127536  0.780665  1
  S  S13  1  0.487360  0.372464  0.280665  1
  S  S14  1  0.512640  0.872464  0.219335  1
  S  S15  1  0.987360  0.627536  0.719335  1
  S  S16  1  0.987360  0.872464  0.219335  1
  S  S17  1  0.512640  0.627536  0.719335  1
  S  S18  1  0.487360  0.127536  0.780665  1
  S  S19  1  0.012640  0.372464  0.280665  1
  S  S20  1  0.250000  0.264918  0.582512  1
  S  S21  1  0.250000  0.235082  0.082512  1
  S  S22  1  0.750000  0.735082  0.417488  1
  S  S23  1  0.750000  0.764918  0.917488  1
  S  S24  1  0.250000  0.956524  0.603783  1
  S  S25  1  0.250000  0.543476  0.103783  1
  S  S26  1  0.750000  0.043476  0.396217  1
  S  S27  1  0.750000  0.456524  0.896217  1
