# generated using pymatgen
data_HoTh(ZnRu)2
_symmetry_space_group_name_H-M   'P 1'
_cell_length_a   3.98518500
_cell_length_b   6.98024762
_cell_length_c   8.34508081
_cell_angle_alpha   90.34816511
_cell_angle_beta   90.00000000
_cell_angle_gamma   90.00000000
_symmetry_Int_Tables_number   1
_chemical_formula_structural   HoTh(ZnRu)2
_chemical_formula_sum   'Ho2 Th2 Zn4 Ru4'
_cell_volume   232.13565148
_cell_formula_units_Z   2
loop_
 _symmetry_equiv_pos_site_id
 _symmetry_equiv_pos_as_xyz
  1  'x, y, z'
loop_
 _atom_site_type_symbol
 _atom_site_label
 _atom_site_symmetry_multiplicity
 _atom_site_fract_x
 _atom_site_fract_y
 _atom_site_fract_z
 _atom_site_occupancy
  Ho  Ho0  1  0.250000  0.038167  0.321362  1
  Ho  Ho1  1  0.750000  0.961833  0.678638  1
  Th  Th2  1  0.250000  0.533274  0.188526  1
  Th  Th3  1  0.750000  0.466726  0.811474  1
  Zn  Zn4  1  0.250000  0.119742  0.940702  1
  Zn  Zn5  1  0.750000  0.880258  0.059298  1
  Zn  Zn6  1  0.250000  0.646117  0.555701  1
  Zn  Zn7  1  0.750000  0.353883  0.444299  1
  Ru  Ru8  1  0.750000  0.741081  0.362596  1
  Ru  Ru9  1  0.250000  0.258919  0.637404  1
  Ru  Ru10  1  0.750000  0.259170  0.127075  1
  Ru  Ru11  1  0.250000  0.740830  0.872925  1
