# generated using pymatgen
data_La4Tm2Si3Ge
_symmetry_space_group_name_H-M   'P 1'
_cell_length_a   7.65802823
_cell_length_b   7.65802729
_cell_length_c   4.53968800
_cell_angle_alpha   90.00000000
_cell_angle_beta   90.00000000
_cell_angle_gamma   89.69296795
_symmetry_Int_Tables_number   1
_chemical_formula_structural   La4Tm2Si3Ge
_chemical_formula_sum   'La4 Tm2 Si3 Ge1'
_cell_volume   266.22794710
_cell_formula_units_Z   1
loop_
 _symmetry_equiv_pos_site_id
 _symmetry_equiv_pos_as_xyz
  1  'x, y, z'
loop_
 _atom_site_type_symbol
 _atom_site_label
 _atom_site_symmetry_multiplicity
 _atom_site_fract_x
 _atom_site_fract_y
 _atom_site_fract_z
 _atom_site_occupancy
  La  La0  1  0.677157  0.177157  0.500000  1
  La  La1  1  0.324356  0.824356  0.500000  1
  La  La2  1  0.177661  0.320203  0.500000  1
  La  La3  1  0.820203  0.677661  0.500000  1
  Tm  Tm4  1  0.998798  0.002435  0.000000  1
  Tm  Tm5  1  0.502435  0.498798  0.000000  1
  Si  Si6  1  0.882743  0.382743  0.000000  1
  Si  Si7  1  0.613705  0.886019  0.000000  1
  Si  Si8  1  0.386019  0.113705  0.000000  1
  Ge  Ge9  1  0.116925  0.616925  0.000000  1
