# generated using pymatgen
data_Nb6Ga4RuRhC2
_symmetry_space_group_name_H-M   'P 1'
_cell_length_a   8.33778556
_cell_length_b   8.33144997
_cell_length_c   8.33770239
_cell_angle_alpha   60.02475434
_cell_angle_beta   60.04243012
_cell_angle_gamma   60.02505970
_symmetry_Int_Tables_number   1
_chemical_formula_structural   Nb6Ga4RuRhC2
_chemical_formula_sum   'Nb12 Ga8 Ru2 Rh2 C4'
_cell_volume   409.83144172
_cell_formula_units_Z   2
loop_
 _symmetry_equiv_pos_site_id
 _symmetry_equiv_pos_as_xyz
  1  'x, y, z'
loop_
 _atom_site_type_symbol
 _atom_site_label
 _atom_site_symmetry_multiplicity
 _atom_site_fract_x
 _atom_site_fract_y
 _atom_site_fract_z
 _atom_site_occupancy
  Nb  Nb0  1  0.810076  0.808573  0.186684  1
  Nb  Nb1  1  0.186679  0.194671  0.810075  1
  Nb  Nb2  1  0.811749  0.188252  0.811749  1
  Nb  Nb3  1  0.193451  0.806545  0.193458  1
  Nb  Nb4  1  0.186680  0.808575  0.810075  1
  Nb  Nb5  1  0.810076  0.194667  0.186683  1
  Nb  Nb6  1  0.439924  0.441427  0.063315  1
  Nb  Nb7  1  0.063321  0.055330  0.439925  1
  Nb  Nb8  1  0.438250  0.061748  0.438251  1
  Nb  Nb9  1  0.056549  0.443455  0.056542  1
  Nb  Nb10  1  0.063320  0.441425  0.439925  1
  Nb  Nb11  1  0.439924  0.055333  0.063316  1
  Ga  Ga12  1  0.758826  0.413276  0.414620  1
  Ga  Ga13  1  0.415423  0.755344  0.415425  1
  Ga  Ga14  1  0.414620  0.413278  0.758822  1
  Ga  Ga15  1  0.415423  0.413806  0.415425  1
  Ga  Ga16  1  0.491174  0.836724  0.835380  1
  Ga  Ga17  1  0.834577  0.494656  0.834575  1
  Ga  Ga18  1  0.835380  0.836722  0.491178  1
  Ga  Ga19  1  0.834577  0.836194  0.834575  1
  Ru  Ru20  1  0.125000  0.625000  0.625000  1
  Ru  Ru21  1  0.625000  0.625000  0.125000  1
  Rh  Rh22  1  0.625000  0.125000  0.625000  1
  Rh  Rh23  1  0.625000  0.625000  0.625001  1
  C  C24  1  0.625000  0.125000  0.125000  1
  C  C25  1  0.125000  0.625000  0.125000  1
  C  C26  1  0.125000  0.125000  0.625000  1
  C  C27  1  0.125000  0.125000  0.125000  1
