# generated using pymatgen
data_TbBi5(PtO6)3
_symmetry_space_group_name_H-M   'P 1'
_cell_length_a   9.26412287
_cell_length_b   9.26191093
_cell_length_c   5.18763788
_cell_angle_alpha   89.99994234
_cell_angle_beta   90.18321161
_cell_angle_gamma   119.99209912
_symmetry_Int_Tables_number   1
_chemical_formula_structural   TbBi5(PtO6)3
_chemical_formula_sum   'Tb1 Bi5 Pt3 O18'
_cell_volume   385.51102497
_cell_formula_units_Z   1
loop_
 _symmetry_equiv_pos_site_id
 _symmetry_equiv_pos_as_xyz
  1  'x, y, z'
loop_
 _atom_site_type_symbol
 _atom_site_label
 _atom_site_symmetry_multiplicity
 _atom_site_fract_x
 _atom_site_fract_y
 _atom_site_fract_z
 _atom_site_occupancy
  Tb  Tb0  1  0.000002  0.375081  0.499994  1
  Bi  Bi1  1  0.291649  0.294179  0.000077  1
  Bi  Bi2  1  0.999999  0.703808  0.999999  1
  Bi  Bi3  1  0.626118  0.627281  0.499316  1
  Bi  Bi4  1  0.373879  0.001156  0.500677  1
  Bi  Bi5  1  0.708354  0.002534  0.999922  1
  Pt  Pt6  1  0.000000  0.000202  0.500005  1
  Pt  Pt7  1  0.332805  0.666068  0.000632  1
  Pt  Pt8  1  0.667195  0.333263  0.999358  1
  O  O9  1  0.089316  0.208219  0.715270  1
  O  O10  1  0.220804  0.455863  0.214977  1
  O  O11  1  0.126511  0.586407  0.784167  1
  O  O12  1  0.406425  0.536009  0.785191  1
  O  O13  1  0.232250  0.774844  0.215147  1
  O  O14  1  0.117760  0.912805  0.718396  1
  O  O15  1  0.542966  0.767382  0.212857  1
  O  O16  1  0.204581  0.088008  0.280001  1
  O  O17  1  0.463027  0.870504  0.785996  1
  O  O18  1  0.795423  0.883421  0.720014  1
  O  O19  1  0.457031  0.224408  0.787140  1
  O  O20  1  0.593572  0.129579  0.214804  1
  O  O21  1  0.536974  0.407482  0.214000  1
  O  O22  1  0.779202  0.235063  0.785018  1
  O  O23  1  0.910676  0.118897  0.284747  1
  O  O24  1  0.767744  0.542597  0.784851  1
  O  O25  1  0.873493  0.459896  0.215830  1
  O  O26  1  0.882246  0.795042  0.281618  1
