# generated using pymatgen
data_K4Zr6AsI18
_symmetry_space_group_name_H-M   'P 1'
_cell_length_a   11.32190183
_cell_length_b   11.46700412
_cell_length_c   11.57892314
_cell_angle_alpha   118.54001016
_cell_angle_beta   100.07192781
_cell_angle_gamma   103.80777610
_symmetry_Int_Tables_number   1
_chemical_formula_structural   K4Zr6AsI18
_chemical_formula_sum   'K4 Zr6 As1 I18'
_cell_volume   1206.65512075
_cell_formula_units_Z   1
loop_
 _symmetry_equiv_pos_site_id
 _symmetry_equiv_pos_as_xyz
  1  'x, y, z'
loop_
 _atom_site_type_symbol
 _atom_site_label
 _atom_site_symmetry_multiplicity
 _atom_site_fract_x
 _atom_site_fract_y
 _atom_site_fract_z
 _atom_site_occupancy
  K  K0  1  0.652855  0.538412  0.227512  1
  K  K1  1  0.347145  0.461588  0.772488  1
  K  K2  1  0.686522  0.224296  0.563574  1
  K  K3  1  0.313478  0.775704  0.436426  1
  Zr  Zr4  1  0.150148  0.056266  0.230692  1
  Zr  Zr5  1  0.849852  0.943734  0.769308  1
  Zr  Zr6  1  0.861470  0.126727  0.133165  1
  Zr  Zr7  1  0.138530  0.873273  0.866835  1
  Zr  Zr8  1  0.145463  0.239481  0.045261  1
  Zr  Zr9  1  0.854537  0.760519  0.954739  1
  As  As10  1  0.000000  0.000000  0.000000  1
  I  I11  1  0.007334  0.411821  0.198225  1
  I  I12  1  0.992666  0.588179  0.801775  1
  I  I13  1  0.330164  0.335142  0.312910  1
  I  I14  1  0.669836  0.664858  0.687090  1
  I  I15  1  0.322694  0.524474  0.100523  1
  I  I16  1  0.677306  0.475526  0.899477  1
  I  I17  1  0.004156  0.794691  0.210355  1
  I  I18  1  0.995844  0.205309  0.789645  1
  I  I19  1  0.700546  0.277048  0.289703  1
  I  I20  1  0.299454  0.722952  0.710297  1
  I  I21  1  0.318764  0.128000  0.902542  1
  I  I22  1  0.681236  0.872000  0.097458  1
  I  I23  1  0.013957  0.205824  0.410409  1
  I  I24  1  0.986043  0.794176  0.589591  1
  I  I25  1  0.322626  0.922287  0.110582  1
  I  I26  1  0.677374  0.077713  0.889418  1
  I  I27  1  0.333474  0.121387  0.504094  1
  I  I28  1  0.666526  0.878613  0.495906  1
