# generated using pymatgen
data_Sc4As3Se
_symmetry_space_group_name_H-M   'P 1'
_cell_length_a   3.88501687
_cell_length_b   8.68443132
_cell_length_c   10.27475274
_cell_angle_alpha   40.43178946
_cell_angle_beta   124.52481454
_cell_angle_gamma   132.15886715
_symmetry_Int_Tables_number   1
_chemical_formula_structural   Sc4As3Se
_chemical_formula_sum   'Sc4 As3 Se1'
_cell_volume   165.53035797
_cell_formula_units_Z   1
loop_
 _symmetry_equiv_pos_site_id
 _symmetry_equiv_pos_as_xyz
  1  'x, y, z'
loop_
 _atom_site_type_symbol
 _atom_site_label
 _atom_site_symmetry_multiplicity
 _atom_site_fract_x
 _atom_site_fract_y
 _atom_site_fract_z
 _atom_site_occupancy
  Sc  Sc0  1  0.498963  0.397170  0.282597  1
  Sc  Sc1  1  0.745636  0.659439  0.518378  1
  Sc  Sc2  1  0.232918  0.136609  0.032073  1
  Sc  Sc3  1  0.012814  0.920139  0.768973  1
  As  As4  1  0.879567  0.281475  0.652142  1
  As  As5  1  0.365529  0.775213  0.148837  1
  As  As6  1  0.622526  0.028364  0.400505  1
  Se  Se7  1  0.123116  0.528482  0.900455  1
