# generated using pymatgen
data_LiDy3In4Co
_symmetry_space_group_name_H-M   'P 1'
_cell_length_a   8.08050900
_cell_length_b   8.08050832
_cell_length_c   3.60579000
_cell_angle_alpha   90.00000000
_cell_angle_beta   90.00000000
_cell_angle_gamma   120.00000686
_symmetry_Int_Tables_number   1
_chemical_formula_structural   LiDy3In4Co
_chemical_formula_sum   'Li1 Dy3 In4 Co1'
_cell_volume   203.89587135
_cell_formula_units_Z   1
loop_
 _symmetry_equiv_pos_site_id
 _symmetry_equiv_pos_as_xyz
  1  'x, y, z'
loop_
 _atom_site_type_symbol
 _atom_site_label
 _atom_site_symmetry_multiplicity
 _atom_site_fract_x
 _atom_site_fract_y
 _atom_site_fract_z
 _atom_site_occupancy
  Li  Li0  1  0.666667  0.333333  0.500000  1
  Dy  Dy1  1  0.046467  0.287274  0.500000  1
  Dy  Dy2  1  0.712726  0.759192  0.500000  1
  Dy  Dy3  1  0.240808  0.953533  0.500000  1
  In  In4  1  0.664298  0.067118  0.000000  1
  In  In5  1  0.932882  0.597180  0.000000  1
  In  In6  1  0.402820  0.335702  0.000000  1
  In  In7  1  0.333333  0.666667  0.000000  1
  Co  Co8  1  0.000000  0.000000  0.000000  1
