# generated using pymatgen
data_Er6Sc2Hg3Au7
_symmetry_space_group_name_H-M   'P 1'
_cell_length_a   7.94644135
_cell_length_b   7.94644170
_cell_length_c   7.94644145
_cell_angle_alpha   66.37285976
_cell_angle_beta   66.37285794
_cell_angle_gamma   66.37285034
_symmetry_Int_Tables_number   1
_chemical_formula_structural   Er6Sc2Hg3Au7
_chemical_formula_sum   'Er6 Sc2 Hg3 Au7'
_cell_volume   403.57776394
_cell_formula_units_Z   1
loop_
 _symmetry_equiv_pos_site_id
 _symmetry_equiv_pos_as_xyz
  1  'x, y, z'
loop_
 _atom_site_type_symbol
 _atom_site_label
 _atom_site_symmetry_multiplicity
 _atom_site_fract_x
 _atom_site_fract_y
 _atom_site_fract_z
 _atom_site_occupancy
  Er  Er0  1  0.895465  0.205671  0.595364  1
  Er  Er1  1  0.595364  0.895465  0.205671  1
  Er  Er2  1  0.205671  0.595364  0.895465  1
  Er  Er3  1  0.108906  0.809153  0.384619  1
  Er  Er4  1  0.384619  0.108906  0.809153  1
  Er  Er5  1  0.809153  0.384619  0.108906  1
  Sc  Sc6  1  0.662627  0.662627  0.662627  1
  Sc  Sc7  1  0.336895  0.336895  0.336895  1
  Hg  Hg8  1  0.995400  0.995400  0.995400  1
  Hg  Hg9  1  0.499875  0.499875  0.499875  1
  Hg  Hg10  1  0.816351  0.816351  0.816351  1
  Au  Au11  1  0.190050  0.190050  0.190050  1
  Au  Au12  1  0.933296  0.563291  0.309138  1
  Au  Au13  1  0.309138  0.933296  0.563291  1
  Au  Au14  1  0.563291  0.309138  0.933296  1
  Au  Au15  1  0.064840  0.450036  0.679023  1
  Au  Au16  1  0.679023  0.064840  0.450036  1
  Au  Au17  1  0.450036  0.679023  0.064840  1
