# generated using pymatgen
data_Er3ThAl14(Ga2Ir3)2
_symmetry_space_group_name_H-M   'P 1'
_cell_length_a   7.55056905
_cell_length_b   7.56756985
_cell_length_c   9.53197800
_cell_angle_alpha   90.00000000
_cell_angle_beta   90.00000000
_cell_angle_gamma   119.66723727
_symmetry_Int_Tables_number   1
_chemical_formula_structural   Er3ThAl14(Ga2Ir3)2
_chemical_formula_sum   'Er3 Th1 Al14 Ga4 Ir6'
_cell_volume   473.25617552
_cell_formula_units_Z   1
loop_
 _symmetry_equiv_pos_site_id
 _symmetry_equiv_pos_as_xyz
  1  'x, y, z'
loop_
 _atom_site_type_symbol
 _atom_site_label
 _atom_site_symmetry_multiplicity
 _atom_site_fract_x
 _atom_site_fract_y
 _atom_site_fract_z
 _atom_site_occupancy
  Er  Er0  1  0.004243  0.333541  0.250000  1
  Er  Er1  1  0.670935  0.994809  0.750000  1
  Er  Er2  1  0.328697  0.998686  0.250000  1
  Th  Th3  1  0.995318  0.669275  0.750000  1
  Al  Al4  1  0.874344  0.878118  0.250000  1
  Al  Al5  1  0.002266  0.330246  0.570337  1
  Al  Al6  1  0.998489  0.665191  0.419087  1
  Al  Al7  1  0.998489  0.665191  0.080913  1
  Al  Al8  1  0.339175  0.005997  0.929630  1
  Al  Al9  1  0.002266  0.330246  0.929663  1
  Al  Al10  1  0.665972  0.001882  0.075487  1
  Al  Al11  1  0.665972  0.001882  0.424513  1
  Al  Al12  1  0.339175  0.005997  0.570370  1
  Al  Al13  1  0.331329  0.330863  0.064483  1
  Al  Al14  1  0.661571  0.665504  0.956497  1
  Al  Al15  1  0.661571  0.665504  0.543503  1
  Al  Al16  1  0.331329  0.330863  0.435517  1
  Al  Al17  1  0.659056  0.447682  0.250000  1
  Ga  Ga18  1  0.129639  0.132960  0.750000  1
  Ga  Ga19  1  0.347537  0.548764  0.750000  1
  Ga  Ga20  1  0.541997  0.334437  0.750000  1
  Ga  Ga21  1  0.455560  0.662726  0.250000  1
  Ir  Ir22  1  0.672734  0.330383  0.498321  1
  Ir  Ir23  1  0.325229  0.671413  0.500353  1
  Ir  Ir24  1  0.325229  0.671413  0.999647  1
  Ir  Ir25  1  0.672734  0.330383  0.001679  1
  Ir  Ir26  1  0.999571  0.998021  0.498325  1
  Ir  Ir27  1  0.999571  0.998021  0.001675  1
