# generated using pymatgen
data_Zr4Ta6Ga7Ge
_symmetry_space_group_name_H-M   'P 1'
_cell_length_a   6.91187200
_cell_length_b   6.99597112
_cell_length_c   13.37624324
_cell_angle_alpha   90.02137982
_cell_angle_beta   89.99755255
_cell_angle_gamma   89.99826181
_symmetry_Int_Tables_number   1
_chemical_formula_structural   Zr4Ta6Ga7Ge
_chemical_formula_sum   'Zr8 Ta12 Ga14 Ge2'
_cell_volume   646.81163253
_cell_formula_units_Z   2
loop_
 _symmetry_equiv_pos_site_id
 _symmetry_equiv_pos_as_xyz
  1  'x, y, z'
loop_
 _atom_site_type_symbol
 _atom_site_label
 _atom_site_symmetry_multiplicity
 _atom_site_fract_x
 _atom_site_fract_y
 _atom_site_fract_z
 _atom_site_occupancy
  Zr  Zr0  1  0.493489  0.672780  0.593387  1
  Zr  Zr1  1  0.993490  0.827209  0.906621  1
  Zr  Zr2  1  0.504631  0.325277  0.094322  1
  Zr  Zr3  1  0.004620  0.174730  0.405675  1
  Zr  Zr4  1  0.503391  0.327661  0.405365  1
  Zr  Zr5  1  0.003386  0.172360  0.094636  1
  Zr  Zr6  1  0.497953  0.674799  0.906626  1
  Zr  Zr7  1  0.997971  0.825200  0.593374  1
  Ta  Ta8  1  0.655874  0.175704  0.628214  1
  Ta  Ta9  1  0.155887  0.324305  0.871777  1
  Ta  Ta10  1  0.345780  0.824579  0.128088  1
  Ta  Ta11  1  0.845771  0.675427  0.371902  1
  Ta  Ta12  1  0.343966  0.823161  0.372343  1
  Ta  Ta13  1  0.843956  0.676842  0.127661  1
  Ta  Ta14  1  0.654873  0.174449  0.872226  1
  Ta  Ta15  1  0.154884  0.325519  0.627792  1
  Ta  Ta16  1  0.836908  0.484745  0.749288  1
  Ta  Ta17  1  0.336894  0.015271  0.750722  1
  Ta  Ta18  1  0.164387  0.514913  0.251198  1
  Ta  Ta19  1  0.664403  0.985076  0.248784  1
  Ga  Ga20  1  0.676802  0.965369  0.461275  1
  Ga  Ga21  1  0.176741  0.534621  0.038719  1
  Ga  Ga22  1  0.318908  0.034694  0.961453  1
  Ga  Ga23  1  0.818973  0.465321  0.538558  1
  Ga  Ga24  1  0.324735  0.035460  0.538951  1
  Ga  Ga25  1  0.824794  0.464532  0.961044  1
  Ga  Ga26  1  0.457280  0.395376  0.750171  1
  Ga  Ga27  1  0.957258  0.104643  0.749854  1
  Ga  Ga28  1  0.543575  0.605062  0.249847  1
  Ga  Ga29  1  0.043571  0.894914  0.250135  1
  Ga  Ga30  1  0.697254  0.851101  0.749034  1
  Ga  Ga31  1  0.197268  0.648916  0.750979  1
  Ga  Ga32  1  0.303289  0.147690  0.250136  1
  Ga  Ga33  1  0.803278  0.352311  0.249856  1
  Ge  Ge34  1  0.676914  0.964634  0.037918  1
  Ge  Ge35  1  0.176847  0.535348  0.462070  1
