# generated using pymatgen
data_Er5Zr3(B6Os)4
_symmetry_space_group_name_H-M   'P 1'
_cell_length_a   3.57907100
_cell_length_b   9.04583804
_cell_length_c   11.41515365
_cell_angle_alpha   89.97547109
_cell_angle_beta   90.00000000
_cell_angle_gamma   90.00000000
_symmetry_Int_Tables_number   1
_chemical_formula_structural   Er5Zr3(B6Os)4
_chemical_formula_sum   'Er5 Zr3 B24 Os4'
_cell_volume   369.57351730
_cell_formula_units_Z   1
loop_
 _symmetry_equiv_pos_site_id
 _symmetry_equiv_pos_as_xyz
  1  'x, y, z'
loop_
 _atom_site_type_symbol
 _atom_site_label
 _atom_site_symmetry_multiplicity
 _atom_site_fract_x
 _atom_site_fract_y
 _atom_site_fract_z
 _atom_site_occupancy
  Er  Er0  1  0.000000  0.321282  0.413957  1
  Er  Er1  1  0.000000  0.678494  0.587784  1
  Er  Er2  1  0.000000  0.821208  0.085990  1
  Er  Er3  1  0.000000  0.178496  0.912679  1
  Er  Er4  1  0.000000  0.944129  0.373907  1
  Zr  Zr5  1  0.000000  0.056281  0.626359  1
  Zr  Zr6  1  0.000000  0.444567  0.124786  1
  Zr  Zr7  1  0.000000  0.556226  0.874881  1
  B  B8  1  0.500000  0.552627  0.433648  1
  B  B9  1  0.500000  0.445865  0.566172  1
  B  B10  1  0.500000  0.054349  0.065731  1
  B  B11  1  0.500000  0.946027  0.934170  1
  B  B12  1  0.500000  0.748595  0.419041  1
  B  B13  1  0.500000  0.249229  0.580749  1
  B  B14  1  0.500000  0.251515  0.079900  1
  B  B15  1  0.500000  0.749296  0.919897  1
  B  B16  1  0.500000  0.792139  0.264441  1
  B  B17  1  0.500000  0.206120  0.736305  1
  B  B18  1  0.500000  0.293897  0.234962  1
  B  B19  1  0.500000  0.706012  0.764152  1
  B  B20  1  0.500000  0.629520  0.183410  1
  B  B21  1  0.500000  0.369915  0.816600  1
  B  B22  1  0.500000  0.132161  0.315419  1
  B  B23  1  0.500000  0.869729  0.683669  1
  B  B24  1  0.500000  0.983025  0.212014  1
  B  B25  1  0.500000  0.018627  0.787199  1
  B  B26  1  0.500000  0.480720  0.286744  1
  B  B27  1  0.500000  0.519175  0.713001  1
  B  B28  1  0.500000  0.603033  0.027909  1
  B  B29  1  0.500000  0.397125  0.971566  1
  B  B30  1  0.500000  0.105779  0.473479  1
  B  B31  1  0.500000  0.895916  0.530785  1
  Os  Os32  1  0.000000  0.637167  0.318966  1
  Os  Os33  1  0.000000  0.360565  0.680388  1
  Os  Os34  1  0.000000  0.141451  0.178166  1
  Os  Os35  1  0.000000  0.859738  0.821175  1
