# generated using pymatgen
data_Pr10Nd2Co2I17
_symmetry_space_group_name_H-M   'P 1'
_cell_length_a   10.06028708
_cell_length_b   12.04973226
_cell_length_c   12.05614790
_cell_angle_alpha   93.13308659
_cell_angle_beta   104.63770595
_cell_angle_gamma   114.85315752
_symmetry_Int_Tables_number   1
_chemical_formula_structural   Pr10Nd2Co2I17
_chemical_formula_sum   'Pr10 Nd2 Co2 I17'
_cell_volume   1261.37418301
_cell_formula_units_Z   1
loop_
 _symmetry_equiv_pos_site_id
 _symmetry_equiv_pos_as_xyz
  1  'x, y, z'
loop_
 _atom_site_type_symbol
 _atom_site_label
 _atom_site_symmetry_multiplicity
 _atom_site_fract_x
 _atom_site_fract_y
 _atom_site_fract_z
 _atom_site_occupancy
  Pr  Pr0  1  0.646768  0.240512  0.282904  1
  Pr  Pr1  1  0.011116  0.190274  0.417623  1
  Pr  Pr2  1  0.216560  0.667381  0.986904  1
  Pr  Pr3  1  0.260811  0.983842  0.892269  1
  Pr  Pr4  1  0.353736  0.760353  0.717441  1
  Pr  Pr5  1  0.943513  0.491372  0.678082  1
  Pr  Pr6  1  0.739450  0.016156  0.108318  1
  Pr  Pr7  1  0.150370  0.288019  0.150099  1
  Pr  Pr8  1  0.782983  0.333067  0.012741  1
  Pr  Pr9  1  0.849726  0.712177  0.849657  1
  Nd  Nd10  1  0.055108  0.507092  0.320765  1
  Nd  Nd11  1  0.990486  0.809793  0.584140  1
  Co  Co12  1  0.102306  0.738439  0.783820  1
  Co  Co13  1  0.897944  0.261951  0.216099  1
  I  I14  1  0.784802  0.529713  0.417306  1
  I  I15  1  0.639033  0.417228  0.759859  1
  I  I16  1  0.844106  0.894726  0.326882  1
  I  I17  1  0.327343  0.212371  0.369242  1
  I  I18  1  0.156224  0.104018  0.673878  1
  I  I19  1  0.590059  0.054358  0.840984  1
  I  I20  1  0.755491  0.183998  0.539205  1
  I  I21  1  0.550768  0.708979  0.954661  1
  I  I22  1  0.358045  0.583100  0.239549  1
  I  I23  1  0.217351  0.472441  0.581372  1
  I  I24  1  0.056161  0.362979  0.892939  1
  I  I25  1  0.449910  0.292332  0.046002  1
  I  I26  1  0.000041  0.999956  0.000160  1
  I  I27  1  0.240787  0.812519  0.459988  1
  I  I28  1  0.410602  0.946079  0.159609  1
  I  I29  1  0.674692  0.788127  0.629891  1
  I  I30  1  0.943706  0.636646  0.107615  1
