# generated using pymatgen
data_Ca2Ho(B3Ir4)2
_symmetry_space_group_name_H-M   'P 1'
_cell_length_a   9.93787753
_cell_length_b   9.08330983
_cell_length_c   5.62950406
_cell_angle_alpha   81.31862396
_cell_angle_beta   64.62699190
_cell_angle_gamma   34.05437638
_symmetry_Int_Tables_number   1
_chemical_formula_structural   Ca2Ho(B3Ir4)2
_chemical_formula_sum   'Ca2 Ho1 B6 Ir8'
_cell_volume   235.27047115
_cell_formula_units_Z   1
loop_
 _symmetry_equiv_pos_site_id
 _symmetry_equiv_pos_as_xyz
  1  'x, y, z'
loop_
 _atom_site_type_symbol
 _atom_site_label
 _atom_site_symmetry_multiplicity
 _atom_site_fract_x
 _atom_site_fract_y
 _atom_site_fract_z
 _atom_site_occupancy
  Ca  Ca0  1  0.318215  0.318215  0.681785  1
  Ca  Ca1  1  0.681785  0.681785  0.318215  1
  Ho  Ho2  1  0.500000  0.500000  0.500000  1
  B  B3  1  0.670849  0.983319  0.016681  1
  B  B4  1  0.983319  0.670849  0.329151  1
  B  B5  1  0.329151  0.016681  0.983319  1
  B  B6  1  0.016681  0.329151  0.670849  1
  B  B7  1  0.167646  0.832354  0.167646  1
  B  B8  1  0.832354  0.167646  0.832354  1
  Ir  Ir9  1  0.584910  0.584910  0.915090  1
  Ir  Ir10  1  0.913691  0.913691  0.086309  1
  Ir  Ir11  1  0.415090  0.415090  0.084910  1
  Ir  Ir12  1  0.084910  0.084910  0.415090  1
  Ir  Ir13  1  0.915090  0.915090  0.584910  1
  Ir  Ir14  1  0.250000  0.250000  0.250000  1
  Ir  Ir15  1  0.086309  0.086309  0.913691  1
  Ir  Ir16  1  0.750000  0.750000  0.750000  1
