# generated using pymatgen
data_Sm2CoOsI
_symmetry_space_group_name_H-M   'P 1'
_cell_length_a   4.13266600
_cell_length_b   4.13266622
_cell_length_c   17.34277700
_cell_angle_alpha   90.00000000
_cell_angle_beta   90.00000000
_cell_angle_gamma   119.99999821
_symmetry_Int_Tables_number   1
_chemical_formula_structural   Sm2CoOsI
_chemical_formula_sum   'Sm4 Co2 Os2 I2'
_cell_volume   256.51331744
_cell_formula_units_Z   2
loop_
 _symmetry_equiv_pos_site_id
 _symmetry_equiv_pos_as_xyz
  1  'x, y, z'
loop_
 _atom_site_type_symbol
 _atom_site_label
 _atom_site_symmetry_multiplicity
 _atom_site_fract_x
 _atom_site_fract_y
 _atom_site_fract_z
 _atom_site_occupancy
  Sm  Sm0  1  0.000000  0.000000  0.105200  1
  Sm  Sm1  1  0.000000  0.000000  0.394800  1
  Sm  Sm2  1  0.000000  0.000000  0.605280  1
  Sm  Sm3  1  0.000000  0.000000  0.894719  1
  Co  Co4  1  0.666666  0.333334  0.501003  1
  Co  Co5  1  0.666666  0.333334  0.998997  1
  Os  Os6  1  0.333334  0.666667  0.001053  1
  Os  Os7  1  0.333334  0.666667  0.498946  1
  I  I8  1  0.666666  0.333334  0.250000  1
  I  I9  1  0.333334  0.666667  0.750000  1
