# generated using pymatgen
data_Dy2Y3W2C7
_symmetry_space_group_name_H-M   'P 1'
_cell_length_a   8.44919144
_cell_length_b   8.44799376
_cell_length_c   3.42572700
_cell_angle_alpha   90.00000000
_cell_angle_beta   90.00000000
_cell_angle_gamma   122.78006218
_symmetry_Int_Tables_number   1
_chemical_formula_structural   Dy2Y3W2C7
_chemical_formula_sum   'Dy2 Y3 W2 C7'
_cell_volume   205.58478675
_cell_formula_units_Z   1
loop_
 _symmetry_equiv_pos_site_id
 _symmetry_equiv_pos_as_xyz
  1  'x, y, z'
loop_
 _atom_site_type_symbol
 _atom_site_label
 _atom_site_symmetry_multiplicity
 _atom_site_fract_x
 _atom_site_fract_y
 _atom_site_fract_z
 _atom_site_occupancy
  Dy  Dy0  1  0.668540  0.926251  0.500000  1
  Dy  Dy1  1  0.331460  0.073749  0.500000  1
  Y  Y2  1  0.500000  0.500000  0.000000  1
  Y  Y3  1  0.073481  0.331211  0.500000  1
  Y  Y4  1  0.926519  0.668789  0.500000  1
  W  W5  1  0.712724  0.287160  0.000000  1
  W  W6  1  0.287276  0.712840  0.000000  1
  C  C7  1  0.625300  0.373803  0.500000  1
  C  C8  1  0.374700  0.626197  0.500000  1
  C  C9  1  0.000000  0.000000  0.000000  1
  C  C10  1  0.167451  0.167292  0.000000  1
  C  C11  1  0.832549  0.832708  0.000000  1
  C  C12  1  0.000000  0.500000  0.000000  1
  C  C13  1  0.500000  0.000000  0.000000  1
