# generated using pymatgen
data_Eu7Ho13Sn16
_symmetry_space_group_name_H-M   'P 1'
_cell_length_a   8.13601449
_cell_length_b   8.28068888
_cell_length_c   15.58905000
_cell_angle_alpha   90.03893437
_cell_angle_beta   90.28758523
_cell_angle_gamma   89.69011029
_symmetry_Int_Tables_number   1
_chemical_formula_structural   Eu7Ho13Sn16
_chemical_formula_sum   'Eu7 Ho13 Sn16'
_cell_volume   1050.23361704
_cell_formula_units_Z   1
loop_
 _symmetry_equiv_pos_site_id
 _symmetry_equiv_pos_as_xyz
  1  'x, y, z'
loop_
 _atom_site_type_symbol
 _atom_site_label
 _atom_site_symmetry_multiplicity
 _atom_site_fract_x
 _atom_site_fract_y
 _atom_site_fract_z
 _atom_site_occupancy
  Eu  Eu0  1  0.003179  0.175454  0.596062  1
  Eu  Eu1  1  0.497653  0.674769  0.406991  1
  Eu  Eu2  1  0.998870  0.821998  0.090754  1
  Eu  Eu3  1  0.495583  0.676566  0.092004  1
  Eu  Eu4  1  0.998595  0.825324  0.407255  1
  Eu  Eu5  1  0.502499  0.325258  0.594062  1
  Eu  Eu6  1  0.003717  0.176988  0.906428  1
  Ho  Ho7  1  0.337244  0.836092  0.874382  1
  Ho  Ho8  1  0.835020  0.664563  0.625841  1
  Ho  Ho9  1  0.664596  0.165314  0.375745  1
  Ho  Ho10  1  0.158946  0.338029  0.122184  1
  Ho  Ho11  1  0.661645  0.164628  0.124734  1
  Ho  Ho12  1  0.162950  0.334058  0.376192  1
  Ho  Ho13  1  0.335569  0.836429  0.626899  1
  Ho  Ho14  1  0.839761  0.663514  0.876917  1
  Ho  Ho15  1  0.502933  0.319597  0.903462  1
  Ho  Ho16  1  0.174199  0.495446  0.750298  1
  Ho  Ho17  1  0.675016  0.003803  0.750764  1
  Ho  Ho18  1  0.822948  0.504428  0.249113  1
  Ho  Ho19  1  0.326822  0.995112  0.249180  1
  Sn  Sn20  1  0.331142  0.045641  0.039257  1
  Sn  Sn21  1  0.831205  0.459923  0.458353  1
  Sn  Sn22  1  0.668668  0.960359  0.542941  1
  Sn  Sn23  1  0.183273  0.535841  0.954892  1
  Sn  Sn24  1  0.669818  0.966962  0.956272  1
  Sn  Sn25  1  0.168884  0.540304  0.542967  1
  Sn  Sn26  1  0.332054  0.038940  0.458451  1
  Sn  Sn27  1  0.817398  0.455947  0.039955  1
  Sn  Sn28  1  0.536340  0.618325  0.751731  1
  Sn  Sn29  1  0.034565  0.875937  0.751408  1
  Sn  Sn30  1  0.460280  0.377800  0.250478  1
  Sn  Sn31  1  0.964479  0.122143  0.248940  1
  Sn  Sn32  1  0.313689  0.144057  0.752720  1
  Sn  Sn33  1  0.802344  0.361110  0.753108  1
  Sn  Sn34  1  0.695921  0.862352  0.249937  1
  Sn  Sn35  1  0.192195  0.636991  0.249324  1
