# generated using pymatgen
data_SmAl5Cu6
_symmetry_space_group_name_H-M   'P 1'
_cell_length_a   10.34768330
_cell_length_b   8.18496562
_cell_length_c   7.86223761
_cell_angle_alpha   80.27805472
_cell_angle_beta   51.22720640
_cell_angle_gamma   48.49473777
_symmetry_Int_Tables_number   1
_chemical_formula_structural   SmAl5Cu6
_chemical_formula_sum   'Sm2 Al10 Cu12'
_cell_volume   352.55870597
_cell_formula_units_Z   2
loop_
 _symmetry_equiv_pos_site_id
 _symmetry_equiv_pos_as_xyz
  1  'x, y, z'
loop_
 _atom_site_type_symbol
 _atom_site_label
 _atom_site_symmetry_multiplicity
 _atom_site_fract_x
 _atom_site_fract_y
 _atom_site_fract_z
 _atom_site_occupancy
  Sm  Sm0  1  0.000000  0.000000  0.000000  1
  Sm  Sm1  1  0.250000  0.250000  0.250000  1
  Al  Al2  1  0.500000  0.500000  0.500000  1
  Al  Al3  1  0.750000  0.750000  0.750000  1
  Al  Al4  1  0.755401  0.070844  0.834269  1
  Al  Al5  1  0.834269  0.339488  0.755401  1
  Al  Al6  1  0.070844  0.755401  0.339488  1
  Al  Al7  1  0.339488  0.834269  0.070844  1
  Al  Al8  1  0.494599  0.179156  0.415731  1
  Al  Al9  1  0.415731  0.910512  0.494599  1
  Al  Al10  1  0.179156  0.494599  0.910512  1
  Al  Al11  1  0.910512  0.415731  0.179156  1
  Cu  Cu12  1  0.625000  0.125000  0.625000  1
  Cu  Cu13  1  0.625000  0.625000  0.625000  1
  Cu  Cu14  1  0.125000  0.625000  0.625000  1
  Cu  Cu15  1  0.625000  0.625000  0.125000  1
  Cu  Cu16  1  0.490470  0.435533  0.183517  1
  Cu  Cu17  1  0.183517  0.890479  0.490470  1
  Cu  Cu18  1  0.435533  0.490470  0.890479  1
  Cu  Cu19  1  0.890479  0.183517  0.435533  1
  Cu  Cu20  1  0.759530  0.814467  0.066483  1
  Cu  Cu21  1  0.066483  0.359521  0.759530  1
  Cu  Cu22  1  0.814467  0.759530  0.359521  1
  Cu  Cu23  1  0.359521  0.066483  0.814467  1
