# generated using pymatgen
data_Np2SeNO
_symmetry_space_group_name_H-M   'P 1'
_cell_length_a   3.87781000
_cell_length_b   3.87780916
_cell_length_c   6.85913800
_cell_angle_alpha   90.00000000
_cell_angle_beta   90.00000000
_cell_angle_gamma   120.00000717
_symmetry_Int_Tables_number   1
_chemical_formula_structural   Np2SeNO
_chemical_formula_sum   'Np2 Se1 N1 O1'
_cell_volume   89.32501529
_cell_formula_units_Z   1
loop_
 _symmetry_equiv_pos_site_id
 _symmetry_equiv_pos_as_xyz
  1  'x, y, z'
loop_
 _atom_site_type_symbol
 _atom_site_label
 _atom_site_symmetry_multiplicity
 _atom_site_fract_x
 _atom_site_fract_y
 _atom_site_fract_z
 _atom_site_occupancy
  Np  Np0  1  0.666667  0.333333  0.704914  1
  Np  Np1  1  0.333333  0.666667  0.290933  1
  Se  Se2  1  0.000000  0.000000  0.998226  1
  N  N3  1  0.666667  0.333333  0.377605  1
  O  O4  1  0.333333  0.666667  0.628322  1
