# generated using pymatgen
data_DyHo5Tc2
_symmetry_space_group_name_H-M   'P 1'
_cell_length_a   6.24988800
_cell_length_b   7.39174800
_cell_length_c   9.14887600
_cell_angle_alpha   90.00000000
_cell_angle_beta   90.00000000
_cell_angle_gamma   90.00000000
_symmetry_Int_Tables_number   1
_chemical_formula_structural   DyHo5Tc2
_chemical_formula_sum   'Dy2 Ho10 Tc4'
_cell_volume   422.65608759
_cell_formula_units_Z   2
loop_
 _symmetry_equiv_pos_site_id
 _symmetry_equiv_pos_as_xyz
  1  'x, y, z'
loop_
 _atom_site_type_symbol
 _atom_site_label
 _atom_site_symmetry_multiplicity
 _atom_site_fract_x
 _atom_site_fract_y
 _atom_site_fract_z
 _atom_site_occupancy
  Dy  Dy0  1  0.872356  0.542108  0.250000  1
  Dy  Dy1  1  0.627644  0.042108  0.250000  1
  Ho  Ho2  1  0.339268  0.675854  0.062111  1
  Ho  Ho3  1  0.160732  0.175854  0.437889  1
  Ho  Ho4  1  0.660587  0.324186  0.562669  1
  Ho  Ho5  1  0.839413  0.824186  0.937331  1
  Ho  Ho6  1  0.660587  0.324186  0.937331  1
  Ho  Ho7  1  0.839413  0.824186  0.562669  1
  Ho  Ho8  1  0.339268  0.675854  0.437889  1
  Ho  Ho9  1  0.160732  0.175854  0.062111  1
  Ho  Ho10  1  0.127588  0.457910  0.750000  1
  Ho  Ho11  1  0.372412  0.957910  0.750000  1
  Tc  Tc12  1  0.040961  0.886206  0.250000  1
  Tc  Tc13  1  0.459039  0.386206  0.250000  1
  Tc  Tc14  1  0.959079  0.113697  0.750000  1
  Tc  Tc15  1  0.540921  0.613697  0.750000  1
