# generated using pymatgen
data_Er2Co9Mo3P7
_symmetry_space_group_name_H-M   'P 1'
_cell_length_a   9.05316600
_cell_length_b   9.05316659
_cell_length_c   3.70885600
_cell_angle_alpha   90.00000000
_cell_angle_beta   90.00000000
_cell_angle_gamma   119.99999053
_symmetry_Int_Tables_number   1
_chemical_formula_structural   Er2Co9Mo3P7
_chemical_formula_sum   'Er2 Co9 Mo3 P7'
_cell_volume   263.25197655
_cell_formula_units_Z   1
loop_
 _symmetry_equiv_pos_site_id
 _symmetry_equiv_pos_as_xyz
  1  'x, y, z'
loop_
 _atom_site_type_symbol
 _atom_site_label
 _atom_site_symmetry_multiplicity
 _atom_site_fract_x
 _atom_site_fract_y
 _atom_site_fract_z
 _atom_site_occupancy
  Er  Er0  1  0.666667  0.333333  0.743022  1
  Er  Er1  1  0.333333  0.666667  0.243061  1
  Co  Co2  1  0.062209  0.629286  0.743034  1
  Co  Co3  1  0.370714  0.432923  0.743034  1
  Co  Co4  1  0.567077  0.937791  0.743034  1
  Co  Co5  1  0.947992  0.386553  0.243013  1
  Co  Co6  1  0.613447  0.561439  0.243013  1
  Co  Co7  1  0.438561  0.052008  0.243013  1
  Co  Co8  1  0.282226  0.121763  0.743015  1
  Co  Co9  1  0.878237  0.160465  0.743015  1
  Co  Co10  1  0.839535  0.717774  0.743015  1
  Mo  Mo11  1  0.778939  0.902601  0.243051  1
  Mo  Mo12  1  0.097399  0.876338  0.243051  1
  Mo  Mo13  1  0.123662  0.221061  0.243051  1
  P  P14  1  0.000000  0.000000  0.743026  1
  P  P15  1  0.302263  0.887821  0.743041  1
  P  P16  1  0.112179  0.414442  0.743041  1
  P  P17  1  0.585558  0.697737  0.743041  1
  P  P18  1  0.709759  0.120618  0.243017  1
  P  P19  1  0.879382  0.589141  0.243017  1
  P  P20  1  0.410859  0.290241  0.243017  1
