# generated using pymatgen
data_K4Sn2Se5
_symmetry_space_group_name_H-M   'P 1'
_cell_length_a   7.90454908
_cell_length_b   9.23229026
_cell_length_c   11.83483316
_cell_angle_alpha   73.85462219
_cell_angle_beta   70.65686404
_cell_angle_gamma   81.64933173
_symmetry_Int_Tables_number   1
_chemical_formula_structural   K4Sn2Se5
_chemical_formula_sum   'K8 Sn4 Se10'
_cell_volume   781.43209682
_cell_formula_units_Z   2
loop_
 _symmetry_equiv_pos_site_id
 _symmetry_equiv_pos_as_xyz
  1  'x, y, z'
loop_
 _atom_site_type_symbol
 _atom_site_label
 _atom_site_symmetry_multiplicity
 _atom_site_fract_x
 _atom_site_fract_y
 _atom_site_fract_z
 _atom_site_occupancy
  K  K0  1  0.203814  0.000651  0.593891  1
  K  K1  1  0.796186  0.999349  0.406109  1
  K  K2  1  0.913531  0.517840  0.685889  1
  K  K3  1  0.086469  0.482160  0.314111  1
  K  K4  1  0.500000  0.500000  0.500000  1
  K  K5  1  0.000000  0.000000  0.000000  1
  K  K6  1  0.273247  0.499837  0.898739  1
  K  K7  1  0.726753  0.500163  0.101261  1
  Sn  Sn8  1  0.428438  0.840180  0.228426  1
  Sn  Sn9  1  0.571562  0.159820  0.771574  1
  Sn  Sn10  1  0.381173  0.160720  0.163953  1
  Sn  Sn11  1  0.618827  0.839280  0.836047  1
  Se  Se12  1  0.065790  0.245562  0.153070  1
  Se  Se13  1  0.934210  0.754438  0.846930  1
  Se  Se14  1  0.632350  0.259109  0.947274  1
  Se  Se15  1  0.367650  0.740891  0.052726  1
  Se  Se16  1  0.828107  0.250658  0.576904  1
  Se  Se17  1  0.171893  0.749342  0.423096  1
  Se  Se18  1  0.540873  0.747755  0.677391  1
  Se  Se19  1  0.459127  0.252245  0.322609  1
  Se  Se20  1  0.263623  0.248123  0.747316  1
  Se  Se21  1  0.736377  0.751877  0.252684  1
