# generated using pymatgen
data_Dy4Zn5Ga13Pd6
_symmetry_space_group_name_H-M   'P 1'
_cell_length_a   7.59177650
_cell_length_b   7.63009651
_cell_length_c   9.51485200
_cell_angle_alpha   89.99035070
_cell_angle_beta   90.05504090
_cell_angle_gamma   119.20549908
_symmetry_Int_Tables_number   1
_chemical_formula_structural   Dy4Zn5Ga13Pd6
_chemical_formula_sum   'Dy4 Zn5 Ga13 Pd6'
_cell_volume   481.09122539
_cell_formula_units_Z   1
loop_
 _symmetry_equiv_pos_site_id
 _symmetry_equiv_pos_as_xyz
  1  'x, y, z'
loop_
 _atom_site_type_symbol
 _atom_site_label
 _atom_site_symmetry_multiplicity
 _atom_site_fract_x
 _atom_site_fract_y
 _atom_site_fract_z
 _atom_site_occupancy
  Dy  Dy0  1  0.996306  0.673748  0.250315  1
  Dy  Dy1  1  0.004529  0.328144  0.749861  1
  Dy  Dy2  1  0.674185  0.998591  0.250272  1
  Dy  Dy3  1  0.324906  0.999809  0.750625  1
  Zn  Zn4  1  0.135537  0.139516  0.248078  1
  Zn  Zn5  1  0.863694  0.861417  0.750370  1
  Zn  Zn6  1  0.009980  0.338608  0.084767  1
  Zn  Zn7  1  0.339118  0.546581  0.247512  1
  Zn  Zn8  1  0.653611  0.450437  0.750596  1
  Ga  Ga9  1  0.990659  0.656595  0.915833  1
  Ga  Ga10  1  0.990523  0.661128  0.587329  1
  Ga  Ga11  1  0.334361  0.003060  0.412642  1
  Ga  Ga12  1  0.009515  0.338228  0.411158  1
  Ga  Ga13  1  0.667024  0.998810  0.586634  1
  Ga  Ga14  1  0.671560  0.002990  0.916431  1
  Ga  Ga15  1  0.334635  0.002264  0.086722  1
  Ga  Ga16  1  0.335581  0.332683  0.564251  1
  Ga  Ga17  1  0.663298  0.666839  0.434498  1
  Ga  Ga18  1  0.664269  0.667039  0.063686  1
  Ga  Ga19  1  0.330275  0.331485  0.940228  1
  Ga  Ga20  1  0.543439  0.344459  0.249989  1
  Ga  Ga21  1  0.459250  0.658169  0.750506  1
  Pd  Pd22  1  0.670462  0.323969  0.002635  1
  Pd  Pd23  1  0.330728  0.681586  0.995188  1
  Pd  Pd24  1  0.325782  0.675757  0.503714  1
  Pd  Pd25  1  0.675713  0.324954  0.496412  1
  Pd  Pd26  1  0.000185  0.993643  0.999900  1
  Pd  Pd27  1  0.000878  0.999496  0.499850  1
