# generated using pymatgen
data_Er7Tm5TcRu3
_symmetry_space_group_name_H-M   'P 1'
_cell_length_a   6.23715424
_cell_length_b   7.30592212
_cell_length_c   9.02131412
_cell_angle_alpha   89.95200312
_cell_angle_beta   89.96894555
_cell_angle_gamma   89.97632697
_symmetry_Int_Tables_number   1
_chemical_formula_structural   Er7Tm5TcRu3
_chemical_formula_sum   'Er7 Tm5 Tc1 Ru3'
_cell_volume   411.08447392
_cell_formula_units_Z   1
loop_
 _symmetry_equiv_pos_site_id
 _symmetry_equiv_pos_as_xyz
  1  'x, y, z'
loop_
 _atom_site_type_symbol
 _atom_site_label
 _atom_site_symmetry_multiplicity
 _atom_site_fract_x
 _atom_site_fract_y
 _atom_site_fract_z
 _atom_site_occupancy
  Er  Er0  1  0.630596  0.039853  0.250489  1
  Er  Er1  1  0.367504  0.957932  0.749544  1
  Er  Er2  1  0.132435  0.458521  0.749470  1
  Er  Er3  1  0.873376  0.541561  0.250488  1
  Er  Er4  1  0.167418  0.176526  0.064190  1
  Er  Er5  1  0.831936  0.823304  0.936432  1
  Er  Er6  1  0.665649  0.324563  0.937532  1
  Tm  Tm7  1  0.832265  0.823571  0.563365  1
  Tm  Tm8  1  0.332210  0.676069  0.063876  1
  Tm  Tm9  1  0.167045  0.176136  0.436187  1
  Tm  Tm10  1  0.332469  0.675959  0.436345  1
  Tm  Tm11  1  0.665620  0.324804  0.562312  1
  Tc  Tc12  1  0.462900  0.384809  0.250109  1
  Ru  Ru13  1  0.538561  0.617060  0.749852  1
  Ru  Ru14  1  0.962214  0.115385  0.749629  1
  Ru  Ru15  1  0.037802  0.883947  0.250178  1
