# generated using pymatgen
data_Tb8Nb5Si16Mo7
_symmetry_space_group_name_H-M   'P 1'
_cell_length_a   6.97379133
_cell_length_b   6.97061012
_cell_length_c   12.95878386
_cell_angle_alpha   90.01974039
_cell_angle_beta   90.11007933
_cell_angle_gamma   89.99714578
_symmetry_Int_Tables_number   1
_chemical_formula_structural   Tb8Nb5Si16Mo7
_chemical_formula_sum   'Tb8 Nb5 Si16 Mo7'
_cell_volume   629.94576236
_cell_formula_units_Z   1
loop_
 _symmetry_equiv_pos_site_id
 _symmetry_equiv_pos_as_xyz
  1  'x, y, z'
loop_
 _atom_site_type_symbol
 _atom_site_label
 _atom_site_symmetry_multiplicity
 _atom_site_fract_x
 _atom_site_fract_y
 _atom_site_fract_z
 _atom_site_occupancy
  Tb  Tb0  1  0.339482  0.000937  0.467082  1
  Tb  Tb1  1  0.498012  0.839043  0.718620  1
  Tb  Tb2  1  0.500805  0.161220  0.218151  1
  Tb  Tb3  1  0.838537  0.498373  0.280903  1
  Tb  Tb4  1  0.161118  0.500859  0.782660  1
  Tb  Tb5  1  0.660468  0.998674  0.968913  1
  Tb  Tb6  1  0.001570  0.338999  0.531783  1
  Tb  Tb7  1  0.998873  0.661219  0.031904  1
  Nb  Nb8  1  0.331162  0.331405  0.000317  1
  Nb  Nb9  1  0.168864  0.831116  0.249252  1
  Nb  Nb10  1  0.830759  0.169204  0.750662  1
  Nb  Nb11  1  0.669205  0.668023  0.499283  1
  Nb  Nb12  1  0.994626  0.842307  0.625494  1
  Si  Si13  1  0.205628  0.130839  0.684464  1
  Si  Si14  1  0.373230  0.701995  0.934606  1
  Si  Si15  1  0.628089  0.297841  0.433860  1
  Si  Si16  1  0.701871  0.372843  0.065730  1
  Si  Si17  1  0.300907  0.626268  0.564668  1
  Si  Si18  1  0.797014  0.873138  0.184193  1
  Si  Si19  1  0.126280  0.201994  0.315762  1
  Si  Si20  1  0.872300  0.796162  0.817708  1
  Si  Si21  1  0.288508  0.959771  0.062826  1
  Si  Si22  1  0.540889  0.788351  0.312407  1
  Si  Si23  1  0.459314  0.211464  0.812996  1
  Si  Si24  1  0.787539  0.539007  0.688031  1
  Si  Si25  1  0.210817  0.459029  0.187105  1
  Si  Si26  1  0.707438  0.044465  0.562544  1
  Si  Si27  1  0.958804  0.289269  0.937892  1
  Si  Si28  1  0.042465  0.708966  0.435231  1
  Mo  Mo29  1  0.160158  0.006141  0.875078  1
  Mo  Mo30  1  0.495387  0.660571  0.124210  1
  Mo  Mo31  1  0.504334  0.339280  0.623890  1
  Mo  Mo32  1  0.660225  0.494393  0.876668  1
  Mo  Mo33  1  0.341081  0.502904  0.374895  1
  Mo  Mo34  1  0.840211  0.994700  0.374826  1
  Mo  Mo35  1  0.004028  0.159230  0.125385  1
