# generated using pymatgen
data_ThWN3
_symmetry_space_group_name_H-M   'P 1'
_cell_length_a   5.59283300
_cell_length_b   5.67967700
_cell_length_c   8.00584800
_cell_angle_alpha   90.00000000
_cell_angle_beta   90.00000000
_cell_angle_gamma   90.00000000
_symmetry_Int_Tables_number   1
_chemical_formula_structural   ThWN3
_chemical_formula_sum   'Th4 W4 N12'
_cell_volume   254.30964420
_cell_formula_units_Z   4
loop_
 _symmetry_equiv_pos_site_id
 _symmetry_equiv_pos_as_xyz
  1  'x, y, z'
loop_
 _atom_site_type_symbol
 _atom_site_label
 _atom_site_symmetry_multiplicity
 _atom_site_fract_x
 _atom_site_fract_y
 _atom_site_fract_z
 _atom_site_occupancy
  Th  Th0  1  0.503956  0.544519  0.250000  1
  Th  Th1  1  0.996044  0.044519  0.250000  1
  Th  Th2  1  0.496044  0.455481  0.750000  1
  Th  Th3  1  0.003956  0.955481  0.750000  1
  W  W4  1  0.000000  0.500000  0.000000  1
  W  W5  1  0.500000  0.000000  0.500000  1
  W  W6  1  0.000000  0.500000  0.500000  1
  W  W7  1  0.500000  0.000000  0.000000  1
  N  N8  1  0.426405  0.983926  0.250000  1
  N  N9  1  0.073595  0.483926  0.250000  1
  N  N10  1  0.573595  0.016074  0.750000  1
  N  N11  1  0.926405  0.516074  0.750000  1
  N  N12  1  0.797156  0.795701  0.037978  1
  N  N13  1  0.702844  0.295701  0.462022  1
  N  N14  1  0.202844  0.204299  0.537978  1
  N  N15  1  0.297156  0.704299  0.962022  1
  N  N16  1  0.202844  0.204299  0.962022  1
  N  N17  1  0.297156  0.704299  0.537978  1
  N  N18  1  0.797156  0.795701  0.462022  1
  N  N19  1  0.702844  0.295701  0.037978  1
