# generated using pymatgen
data_DyHo3Al5Tc3
_symmetry_space_group_name_H-M   'P 1'
_cell_length_a   5.47882819
_cell_length_b   5.52040723
_cell_length_c   8.73991100
_cell_angle_alpha   90.00000000
_cell_angle_beta   89.98473180
_cell_angle_gamma   120.25137444
_symmetry_Int_Tables_number   1
_chemical_formula_structural   DyHo3Al5Tc3
_chemical_formula_sum   'Dy1 Ho3 Al5 Tc3'
_cell_volume   228.34460879
_cell_formula_units_Z   1
loop_
 _symmetry_equiv_pos_site_id
 _symmetry_equiv_pos_as_xyz
  1  'x, y, z'
loop_
 _atom_site_type_symbol
 _atom_site_label
 _atom_site_symmetry_multiplicity
 _atom_site_fract_x
 _atom_site_fract_y
 _atom_site_fract_z
 _atom_site_occupancy
  Dy  Dy0  1  0.336967  0.668484  0.443287  1
  Ho  Ho1  1  0.665243  0.332622  0.555299  1
  Ho  Ho2  1  0.665404  0.332703  0.944782  1
  Ho  Ho3  1  0.337468  0.668735  0.056441  1
  Al  Al4  1  0.837090  0.163093  0.249689  1
  Al  Al5  1  0.837090  0.673997  0.249689  1
  Al  Al6  1  0.323323  0.161662  0.249815  1
  Al  Al7  1  0.184118  0.841533  0.750340  1
  Al  Al8  1  0.184118  0.342585  0.750340  1
  Tc  Tc9  1  0.976079  0.988040  0.510086  1
  Tc  Tc10  1  0.976139  0.988069  0.990176  1
  Tc  Tc11  1  0.676960  0.838480  0.750056  1
