# generated using pymatgen
data_Ba6LuCr2InO12
_symmetry_space_group_name_H-M   'P 1'
_cell_length_a   7.12956226
_cell_length_b   7.12969085
_cell_length_c   7.12993193
_cell_angle_alpha   93.71694546
_cell_angle_beta   93.71561916
_cell_angle_gamma   93.71523768
_symmetry_Int_Tables_number   1
_chemical_formula_structural   Ba6LuCr2InO12
_chemical_formula_sum   'Ba6 Lu1 Cr2 In1 O12'
_cell_volume   360.03567579
_cell_formula_units_Z   1
loop_
 _symmetry_equiv_pos_site_id
 _symmetry_equiv_pos_as_xyz
  1  'x, y, z'
loop_
 _atom_site_type_symbol
 _atom_site_label
 _atom_site_symmetry_multiplicity
 _atom_site_fract_x
 _atom_site_fract_y
 _atom_site_fract_z
 _atom_site_occupancy
  Ba  Ba0  1  0.614642  0.885319  0.249993  1
  Ba  Ba1  1  0.885290  0.249963  0.614735  1
  Ba  Ba2  1  0.250008  0.614725  0.885255  1
  Ba  Ba3  1  0.114062  0.749994  0.385984  1
  Ba  Ba4  1  0.750000  0.385964  0.113978  1
  Ba  Ba5  1  0.385915  0.114046  0.750008  1
  Lu  Lu6  1  0.249975  0.250053  0.250006  1
  Cr  Cr7  1  0.499319  0.499214  0.499137  1
  Cr  Cr8  1  0.000727  0.000740  0.000891  1
  In  In9  1  0.750028  0.749994  0.749992  1
  O  O10  1  0.530311  0.222082  0.404321  1
  O  O11  1  0.222117  0.404413  0.530224  1
  O  O12  1  0.404426  0.530286  0.221992  1
  O  O13  1  0.032870  0.906963  0.723802  1
  O  O14  1  0.906935  0.723708  0.032993  1
  O  O15  1  0.723683  0.032895  0.907037  1
  O  O16  1  0.467138  0.776266  0.592963  1
  O  O17  1  0.776348  0.593006  0.466998  1
  O  O18  1  0.593073  0.467093  0.776196  1
  O  O19  1  0.969685  0.095612  0.278019  1
  O  O20  1  0.095564  0.277934  0.969789  1
  O  O21  1  0.277883  0.969726  0.095685  1
