# generated using pymatgen
data_Ca3AcSb3
_symmetry_space_group_name_H-M   'P 1'
_cell_length_a   9.70879600
_cell_length_b   9.70879600
_cell_length_c   9.70879600
_cell_angle_alpha   90.00000000
_cell_angle_beta   90.00000000
_cell_angle_gamma   90.00000000
_symmetry_Int_Tables_number   1
_chemical_formula_structural   Ca3AcSb3
_chemical_formula_sum   'Ca12 Ac4 Sb12'
_cell_volume   915.15809906
_cell_formula_units_Z   4
loop_
 _symmetry_equiv_pos_site_id
 _symmetry_equiv_pos_as_xyz
  1  'x, y, z'
loop_
 _atom_site_type_symbol
 _atom_site_label
 _atom_site_symmetry_multiplicity
 _atom_site_fract_x
 _atom_site_fract_y
 _atom_site_fract_z
 _atom_site_occupancy
  Ca  Ca0  1  0.820417  0.320417  0.179583  1
  Ca  Ca1  1  0.930593  0.930593  0.930593  1
  Ca  Ca2  1  0.822977  0.677023  0.322977  1
  Ca  Ca3  1  0.179583  0.820417  0.320417  1
  Ca  Ca4  1  0.177023  0.177023  0.177023  1
  Ca  Ca5  1  0.322977  0.822977  0.677023  1
  Ca  Ca6  1  0.069407  0.430593  0.569407  1
  Ca  Ca7  1  0.320417  0.179583  0.820417  1
  Ca  Ca8  1  0.677023  0.322977  0.822977  1
  Ca  Ca9  1  0.679583  0.679583  0.679583  1
  Ca  Ca10  1  0.569407  0.069407  0.430593  1
  Ca  Ca11  1  0.430593  0.569407  0.069407  1
  Ac  Ac12  1  0.069770  0.569770  0.930230  1
  Ac  Ac13  1  0.930230  0.069770  0.569770  1
  Ac  Ac14  1  0.430230  0.430230  0.430230  1
  Ac  Ac15  1  0.569770  0.930230  0.069770  1
  Sb  Sb16  1  0.744635  0.624525  0.000020  1
  Sb  Sb17  1  0.875475  0.999980  0.244635  1
  Sb  Sb18  1  0.000020  0.744635  0.624525  1
  Sb  Sb19  1  0.124525  0.499980  0.255365  1
  Sb  Sb20  1  0.255365  0.124525  0.499980  1
  Sb  Sb21  1  0.244635  0.875475  0.999980  1
  Sb  Sb22  1  0.999980  0.244635  0.875475  1
  Sb  Sb23  1  0.375475  0.500020  0.755365  1
  Sb  Sb24  1  0.499980  0.255365  0.124525  1
  Sb  Sb25  1  0.624525  0.000020  0.744635  1
  Sb  Sb26  1  0.755365  0.375475  0.500020  1
  Sb  Sb27  1  0.500020  0.755365  0.375475  1
