# generated using pymatgen
data_DyHo19Bi11Sb
_symmetry_space_group_name_H-M   'P 1'
_cell_length_a   8.21244745
_cell_length_b   9.49033000
_cell_length_c   11.98829000
_cell_angle_alpha   90.00000000
_cell_angle_beta   90.03484961
_cell_angle_gamma   90.00000000
_symmetry_Int_Tables_number   1
_chemical_formula_structural   DyHo19Bi11Sb
_chemical_formula_sum   'Dy1 Ho19 Bi11 Sb1'
_cell_volume   934.35320024
_cell_formula_units_Z   1
loop_
 _symmetry_equiv_pos_site_id
 _symmetry_equiv_pos_as_xyz
  1  'x, y, z'
loop_
 _atom_site_type_symbol
 _atom_site_label
 _atom_site_symmetry_multiplicity
 _atom_site_fract_x
 _atom_site_fract_y
 _atom_site_fract_z
 _atom_site_occupancy
  Dy  Dy0  1  0.188714  0.750000  0.720362  1
  Ho  Ho1  1  0.353237  0.750000  0.212845  1
  Ho  Ho2  1  0.852531  0.750000  0.284071  1
  Ho  Ho3  1  0.647648  0.250000  0.784194  1
  Ho  Ho4  1  0.147537  0.250000  0.715998  1
  Ho  Ho5  1  0.690217  0.566173  0.057393  1
  Ho  Ho6  1  0.192784  0.935861  0.441244  1
  Ho  Ho7  1  0.308437  0.060404  0.941492  1
  Ho  Ho8  1  0.807259  0.436135  0.558611  1
  Ho  Ho9  1  0.308437  0.439596  0.941492  1
  Ho  Ho10  1  0.807259  0.063865  0.558611  1
  Ho  Ho11  1  0.690217  0.933827  0.057393  1
  Ho  Ho12  1  0.192784  0.564139  0.441244  1
  Ho  Ho13  1  0.475215  0.250000  0.488022  1
  Ho  Ho14  1  0.975795  0.250000  0.011666  1
  Ho  Ho15  1  0.525082  0.750000  0.512023  1
  Ho  Ho16  1  0.028078  0.750000  0.987923  1
  Ho  Ho17  1  0.312790  0.250000  0.218667  1
  Ho  Ho18  1  0.812535  0.250000  0.281422  1
  Ho  Ho19  1  0.683178  0.750000  0.783870  1
  Bi  Bi20  1  0.907506  0.750000  0.543249  1
  Bi  Bi21  1  0.593016  0.250000  0.042975  1
  Bi  Bi22  1  0.092776  0.250000  0.457145  1
  Bi  Bi23  1  0.565349  0.995406  0.325383  1
  Bi  Bi24  1  0.065321  0.504325  0.174372  1
  Bi  Bi25  1  0.434715  0.495308  0.674455  1
  Bi  Bi26  1  0.934262  0.004232  0.825572  1
  Bi  Bi27  1  0.434715  0.004692  0.674455  1
  Bi  Bi28  1  0.934262  0.495768  0.825572  1
  Bi  Bi29  1  0.565349  0.504594  0.325383  1
  Bi  Bi30  1  0.065321  0.995675  0.174372  1
  Sb  Sb31  1  0.407678  0.750000  0.958522  1
