# generated using pymatgen
data_La4PrDy5Ru4
_symmetry_space_group_name_H-M   'P 1'
_cell_length_a   8.85549448
_cell_length_b   8.85549498
_cell_length_c   7.33262189
_cell_angle_alpha   83.60904487
_cell_angle_beta   83.60904814
_cell_angle_gamma   43.26439448
_symmetry_Int_Tables_number   1
_chemical_formula_structural   La4PrDy5Ru4
_chemical_formula_sum   'La4 Pr1 Dy5 Ru4'
_cell_volume   391.26522745
_cell_formula_units_Z   1
loop_
 _symmetry_equiv_pos_site_id
 _symmetry_equiv_pos_as_xyz
  1  'x, y, z'
loop_
 _atom_site_type_symbol
 _atom_site_label
 _atom_site_symmetry_multiplicity
 _atom_site_fract_x
 _atom_site_fract_y
 _atom_site_fract_z
 _atom_site_occupancy
  La  La0  1  0.013571  0.791453  0.907601  1
  La  La1  1  0.208547  0.986429  0.592399  1
  La  La2  1  0.984146  0.211629  0.089209  1
  La  La3  1  0.788371  0.015854  0.410791  1
  Pr  Pr4  1  0.423672  0.576328  0.250000  1
  Dy  Dy5  1  0.364259  0.206576  0.816770  1
  Dy  Dy6  1  0.793424  0.635741  0.683230  1
  Dy  Dy7  1  0.638859  0.793451  0.182134  1
  Dy  Dy8  1  0.206549  0.361141  0.317866  1
  Dy  Dy9  1  0.572513  0.427487  0.750000  1
  Ru  Ru10  1  0.167695  0.602360  0.586767  1
  Ru  Ru11  1  0.397640  0.832305  0.913233  1
  Ru  Ru12  1  0.835186  0.394434  0.419208  1
  Ru  Ru13  1  0.605566  0.164814  0.080792  1
