# generated using pymatgen
data_Nd4Ho(SnBi)2
_symmetry_space_group_name_H-M   'P 1'
_cell_length_a   8.32528600
_cell_length_b   8.41216200
_cell_length_c   16.08990500
_cell_angle_alpha   90.00000000
_cell_angle_beta   90.00000000
_cell_angle_gamma   90.00000000
_symmetry_Int_Tables_number   1
_chemical_formula_structural   Nd4Ho(SnBi)2
_chemical_formula_sum   'Nd16 Ho4 Sn8 Bi8'
_cell_volume   1126.83484816
_cell_formula_units_Z   4
loop_
 _symmetry_equiv_pos_site_id
 _symmetry_equiv_pos_as_xyz
  1  'x, y, z'
loop_
 _atom_site_type_symbol
 _atom_site_label
 _atom_site_symmetry_multiplicity
 _atom_site_fract_x
 _atom_site_fract_y
 _atom_site_fract_z
 _atom_site_occupancy
  Nd  Nd0  1  0.045049  0.174968  0.392406  1
  Nd  Nd1  1  0.383079  0.838823  0.122232  1
  Nd  Nd2  1  0.116921  0.338823  0.622232  1
  Nd  Nd3  1  0.454951  0.674968  0.892406  1
  Nd  Nd4  1  0.883079  0.661177  0.122232  1
  Nd  Nd5  1  0.116921  0.338823  0.877768  1
  Nd  Nd6  1  0.454951  0.674968  0.607594  1
  Nd  Nd7  1  0.616921  0.161177  0.622232  1
  Nd  Nd8  1  0.883079  0.661177  0.377768  1
  Nd  Nd9  1  0.045049  0.174968  0.107594  1
  Nd  Nd10  1  0.954951  0.825032  0.892406  1
  Nd  Nd11  1  0.616921  0.161177  0.877768  1
  Nd  Nd12  1  0.545049  0.325032  0.107594  1
  Nd  Nd13  1  0.383079  0.838823  0.377768  1
  Nd  Nd14  1  0.954951  0.825032  0.607594  1
  Nd  Nd15  1  0.545049  0.325032  0.392406  1
  Ho  Ho16  1  0.212828  0.495484  0.250000  1
  Ho  Ho17  1  0.712828  0.004516  0.250000  1
  Ho  Ho18  1  0.287172  0.995484  0.750000  1
  Ho  Ho19  1  0.787172  0.504516  0.750000  1
  Sn  Sn20  1  0.650164  0.855362  0.750000  1
  Sn  Sn21  1  0.849836  0.355362  0.250000  1
  Sn  Sn22  1  0.580126  0.623617  0.250000  1
  Sn  Sn23  1  0.419874  0.376383  0.750000  1
  Sn  Sn24  1  0.150164  0.644638  0.750000  1
  Sn  Sn25  1  0.919874  0.123617  0.750000  1
  Sn  Sn26  1  0.349836  0.144638  0.250000  1
  Sn  Sn27  1  0.080126  0.876383  0.250000  1
  Bi  Bi28  1  0.774389  0.477655  0.547205  1
  Bi  Bi29  1  0.725611  0.977655  0.452795  1
  Bi  Bi30  1  0.225611  0.522345  0.452795  1
  Bi  Bi31  1  0.274389  0.022345  0.952795  1
  Bi  Bi32  1  0.774389  0.477655  0.952795  1
  Bi  Bi33  1  0.225611  0.522345  0.047205  1
  Bi  Bi34  1  0.274389  0.022345  0.547205  1
  Bi  Bi35  1  0.725611  0.977655  0.047205  1
