# generated using pymatgen
data_Y9ThRu4
_symmetry_space_group_name_H-M   'P 1'
_cell_length_a   6.43164824
_cell_length_b   7.30649585
_cell_length_c   8.63329280
_cell_angle_alpha   96.30410081
_cell_angle_beta   112.20921083
_cell_angle_gamma   90.68178723
_symmetry_Int_Tables_number   1
_chemical_formula_structural   Y9ThRu4
_chemical_formula_sum   'Y9 Th1 Ru4'
_cell_volume   372.70307623
_cell_formula_units_Z   1
loop_
 _symmetry_equiv_pos_site_id
 _symmetry_equiv_pos_as_xyz
  1  'x, y, z'
loop_
 _atom_site_type_symbol
 _atom_site_label
 _atom_site_symmetry_multiplicity
 _atom_site_fract_x
 _atom_site_fract_y
 _atom_site_fract_z
 _atom_site_occupancy
  Y  Y0  1  0.791114  0.583119  0.808412  1
  Y  Y1  1  0.020195  0.085506  0.812429  1
  Y  Y2  1  0.207151  0.415141  0.186470  1
  Y  Y3  1  0.640420  0.815326  0.434954  1
  Y  Y4  1  0.210089  0.683788  0.568774  1
  Y  Y5  1  0.357854  0.187568  0.569151  1
  Y  Y6  1  0.792249  0.315128  0.434630  1
  Y  Y7  1  0.421748  0.747598  0.996598  1
  Y  Y8  1  0.578572  0.250460  0.000900  1
  Th  Th9  1  0.989318  0.906978  0.188763  1
  Ru  Ru10  1  0.832197  0.590813  0.220026  1
  Ru  Ru11  1  0.608005  0.925869  0.783487  1
  Ru  Ru12  1  0.175109  0.423158  0.777718  1
  Ru  Ru13  1  0.375980  0.069547  0.217689  1
