# generated using pymatgen
data_TbTm2Fe7Co2
_symmetry_space_group_name_H-M   'P 1'
_cell_length_a   5.06771396
_cell_length_b   5.07066743
_cell_length_c   8.61121905
_cell_angle_alpha   72.87710671
_cell_angle_beta   72.98703313
_cell_angle_gamma   59.98071555
_symmetry_Int_Tables_number   1
_chemical_formula_structural   TbTm2Fe7Co2
_chemical_formula_sum   'Tb1 Tm2 Fe7 Co2'
_cell_volume   180.25968317
_cell_formula_units_Z   1
loop_
 _symmetry_equiv_pos_site_id
 _symmetry_equiv_pos_as_xyz
  1  'x, y, z'
loop_
 _atom_site_type_symbol
 _atom_site_label
 _atom_site_symmetry_multiplicity
 _atom_site_fract_x
 _atom_site_fract_y
 _atom_site_fract_z
 _atom_site_occupancy
  Tb  Tb0  1  0.000008  0.999870  0.000252  1
  Tm  Tm1  1  0.141615  0.141862  0.574661  1
  Tm  Tm2  1  0.858147  0.857283  0.427287  1
  Fe  Fe3  1  0.583135  0.582832  0.751416  1
  Fe  Fe4  1  0.583135  0.082616  0.751416  1
  Fe  Fe5  1  0.918242  0.416896  0.247969  1
  Fe  Fe6  1  0.416956  0.417001  0.247954  1
  Fe  Fe7  1  0.416956  0.918091  0.247954  1
  Fe  Fe8  1  0.332619  0.333308  0.000766  1
  Fe  Fe9  1  0.667586  0.666869  0.998674  1
  Co  Co10  1  0.081405  0.583008  0.752577  1
  Co  Co11  1  0.500196  0.500364  0.499075  1
