# generated using pymatgen
data_Tb3Y3Ni20P13
_symmetry_space_group_name_H-M   'P 1'
_cell_length_a   12.66751910
_cell_length_b   12.66520224
_cell_length_c   3.75940900
_cell_angle_alpha   90.00000000
_cell_angle_beta   90.00000000
_cell_angle_gamma   120.02062829
_symmetry_Int_Tables_number   1
_chemical_formula_structural   Tb3Y3Ni20P13
_chemical_formula_sum   'Tb3 Y3 Ni20 P13'
_cell_volume   522.23213654
_cell_formula_units_Z   1
loop_
 _symmetry_equiv_pos_site_id
 _symmetry_equiv_pos_as_xyz
  1  'x, y, z'
loop_
 _atom_site_type_symbol
 _atom_site_label
 _atom_site_symmetry_multiplicity
 _atom_site_fract_x
 _atom_site_fract_y
 _atom_site_fract_z
 _atom_site_occupancy
  Tb  Tb0  1  0.470226  0.188145  0.000000  1
  Tb  Tb1  1  0.530741  0.812105  0.500000  1
  Tb  Tb2  1  0.281501  0.469221  0.500000  1
  Y  Y3  1  0.717776  0.529789  0.000000  1
  Y  Y4  1  0.811961  0.282251  0.000000  1
  Y  Y5  1  0.187730  0.718546  0.500000  1
  Ni  Ni6  1  0.333323  0.666680  0.000000  1
  Ni  Ni7  1  0.666687  0.333341  0.500000  1
  Ni  Ni8  1  0.195467  0.090566  0.000000  1
  Ni  Ni9  1  0.895141  0.804517  0.000000  1
  Ni  Ni10  1  0.909384  0.104858  0.000000  1
  Ni  Ni11  1  0.848311  0.927536  0.500000  1
  Ni  Ni12  1  0.079209  0.151673  0.500000  1
  Ni  Ni13  1  0.072433  0.920773  0.500000  1
  Ni  Ni14  1  0.437840  0.416310  0.000000  1
  Ni  Ni15  1  0.978534  0.562236  0.000000  1
  Ni  Ni16  1  0.583727  0.021526  0.000000  1
  Ni  Ni17  1  0.564891  0.586854  0.500000  1
  Ni  Ni18  1  0.021938  0.435079  0.500000  1
  Ni  Ni19  1  0.413153  0.978009  0.500000  1
  Ni  Ni20  1  0.078161  0.320254  0.000000  1
  Ni  Ni21  1  0.242032  0.921770  0.000000  1
  Ni  Ni22  1  0.679789  0.757943  0.000000  1
  Ni  Ni23  1  0.929136  0.682983  0.500000  1
  Ni  Ni24  1  0.753850  0.070875  0.500000  1
  Ni  Ni25  1  0.316972  0.246144  0.500000  1
  P  P26  1  0.234291  0.281975  0.000000  1
  P  P27  1  0.047854  0.765764  0.000000  1
  P  P28  1  0.718039  0.952258  0.000000  1
  P  P29  1  0.767352  0.721318  0.500000  1
  P  P30  1  0.953972  0.232621  0.500000  1
  P  P31  1  0.278606  0.046038  0.500000  1
  P  P32  1  0.476869  0.614237  0.000000  1
  P  P33  1  0.137459  0.523271  0.000000  1
  P  P34  1  0.385645  0.862550  0.000000  1
  P  P35  1  0.523520  0.386567  0.500000  1
  P  P36  1  0.862907  0.476420  0.500000  1
  P  P37  1  0.613571  0.136981  0.500000  1
  P  P38  1  0.000000  0.000016  0.000000  1
