# generated using pymatgen
data_Y12Th4Mg4IrRu3
_symmetry_space_group_name_H-M   'P 1'
_cell_length_a   9.80191480
_cell_length_b   9.80738691
_cell_length_c   9.81498500
_cell_angle_alpha   59.97381970
_cell_angle_beta   59.95525122
_cell_angle_gamma   59.92579311
_symmetry_Int_Tables_number   1
_chemical_formula_structural   Y12Th4Mg4IrRu3
_chemical_formula_sum   'Y12 Th4 Mg4 Ir1 Ru3'
_cell_volume   666.44137247
_cell_formula_units_Z   1
loop_
 _symmetry_equiv_pos_site_id
 _symmetry_equiv_pos_as_xyz
  1  'x, y, z'
loop_
 _atom_site_type_symbol
 _atom_site_label
 _atom_site_symmetry_multiplicity
 _atom_site_fract_x
 _atom_site_fract_y
 _atom_site_fract_z
 _atom_site_occupancy
  Y  Y0  1  0.063277  0.437355  0.437838  1
  Y  Y1  1  0.436889  0.062639  0.063173  1
  Y  Y2  1  0.436890  0.062642  0.437291  1
  Y  Y3  1  0.063273  0.437355  0.061526  1
  Y  Y4  1  0.437402  0.437141  0.062727  1
  Y  Y5  1  0.063500  0.061397  0.437548  1
  Y  Y6  1  0.185276  0.814240  0.814672  1
  Y  Y7  1  0.812579  0.186599  0.185901  1
  Y  Y8  1  0.812583  0.186599  0.814916  1
  Y  Y9  1  0.185278  0.814235  0.185809  1
  Y  Y10  1  0.813240  0.814808  0.185973  1
  Y  Y11  1  0.185371  0.186551  0.814034  1
  Th  Th12  1  0.593841  0.597800  0.597230  1
  Th  Th13  1  0.593848  0.597802  0.211127  1
  Th  Th14  1  0.594681  0.210448  0.597441  1
  Th  Th15  1  0.212661  0.595972  0.595690  1
  Mg  Mg16  1  0.829438  0.829863  0.830840  1
  Mg  Mg17  1  0.829430  0.829859  0.509861  1
  Mg  Mg18  1  0.829248  0.509637  0.830552  1
  Mg  Mg19  1  0.509219  0.829577  0.830597  1
  Ir  Ir20  1  0.822105  0.393092  0.392407  1
  Ru  Ru21  1  0.396652  0.394395  0.393643  1
  Ru  Ru22  1  0.396646  0.394385  0.815334  1
  Ru  Ru23  1  0.396669  0.815606  0.393864  1
