# generated using pymatgen
data_YHf5Co16(P6Ru)2
_symmetry_space_group_name_H-M   'P 1'
_cell_length_a   11.96455458
_cell_length_b   11.98672742
_cell_length_c   3.65114100
_cell_angle_alpha   90.00000000
_cell_angle_beta   90.00000000
_cell_angle_gamma   120.05766397
_symmetry_Int_Tables_number   1
_chemical_formula_structural   YHf5Co16(P6Ru)2
_chemical_formula_sum   'Y1 Hf5 Co16 P12 Ru2'
_cell_volume   453.21445867
_cell_formula_units_Z   1
loop_
 _symmetry_equiv_pos_site_id
 _symmetry_equiv_pos_as_xyz
  1  'x, y, z'
loop_
 _atom_site_type_symbol
 _atom_site_label
 _atom_site_symmetry_multiplicity
 _atom_site_fract_x
 _atom_site_fract_y
 _atom_site_fract_z
 _atom_site_occupancy
  Y  Y0  1  0.334957  0.666583  0.000000  1
  Hf  Hf1  1  0.820999  0.818801  0.500000  1
  Hf  Hf2  1  0.000218  0.174906  0.500000  1
  Hf  Hf3  1  0.666370  0.333549  0.000000  1
  Hf  Hf4  1  0.998067  0.555514  0.000000  1
  Hf  Hf5  1  0.178699  0.997299  0.500000  1
  Co  Co6  1  0.630036  0.824330  0.000000  1
  Co  Co7  1  0.376101  0.195716  0.000000  1
  Co  Co8  1  0.997458  0.721479  0.500000  1
  Co  Co9  1  0.282632  0.278522  0.500000  1
  Co  Co10  1  0.869011  0.351874  0.500000  1
  Co  Co11  1  0.720376  0.002285  0.500000  1
  Co  Co12  1  0.815551  0.627558  0.000000  1
  Co  Co13  1  0.179757  0.812167  0.000000  1
  Co  Co14  1  0.357101  0.879442  0.500000  1
  Co  Co15  1  0.123458  0.473240  0.500000  1
  Co  Co16  1  0.640959  0.514366  0.500000  1
  Co  Co17  1  0.000184  0.001271  0.000000  1
  Co  Co18  1  0.520804  0.646802  0.500000  1
  Co  Co19  1  0.487087  0.132204  0.500000  1
  Co  Co20  1  0.194037  0.365756  0.000000  1
  Co  Co21  1  0.805071  0.176552  0.000000  1
  P  P22  1  0.001093  0.346046  0.000000  1
  P  P23  1  0.823944  0.515663  0.500000  1
  P  P24  1  0.685276  0.166478  0.500000  1
  P  P25  1  0.178024  0.173315  0.000000  1
  P  P26  1  0.640386  0.645440  0.000000  1
  P  P27  1  0.824251  0.999635  0.000000  1
  P  P28  1  0.522333  0.838576  0.500000  1
  P  P29  1  0.171245  0.692539  0.500000  1
  P  P30  1  0.359183  0.003834  0.000000  1
  P  P31  1  0.482304  0.315058  0.500000  1
  P  P32  1  0.998085  0.825235  0.000000  1
  P  P33  1  0.315145  0.475896  0.500000  1
  Ru  Ru34  1  0.448610  0.450762  0.000000  1
  Ru  Ru35  1  0.551189  0.001307  0.000000  1
