# generated using pymatgen
data_LaPaCdRh2
_symmetry_space_group_name_H-M   'P 1'
_cell_length_a   7.84053500
_cell_length_b   7.86674900
_cell_length_c   3.70791000
_cell_angle_alpha   90.00000000
_cell_angle_beta   90.00000000
_cell_angle_gamma   90.00000000
_symmetry_Int_Tables_number   1
_chemical_formula_structural   LaPaCdRh2
_chemical_formula_sum   'La2 Pa2 Cd2 Rh4'
_cell_volume   228.70211223
_cell_formula_units_Z   2
loop_
 _symmetry_equiv_pos_site_id
 _symmetry_equiv_pos_as_xyz
  1  'x, y, z'
loop_
 _atom_site_type_symbol
 _atom_site_label
 _atom_site_symmetry_multiplicity
 _atom_site_fract_x
 _atom_site_fract_y
 _atom_site_fract_z
 _atom_site_occupancy
  La  La0  1  0.669516  0.169343  0.500000  1
  La  La1  1  0.169516  0.330657  0.500000  1
  Pa  Pa2  1  0.825386  0.666956  0.500000  1
  Pa  Pa3  1  0.325386  0.833044  0.500000  1
  Cd  Cd4  1  0.993965  0.998096  0.000000  1
  Cd  Cd5  1  0.493965  0.501904  0.000000  1
  Rh  Rh6  1  0.860994  0.416610  0.000000  1
  Rh  Rh7  1  0.360994  0.083390  0.000000  1
  Rh  Rh8  1  0.650138  0.844716  0.000000  1
  Rh  Rh9  1  0.150138  0.655284  0.000000  1
