# generated using pymatgen
data_Ti2Cu7Pt
_symmetry_space_group_name_H-M   'P 1'
_cell_length_a   4.36360100
_cell_length_b   4.55571800
_cell_length_c   13.17782100
_cell_angle_alpha   90.00000000
_cell_angle_beta   90.00000000
_cell_angle_gamma   90.00000000
_symmetry_Int_Tables_number   1
_chemical_formula_structural   Ti2Cu7Pt
_chemical_formula_sum   'Ti4 Cu14 Pt2'
_cell_volume   261.96632641
_cell_formula_units_Z   2
loop_
 _symmetry_equiv_pos_site_id
 _symmetry_equiv_pos_as_xyz
  1  'x, y, z'
loop_
 _atom_site_type_symbol
 _atom_site_label
 _atom_site_symmetry_multiplicity
 _atom_site_fract_x
 _atom_site_fract_y
 _atom_site_fract_z
 _atom_site_occupancy
  Ti  Ti0  1  0.250000  0.155752  0.596452  1
  Ti  Ti1  1  0.250000  0.655752  0.903548  1
  Ti  Ti2  1  0.750000  0.840098  0.404033  1
  Ti  Ti3  1  0.750000  0.340098  0.095967  1
  Cu  Cu4  1  0.750000  0.831829  0.997410  1
  Cu  Cu5  1  0.750000  0.331829  0.502590  1
  Cu  Cu6  1  0.250000  0.157794  0.795822  1
  Cu  Cu7  1  0.250000  0.657794  0.704178  1
  Cu  Cu8  1  0.750000  0.840052  0.202105  1
  Cu  Cu9  1  0.750000  0.340052  0.297895  1
  Cu  Cu10  1  0.250000  0.178089  0.391899  1
  Cu  Cu11  1  0.250000  0.678089  0.108101  1
  Cu  Cu12  1  0.750000  0.827796  0.608216  1
  Cu  Cu13  1  0.750000  0.327796  0.891784  1
  Cu  Cu14  1  0.250000  0.167817  0.204304  1
  Cu  Cu15  1  0.250000  0.667817  0.295696  1
  Cu  Cu16  1  0.750000  0.831163  0.798488  1
  Cu  Cu17  1  0.750000  0.331163  0.701512  1
  Pt  Pt18  1  0.250000  0.169612  0.001408  1
  Pt  Pt19  1  0.250000  0.669612  0.498592  1
