# generated using pymatgen
data_Li3La3Hg2Au
_symmetry_space_group_name_H-M   'P 1'
_cell_length_a   8.04075400
_cell_length_b   8.04075380
_cell_length_c   4.06018700
_cell_angle_alpha   90.00000000
_cell_angle_beta   90.00000000
_cell_angle_gamma   120.00000082
_symmetry_Int_Tables_number   1
_chemical_formula_structural   Li3La3Hg2Au
_chemical_formula_sum   'Li3 La3 Hg2 Au1'
_cell_volume   227.33704187
_cell_formula_units_Z   1
loop_
 _symmetry_equiv_pos_site_id
 _symmetry_equiv_pos_as_xyz
  1  'x, y, z'
loop_
 _atom_site_type_symbol
 _atom_site_label
 _atom_site_symmetry_multiplicity
 _atom_site_fract_x
 _atom_site_fract_y
 _atom_site_fract_z
 _atom_site_occupancy
  Li  Li0  1  0.758527  0.752946  0.000000  1
  Li  Li1  1  0.247054  0.005582  0.000000  1
  Li  Li2  1  0.994418  0.241473  0.000000  1
  La  La3  1  0.406497  0.420897  0.500000  1
  La  La4  1  0.579103  0.985602  0.500000  1
  La  La5  1  0.014398  0.593503  0.500000  1
  Hg  Hg6  1  0.666667  0.333333  0.000000  1
  Hg  Hg7  1  0.000000  0.000000  0.500000  1
  Au  Au8  1  0.333333  0.666667  0.000000  1
