# generated using pymatgen
data_LuPa2(Al3Os)4
_symmetry_space_group_name_H-M   'P 1'
_cell_length_a   8.87799500
_cell_length_b   8.83137248
_cell_length_c   9.45078300
_cell_angle_alpha   90.00000000
_cell_angle_beta   90.00000000
_cell_angle_gamma   120.17478473
_symmetry_Int_Tables_number   1
_chemical_formula_structural   LuPa2(Al3Os)4
_chemical_formula_sum   'Lu2 Pa4 Al24 Os8'
_cell_volume   640.58081027
_cell_formula_units_Z   2
loop_
 _symmetry_equiv_pos_site_id
 _symmetry_equiv_pos_as_xyz
  1  'x, y, z'
loop_
 _atom_site_type_symbol
 _atom_site_label
 _atom_site_symmetry_multiplicity
 _atom_site_fract_x
 _atom_site_fract_y
 _atom_site_fract_z
 _atom_site_occupancy
  Lu  Lu0  1  0.199586  0.399172  0.250000  1
  Lu  Lu1  1  0.800414  0.600828  0.750000  1
  Pa  Pa2  1  0.607054  0.804051  0.250000  1
  Pa  Pa3  1  0.392946  0.195949  0.750000  1
  Pa  Pa4  1  0.196997  0.804051  0.250000  1
  Pa  Pa5  1  0.803003  0.195949  0.750000  1
  Al  Al6  1  0.331512  0.663026  0.021299  1
  Al  Al7  1  0.668488  0.336974  0.978701  1
  Al  Al8  1  0.668488  0.336974  0.521299  1
  Al  Al9  1  0.331512  0.663026  0.478701  1
  Al  Al10  1  0.162840  0.325680  0.577446  1
  Al  Al11  1  0.837160  0.674320  0.422554  1
  Al  Al12  1  0.675009  0.836022  0.578387  1
  Al  Al13  1  0.837160  0.674320  0.077446  1
  Al  Al14  1  0.324991  0.163978  0.421613  1
  Al  Al15  1  0.162840  0.325680  0.922554  1
  Al  Al16  1  0.161014  0.836022  0.578387  1
  Al  Al17  1  0.324991  0.163978  0.078387  1
  Al  Al18  1  0.838986  0.163978  0.421613  1
  Al  Al19  1  0.675009  0.836022  0.921613  1
  Al  Al20  1  0.838986  0.163978  0.078387  1
  Al  Al21  1  0.161014  0.836022  0.921613  1
  Al  Al22  1  0.564311  0.128621  0.250000  1
  Al  Al23  1  0.435689  0.871379  0.750000  1
  Al  Al24  1  0.876615  0.437108  0.250000  1
  Al  Al25  1  0.123385  0.562892  0.750000  1
  Al  Al26  1  0.560493  0.437108  0.250000  1
  Al  Al27  1  0.439507  0.562892  0.750000  1
  Al  Al28  1  0.001249  0.002499  0.250000  1
  Al  Al29  1  0.998751  0.997501  0.750000  1
  Os  Os30  1  0.500000  0.000000  0.000000  1
  Os  Os31  1  0.000000  0.500000  0.000000  1
  Os  Os32  1  0.500000  0.000000  0.500000  1
  Os  Os33  1  0.500000  0.500000  0.000000  1
  Os  Os34  1  0.000000  0.500000  0.500000  1
  Os  Os35  1  0.500000  0.500000  0.500000  1
  Os  Os36  1  0.000000  0.000000  0.000000  1
  Os  Os37  1  0.000000  0.000000  0.500000  1
