# generated using pymatgen
data_Tb5Dy7Co4RuPb
_symmetry_space_group_name_H-M   'P 1'
_cell_length_a   8.33394035
_cell_length_b   8.33536143
_cell_length_c   8.33392712
_cell_angle_alpha   106.67536623
_cell_angle_beta   110.61732514
_cell_angle_gamma   111.15016172
_symmetry_Int_Tables_number   1
_chemical_formula_structural   Tb5Dy7Co4RuPb
_chemical_formula_sum   'Tb5 Dy7 Co4 Ru1 Pb1'
_cell_volume   444.89695877
_cell_formula_units_Z   1
loop_
 _symmetry_equiv_pos_site_id
 _symmetry_equiv_pos_as_xyz
  1  'x, y, z'
loop_
 _atom_site_type_symbol
 _atom_site_label
 _atom_site_symmetry_multiplicity
 _atom_site_fract_x
 _atom_site_fract_y
 _atom_site_fract_z
 _atom_site_occupancy
  Tb  Tb0  1  0.472333  0.287671  0.184263  1
  Tb  Tb1  1  0.103408  0.287671  0.815339  1
  Tb  Tb2  1  0.896259  0.712165  0.184298  1
  Tb  Tb3  1  0.527867  0.712165  0.815907  1
  Tb  Tb4  1  0.307436  0.619738  0.312302  1
  Dy  Dy5  1  0.307884  0.995550  0.687666  1
  Dy  Dy6  1  0.692206  0.379667  0.687462  1
  Dy  Dy7  1  0.692383  0.004954  0.312574  1
  Dy  Dy8  1  0.193938  0.211649  0.405832  1
  Dy  Dy9  1  0.806324  0.788277  0.594329  1
  Dy  Dy10  1  0.193948  0.788277  0.981950  1
  Dy  Dy11  1  0.805816  0.211649  0.017714  1
  Co  Co12  1  0.500162  0.611170  0.111008  1
  Co  Co13  1  0.499899  0.388632  0.888734  1
  Co  Co14  1  0.379571  0.000431  0.379616  1
  Co  Co15  1  0.620815  0.000432  0.620860  1
  Ru  Ru16  1  0.999961  0.999969  0.000008  1
  Pb  Pb17  1  0.999790  0.499930  0.500140  1
