# generated using pymatgen
data_Tm2Lu5Pa(ReB6)4
_symmetry_space_group_name_H-M   'P 1'
_cell_length_a   3.64496500
_cell_length_b   9.07967024
_cell_length_c   11.43867704
_cell_angle_alpha   90.12509896
_cell_angle_beta   90.00000000
_cell_angle_gamma   90.00000000
_symmetry_Int_Tables_number   1
_chemical_formula_structural   Tm2Lu5Pa(ReB6)4
_chemical_formula_sum   'Tm2 Lu5 Pa1 Re4 B24'
_cell_volume   378.56303184
_cell_formula_units_Z   1
loop_
 _symmetry_equiv_pos_site_id
 _symmetry_equiv_pos_as_xyz
  1  'x, y, z'
loop_
 _atom_site_type_symbol
 _atom_site_label
 _atom_site_symmetry_multiplicity
 _atom_site_fract_x
 _atom_site_fract_y
 _atom_site_fract_z
 _atom_site_occupancy
  Tm  Tm0  1  0.000000  0.680150  0.587118  1
  Tm  Tm1  1  0.000000  0.822801  0.085236  1
  Lu  Lu2  1  0.000000  0.175991  0.913450  1
  Lu  Lu3  1  0.000000  0.942809  0.371708  1
  Lu  Lu4  1  0.000000  0.054925  0.629474  1
  Lu  Lu5  1  0.000000  0.443765  0.127160  1
  Lu  Lu6  1  0.000000  0.557046  0.870755  1
  Pa  Pa7  1  0.000000  0.322806  0.414077  1
  Re  Re8  1  0.000000  0.636709  0.321157  1
  Re  Re9  1  0.000000  0.361643  0.677515  1
  Re  Re10  1  0.000000  0.140875  0.181156  1
  Re  Re11  1  0.000000  0.861508  0.820956  1
  B  B12  1  0.500000  0.553384  0.432363  1
  B  B13  1  0.500000  0.446101  0.567392  1
  B  B14  1  0.500000  0.053686  0.066554  1
  B  B15  1  0.500000  0.947060  0.934018  1
  B  B16  1  0.500000  0.750358  0.418963  1
  B  B17  1  0.500000  0.249285  0.581663  1
  B  B18  1  0.500000  0.249903  0.079366  1
  B  B19  1  0.500000  0.749809  0.919511  1
  B  B20  1  0.500000  0.792847  0.265289  1
  B  B21  1  0.500000  0.206965  0.735844  1
  B  B22  1  0.500000  0.292357  0.233958  1
  B  B23  1  0.500000  0.707283  0.765569  1
  B  B24  1  0.500000  0.631152  0.183702  1
  B  B25  1  0.500000  0.369872  0.815431  1
  B  B26  1  0.500000  0.130856  0.315066  1
  B  B27  1  0.500000  0.869133  0.685352  1
  B  B28  1  0.500000  0.981485  0.212124  1
  B  B29  1  0.500000  0.018687  0.788249  1
  B  B30  1  0.500000  0.482603  0.286599  1
  B  B31  1  0.500000  0.518830  0.713453  1
  B  B32  1  0.500000  0.600693  0.027350  1
  B  B33  1  0.500000  0.399219  0.971238  1
  B  B34  1  0.500000  0.101313  0.472139  1
  B  B35  1  0.500000  0.896094  0.529045  1
