# generated using pymatgen
data_CaErAl9Ni2Rh
_symmetry_space_group_name_H-M   'P 1'
_cell_length_a   7.45167351
_cell_length_b   7.44114433
_cell_length_c   9.32704100
_cell_angle_alpha   90.00000000
_cell_angle_beta   90.00000000
_cell_angle_gamma   118.81518851
_symmetry_Int_Tables_number   1
_chemical_formula_structural   CaErAl9Ni2Rh
_chemical_formula_sum   'Ca2 Er2 Al18 Ni4 Rh2'
_cell_volume   453.13774920
_cell_formula_units_Z   2
loop_
 _symmetry_equiv_pos_site_id
 _symmetry_equiv_pos_as_xyz
  1  'x, y, z'
loop_
 _atom_site_type_symbol
 _atom_site_label
 _atom_site_symmetry_multiplicity
 _atom_site_fract_x
 _atom_site_fract_y
 _atom_site_fract_z
 _atom_site_occupancy
  Ca  Ca0  1  0.993193  0.675306  0.750000  1
  Ca  Ca1  1  0.006807  0.324694  0.250000  1
  Er  Er2  1  0.677317  0.996476  0.750000  1
  Er  Er3  1  0.322683  0.003524  0.250000  1
  Al  Al4  1  0.132189  0.135209  0.750000  1
  Al  Al5  1  0.867811  0.864791  0.250000  1
  Al  Al6  1  0.998655  0.339307  0.573771  1
  Al  Al7  1  0.001345  0.660693  0.426229  1
  Al  Al8  1  0.001345  0.660693  0.073771  1
  Al  Al9  1  0.338481  0.997320  0.925378  1
  Al  Al10  1  0.998655  0.339307  0.926229  1
  Al  Al11  1  0.661519  0.002680  0.074622  1
  Al  Al12  1  0.661519  0.002680  0.425378  1
  Al  Al13  1  0.338481  0.997320  0.574622  1
  Al  Al14  1  0.334494  0.333826  0.045668  1
  Al  Al15  1  0.665506  0.666174  0.954332  1
  Al  Al16  1  0.665506  0.666174  0.545668  1
  Al  Al17  1  0.334494  0.333826  0.454332  1
  Al  Al18  1  0.344650  0.558960  0.750000  1
  Al  Al19  1  0.655350  0.441040  0.250000  1
  Al  Al20  1  0.552866  0.339142  0.750000  1
  Al  Al21  1  0.447134  0.660858  0.250000  1
  Ni  Ni22  1  0.669808  0.327081  0.501473  1
  Ni  Ni23  1  0.330192  0.672919  0.498527  1
  Ni  Ni24  1  0.330192  0.672919  0.001473  1
  Ni  Ni25  1  0.669808  0.327081  0.998527  1
  Rh  Rh26  1  0.000000  0.000000  0.500000  1
  Rh  Rh27  1  0.000000  0.000000  0.000000  1
