# generated using pymatgen
data_Dy4As6IrRh6
_symmetry_space_group_name_H-M   'P 1'
_cell_length_a   7.29556360
_cell_length_b   7.29489344
_cell_length_c   7.29556394
_cell_angle_alpha   109.51106824
_cell_angle_beta   109.38783598
_cell_angle_gamma   109.51106701
_symmetry_Int_Tables_number   1
_chemical_formula_structural   Dy4As6IrRh6
_chemical_formula_sum   'Dy4 As6 Ir1 Rh6'
_cell_volume   298.90560248
_cell_formula_units_Z   1
loop_
 _symmetry_equiv_pos_site_id
 _symmetry_equiv_pos_as_xyz
  1  'x, y, z'
loop_
 _atom_site_type_symbol
 _atom_site_label
 _atom_site_symmetry_multiplicity
 _atom_site_fract_x
 _atom_site_fract_y
 _atom_site_fract_z
 _atom_site_occupancy
  Dy  Dy0  1  0.000142  0.000269  0.500136  1
  Dy  Dy1  1  0.499864  0.999731  0.999858  1
  Dy  Dy2  1  0.000120  0.500000  0.999880  1
  Dy  Dy3  1  0.499866  0.500000  0.500134  1
  As  As4  1  0.681079  0.680628  0.000332  1
  As  As5  1  0.319669  0.319354  0.000432  1
  As  As6  1  0.999568  0.680646  0.680331  1
  As  As7  1  0.999668  0.319372  0.318921  1
  As  As8  1  0.680329  0.999995  0.680325  1
  As  As9  1  0.319675  0.000005  0.319671  1
  Ir  Ir10  1  0.250041  0.500000  0.749959  1
  Rh  Rh11  1  0.999993  0.000000  0.000007  1
  Rh  Rh12  1  0.750426  0.249790  0.500648  1
  Rh  Rh13  1  0.499289  0.249831  0.749027  1
  Rh  Rh14  1  0.499352  0.750210  0.249574  1
  Rh  Rh15  1  0.749946  0.500000  0.250054  1
  Rh  Rh16  1  0.250973  0.750169  0.500711  1
