# generated using pymatgen
data_DyHo11AlZnCo4
_symmetry_space_group_name_H-M   'P 1'
_cell_length_a   8.26195573
_cell_length_b   8.25526243
_cell_length_c   8.25526204
_cell_angle_alpha   112.13566909
_cell_angle_beta   109.76278467
_cell_angle_gamma   106.53300645
_symmetry_Int_Tables_number   1
_chemical_formula_structural   DyHo11AlZnCo4
_chemical_formula_sum   'Dy1 Ho11 Al1 Zn1 Co4'
_cell_volume   432.55825455
_cell_formula_units_Z   1
loop_
 _symmetry_equiv_pos_site_id
 _symmetry_equiv_pos_as_xyz
  1  'x, y, z'
loop_
 _atom_site_type_symbol
 _atom_site_label
 _atom_site_symmetry_multiplicity
 _atom_site_fract_x
 _atom_site_fract_y
 _atom_site_fract_z
 _atom_site_occupancy
  Dy  Dy0  1  0.429647  0.232084  0.197563  1
  Ho  Ho1  1  0.569961  0.767754  0.802207  1
  Ho  Ho2  1  0.034597  0.232484  0.802113  1
  Ho  Ho3  1  0.965008  0.767410  0.197598  1
  Ho  Ho4  1  0.182240  0.284203  0.466524  1
  Ho  Ho5  1  0.817923  0.716095  0.534020  1
  Ho  Ho6  1  0.182240  0.715712  0.898037  1
  Ho  Ho7  1  0.817923  0.283905  0.101828  1
  Ho  Ho8  1  0.324947  0.634890  0.309332  1
  Ho  Ho9  1  0.675352  0.365572  0.690765  1
  Ho  Ho10  1  0.324947  0.015614  0.690057  1
  Ho  Ho11  1  0.675352  0.984588  0.309780  1
  Al  Al12  1  0.500013  0.500174  0.999838  1
  Zn  Zn13  1  0.999032  0.999449  0.999583  1
  Co  Co14  1  0.343905  0.999766  0.344139  1
  Co  Co15  1  0.656165  0.000150  0.656015  1
  Co  Co16  1  0.114337  0.614755  0.499582  1
  Co  Co17  1  0.886413  0.385395  0.501018  1
