# generated using pymatgen
data_Pr4BePN6
_symmetry_space_group_name_H-M   'P 1'
_cell_length_a   5.89735208
_cell_length_b   5.89735207
_cell_length_c   11.50289100
_cell_angle_alpha   90.86501438
_cell_angle_beta   89.13498562
_cell_angle_gamma   126.26870486
_symmetry_Int_Tables_number   1
_chemical_formula_structural   Pr4BePN6
_chemical_formula_sum   'Pr8 Be2 P2 N12'
_cell_volume   322.49981076
_cell_formula_units_Z   2
loop_
 _symmetry_equiv_pos_site_id
 _symmetry_equiv_pos_as_xyz
  1  'x, y, z'
loop_
 _atom_site_type_symbol
 _atom_site_label
 _atom_site_symmetry_multiplicity
 _atom_site_fract_x
 _atom_site_fract_y
 _atom_site_fract_z
 _atom_site_occupancy
  Pr  Pr0  1  0.057988  0.942012  0.848054  1
  Pr  Pr1  1  0.942012  0.057988  0.151946  1
  Pr  Pr2  1  0.457318  0.542682  0.357063  1
  Pr  Pr3  1  0.542682  0.457318  0.642937  1
  Pr  Pr4  1  0.637803  0.362197  0.073387  1
  Pr  Pr5  1  0.362197  0.637803  0.926613  1
  Pr  Pr6  1  0.852586  0.147414  0.567012  1
  Pr  Pr7  1  0.147414  0.852586  0.432988  1
  Be  Be8  1  0.753169  0.246831  0.335045  1
  Be  Be9  1  0.246831  0.753169  0.664955  1
  P  P10  1  0.752517  0.247483  0.829249  1
  P  P11  1  0.247483  0.752517  0.170751  1
  N  N12  1  0.594687  0.405313  0.858134  1
  N  N13  1  0.405313  0.594687  0.141866  1
  N  N14  1  0.922079  0.077921  0.360743  1
  N  N15  1  0.077921  0.922079  0.639257  1
  N  N16  1  0.541519  0.959738  0.754534  1
  N  N17  1  0.959738  0.541519  0.245466  1
  N  N18  1  0.458481  0.040262  0.245466  1
  N  N19  1  0.040262  0.458481  0.754534  1
  N  N20  1  0.838709  0.161291  0.950571  1
  N  N21  1  0.161291  0.838709  0.049429  1
  N  N22  1  0.652851  0.347149  0.458824  1
  N  N23  1  0.347149  0.652851  0.541176  1
