# generated using pymatgen
data_NaFeSb12Os2Ru
_symmetry_space_group_name_H-M   'P 1'
_cell_length_a   8.14527114
_cell_length_b   8.16522532
_cell_length_c   8.13145184
_cell_angle_alpha   109.51530147
_cell_angle_beta   109.37847873
_cell_angle_gamma   109.61148001
_symmetry_Int_Tables_number   1
_chemical_formula_structural   NaFeSb12Os2Ru
_chemical_formula_sum   'Na1 Fe1 Sb12 Os2 Ru1'
_cell_volume   415.84036560
_cell_formula_units_Z   1
loop_
 _symmetry_equiv_pos_site_id
 _symmetry_equiv_pos_as_xyz
  1  'x, y, z'
loop_
 _atom_site_type_symbol
 _atom_site_label
 _atom_site_symmetry_multiplicity
 _atom_site_fract_x
 _atom_site_fract_y
 _atom_site_fract_z
 _atom_site_occupancy
  Na  Na0  1  0.000000  0.000000  0.000000  1
  Fe  Fe1  1  0.000000  0.500000  0.000000  1
  Sb  Sb2  1  0.843487  0.661916  0.505165  1
  Sb  Sb3  1  0.156513  0.338084  0.494835  1
  Sb  Sb4  1  0.155599  0.659772  0.819542  1
  Sb  Sb5  1  0.844401  0.340228  0.180458  1
  Sb  Sb6  1  0.663542  0.503778  0.845189  1
  Sb  Sb7  1  0.336458  0.496222  0.154811  1
  Sb  Sb8  1  0.661141  0.819242  0.156466  1
  Sb  Sb9  1  0.338859  0.180758  0.843534  1
  Sb  Sb10  1  0.504682  0.843124  0.662334  1
  Sb  Sb11  1  0.495318  0.156876  0.337666  1
  Sb  Sb12  1  0.181368  0.840455  0.336019  1
  Sb  Sb13  1  0.818632  0.159545  0.663981  1
  Os  Os14  1  0.500000  0.500000  0.500000  1
  Os  Os15  1  0.000000  0.000000  0.500000  1
  Ru  Ru16  1  0.500000  0.000000  0.000000  1
