# generated using pymatgen
data_YbLuB4Ru5
_symmetry_space_group_name_H-M   'P 1'
_cell_length_a   3.02395500
_cell_length_b   8.66675524
_cell_length_c   10.19355338
_cell_angle_alpha   89.81004102
_cell_angle_beta   90.00000000
_cell_angle_gamma   90.00000000
_symmetry_Int_Tables_number   1
_chemical_formula_structural   YbLuB4Ru5
_chemical_formula_sum   'Yb2 Lu2 B8 Ru10'
_cell_volume   267.14993371
_cell_formula_units_Z   2
loop_
 _symmetry_equiv_pos_site_id
 _symmetry_equiv_pos_as_xyz
  1  'x, y, z'
loop_
 _atom_site_type_symbol
 _atom_site_label
 _atom_site_symmetry_multiplicity
 _atom_site_fract_x
 _atom_site_fract_y
 _atom_site_fract_z
 _atom_site_occupancy
  Yb  Yb0  1  0.500000  0.842354  0.181239  1
  Yb  Yb1  1  0.500000  0.157646  0.818761  1
  Lu  Lu2  1  0.500000  0.657988  0.682998  1
  Lu  Lu3  1  0.500000  0.342012  0.317002  1
  B  B4  1  0.500000  0.965083  0.589275  1
  B  B5  1  0.500000  0.034917  0.410725  1
  B  B6  1  0.500000  0.853832  0.900760  1
  B  B7  1  0.500000  0.146168  0.099240  1
  B  B8  1  0.500000  0.647815  0.398526  1
  B  B9  1  0.500000  0.352185  0.601474  1
  B  B10  1  0.500000  0.465340  0.911122  1
  B  B11  1  0.500000  0.534660  0.088878  1
  Ru  Ru12  1  0.000000  0.656557  0.953599  1
  Ru  Ru13  1  0.000000  0.343443  0.046401  1
  Ru  Ru14  1  0.000000  0.842313  0.454664  1
  Ru  Ru15  1  0.000000  0.157687  0.545336  1
  Ru  Ru16  1  0.000000  0.000000  0.000000  1
  Ru  Ru17  1  0.000000  0.405735  0.760559  1
  Ru  Ru18  1  0.000000  0.594265  0.239441  1
  Ru  Ru19  1  0.000000  0.500000  0.500000  1
  Ru  Ru20  1  0.000000  0.904149  0.739471  1
  Ru  Ru21  1  0.000000  0.095851  0.260529  1
