# generated using pymatgen
data_SmEr2Ga8Ag3
_symmetry_space_group_name_H-M   'P 1'
_cell_length_a   4.35808298
_cell_length_b   8.36796878
_cell_length_c   8.36796970
_cell_angle_alpha   69.51193318
_cell_angle_beta   74.90603157
_cell_angle_gamma   74.90603637
_symmetry_Int_Tables_number   1
_chemical_formula_structural   SmEr2Ga8Ag3
_chemical_formula_sum   'Sm1 Er2 Ga8 Ag3'
_cell_volume   271.12392869
_cell_formula_units_Z   1
loop_
 _symmetry_equiv_pos_site_id
 _symmetry_equiv_pos_as_xyz
  1  'x, y, z'
loop_
 _atom_site_type_symbol
 _atom_site_label
 _atom_site_symmetry_multiplicity
 _atom_site_fract_x
 _atom_site_fract_y
 _atom_site_fract_z
 _atom_site_occupancy
  Sm  Sm0  1  0.500000  0.500000  0.500000  1
  Er  Er1  1  0.200975  0.799025  0.799025  1
  Er  Er2  1  0.799025  0.200975  0.200975  1
  Ga  Ga3  1  0.355823  0.360972  0.927381  1
  Ga  Ga4  1  0.644177  0.639028  0.072619  1
  Ga  Ga5  1  0.355823  0.927381  0.360972  1
  Ga  Ga6  1  0.644177  0.072619  0.639028  1
  Ga  Ga7  1  0.159508  0.472367  0.208618  1
  Ga  Ga8  1  0.840492  0.527633  0.791382  1
  Ga  Ga9  1  0.159508  0.208618  0.472367  1
  Ga  Ga10  1  0.840492  0.791382  0.527633  1
  Ag  Ag11  1  0.500000  0.000000  0.000000  1
  Ag  Ag12  1  0.000000  0.807781  0.192219  1
  Ag  Ag13  1  0.000000  0.192219  0.807781  1
