# generated using pymatgen
data_TbNd5(TmAu2)2
_symmetry_space_group_name_H-M   'P 1'
_cell_length_a   5.02122200
_cell_length_b   7.30777884
_cell_length_c   9.13177300
_cell_angle_alpha   90.36130495
_cell_angle_beta   90.00000000
_cell_angle_gamma   90.00000000
_symmetry_Int_Tables_number   1
_chemical_formula_structural   TbNd5(TmAu2)2
_chemical_formula_sum   'Tb1 Nd5 Tm2 Au4'
_cell_volume   335.07443250
_cell_formula_units_Z   1
loop_
 _symmetry_equiv_pos_site_id
 _symmetry_equiv_pos_as_xyz
  1  'x, y, z'
loop_
 _atom_site_type_symbol
 _atom_site_label
 _atom_site_symmetry_multiplicity
 _atom_site_fract_x
 _atom_site_fract_y
 _atom_site_fract_z
 _atom_site_occupancy
  Tb  Tb0  1  0.750000  0.152128  0.081549  1
  Nd  Nd1  1  0.750000  0.654015  0.414663  1
  Nd  Nd2  1  0.250000  0.489380  0.174808  1
  Nd  Nd3  1  0.250000  0.994262  0.324601  1
  Nd  Nd4  1  0.750000  0.509219  0.820424  1
  Nd  Nd5  1  0.750000  0.010850  0.681772  1
  Tm  Tm6  1  0.250000  0.850818  0.922097  1
  Tm  Tm7  1  0.250000  0.349916  0.580930  1
  Au  Au8  1  0.250000  0.243086  0.896019  1
  Au  Au9  1  0.250000  0.744937  0.609157  1
  Au  Au10  1  0.750000  0.755407  0.087452  1
  Au  Au11  1  0.750000  0.245982  0.406527  1
