# generated using pymatgen
data_Dy4TmCoRu
_symmetry_space_group_name_H-M   'P 1'
_cell_length_a   6.29240809
_cell_length_b   7.09014801
_cell_length_c   8.52058424
_cell_angle_alpha   96.36784668
_cell_angle_beta   111.66921309
_cell_angle_gamma   90.00000396
_symmetry_Int_Tables_number   1
_chemical_formula_structural   Dy4TmCoRu
_chemical_formula_sum   'Dy8 Tm2 Co2 Ru2'
_cell_volume   350.74937515
_cell_formula_units_Z   2
loop_
 _symmetry_equiv_pos_site_id
 _symmetry_equiv_pos_as_xyz
  1  'x, y, z'
loop_
 _atom_site_type_symbol
 _atom_site_label
 _atom_site_symmetry_multiplicity
 _atom_site_fract_x
 _atom_site_fract_y
 _atom_site_fract_z
 _atom_site_occupancy
  Dy  Dy0  1  0.787152  0.087997  0.811635  1
  Dy  Dy1  1  0.975517  0.412003  0.188365  1
  Dy  Dy2  1  0.199192  0.917789  0.184476  1
  Dy  Dy3  1  0.014716  0.582211  0.815524  1
  Dy  Dy4  1  0.215013  0.188641  0.568667  1
  Dy  Dy5  1  0.646347  0.311359  0.431333  1
  Dy  Dy6  1  0.792741  0.818235  0.433204  1
  Dy  Dy7  1  0.359537  0.681765  0.566796  1
  Tm  Tm8  1  0.429599  0.250000  0.000000  1
  Tm  Tm9  1  0.576232  0.750000  0.000000  1
  Co  Co10  1  0.603342  0.424237  0.780432  1
  Co  Co11  1  0.822909  0.075763  0.219568  1
  Ru  Ru12  1  0.398223  0.571563  0.218744  1
  Ru  Ru13  1  0.179480  0.928437  0.781256  1
