# generated using pymatgen
data_YbPr2(YSn2)2
_symmetry_space_group_name_H-M   'P 1'
_cell_length_a   8.01906700
_cell_length_b   8.37100400
_cell_length_c   15.84340400
_cell_angle_alpha   90.00000000
_cell_angle_beta   90.00000000
_cell_angle_gamma   90.00000000
_symmetry_Int_Tables_number   1
_chemical_formula_structural   YbPr2(YSn2)2
_chemical_formula_sum   'Yb4 Pr8 Y8 Sn16'
_cell_volume   1063.53035072
_cell_formula_units_Z   4
loop_
 _symmetry_equiv_pos_site_id
 _symmetry_equiv_pos_as_xyz
  1  'x, y, z'
loop_
 _atom_site_type_symbol
 _atom_site_label
 _atom_site_symmetry_multiplicity
 _atom_site_fract_x
 _atom_site_fract_y
 _atom_site_fract_z
 _atom_site_occupancy
  Yb  Yb0  1  0.822921  0.501400  0.750000  1
  Yb  Yb1  1  0.322921  0.998600  0.750000  1
  Yb  Yb2  1  0.177079  0.498600  0.250000  1
  Yb  Yb3  1  0.677079  0.001400  0.250000  1
  Pr  Pr4  1  0.500105  0.680275  0.595836  1
  Pr  Pr5  1  0.000105  0.819725  0.904164  1
  Pr  Pr6  1  0.499895  0.319725  0.095836  1
  Pr  Pr7  1  0.999895  0.180275  0.404164  1
  Pr  Pr8  1  0.499895  0.319725  0.404164  1
  Pr  Pr9  1  0.999895  0.180275  0.095836  1
  Pr  Pr10  1  0.500105  0.680275  0.904164  1
  Pr  Pr11  1  0.000105  0.819725  0.595836  1
  Y  Y12  1  0.655455  0.171250  0.624162  1
  Y  Y13  1  0.155455  0.328750  0.875838  1
  Y  Y14  1  0.344545  0.828750  0.124162  1
  Y  Y15  1  0.844545  0.671250  0.375838  1
  Y  Y16  1  0.344545  0.828750  0.375838  1
  Y  Y17  1  0.844545  0.671250  0.124162  1
  Y  Y18  1  0.655455  0.171250  0.875838  1
  Y  Y19  1  0.155455  0.328750  0.624162  1
  Sn  Sn20  1  0.680634  0.960508  0.462545  1
  Sn  Sn21  1  0.180634  0.539492  0.037455  1
  Sn  Sn22  1  0.319366  0.039492  0.962545  1
  Sn  Sn23  1  0.819366  0.460508  0.537455  1
  Sn  Sn24  1  0.319366  0.039492  0.537455  1
  Sn  Sn25  1  0.819366  0.460508  0.962545  1
  Sn  Sn26  1  0.680634  0.960508  0.037455  1
  Sn  Sn27  1  0.180634  0.539492  0.462545  1
  Sn  Sn28  1  0.455149  0.384398  0.750000  1
  Sn  Sn29  1  0.955149  0.115602  0.750000  1
  Sn  Sn30  1  0.544851  0.615602  0.250000  1
  Sn  Sn31  1  0.044851  0.884398  0.250000  1
  Sn  Sn32  1  0.695681  0.864441  0.750000  1
  Sn  Sn33  1  0.195681  0.635559  0.750000  1
  Sn  Sn34  1  0.304319  0.135559  0.250000  1
  Sn  Sn35  1  0.804319  0.364441  0.250000  1
