# generated using pymatgen
data_NdTm(Si7Ir3)2
_symmetry_space_group_name_H-M   'P 1'
_cell_length_a   8.07395458
_cell_length_b   8.07395374
_cell_length_c   8.07395600
_cell_angle_alpha   56.46832582
_cell_angle_beta   56.46832978
_cell_angle_gamma   56.46833268
_symmetry_Int_Tables_number   1
_chemical_formula_structural   NdTm(Si7Ir3)2
_chemical_formula_sum   'Nd1 Tm1 Si14 Ir6'
_cell_volume   341.78742936
_cell_formula_units_Z   1
loop_
 _symmetry_equiv_pos_site_id
 _symmetry_equiv_pos_as_xyz
  1  'x, y, z'
loop_
 _atom_site_type_symbol
 _atom_site_label
 _atom_site_symmetry_multiplicity
 _atom_site_fract_x
 _atom_site_fract_y
 _atom_site_fract_z
 _atom_site_occupancy
  Nd  Nd0  1  0.500000  0.500000  0.500000  1
  Tm  Tm1  1  0.000000  0.000000  0.000000  1
  Si  Si2  1  0.851524  0.062423  0.673663  1
  Si  Si3  1  0.673663  0.851524  0.062423  1
  Si  Si4  1  0.062423  0.673663  0.851524  1
  Si  Si5  1  0.650754  0.828084  0.435025  1
  Si  Si6  1  0.250219  0.250219  0.250219  1
  Si  Si7  1  0.749781  0.749781  0.749781  1
  Si  Si8  1  0.171916  0.564975  0.349246  1
  Si  Si9  1  0.564975  0.349246  0.171916  1
  Si  Si10  1  0.349246  0.171916  0.564975  1
  Si  Si11  1  0.937577  0.326337  0.148476  1
  Si  Si12  1  0.326337  0.148476  0.937577  1
  Si  Si13  1  0.148476  0.937577  0.326337  1
  Si  Si14  1  0.828084  0.435025  0.650754  1
  Si  Si15  1  0.435025  0.650754  0.828084  1
  Ir  Ir16  1  0.752528  0.067902  0.428069  1
  Ir  Ir17  1  0.428069  0.752528  0.067902  1
  Ir  Ir18  1  0.067902  0.428069  0.752528  1
  Ir  Ir19  1  0.247472  0.932098  0.571931  1
  Ir  Ir20  1  0.571931  0.247472  0.932098  1
  Ir  Ir21  1  0.932098  0.571931  0.247472  1
