# generated using pymatgen
data_Li2Co4P7Ru7Pt
_symmetry_space_group_name_H-M   'P 1'
_cell_length_a   9.28546668
_cell_length_b   9.29049373
_cell_length_c   3.73790100
_cell_angle_alpha   90.00000000
_cell_angle_beta   90.00000000
_cell_angle_gamma   120.46379403
_symmetry_Int_Tables_number   1
_chemical_formula_structural   Li2Co4P7Ru7Pt
_chemical_formula_sum   'Li2 Co4 P7 Ru7 Pt1'
_cell_volume   277.94076749
_cell_formula_units_Z   1
loop_
 _symmetry_equiv_pos_site_id
 _symmetry_equiv_pos_as_xyz
  1  'x, y, z'
loop_
 _atom_site_type_symbol
 _atom_site_label
 _atom_site_symmetry_multiplicity
 _atom_site_fract_x
 _atom_site_fract_y
 _atom_site_fract_z
 _atom_site_occupancy
  Li  Li0  1  0.001407  0.000713  0.000000  1
  Li  Li1  1  0.334571  0.665551  0.500000  1
  Co  Co2  1  0.088602  0.392264  0.000000  1
  Co  Co3  1  0.780609  0.180967  0.000000  1
  Co  Co4  1  0.384871  0.219072  0.000000  1
  Co  Co5  1  0.827007  0.600414  0.000000  1
  P  P6  1  0.567207  0.920519  0.000000  1
  P  P7  1  0.359123  0.449966  0.000000  1
  P  P8  1  0.072007  0.617877  0.000000  1
  P  P9  1  0.950772  0.218129  0.500000  1
  P  P10  1  0.256078  0.060805  0.500000  1
  P  P11  1  0.789076  0.736365  0.500000  1
  P  P12  1  0.658020  0.328424  0.000000  1
  Ru  Ru13  1  0.607510  0.695037  0.000000  1
  Ru  Ru14  1  0.725529  0.951422  0.500000  1
  Ru  Ru15  1  0.226447  0.294577  0.500000  1
  Ru  Ru16  1  0.057201  0.774540  0.500000  1
  Ru  Ru17  1  0.540188  0.127081  0.500000  1
  Ru  Ru18  1  0.585126  0.449186  0.500000  1
  Ru  Ru19  1  0.881227  0.424265  0.500000  1
  Pt  Pt20  1  0.307426  0.892829  0.000000  1
