# generated using pymatgen
data_Nd3PBr3
_symmetry_space_group_name_H-M   'P 1'
_cell_length_a   10.27037578
_cell_length_b   10.27037588
_cell_length_c   10.27037600
_cell_angle_alpha   109.47122284
_cell_angle_beta   109.47122304
_cell_angle_gamma   109.47121523
_symmetry_Int_Tables_number   1
_chemical_formula_structural   Nd3PBr3
_chemical_formula_sum   'Nd12 P4 Br12'
_cell_volume   833.94446313
_cell_formula_units_Z   4
loop_
 _symmetry_equiv_pos_site_id
 _symmetry_equiv_pos_as_xyz
  1  'x, y, z'
loop_
 _atom_site_type_symbol
 _atom_site_label
 _atom_site_symmetry_multiplicity
 _atom_site_fract_x
 _atom_site_fract_y
 _atom_site_fract_z
 _atom_site_occupancy
  Nd  Nd0  1  0.263713  0.013713  0.027425  1
  Nd  Nd1  1  0.027425  0.263713  0.013713  1
  Nd  Nd2  1  0.486287  0.750000  0.013713  1
  Nd  Nd3  1  0.750000  0.236287  0.263713  1
  Nd  Nd4  1  0.013713  0.027425  0.263713  1
  Nd  Nd5  1  0.013713  0.486287  0.750000  1
  Nd  Nd6  1  0.236287  0.263713  0.750000  1
  Nd  Nd7  1  0.263713  0.750000  0.236287  1
  Nd  Nd8  1  0.236287  0.472575  0.486287  1
  Nd  Nd9  1  0.472575  0.486287  0.236287  1
  Nd  Nd10  1  0.750000  0.013713  0.486287  1
  Nd  Nd11  1  0.486287  0.236287  0.472575  1
  P  P12  1  0.000000  0.250000  0.500000  1
  P  P13  1  0.250000  0.500000  0.000000  1
  P  P14  1  0.500000  0.000000  0.250000  1
  P  P15  1  0.250000  0.250000  0.250000  1
  Br  Br16  1  0.756378  0.743622  0.250000  1
  Br  Br17  1  0.506378  0.250000  0.993622  1
  Br  Br18  1  0.250000  0.993622  0.506378  1
  Br  Br19  1  0.512756  0.506378  0.756378  1
  Br  Br20  1  0.993622  0.987244  0.743622  1
  Br  Br21  1  0.743622  0.993622  0.987244  1
  Br  Br22  1  0.506378  0.756378  0.512756  1
  Br  Br23  1  0.756378  0.512756  0.506378  1
  Br  Br24  1  0.993622  0.506378  0.250000  1
  Br  Br25  1  0.987244  0.743622  0.993622  1
  Br  Br26  1  0.250000  0.756378  0.743622  1
  Br  Br27  1  0.743622  0.250000  0.756378  1
