# generated using pymatgen
data_Ho5Sc3(Co4As3)4
_symmetry_space_group_name_H-M   'P 1'
_cell_length_a   12.67677300
_cell_length_b   12.67677422
_cell_length_c   3.84518400
_cell_angle_alpha   90.00000000
_cell_angle_beta   90.00000000
_cell_angle_gamma   120.00000464
_symmetry_Int_Tables_number   1
_chemical_formula_structural   Ho5Sc3(Co4As3)4
_chemical_formula_sum   'Ho5 Sc3 Co16 As12'
_cell_volume   535.13728005
_cell_formula_units_Z   1
loop_
 _symmetry_equiv_pos_site_id
 _symmetry_equiv_pos_as_xyz
  1  'x, y, z'
loop_
 _atom_site_type_symbol
 _atom_site_label
 _atom_site_symmetry_multiplicity
 _atom_site_fract_x
 _atom_site_fract_y
 _atom_site_fract_z
 _atom_site_occupancy
  Ho  Ho0  1  0.184888  0.184888  0.500000  1
  Ho  Ho1  1  0.815112  0.000000  0.500000  1
  Ho  Ho2  1  0.000000  0.815112  0.500000  1
  Ho  Ho3  1  0.333333  0.666667  0.000000  1
  Ho  Ho4  1  0.666667  0.333333  0.000000  1
  Sc  Sc5  1  0.561960  0.561960  0.000000  1
  Sc  Sc6  1  0.438040  0.000000  0.000000  1
  Sc  Sc7  1  0.000000  0.438040  0.000000  1
  Co  Co8  1  0.719901  0.719901  0.500000  1
  Co  Co9  1  0.280099  0.000000  0.500000  1
  Co  Co10  1  0.000000  0.280099  0.500000  1
  Co  Co11  1  0.178433  0.374710  0.000000  1
  Co  Co12  1  0.625290  0.803723  0.000000  1
  Co  Co13  1  0.196277  0.821567  0.000000  1
  Co  Co14  1  0.803723  0.625290  0.000000  1
  Co  Co15  1  0.821567  0.196277  0.000000  1
  Co  Co16  1  0.374710  0.178433  0.000000  1
  Co  Co17  1  0.355174  0.478658  0.500000  1
  Co  Co18  1  0.521342  0.876516  0.500000  1
  Co  Co19  1  0.123484  0.644826  0.500000  1
  Co  Co20  1  0.876516  0.521342  0.500000  1
  Co  Co21  1  0.644826  0.123484  0.500000  1
  Co  Co22  1  0.478658  0.355174  0.500000  1
  Co  Co23  1  0.000000  0.000000  0.000000  1
  As  As24  1  0.821847  0.821847  0.000000  1
  As  As25  1  0.178153  0.000000  0.000000  1
  As  As26  1  0.000000  0.178153  0.000000  1
  As  As27  1  0.171572  0.482068  0.500000  1
  As  As28  1  0.517932  0.689504  0.500000  1
  As  As29  1  0.310496  0.828428  0.500000  1
  As  As30  1  0.689504  0.517932  0.500000  1
  As  As31  1  0.828428  0.310496  0.500000  1
  As  As32  1  0.482068  0.171572  0.500000  1
  As  As33  1  0.355271  0.355271  0.000000  1
  As  As34  1  0.644729  0.000000  0.000000  1
  As  As35  1  0.000000  0.644729  0.000000  1
