# generated using pymatgen
data_Tm2Mn5P7Ir6Rh
_symmetry_space_group_name_H-M   'P 1'
_cell_length_a   9.38287884
_cell_length_b   9.40990770
_cell_length_c   3.84609000
_cell_angle_alpha   90.00000000
_cell_angle_beta   90.00000000
_cell_angle_gamma   119.99417873
_symmetry_Int_Tables_number   1
_chemical_formula_structural   Tm2Mn5P7Ir6Rh
_chemical_formula_sum   'Tm2 Mn5 P7 Ir6 Rh1'
_cell_volume   294.10135028
_cell_formula_units_Z   1
loop_
 _symmetry_equiv_pos_site_id
 _symmetry_equiv_pos_as_xyz
  1  'x, y, z'
loop_
 _atom_site_type_symbol
 _atom_site_label
 _atom_site_symmetry_multiplicity
 _atom_site_fract_x
 _atom_site_fract_y
 _atom_site_fract_z
 _atom_site_occupancy
  Tm  Tm0  1  0.000472  0.999730  0.000000  1
  Tm  Tm1  1  0.667117  0.332774  0.500000  1
  Mn  Mn2  1  0.223445  0.397770  0.000000  1
  Mn  Mn3  1  0.604020  0.824987  0.000000  1
  Mn  Mn4  1  0.171896  0.775915  0.000000  1
  Mn  Mn5  1  0.431466  0.888299  0.500000  1
  Mn  Mn6  1  0.111498  0.544403  0.500000  1
  P  P7  1  0.442960  0.363866  0.000000  1
  P  P8  1  0.631478  0.074011  0.000000  1
  P  P9  1  0.921740  0.554312  0.000000  1
  P  P10  1  0.055715  0.269269  0.500000  1
  P  P11  1  0.732418  0.790136  0.500000  1
  P  P12  1  0.215312  0.942443  0.500000  1
  P  P13  1  0.334652  0.670444  0.000000  1
  Ir  Ir14  1  0.695133  0.598830  0.000000  1
  Ir  Ir15  1  0.399500  0.094326  0.000000  1
  Ir  Ir16  1  0.904419  0.304209  0.000000  1
  Ir  Ir17  1  0.274843  0.220125  0.500000  1
  Ir  Ir18  1  0.778270  0.054602  0.500000  1
  Ir  Ir19  1  0.944245  0.724018  0.500000  1
  Rh  Rh20  1  0.459400  0.575535  0.500000  1
