# generated using pymatgen
data_Eu2(SeO3)3
_symmetry_space_group_name_H-M   'P 1'
_cell_length_a   8.53378400
_cell_length_b   8.53378423
_cell_length_c   8.18910700
_cell_angle_alpha   90.00000000
_cell_angle_beta   90.00000000
_cell_angle_gamma   119.99999911
_symmetry_Int_Tables_number   1
_chemical_formula_structural   Eu2(SeO3)3
_chemical_formula_sum   'Eu4 Se6 O18'
_cell_volume   516.47640450
_cell_formula_units_Z   2
loop_
 _symmetry_equiv_pos_site_id
 _symmetry_equiv_pos_as_xyz
  1  'x, y, z'
loop_
 _atom_site_type_symbol
 _atom_site_label
 _atom_site_symmetry_multiplicity
 _atom_site_fract_x
 _atom_site_fract_y
 _atom_site_fract_z
 _atom_site_occupancy
  Eu  Eu0  1  0.333333  0.666667  0.035263  1
  Eu  Eu1  1  0.333333  0.666667  0.464737  1
  Eu  Eu2  1  0.666667  0.333333  0.535263  1
  Eu  Eu3  1  0.666667  0.333333  0.964737  1
  Se  Se4  1  0.023870  0.742273  0.750000  1
  Se  Se5  1  0.257727  0.281597  0.750000  1
  Se  Se6  1  0.718403  0.976130  0.750000  1
  Se  Se7  1  0.281597  0.023870  0.250000  1
  Se  Se8  1  0.742273  0.718403  0.250000  1
  Se  Se9  1  0.976130  0.257727  0.250000  1
  O  O10  1  0.156926  0.762547  0.912734  1
  O  O11  1  0.156926  0.762547  0.587266  1
  O  O12  1  0.128684  0.491411  0.250000  1
  O  O13  1  0.362728  0.871316  0.250000  1
  O  O14  1  0.237453  0.394378  0.587266  1
  O  O15  1  0.237453  0.394378  0.912734  1
  O  O16  1  0.605622  0.843074  0.587266  1
  O  O17  1  0.605622  0.843074  0.912734  1
  O  O18  1  0.508589  0.637272  0.250000  1
  O  O19  1  0.491411  0.362728  0.750000  1
  O  O20  1  0.394378  0.156926  0.412734  1
  O  O21  1  0.394378  0.156926  0.087266  1
  O  O22  1  0.762547  0.605622  0.087266  1
  O  O23  1  0.762547  0.605622  0.412734  1
  O  O24  1  0.637272  0.128684  0.750000  1
  O  O25  1  0.871316  0.508589  0.750000  1
  O  O26  1  0.843074  0.237453  0.087266  1
  O  O27  1  0.843074  0.237453  0.412734  1
