# generated using pymatgen
data_Dy5Nb2P12Ir17
_symmetry_space_group_name_H-M   'P 1'
_cell_length_a   12.59925400
_cell_length_b   12.79765077
_cell_length_c   4.00463100
_cell_angle_alpha   90.00000000
_cell_angle_beta   90.00000000
_cell_angle_gamma   119.48848981
_symmetry_Int_Tables_number   1
_chemical_formula_structural   Dy5Nb2P12Ir17
_chemical_formula_sum   'Dy5 Nb2 P12 Ir17'
_cell_volume   562.06134253
_cell_formula_units_Z   1
loop_
 _symmetry_equiv_pos_site_id
 _symmetry_equiv_pos_as_xyz
  1  'x, y, z'
loop_
 _atom_site_type_symbol
 _atom_site_label
 _atom_site_symmetry_multiplicity
 _atom_site_fract_x
 _atom_site_fract_y
 _atom_site_fract_z
 _atom_site_occupancy
  Dy  Dy0  1  0.330542  0.661740  0.500000  1
  Dy  Dy1  1  0.668803  0.338260  0.500000  1
  Dy  Dy2  1  0.998864  0.813064  0.000000  1
  Dy  Dy3  1  0.185800  0.186936  0.000000  1
  Dy  Dy4  1  0.814820  0.000000  0.000000  1
  Nb  Nb5  1  0.997910  0.451014  0.500000  1
  Nb  Nb6  1  0.546896  0.548986  0.500000  1
  P  P7  1  0.003030  0.642150  0.500000  1
  P  P8  1  0.360880  0.357850  0.500000  1
  P  P9  1  0.645604  0.000000  0.500000  1
  P  P10  1  0.514533  0.683095  0.000000  1
  P  P11  1  0.309071  0.824584  0.000000  1
  P  P12  1  0.163819  0.481008  0.000000  1
  P  P13  1  0.484487  0.175416  0.000000  1
  P  P14  1  0.682811  0.518992  0.000000  1
  P  P15  1  0.831438  0.316905  0.000000  1
  P  P16  1  0.000186  0.175887  0.500000  1
  P  P17  1  0.824298  0.824113  0.500000  1
  P  P18  1  0.180337  0.000000  0.500000  1
  Ir  Ir19  1  0.505677  0.864094  0.000000  1
  Ir  Ir20  1  0.128385  0.641355  0.000000  1
  Ir  Ir21  1  0.354887  0.493208  0.000000  1
  Ir  Ir22  1  0.487031  0.358645  0.000000  1
  Ir  Ir23  1  0.861681  0.506792  0.000000  1
  Ir  Ir24  1  0.641584  0.135906  0.000000  1
  Ir  Ir25  1  0.464280  0.000000  0.500000  1
  Ir  Ir26  1  0.997532  0.282278  0.000000  1
  Ir  Ir27  1  0.715253  0.717722  0.000000  1
  Ir  Ir28  1  0.290451  0.000000  0.000000  1
  Ir  Ir29  1  0.624246  0.806941  0.500000  1
  Ir  Ir30  1  0.201313  0.823933  0.500000  1
  Ir  Ir31  1  0.177668  0.368636  0.500000  1
  Ir  Ir32  1  0.377380  0.176067  0.500000  1
  Ir  Ir33  1  0.809031  0.631364  0.500000  1
  Ir  Ir34  1  0.817305  0.193059  0.500000  1
  Ir  Ir35  1  0.002167  0.000000  0.500000  1
