# generated using pymatgen
data_Dy14Ho2In4Ir3Ru
_symmetry_space_group_name_H-M   'P 1'
_cell_length_a   9.66178669
_cell_length_b   9.68071075
_cell_length_c   9.67676547
_cell_angle_alpha   59.89094578
_cell_angle_beta   59.86017283
_cell_angle_gamma   59.81194880
_symmetry_Int_Tables_number   1
_chemical_formula_structural   Dy14Ho2In4Ir3Ru
_chemical_formula_sum   'Dy14 Ho2 In4 Ir3 Ru1'
_cell_volume   637.88399824
_cell_formula_units_Z   1
loop_
 _symmetry_equiv_pos_site_id
 _symmetry_equiv_pos_as_xyz
  1  'x, y, z'
loop_
 _atom_site_type_symbol
 _atom_site_label
 _atom_site_symmetry_multiplicity
 _atom_site_fract_x
 _atom_site_fract_y
 _atom_site_fract_z
 _atom_site_occupancy
  Dy  Dy0  1  0.439069  0.440825  0.059824  1
  Dy  Dy1  1  0.649327  0.650821  0.047139  1
  Dy  Dy2  1  0.192504  0.809992  0.189770  1
  Dy  Dy3  1  0.059466  0.439754  0.060022  1
  Dy  Dy4  1  0.193601  0.809216  0.809214  1
  Dy  Dy5  1  0.059814  0.439748  0.439721  1
  Dy  Dy6  1  0.809664  0.191386  0.191705  1
  Dy  Dy7  1  0.650466  0.652172  0.651903  1
  Dy  Dy8  1  0.809042  0.192100  0.808733  1
  Dy  Dy9  1  0.192840  0.189730  0.809796  1
  Dy  Dy10  1  0.047729  0.650293  0.649994  1
  Dy  Dy11  1  0.439839  0.058873  0.059383  1
  Dy  Dy12  1  0.060082  0.060063  0.439389  1
  Dy  Dy13  1  0.649402  0.046991  0.650696  1
  Ho  Ho14  1  0.808898  0.808604  0.192373  1
  Ho  Ho15  1  0.439379  0.059196  0.441142  1
  In  In16  1  0.417514  0.416838  0.416880  1
  In  In17  1  0.416967  0.417116  0.748944  1
  In  In18  1  0.417027  0.749263  0.417029  1
  In  In19  1  0.747800  0.417602  0.417415  1
  Ir  Ir20  1  0.859570  0.858857  0.859379  1
  Ir  Ir21  1  0.859087  0.422956  0.858536  1
  Ir  Ir22  1  0.858697  0.858647  0.422635  1
  Ru  Ru23  1  0.422219  0.858960  0.858384  1
