# generated using pymatgen
data_Tm12ZnGaCo4
_symmetry_space_group_name_H-M   'P 1'
_cell_length_a   8.13757508
_cell_length_b   8.13757466
_cell_length_c   8.13757550
_cell_angle_alpha   111.53308141
_cell_angle_beta   110.26128871
_cell_angle_gamma   106.65808506
_symmetry_Int_Tables_number   1
_chemical_formula_structural   Tm12ZnGaCo4
_chemical_formula_sum   'Tm12 Zn1 Ga1 Co4'
_cell_volume   414.02416850
_cell_formula_units_Z   1
loop_
 _symmetry_equiv_pos_site_id
 _symmetry_equiv_pos_as_xyz
  1  'x, y, z'
loop_
 _atom_site_type_symbol
 _atom_site_label
 _atom_site_symmetry_multiplicity
 _atom_site_fract_x
 _atom_site_fract_y
 _atom_site_fract_z
 _atom_site_occupancy
  Tm  Tm0  1  0.567173  0.266720  0.300453  1
  Tm  Tm1  1  0.183256  0.217531  0.400787  1
  Tm  Tm2  1  0.183256  0.782469  0.965726  1
  Tm  Tm3  1  0.680385  0.484595  0.804210  1
  Tm  Tm4  1  0.680385  0.876176  0.195790  1
  Tm  Tm5  1  0.966267  0.266720  0.699547  1
  Tm  Tm6  1  0.033733  0.733280  0.300453  1
  Tm  Tm7  1  0.319615  0.123824  0.804210  1
  Tm  Tm8  1  0.319615  0.515405  0.195790  1
  Tm  Tm9  1  0.816744  0.217531  0.034274  1
  Tm  Tm10  1  0.816744  0.782469  0.599213  1
  Tm  Tm11  1  0.432827  0.733280  0.699547  1
  Zn  Zn12  1  0.000000  0.500000  0.500000  1
  Ga  Ga13  1  0.500000  0.000000  0.500000  1
  Co  Co14  1  0.885098  0.885098  0.000000  1
  Co  Co15  1  0.364923  0.500000  0.864923  1
  Co  Co16  1  0.635077  0.500000  0.135077  1
  Co  Co17  1  0.114902  0.114902  0.000000  1
