# generated using pymatgen
data_KNdNbH9
_symmetry_space_group_name_H-M   'P 1'
_cell_length_a   8.93004400
_cell_length_b   8.93004267
_cell_length_c   5.32782800
_cell_angle_alpha   90.00000000
_cell_angle_beta   90.00000000
_cell_angle_gamma   119.99999753
_symmetry_Int_Tables_number   1
_chemical_formula_structural   KNdNbH9
_chemical_formula_sum   'K3 Nd3 Nb3 H27'
_cell_volume   367.94929161
_cell_formula_units_Z   3
loop_
 _symmetry_equiv_pos_site_id
 _symmetry_equiv_pos_as_xyz
  1  'x, y, z'
loop_
 _atom_site_type_symbol
 _atom_site_label
 _atom_site_symmetry_multiplicity
 _atom_site_fract_x
 _atom_site_fract_y
 _atom_site_fract_z
 _atom_site_occupancy
  K  K0  1  0.000000  0.602518  0.000000  1
  K  K1  1  0.397482  0.397482  0.000000  1
  K  K2  1  0.602518  0.000000  0.000000  1
  Nd  Nd3  1  0.000000  0.273588  0.500000  1
  Nd  Nd4  1  0.726412  0.726412  0.500000  1
  Nd  Nd5  1  0.273588  0.000000  0.500000  1
  Nb  Nb6  1  0.666667  0.333333  0.500000  1
  Nb  Nb7  1  0.333333  0.666667  0.500000  1
  Nb  Nb8  1  0.000000  0.000000  0.000000  1
  H  H9  1  0.817234  0.329741  0.742442  1
  H  H10  1  0.670259  0.487492  0.742442  1
  H  H11  1  0.512508  0.182766  0.742442  1
  H  H12  1  0.182766  0.512508  0.257558  1
  H  H13  1  0.512508  0.182766  0.257558  1
  H  H14  1  0.817234  0.329741  0.257558  1
  H  H15  1  0.670259  0.487492  0.257558  1
  H  H16  1  0.329741  0.817234  0.742442  1
  H  H17  1  0.487492  0.670259  0.742442  1
  H  H18  1  0.207128  0.000000  0.000000  1
  H  H19  1  0.792872  0.792872  0.000000  1
  H  H20  1  0.000000  0.207128  0.000000  1
  H  H21  1  0.856663  0.000000  0.258384  1
  H  H22  1  0.143337  0.143337  0.741616  1
  H  H23  1  0.000000  0.856663  0.741616  1
  H  H24  1  0.000000  0.856663  0.258384  1
  H  H25  1  0.143337  0.143337  0.258384  1
  H  H26  1  0.856663  0.000000  0.741616  1
  H  H27  1  0.136170  0.682432  0.500000  1
  H  H28  1  0.546262  0.863830  0.500000  1
  H  H29  1  0.317568  0.453738  0.500000  1
  H  H30  1  0.453738  0.317568  0.500000  1
  H  H31  1  0.863830  0.546262  0.500000  1
  H  H32  1  0.682432  0.136170  0.500000  1
  H  H33  1  0.182766  0.512508  0.742442  1
  H  H34  1  0.329741  0.817234  0.257558  1
  H  H35  1  0.487492  0.670259  0.257558  1
