# generated using pymatgen
data_Ho2Lu4CoTe2
_symmetry_space_group_name_H-M   'P 1'
_cell_length_a   8.13300100
_cell_length_b   8.29488446
_cell_length_c   3.89045100
_cell_angle_alpha   90.00000000
_cell_angle_beta   90.00000000
_cell_angle_gamma   119.35649079
_symmetry_Int_Tables_number   1
_chemical_formula_structural   Ho2Lu4CoTe2
_chemical_formula_sum   'Ho2 Lu4 Co1 Te2'
_cell_volume   228.75549356
_cell_formula_units_Z   1
loop_
 _symmetry_equiv_pos_site_id
 _symmetry_equiv_pos_as_xyz
  1  'x, y, z'
loop_
 _atom_site_type_symbol
 _atom_site_label
 _atom_site_symmetry_multiplicity
 _atom_site_fract_x
 _atom_site_fract_y
 _atom_site_fract_z
 _atom_site_occupancy
  Ho  Ho0  1  0.999451  0.600829  0.500000  1
  Ho  Ho1  1  0.398621  0.399171  0.500000  1
  Lu  Lu2  1  0.231683  0.000000  0.000000  1
  Lu  Lu3  1  0.006818  0.236910  0.000000  1
  Lu  Lu4  1  0.769908  0.763090  0.000000  1
  Lu  Lu5  1  0.617770  0.000000  0.500000  1
  Co  Co6  1  0.971923  0.000000  0.500000  1
  Te  Te7  1  0.337168  0.670513  0.000000  1
  Te  Te8  1  0.666657  0.329487  0.000000  1
