# generated using pymatgen
data_Ac5CoBi2
_symmetry_space_group_name_H-M   'P 1'
_cell_length_a   8.91499000
_cell_length_b   9.65220800
_cell_length_c   13.49915100
_cell_angle_alpha   90.00000000
_cell_angle_beta   90.00000000
_cell_angle_gamma   90.00000000
_symmetry_Int_Tables_number   1
_chemical_formula_structural   Ac5CoBi2
_chemical_formula_sum   'Ac20 Co4 Bi8'
_cell_volume   1161.59300438
_cell_formula_units_Z   4
loop_
 _symmetry_equiv_pos_site_id
 _symmetry_equiv_pos_as_xyz
  1  'x, y, z'
loop_
 _atom_site_type_symbol
 _atom_site_label
 _atom_site_symmetry_multiplicity
 _atom_site_fract_x
 _atom_site_fract_y
 _atom_site_fract_z
 _atom_site_occupancy
  Ac  Ac0  1  0.351446  0.750000  0.701668  1
  Ac  Ac1  1  0.648554  0.250000  0.298332  1
  Ac  Ac2  1  0.851446  0.250000  0.798332  1
  Ac  Ac3  1  0.148554  0.750000  0.201668  1
  Ac  Ac4  1  0.879736  0.750000  0.807535  1
  Ac  Ac5  1  0.120264  0.250000  0.192465  1
  Ac  Ac6  1  0.379736  0.250000  0.692465  1
  Ac  Ac7  1  0.620264  0.750000  0.307535  1
  Ac  Ac8  1  0.678079  0.537136  0.564922  1
  Ac  Ac9  1  0.321921  0.462864  0.435078  1
  Ac  Ac10  1  0.178079  0.462864  0.935078  1
  Ac  Ac11  1  0.321921  0.037136  0.435078  1
  Ac  Ac12  1  0.821921  0.537136  0.064922  1
  Ac  Ac13  1  0.678079  0.962864  0.564922  1
  Ac  Ac14  1  0.821921  0.962864  0.064922  1
  Ac  Ac15  1  0.178079  0.037136  0.935078  1
  Ac  Ac16  1  0.052915  0.750000  0.494189  1
  Ac  Ac17  1  0.947085  0.250000  0.505811  1
  Ac  Ac18  1  0.552915  0.250000  0.005811  1
  Ac  Ac19  1  0.447085  0.750000  0.994189  1
  Co  Co20  1  0.069066  0.750000  0.992009  1
  Co  Co21  1  0.930934  0.250000  0.007991  1
  Co  Co22  1  0.569066  0.250000  0.507991  1
  Co  Co23  1  0.430934  0.750000  0.492009  1
  Bi  Bi24  1  0.575985  0.504763  0.827459  1
  Bi  Bi25  1  0.424015  0.495237  0.172541  1
  Bi  Bi26  1  0.075985  0.495237  0.672541  1
  Bi  Bi27  1  0.424015  0.004763  0.172541  1
  Bi  Bi28  1  0.924015  0.504763  0.327459  1
  Bi  Bi29  1  0.575985  0.995237  0.827459  1
  Bi  Bi30  1  0.924015  0.995237  0.327459  1
  Bi  Bi31  1  0.075985  0.004763  0.672541  1
