# generated using pymatgen
data_Ca9LaSi5Sn
_symmetry_space_group_name_H-M   'P 1'
_cell_length_a   7.71883592
_cell_length_b   7.71035446
_cell_length_c   9.28760600
_cell_angle_alpha   114.33384456
_cell_angle_beta   114.53787938
_cell_angle_gamma   90.16819637
_symmetry_Int_Tables_number   1
_chemical_formula_structural   Ca9LaSi5Sn
_chemical_formula_sum   'Ca9 La1 Si5 Sn1'
_cell_volume   447.94348526
_cell_formula_units_Z   1
loop_
 _symmetry_equiv_pos_site_id
 _symmetry_equiv_pos_as_xyz
  1  'x, y, z'
loop_
 _atom_site_type_symbol
 _atom_site_label
 _atom_site_symmetry_multiplicity
 _atom_site_fract_x
 _atom_site_fract_y
 _atom_site_fract_z
 _atom_site_occupancy
  Ca  Ca0  1  0.506441  0.512689  0.019010  1
  Ca  Ca1  1  0.996380  0.990899  0.987551  1
  Ca  Ca2  1  0.974323  0.823703  0.281285  1
  Ca  Ca3  1  0.305939  0.456415  0.280881  1
  Ca  Ca4  1  0.824430  0.306659  0.279243  1
  Ca  Ca5  1  0.453433  0.970696  0.277394  1
  Ca  Ca6  1  0.044885  0.192699  0.720027  1
  Ca  Ca7  1  0.674692  0.531349  0.720421  1
  Ca  Ca8  1  0.192329  0.674271  0.718535  1
  La  La9  1  0.531898  0.049581  0.723237  1
  Si  Si10  1  0.251071  0.245553  0.501616  1
  Si  Si11  1  0.612923  0.887949  0.998829  1
  Si  Si12  1  0.388394  0.114930  0.000473  1
  Si  Si13  1  0.882304  0.382563  0.992727  1
  Si  Si14  1  0.110921  0.611552  0.999318  1
  Sn  Sn15  1  0.749636  0.748490  0.499454  1
