# generated using pymatgen
data_DyTmZr4(SnRh)6
_symmetry_space_group_name_H-M   'P 1'
_cell_length_a   7.52037018
_cell_length_b   7.50637310
_cell_length_c   7.34469400
_cell_angle_alpha   90.00000000
_cell_angle_beta   90.00000000
_cell_angle_gamma   120.00659440
_symmetry_Int_Tables_number   1
_chemical_formula_structural   DyTmZr4(SnRh)6
_chemical_formula_sum   'Dy1 Tm1 Zr4 Sn6 Rh6'
_cell_volume   359.04165861
_cell_formula_units_Z   1
loop_
 _symmetry_equiv_pos_site_id
 _symmetry_equiv_pos_as_xyz
  1  'x, y, z'
loop_
 _atom_site_type_symbol
 _atom_site_label
 _atom_site_symmetry_multiplicity
 _atom_site_fract_x
 _atom_site_fract_y
 _atom_site_fract_z
 _atom_site_occupancy
  Dy  Dy0  1  0.404084  0.402571  0.250000  1
  Tm  Tm1  1  0.596770  0.999124  0.250000  1
  Zr  Zr2  1  0.609347  0.003445  0.750000  1
  Zr  Zr3  1  0.390509  0.394255  0.750000  1
  Zr  Zr4  1  0.000183  0.603261  0.750000  1
  Zr  Zr5  1  0.002517  0.601696  0.250000  1
  Sn  Sn6  1  0.267704  0.999525  0.993272  1
  Sn  Sn7  1  0.732948  0.731985  0.506934  1
  Sn  Sn8  1  0.999082  0.268203  0.496694  1
  Sn  Sn9  1  0.999082  0.268203  0.003306  1
  Sn  Sn10  1  0.732948  0.731985  0.993066  1
  Sn  Sn11  1  0.267704  0.999525  0.506728  1
  Rh  Rh12  1  0.669953  0.335411  0.975095  1
  Rh  Rh13  1  0.669953  0.335411  0.524905  1
  Rh  Rh14  1  0.329340  0.666335  0.975732  1
  Rh  Rh15  1  0.329340  0.666335  0.524268  1
  Rh  Rh16  1  0.999677  0.003917  0.750000  1
  Rh  Rh17  1  0.998862  0.988813  0.250000  1
