# generated using pymatgen
data_Hf13Ta7Si16
_symmetry_space_group_name_H-M   'P 1'
_cell_length_a   6.94644829
_cell_length_b   6.93595081
_cell_length_c   12.74857824
_cell_angle_alpha   90.14519993
_cell_angle_beta   89.84867560
_cell_angle_gamma   90.02837605
_symmetry_Int_Tables_number   1
_chemical_formula_structural   Hf13Ta7Si16
_chemical_formula_sum   'Hf13 Ta7 Si16'
_cell_volume   614.22516299
_cell_formula_units_Z   1
loop_
 _symmetry_equiv_pos_site_id
 _symmetry_equiv_pos_as_xyz
  1  'x, y, z'
loop_
 _atom_site_type_symbol
 _atom_site_label
 _atom_site_symmetry_multiplicity
 _atom_site_fract_x
 _atom_site_fract_y
 _atom_site_fract_z
 _atom_site_occupancy
  Hf  Hf0  1  0.501411  0.647181  0.626100  1
  Hf  Hf1  1  0.852862  0.001686  0.877286  1
  Hf  Hf2  1  0.148054  0.999845  0.375647  1
  Hf  Hf3  1  0.649007  0.502653  0.373611  1
  Hf  Hf4  1  0.352016  0.497237  0.873405  1
  Hf  Hf5  1  0.998942  0.343632  0.219027  1
  Hf  Hf6  1  0.002094  0.654572  0.719453  1
  Hf  Hf7  1  0.499515  0.156389  0.530421  1
  Hf  Hf8  1  0.502245  0.843756  0.031016  1
  Hf  Hf9  1  0.657070  0.002117  0.279301  1
  Hf  Hf10  1  0.343275  0.000079  0.781166  1
  Hf  Hf11  1  0.843854  0.499316  0.971507  1
  Hf  Hf12  1  0.155623  0.499874  0.469016  1
  Ta  Ta13  1  0.171593  0.172730  0.001287  1
  Ta  Ta14  1  0.828378  0.828310  0.500021  1
  Ta  Ta15  1  0.672875  0.325330  0.749935  1
  Ta  Ta16  1  0.328293  0.673892  0.248043  1
  Ta  Ta17  1  0.994487  0.147604  0.624540  1
  Ta  Ta18  1  0.005036  0.852931  0.124490  1
  Ta  Ta19  1  0.495651  0.353081  0.125451  1
  Si  Si20  1  0.290784  0.354075  0.675900  1
  Si  Si21  1  0.707863  0.640659  0.175067  1
  Si  Si22  1  0.792656  0.140494  0.074874  1
  Si  Si23  1  0.202422  0.859706  0.573157  1
  Si  Si24  1  0.646061  0.703069  0.822493  1
  Si  Si25  1  0.356510  0.297384  0.320164  1
  Si  Si26  1  0.855190  0.203101  0.429436  1
  Si  Si27  1  0.144614  0.795959  0.929828  1
  Si  Si28  1  0.045226  0.301420  0.814126  1
  Si  Si29  1  0.954595  0.699019  0.313393  1
  Si  Si30  1  0.546307  0.198545  0.936522  1
  Si  Si31  1  0.453330  0.802860  0.434572  1
  Si  Si32  1  0.698603  0.955317  0.684887  1
  Si  Si33  1  0.301774  0.047165  0.184266  1
  Si  Si34  1  0.803540  0.452546  0.565415  1
  Si  Si35  1  0.198239  0.546464  0.065181  1
