# generated using pymatgen
data_Ce4TcB16Os3
_symmetry_space_group_name_H-M   'P 1'
_cell_length_a   3.63698900
_cell_length_b   6.02359147
_cell_length_c   11.66950845
_cell_angle_alpha   89.94403220
_cell_angle_beta   90.00000000
_cell_angle_gamma   90.00000000
_symmetry_Int_Tables_number   1
_chemical_formula_structural   Ce4TcB16Os3
_chemical_formula_sum   'Ce4 Tc1 B16 Os3'
_cell_volume   255.65238750
_cell_formula_units_Z   1
loop_
 _symmetry_equiv_pos_site_id
 _symmetry_equiv_pos_as_xyz
  1  'x, y, z'
loop_
 _atom_site_type_symbol
 _atom_site_label
 _atom_site_symmetry_multiplicity
 _atom_site_fract_x
 _atom_site_fract_y
 _atom_site_fract_z
 _atom_site_occupancy
  Ce  Ce0  1  0.000000  0.627871  0.350831  1
  Ce  Ce1  1  0.000000  0.372501  0.649823  1
  Ce  Ce2  1  0.000000  0.127859  0.149528  1
  Ce  Ce3  1  0.000000  0.872333  0.849449  1
  Tc  Tc4  1  0.000000  0.862549  0.592208  1
  B  B5  1  0.500000  0.786002  0.185940  1
  B  B6  1  0.500000  0.214779  0.814120  1
  B  B7  1  0.500000  0.285702  0.314124  1
  B  B8  1  0.500000  0.714496  0.685943  1
  B  B9  1  0.500000  0.862548  0.031091  1
  B  B10  1  0.500000  0.137605  0.968572  1
  B  B11  1  0.500000  0.361851  0.468602  1
  B  B12  1  0.500000  0.637212  0.531574  1
  B  B13  1  0.500000  0.887717  0.454592  1
  B  B14  1  0.500000  0.111769  0.546012  1
  B  B15  1  0.500000  0.388190  0.045789  1
  B  B16  1  0.500000  0.611823  0.953911  1
  B  B17  1  0.500000  0.972829  0.309895  1
  B  B18  1  0.500000  0.026441  0.690502  1
  B  B19  1  0.500000  0.472395  0.190413  1
  B  B20  1  0.500000  0.526611  0.809650  1
  Os  Os21  1  0.000000  0.640371  0.094399  1
  Os  Os22  1  0.000000  0.360239  0.906671  1
  Os  Os23  1  0.000000  0.138307  0.406364  1
