# generated using pymatgen
data_Yb3Pt2
_symmetry_space_group_name_H-M   'P 1'
_cell_length_a   7.49748510
_cell_length_b   7.49748545
_cell_length_c   7.49748563
_cell_angle_alpha   70.37238581
_cell_angle_beta   70.37238546
_cell_angle_gamma   70.37239393
_symmetry_Int_Tables_number   1
_chemical_formula_structural   Yb3Pt2
_chemical_formula_sum   'Yb9 Pt6'
_cell_volume   361.88480608
_cell_formula_units_Z   3
loop_
 _symmetry_equiv_pos_site_id
 _symmetry_equiv_pos_as_xyz
  1  'x, y, z'
loop_
 _atom_site_type_symbol
 _atom_site_label
 _atom_site_symmetry_multiplicity
 _atom_site_fract_x
 _atom_site_fract_y
 _atom_site_fract_z
 _atom_site_occupancy
  Yb  Yb0  1  0.000000  0.000000  0.000000  1
  Yb  Yb1  1  0.401727  0.670964  0.148327  1
  Yb  Yb2  1  0.197569  0.197569  0.197569  1
  Yb  Yb3  1  0.851673  0.598273  0.329036  1
  Yb  Yb4  1  0.670964  0.148327  0.401727  1
  Yb  Yb5  1  0.329036  0.851673  0.598273  1
  Yb  Yb6  1  0.148327  0.401727  0.670964  1
  Yb  Yb7  1  0.802431  0.802431  0.802431  1
  Yb  Yb8  1  0.598273  0.329036  0.851673  1
  Pt  Pt9  1  0.834032  0.409621  0.046947  1
  Pt  Pt10  1  0.590379  0.953053  0.165968  1
  Pt  Pt11  1  0.046947  0.834032  0.409621  1
  Pt  Pt12  1  0.953053  0.165968  0.590379  1
  Pt  Pt13  1  0.409621  0.046947  0.834032  1
  Pt  Pt14  1  0.165968  0.590379  0.953053  1
