# generated using pymatgen
data_V2TePbO7
_symmetry_space_group_name_H-M   'P 1'
_cell_length_a   7.03109855
_cell_length_b   7.27330811
_cell_length_c   9.12414081
_cell_angle_alpha   90.66447546
_cell_angle_beta   117.62780186
_cell_angle_gamma   115.61139514
_symmetry_Int_Tables_number   1
_chemical_formula_structural   V2TePbO7
_chemical_formula_sum   'V4 Te2 Pb2 O14'
_cell_volume   359.41162053
_cell_formula_units_Z   2
loop_
 _symmetry_equiv_pos_site_id
 _symmetry_equiv_pos_as_xyz
  1  'x, y, z'
loop_
 _atom_site_type_symbol
 _atom_site_label
 _atom_site_symmetry_multiplicity
 _atom_site_fract_x
 _atom_site_fract_y
 _atom_site_fract_z
 _atom_site_occupancy
  V  V0  1  0.492305  0.584701  0.348575  1
  V  V1  1  0.972405  0.116523  0.351345  1
  V  V2  1  0.027593  0.883478  0.648652  1
  V  V3  1  0.507698  0.415299  0.651425  1
  Te  Te4  1  0.042001  0.703604  0.319610  1
  Te  Te5  1  0.958001  0.296397  0.680390  1
  Pb  Pb6  1  0.399294  0.071766  0.160140  1
  Pb  Pb7  1  0.600706  0.928233  0.839859  1
  O  O8  1  0.763398  0.112306  0.151194  1
  O  O9  1  0.418251  0.413287  0.178629  1
  O  O10  1  0.320026  0.746470  0.295274  1
  O  O11  1  0.125588  0.984251  0.286613  1
  O  O12  1  0.806656  0.829086  0.381645  1
  O  O13  1  0.267678  0.402745  0.426296  1
  O  O14  1  0.799688  0.230740  0.437498  1
  O  O15  1  0.200312  0.769262  0.562501  1
  O  O16  1  0.732322  0.597251  0.573705  1
  O  O17  1  0.193342  0.170913  0.618356  1
  O  O18  1  0.874413  0.015750  0.713387  1
  O  O19  1  0.679975  0.253527  0.704728  1
  O  O20  1  0.581750  0.586715  0.821373  1
  O  O21  1  0.236601  0.887697  0.848806  1
