# generated using pymatgen
data_DyLu3(Al8Pt3)3
_symmetry_space_group_name_H-M   'P 1'
_cell_length_a   7.49670414
_cell_length_b   7.52376270
_cell_length_c   13.13695146
_cell_angle_alpha   84.61760853
_cell_angle_beta   79.14986395
_cell_angle_gamma   59.98800988
_symmetry_Int_Tables_number   1
_chemical_formula_structural   DyLu3(Al8Pt3)3
_chemical_formula_sum   'Dy1 Lu3 Al24 Pt9'
_cell_volume   630.15009722
_cell_formula_units_Z   1
loop_
 _symmetry_equiv_pos_site_id
 _symmetry_equiv_pos_as_xyz
  1  'x, y, z'
loop_
 _atom_site_type_symbol
 _atom_site_label
 _atom_site_symmetry_multiplicity
 _atom_site_fract_x
 _atom_site_fract_y
 _atom_site_fract_z
 _atom_site_occupancy
  Dy  Dy0  1  0.393654  0.168778  0.807995  1
  Lu  Lu1  1  0.606271  0.830886  0.192918  1
  Lu  Lu2  1  0.734429  0.498818  0.806942  1
  Lu  Lu3  1  0.265399  0.501359  0.193099  1
  Al  Al4  1  0.684402  0.833138  0.944225  1
  Al  Al5  1  0.316078  0.166134  0.056568  1
  Al  Al6  1  0.146446  0.832447  0.561549  1
  Al  Al7  1  0.853638  0.167545  0.438361  1
  Al  Al8  1  0.479244  0.166660  0.558600  1
  Al  Al9  1  0.520766  0.833287  0.441207  1
  Al  Al10  1  0.218141  0.165368  0.328177  1
  Al  Al11  1  0.782443  0.834174  0.671453  1
  Al  Al12  1  0.437536  0.506439  0.671543  1
  Al  Al13  1  0.562584  0.494072  0.328056  1
  Al  Al14  1  0.108765  0.160245  0.670361  1
  Al  Al15  1  0.890890  0.839762  0.329158  1
  Al  Al16  1  0.353953  0.499515  0.944299  1
  Al  Al17  1  0.645995  0.501193  0.056068  1
  Al  Al18  1  0.015348  0.168310  0.951844  1
  Al  Al19  1  0.983784  0.831784  0.048595  1
  Al  Al20  1  0.186860  0.499413  0.441171  1
  Al  Al21  1  0.813123  0.500623  0.558752  1
  Al  Al22  1  0.733325  0.163916  0.183207  1
  Al  Al23  1  0.266659  0.835280  0.816768  1
  Al  Al24  1  0.061024  0.631447  0.815658  1
  Al  Al25  1  0.938258  0.369311  0.184290  1
  Al  Al26  1  0.855600  0.042219  0.816157  1
  Al  Al27  1  0.145133  0.957702  0.183837  1
  Pt  Pt28  1  0.119157  0.491530  0.639353  1
  Pt  Pt29  1  0.880417  0.509153  0.360189  1
  Pt  Pt30  1  0.656814  0.171631  0.999909  1
  Pt  Pt31  1  0.343215  0.828386  0.000330  1
  Pt  Pt32  1  0.537211  0.166750  0.360342  1
  Pt  Pt33  1  0.462833  0.832711  0.639288  1
  Pt  Pt34  1  0.778167  0.175771  0.637707  1
  Pt  Pt35  1  0.222487  0.824143  0.361893  1
  Pt  Pt36  1  0.999950  0.500101  0.000132  1
