# generated using pymatgen
data_La9Nd(Zn2Ru3)2
_symmetry_space_group_name_H-M   'P 1'
_cell_length_a   8.54277664
_cell_length_b   8.59923770
_cell_length_c   8.59923670
_cell_angle_alpha   109.82040796
_cell_angle_beta   109.37331674
_cell_angle_gamma   109.48580159
_symmetry_Int_Tables_number   1
_chemical_formula_structural   La9Nd(Zn2Ru3)2
_chemical_formula_sum   'La9 Nd1 Zn4 Ru6'
_cell_volume   484.68374367
_cell_formula_units_Z   1
loop_
 _symmetry_equiv_pos_site_id
 _symmetry_equiv_pos_as_xyz
  1  'x, y, z'
loop_
 _atom_site_type_symbol
 _atom_site_label
 _atom_site_symmetry_multiplicity
 _atom_site_fract_x
 _atom_site_fract_y
 _atom_site_fract_z
 _atom_site_occupancy
  La  La0  1  0.750000  0.810114  0.060114  1
  La  La1  1  0.440066  0.248693  0.689597  1
  La  La2  1  0.691385  0.439860  0.250154  1
  La  La3  1  0.059935  0.749531  0.808628  1
  La  La4  1  0.808615  0.058767  0.748474  1
  La  La5  1  0.216837  0.216914  0.216270  1
  La  La6  1  0.498610  0.000048  0.282745  1
  La  La7  1  0.283163  0.499433  0.000078  1
  La  La8  1  0.001391  0.284136  0.501440  1
  Nd  Nd9  1  0.250000  0.685291  0.435292  1
  Zn  Zn10  1  0.499381  0.998416  0.912992  1
  Zn  Zn11  1  0.582180  0.584022  0.584070  1
  Zn  Zn12  1  0.917820  0.501891  0.001843  1
  Zn  Zn13  1  0.000620  0.913612  0.499038  1
  Ru  Ru14  1  0.250001  0.125908  0.875908  1
  Ru  Ru15  1  0.750000  0.374667  0.624667  1
  Ru  Ru16  1  0.878865  0.254744  0.128154  1
  Ru  Ru17  1  0.121974  0.880346  0.246294  1
  Ru  Ru18  1  0.621134  0.749289  0.375877  1
  Ru  Ru19  1  0.378025  0.624317  0.758370  1
