# generated using pymatgen
data_Er12Re7Si16Pd
_symmetry_space_group_name_H-M   'P 1'
_cell_length_a   10.52356970
_cell_length_b   10.52238090
_cell_length_c   14.19480555
_cell_angle_alpha   55.28404625
_cell_angle_beta   55.24632470
_cell_angle_gamma   30.78321780
_symmetry_Int_Tables_number   1
_chemical_formula_structural   Er12Re7Si16Pd
_chemical_formula_sum   'Er12 Re7 Si16 Pd1'
_cell_volume   648.94186207
_cell_formula_units_Z   1
loop_
 _symmetry_equiv_pos_site_id
 _symmetry_equiv_pos_as_xyz
  1  'x, y, z'
loop_
 _atom_site_type_symbol
 _atom_site_label
 _atom_site_symmetry_multiplicity
 _atom_site_fract_x
 _atom_site_fract_y
 _atom_site_fract_z
 _atom_site_occupancy
  Er  Er0  1  0.749777  0.485033  0.049679  1
  Er  Er1  1  0.533988  0.309326  0.155635  1
  Er  Er2  1  0.515184  0.246235  0.451255  1
  Er  Er3  1  0.465339  0.692683  0.843825  1
  Er  Er4  1  0.292738  0.040014  0.137351  1
  Er  Er5  1  0.959338  0.709189  0.361977  1
  Er  Er6  1  0.706296  0.960800  0.862543  1
  Er  Er7  1  0.040033  0.292968  0.637515  1
  Er  Er8  1  0.248751  0.515734  0.949921  1
  Er  Er9  1  0.485193  0.749702  0.551184  1
  Er  Er10  1  0.308587  0.533960  0.655175  1
  Er  Er11  1  0.695308  0.461773  0.343893  1
  Re  Re12  1  0.830867  0.641005  0.781455  1
  Re  Re13  1  0.358134  0.170262  0.718054  1
  Re  Re14  1  0.165136  0.363748  0.218171  1
  Re  Re15  1  0.135613  0.913963  0.076722  1
  Re  Re16  1  0.085788  0.864824  0.422792  1
  Re  Re17  1  0.864483  0.084892  0.924663  1
  Re  Re18  1  0.910662  0.137349  0.577595  1
  Si  Si19  1  0.905423  0.095146  0.249974  1
  Si  Si20  1  0.092849  0.907776  0.749810  1
  Si  Si21  1  0.343121  0.656540  0.250331  1
  Si  Si22  1  0.657380  0.342279  0.750322  1
  Si  Si23  1  0.001142  0.229323  0.876397  1
  Si  Si24  1  0.771172  0.997832  0.623519  1
  Si  Si25  1  0.007756  0.765965  0.120528  1
  Si  Si26  1  0.219915  0.008078  0.376222  1
  Si  Si27  1  0.603427  0.049668  0.075318  1
  Si  Si28  1  0.964878  0.380922  0.428115  1
  Si  Si29  1  0.394032  0.952878  0.924154  1
  Si  Si30  1  0.046821  0.606905  0.575139  1
  Si  Si31  1  0.381904  0.163929  0.382040  1
  Si  Si32  1  0.850810  0.607396  0.114729  1
  Si  Si33  1  0.617315  0.839710  0.618551  1
  Si  Si34  1  0.156096  0.386650  0.882746  1
  Pd  Pd35  1  0.634744  0.835543  0.282701  1
