# generated using pymatgen
data_Sc4Zn(SiRh)6
_symmetry_space_group_name_H-M   'P 1'
_cell_length_a   6.96960570
_cell_length_b   6.96960525
_cell_length_c   6.96960613
_cell_angle_alpha   109.48834501
_cell_angle_beta   109.48834807
_cell_angle_gamma   109.43697658
_symmetry_Int_Tables_number   1
_chemical_formula_structural   Sc4Zn(SiRh)6
_chemical_formula_sum   'Sc4 Zn1 Si6 Rh6'
_cell_volume   260.61691894
_cell_formula_units_Z   1
loop_
 _symmetry_equiv_pos_site_id
 _symmetry_equiv_pos_as_xyz
  1  'x, y, z'
loop_
 _atom_site_type_symbol
 _atom_site_label
 _atom_site_symmetry_multiplicity
 _atom_site_fract_x
 _atom_site_fract_y
 _atom_site_fract_z
 _atom_site_occupancy
  Sc  Sc0  1  0.002847  0.997153  0.500000  1
  Sc  Sc1  1  0.002847  0.502847  0.005694  1
  Sc  Sc2  1  0.497153  0.997153  0.994306  1
  Sc  Sc3  1  0.497153  0.502847  0.500000  1
  Zn  Zn4  1  0.750000  0.250000  0.500000  1
  Si  Si5  1  0.677668  0.677668  0.000000  1
  Si  Si6  1  0.305693  0.992321  0.313372  1
  Si  Si7  1  0.007679  0.321052  0.313372  1
  Si  Si8  1  0.322332  0.322332  0.000000  1
  Si  Si9  1  0.678948  0.992321  0.686628  1
  Si  Si10  1  0.007679  0.694307  0.686628  1
  Rh  Rh11  1  0.747605  0.492999  0.254606  1
  Rh  Rh12  1  0.507001  0.252395  0.745394  1
  Rh  Rh13  1  0.238393  0.492999  0.745394  1
  Rh  Rh14  1  0.250000  0.750000  0.500000  1
  Rh  Rh15  1  0.507001  0.761607  0.254606  1
  Rh  Rh16  1  0.000000  0.000000  0.000000  1
