# generated using pymatgen
data_Be4Fe2Mo3W3C
_symmetry_space_group_name_H-M   'P 1'
_cell_length_a   7.54961492
_cell_length_b   7.55519585
_cell_length_c   7.55785748
_cell_angle_alpha   59.93411940
_cell_angle_beta   60.03606655
_cell_angle_gamma   60.02443260
_symmetry_Int_Tables_number   1
_chemical_formula_structural   Be4Fe2Mo3W3C
_chemical_formula_sum   'Be8 Fe4 Mo6 W6 C2'
_cell_volume   304.81458288
_cell_formula_units_Z   2
loop_
 _symmetry_equiv_pos_site_id
 _symmetry_equiv_pos_as_xyz
  1  'x, y, z'
loop_
 _atom_site_type_symbol
 _atom_site_label
 _atom_site_symmetry_multiplicity
 _atom_site_fract_x
 _atom_site_fract_y
 _atom_site_fract_z
 _atom_site_occupancy
  Be  Be0  1  0.920949  0.236739  0.921182  1
  Be  Be1  1  0.328869  0.013261  0.328818  1
  Be  Be2  1  0.328911  0.329194  0.328675  1
  Be  Be3  1  0.013104  0.329055  0.328817  1
  Be  Be4  1  0.921097  0.920827  0.237003  1
  Be  Be5  1  0.236781  0.920806  0.921325  1
  Be  Be6  1  0.328925  0.329173  0.012997  1
  Be  Be7  1  0.920977  0.920945  0.921183  1
  Fe  Fe8  1  0.125079  0.125000  0.625000  1
  Fe  Fe9  1  0.124794  0.625000  0.125000  1
  Fe  Fe10  1  0.124975  0.125115  0.124854  1
  Fe  Fe11  1  0.624944  0.124885  0.125146  1
  Mo  Mo12  1  0.298232  0.701551  0.701519  1
  Mo  Mo13  1  0.298337  0.298862  0.701443  1
  Mo  Mo14  1  0.548642  0.951138  0.548557  1
  Mo  Mo15  1  0.951302  0.548449  0.548481  1
  Mo  Mo16  1  0.548507  0.951228  0.951841  1
  Mo  Mo17  1  0.701576  0.298772  0.298159  1
  W  W18  1  0.951725  0.548075  0.952119  1
  W  W19  1  0.298660  0.701433  0.298571  1
  W  W20  1  0.548664  0.548567  0.951429  1
  W  W21  1  0.701464  0.298645  0.701365  1
  W  W22  1  0.701919  0.701925  0.297881  1
  W  W23  1  0.951474  0.951355  0.548635  1
  C  C24  1  0.750039  0.749908  0.750106  1
  C  C25  1  0.500053  0.500092  0.499894  1
