# generated using pymatgen
data_NdY7(ZnCo)2
_symmetry_space_group_name_H-M   'P 1'
_cell_length_a   9.45298312
_cell_length_b   9.45298249
_cell_length_c   9.48657000
_cell_angle_alpha   59.88239423
_cell_angle_beta   59.88239644
_cell_angle_gamma   59.98999729
_symmetry_Int_Tables_number   1
_chemical_formula_structural   NdY7(ZnCo)2
_chemical_formula_sum   'Nd2 Y14 Zn4 Co4'
_cell_volume   598.30817808
_cell_formula_units_Z   2
loop_
 _symmetry_equiv_pos_site_id
 _symmetry_equiv_pos_as_xyz
  1  'x, y, z'
loop_
 _atom_site_type_symbol
 _atom_site_label
 _atom_site_symmetry_multiplicity
 _atom_site_fract_x
 _atom_site_fract_y
 _atom_site_fract_z
 _atom_site_occupancy
  Nd  Nd0  1  0.599454  0.599454  0.600265  1
  Nd  Nd1  1  0.599454  0.599454  0.200826  1
  Y  Y2  1  0.603781  0.193366  0.601427  1
  Y  Y3  1  0.193366  0.603781  0.601427  1
  Y  Y4  1  0.059722  0.439451  0.441603  1
  Y  Y5  1  0.439451  0.059722  0.059224  1
  Y  Y6  1  0.439451  0.059722  0.441603  1
  Y  Y7  1  0.059722  0.439451  0.059224  1
  Y  Y8  1  0.440042  0.440042  0.059958  1
  Y  Y9  1  0.058679  0.058679  0.441321  1
  Y  Y10  1  0.189107  0.813069  0.812389  1
  Y  Y11  1  0.813069  0.189107  0.185435  1
  Y  Y12  1  0.813069  0.189107  0.812389  1
  Y  Y13  1  0.189107  0.813069  0.185435  1
  Y  Y14  1  0.813913  0.813913  0.186087  1
  Y  Y15  1  0.190544  0.190544  0.809456  1
  Zn  Zn16  1  0.828853  0.828853  0.825306  1
  Zn  Zn17  1  0.828853  0.828853  0.516985  1
  Zn  Zn18  1  0.829743  0.514937  0.827660  1
  Zn  Zn19  1  0.514937  0.829743  0.827660  1
  Co  Co20  1  0.389583  0.389583  0.394660  1
  Co  Co21  1  0.389583  0.389583  0.826174  1
  Co  Co22  1  0.388354  0.828162  0.391743  1
  Co  Co23  1  0.828162  0.388354  0.391743  1
