# generated using pymatgen
data_Re6IrPd
_symmetry_space_group_name_H-M   'P 1'
_cell_length_a   5.58914500
_cell_length_b   5.58914514
_cell_length_c   4.41105000
_cell_angle_alpha   90.00000000
_cell_angle_beta   90.00000000
_cell_angle_gamma   119.99999328
_symmetry_Int_Tables_number   1
_chemical_formula_structural   Re6IrPd
_chemical_formula_sum   'Re6 Ir1 Pd1'
_cell_volume   119.33378224
_cell_formula_units_Z   1
loop_
 _symmetry_equiv_pos_site_id
 _symmetry_equiv_pos_as_xyz
  1  'x, y, z'
loop_
 _atom_site_type_symbol
 _atom_site_label
 _atom_site_symmetry_multiplicity
 _atom_site_fract_x
 _atom_site_fract_y
 _atom_site_fract_z
 _atom_site_occupancy
  Re  Re0  1  0.840173  0.159824  0.750001  1
  Re  Re1  1  0.319651  0.159824  0.750001  1
  Re  Re2  1  0.840175  0.680349  0.750001  1
  Re  Re3  1  0.160623  0.839375  0.250001  1
  Re  Re4  1  0.678752  0.839375  0.250001  1
  Re  Re5  1  0.160623  0.321246  0.250001  1
  Ir  Ir6  1  0.666667  0.333333  0.250001  1
  Pd  Pd7  1  0.333334  0.666667  0.750001  1
