# generated using pymatgen
data_KRb15(TiS4)4
_symmetry_space_group_name_H-M   'P 1'
_cell_length_a   8.52523965
_cell_length_b   9.96754100
_cell_length_c   14.73600900
_cell_angle_alpha   90.00000000
_cell_angle_beta   90.08622692
_cell_angle_gamma   90.00000000
_symmetry_Int_Tables_number   1
_chemical_formula_structural   KRb15(TiS4)4
_chemical_formula_sum   'K1 Rb15 Ti4 S16'
_cell_volume   1252.20090517
_cell_formula_units_Z   1
loop_
 _symmetry_equiv_pos_site_id
 _symmetry_equiv_pos_as_xyz
  1  'x, y, z'
loop_
 _atom_site_type_symbol
 _atom_site_label
 _atom_site_symmetry_multiplicity
 _atom_site_fract_x
 _atom_site_fract_y
 _atom_site_fract_z
 _atom_site_occupancy
  K  K0  1  0.521738  0.750000  0.927744  1
  Rb  Rb1  1  0.000158  0.999657  0.999705  1
  Rb  Rb2  1  0.499963  0.999927  0.500124  1
  Rb  Rb3  1  0.000158  0.500343  0.999705  1
  Rb  Rb4  1  0.499963  0.500073  0.500124  1
  Rb  Rb5  1  0.987346  0.750000  0.425164  1
  Rb  Rb6  1  0.487550  0.250000  0.074850  1
  Rb  Rb7  1  0.012272  0.250000  0.575142  1
  Rb  Rb8  1  0.837649  0.055307  0.279433  1
  Rb  Rb9  1  0.337766  0.944239  0.219689  1
  Rb  Rb10  1  0.162130  0.556051  0.720410  1
  Rb  Rb11  1  0.662120  0.444372  0.780372  1
  Rb  Rb12  1  0.162130  0.943949  0.720410  1
  Rb  Rb13  1  0.662120  0.055628  0.780372  1
  Rb  Rb14  1  0.837649  0.444693  0.279433  1
  Rb  Rb15  1  0.337766  0.555761  0.219689  1
  Ti  Ti16  1  0.758433  0.750000  0.666803  1
  Ti  Ti17  1  0.240339  0.250000  0.334054  1
  Ti  Ti18  1  0.739190  0.750000  0.164497  1
  Ti  Ti19  1  0.260697  0.250000  0.834561  1
  S  S20  1  0.991580  0.250000  0.824652  1
  S  S21  1  0.509593  0.250000  0.324452  1
  S  S22  1  0.489520  0.750000  0.676471  1
  S  S23  1  0.008241  0.750000  0.175203  1
  S  S24  1  0.656427  0.563316  0.089941  1
  S  S25  1  0.158174  0.437468  0.407826  1
  S  S26  1  0.342817  0.061309  0.907809  1
  S  S27  1  0.841177  0.936994  0.592589  1
  S  S28  1  0.342817  0.438691  0.907809  1
  S  S29  1  0.841177  0.563006  0.592589  1
  S  S30  1  0.656427  0.936684  0.089941  1
  S  S31  1  0.158174  0.062532  0.407826  1
  S  S32  1  0.634797  0.750000  0.308687  1
  S  S33  1  0.134758  0.250000  0.190111  1
  S  S34  1  0.364751  0.250000  0.690497  1
  S  S35  1  0.862429  0.750000  0.811313  1
