# generated using pymatgen
data_PrNd(CoAs)4
_symmetry_space_group_name_H-M   'P 1'
_cell_length_a   4.17548900
_cell_length_b   4.17548900
_cell_length_c   9.49379100
_cell_angle_alpha   90.00000000
_cell_angle_beta   90.00000000
_cell_angle_gamma   90.00000000
_symmetry_Int_Tables_number   1
_chemical_formula_structural   PrNd(CoAs)4
_chemical_formula_sum   'Pr1 Nd1 Co4 As4'
_cell_volume   165.52147759
_cell_formula_units_Z   1
loop_
 _symmetry_equiv_pos_site_id
 _symmetry_equiv_pos_as_xyz
  1  'x, y, z'
loop_
 _atom_site_type_symbol
 _atom_site_label
 _atom_site_symmetry_multiplicity
 _atom_site_fract_x
 _atom_site_fract_y
 _atom_site_fract_z
 _atom_site_occupancy
  Pr  Pr0  1  0.000000  0.500000  0.751718  1
  Nd  Nd1  1  0.500000  0.000000  0.248283  1
  Co  Co2  1  0.500000  0.000000  0.884453  1
  Co  Co3  1  0.500000  0.500000  0.499227  1
  Co  Co4  1  0.000000  0.500000  0.116452  1
  Co  Co5  1  0.000000  0.000000  0.499227  1
  As  As6  1  0.000000  0.500000  0.368819  1
  As  As7  1  0.500000  0.500000  0.000790  1
  As  As8  1  0.000000  0.000000  0.000790  1
  As  As9  1  0.500000  0.000000  0.630240  1
