# generated using pymatgen
data_ErTh2Si6Pd19Pt
_symmetry_space_group_name_H-M   'P 1'
_cell_length_a   8.75874417
_cell_length_b   8.75265986
_cell_length_c   8.75266097
_cell_angle_alpha   59.92652609
_cell_angle_beta   59.97700242
_cell_angle_gamma   59.97700683
_symmetry_Int_Tables_number   1
_chemical_formula_structural   ErTh2Si6Pd19Pt
_chemical_formula_sum   'Er1 Th2 Si6 Pd19 Pt1'
_cell_volume   474.03935300
_cell_formula_units_Z   1
loop_
 _symmetry_equiv_pos_site_id
 _symmetry_equiv_pos_as_xyz
  1  'x, y, z'
loop_
 _atom_site_type_symbol
 _atom_site_label
 _atom_site_symmetry_multiplicity
 _atom_site_fract_x
 _atom_site_fract_y
 _atom_site_fract_z
 _atom_site_occupancy
  Er  Er0  1  0.000875  0.000000  0.000000  1
  Th  Th1  1  0.249993  0.249624  0.249624  1
  Th  Th2  1  0.749241  0.750376  0.750376  1
  Si  Si3  1  0.734351  0.265467  0.265467  1
  Si  Si4  1  0.265285  0.734533  0.734533  1
  Si  Si5  1  0.264939  0.735467  0.264533  1
  Si  Si6  1  0.735170  0.265444  0.734556  1
  Si  Si7  1  0.264939  0.264533  0.735467  1
  Si  Si8  1  0.735170  0.734556  0.265444  1
  Pd  Pd9  1  0.654088  0.000000  0.000000  1
  Pd  Pd10  1  0.000195  0.345940  0.654060  1
  Pd  Pd11  1  0.000195  0.654060  0.345940  1
  Pd  Pd12  1  0.998878  0.347109  0.000246  1
  Pd  Pd13  1  0.653950  0.000042  0.346005  1
  Pd  Pd14  1  0.999996  0.653995  0.999958  1
  Pd  Pd15  1  0.346233  0.999754  0.652891  1
  Pd  Pd16  1  0.998878  0.000246  0.347109  1
  Pd  Pd17  1  0.999996  0.999958  0.653995  1
  Pd  Pd18  1  0.653950  0.346005  0.000042  1
  Pd  Pd19  1  0.346233  0.652891  0.999754  1
  Pd  Pd20  1  0.384261  0.384261  0.384261  1
  Pd  Pd21  1  0.616007  0.615707  0.615707  1
  Pd  Pd22  1  0.384259  0.384847  0.847120  1
  Pd  Pd23  1  0.384259  0.847120  0.384847  1
  Pd  Pd24  1  0.616224  0.615153  0.152880  1
  Pd  Pd25  1  0.616224  0.152880  0.615153  1
  Pd  Pd26  1  0.847422  0.384293  0.384293  1
  Pd  Pd27  1  0.152780  0.615739  0.615739  1
  Pt  Pt28  1  0.346008  0.000000  0.000000  1
