# generated using pymatgen
data_Th2Co9NiP6
_symmetry_space_group_name_H-M   'P 1'
_cell_length_a   5.99135624
_cell_length_b   5.99135553
_cell_length_c   11.37403889
_cell_angle_alpha   90.11910726
_cell_angle_beta   89.88089187
_cell_angle_gamma   144.88322463
_symmetry_Int_Tables_number   1
_chemical_formula_structural   Th2Co9NiP6
_chemical_formula_sum   'Th2 Co9 Ni1 P6'
_cell_volume   234.86407383
_cell_formula_units_Z   1
loop_
 _symmetry_equiv_pos_site_id
 _symmetry_equiv_pos_as_xyz
  1  'x, y, z'
loop_
 _atom_site_type_symbol
 _atom_site_label
 _atom_site_symmetry_multiplicity
 _atom_site_fract_x
 _atom_site_fract_y
 _atom_site_fract_z
 _atom_site_occupancy
  Th  Th0  1  0.338026  0.661974  0.247449  1
  Th  Th1  1  0.661974  0.338026  0.752551  1
  Co  Co2  1  0.052650  0.947350  0.143265  1
  Co  Co3  1  0.050222  0.949778  0.358509  1
  Co  Co4  1  0.699139  0.300861  0.428468  1
  Co  Co5  1  0.300861  0.699139  0.571532  1
  Co  Co6  1  0.300398  0.699602  0.928791  1
  Co  Co7  1  0.699602  0.300398  0.071209  1
  Co  Co8  1  0.500000  0.500000  0.000000  1
  Co  Co9  1  0.949778  0.050222  0.641491  1
  Co  Co10  1  0.947350  0.052650  0.856735  1
  Ni  Ni11  1  0.500000  0.500000  0.500000  1
  P  P12  1  0.609908  0.390092  0.250366  1
  P  P13  1  0.390092  0.609908  0.749634  1
  P  P14  1  0.118838  0.881162  0.538235  1
  P  P15  1  0.881162  0.118838  0.461765  1
  P  P16  1  0.883372  0.116628  0.037884  1
  P  P17  1  0.116628  0.883372  0.962116  1
