# generated using pymatgen
data_Cs2LiTaS4
_symmetry_space_group_name_H-M   'P 1'
_cell_length_a   14.47358036
_cell_length_b   12.93387253
_cell_length_c   7.78507400
_cell_angle_alpha   84.75540366
_cell_angle_beta   62.85796412
_cell_angle_gamma   32.38663272
_symmetry_Int_Tables_number   1
_chemical_formula_structural   Cs2LiTaS4
_chemical_formula_sum   'Cs4 Li2 Ta2 S8'
_cell_volume   546.95684726
_cell_formula_units_Z   2
loop_
 _symmetry_equiv_pos_site_id
 _symmetry_equiv_pos_as_xyz
  1  'x, y, z'
loop_
 _atom_site_type_symbol
 _atom_site_label
 _atom_site_symmetry_multiplicity
 _atom_site_fract_x
 _atom_site_fract_y
 _atom_site_fract_z
 _atom_site_occupancy
  Cs  Cs0  1  0.822828  0.822828  0.177172  1
  Cs  Cs1  1  0.427172  0.427172  0.072828  1
  Cs  Cs2  1  0.177172  0.177172  0.822828  1
  Cs  Cs3  1  0.072828  0.072828  0.427172  1
  Li  Li4  1  0.500000  0.500000  0.500000  1
  Li  Li5  1  0.750000  0.750000  0.750000  1
  Ta  Ta6  1  0.000000  0.000000  0.000000  1
  Ta  Ta7  1  0.250000  0.250000  0.250000  1
  S  S8  1  0.515168  0.882421  0.167680  1
  S  S9  1  0.882421  0.515168  0.434730  1
  S  S10  1  0.815270  0.082320  0.367579  1
  S  S11  1  0.082320  0.815270  0.734832  1
  S  S12  1  0.167680  0.434730  0.515168  1
  S  S13  1  0.434730  0.167680  0.882421  1
  S  S14  1  0.367579  0.734832  0.815270  1
  S  S15  1  0.734832  0.367579  0.082320  1
