# generated using pymatgen
data_YEr3(AuCl6)4
_symmetry_space_group_name_H-M   'P 1'
_cell_length_a   7.95479075
_cell_length_b   9.88567063
_cell_length_c   13.98625714
_cell_angle_alpha   102.82510761
_cell_angle_beta   97.58545504
_cell_angle_gamma   113.04124637
_symmetry_Int_Tables_number   1
_chemical_formula_structural   YEr3(AuCl6)4
_chemical_formula_sum   'Y1 Er3 Au4 Cl24'
_cell_volume   957.05002171
_cell_formula_units_Z   1
loop_
 _symmetry_equiv_pos_site_id
 _symmetry_equiv_pos_as_xyz
  1  'x, y, z'
loop_
 _atom_site_type_symbol
 _atom_site_label
 _atom_site_symmetry_multiplicity
 _atom_site_fract_x
 _atom_site_fract_y
 _atom_site_fract_z
 _atom_site_occupancy
  Y  Y0  1  0.030778  0.685309  0.127939  1
  Er  Er1  1  0.578640  0.928781  0.623072  1
  Er  Er2  1  0.421744  0.071476  0.377129  1
  Er  Er3  1  0.969062  0.314405  0.871676  1
  Au  Au4  1  0.288493  0.633561  0.763590  1
  Au  Au5  1  0.710920  0.365816  0.236694  1
  Au  Au6  1  0.500166  0.500245  0.500142  1
  Au  Au7  1  0.999950  0.000458  0.999568  1
  Cl  Cl8  1  0.598618  0.736150  0.750270  1
  Cl  Cl9  1  0.400767  0.263535  0.249754  1
  Cl  Cl10  1  0.278655  0.850380  0.731047  1
  Cl  Cl11  1  0.721015  0.149107  0.269034  1
  Cl  Cl12  1  0.976096  0.532788  0.773299  1
  Cl  Cl13  1  0.023551  0.465463  0.227616  1
  Cl  Cl14  1  0.296530  0.412356  0.791176  1
  Cl  Cl15  1  0.701612  0.586516  0.209050  1
  Cl  Cl16  1  0.686574  0.368449  0.500899  1
  Cl  Cl17  1  0.313548  0.631849  0.499311  1
  Cl  Cl18  1  0.756924  0.737080  0.533868  1
  Cl  Cl19  1  0.243556  0.263522  0.466494  1
  Cl  Cl20  1  0.790134  0.107273  0.974987  1
  Cl  Cl21  1  0.211026  0.894679  0.023975  1
  Cl  Cl22  1  0.776023  0.789153  0.030041  1
  Cl  Cl23  1  0.223159  0.211952  0.969136  1
  Cl  Cl24  1  0.622741  0.192733  0.744825  1
  Cl  Cl25  1  0.379522  0.808062  0.255949  1
  Cl  Cl26  1  0.934949  0.060440  0.731911  1
  Cl  Cl27  1  0.065654  0.941397  0.269278  1
  Cl  Cl28  1  0.714809  0.046643  0.483947  1
  Cl  Cl29  1  0.285640  0.953617  0.516434  1
  Cl  Cl30  1  0.772334  0.434877  0.976325  1
  Cl  Cl31  1  0.226811  0.561930  0.021562  1
