# generated using pymatgen
data_Tb2Er2TcB12Ru
_symmetry_space_group_name_H-M   'P 1'
_cell_length_a   3.66453400
_cell_length_b   9.13370215
_cell_length_c   11.53021301
_cell_angle_alpha   89.86254476
_cell_angle_beta   90.00000000
_cell_angle_gamma   90.00000000
_symmetry_Int_Tables_number   1
_chemical_formula_structural   Tb2Er2TcB12Ru
_chemical_formula_sum   'Tb4 Er4 Tc2 B24 Ru2'
_cell_volume   385.92390580
_cell_formula_units_Z   2
loop_
 _symmetry_equiv_pos_site_id
 _symmetry_equiv_pos_as_xyz
  1  'x, y, z'
loop_
 _atom_site_type_symbol
 _atom_site_label
 _atom_site_symmetry_multiplicity
 _atom_site_fract_x
 _atom_site_fract_y
 _atom_site_fract_z
 _atom_site_occupancy
  Tb  Tb0  1  0.000000  0.324781  0.415368  1
  Tb  Tb1  1  0.000000  0.675219  0.584632  1
  Tb  Tb2  1  0.000000  0.821378  0.087346  1
  Tb  Tb3  1  0.000000  0.178622  0.912654  1
  Er  Er4  1  0.000000  0.942406  0.370570  1
  Er  Er5  1  0.000000  0.057594  0.629430  1
  Er  Er6  1  0.000000  0.443344  0.130032  1
  Er  Er7  1  0.000000  0.556656  0.869968  1
  Tc  Tc8  1  0.000000  0.638836  0.319804  1
  Tc  Tc9  1  0.000000  0.361164  0.680196  1
  B  B10  1  0.500000  0.553568  0.432538  1
  B  B11  1  0.500000  0.446432  0.567462  1
  B  B12  1  0.500000  0.054268  0.067434  1
  B  B13  1  0.500000  0.945732  0.932566  1
  B  B14  1  0.500000  0.749130  0.418517  1
  B  B15  1  0.500000  0.250870  0.581483  1
  B  B16  1  0.500000  0.249157  0.081570  1
  B  B17  1  0.500000  0.750843  0.918430  1
  B  B18  1  0.500000  0.791790  0.265478  1
  B  B19  1  0.500000  0.208210  0.734522  1
  B  B20  1  0.500000  0.290891  0.234025  1
  B  B21  1  0.500000  0.709109  0.765975  1
  B  B22  1  0.500000  0.630902  0.185124  1
  B  B23  1  0.500000  0.369098  0.814876  1
  B  B24  1  0.500000  0.130578  0.314092  1
  B  B25  1  0.500000  0.869422  0.685908  1
  B  B26  1  0.500000  0.983403  0.212266  1
  B  B27  1  0.500000  0.016597  0.787734  1
  B  B28  1  0.500000  0.482891  0.287210  1
  B  B29  1  0.500000  0.517109  0.712790  1
  B  B30  1  0.500000  0.602360  0.028104  1
  B  B31  1  0.500000  0.397640  0.971896  1
  B  B32  1  0.500000  0.102352  0.471513  1
  B  B33  1  0.500000  0.897648  0.528487  1
  Ru  Ru34  1  0.000000  0.138202  0.178934  1
  Ru  Ru35  1  0.000000  0.861798  0.821066  1
