# generated using pymatgen
data_Ce3TiMnC6
_symmetry_space_group_name_H-M   'P 1'
_cell_length_a   8.33106800
_cell_length_b   8.33106791
_cell_length_c   5.16346600
_cell_angle_alpha   90.00000000
_cell_angle_beta   90.00000000
_cell_angle_gamma   119.99999242
_symmetry_Int_Tables_number   1
_chemical_formula_structural   Ce3TiMnC6
_chemical_formula_sum   'Ce6 Ti2 Mn2 C12'
_cell_volume   310.36542917
_cell_formula_units_Z   2
loop_
 _symmetry_equiv_pos_site_id
 _symmetry_equiv_pos_as_xyz
  1  'x, y, z'
loop_
 _atom_site_type_symbol
 _atom_site_label
 _atom_site_symmetry_multiplicity
 _atom_site_fract_x
 _atom_site_fract_y
 _atom_site_fract_z
 _atom_site_occupancy
  Ce  Ce0  1  0.617680  0.681706  0.750000  1
  Ce  Ce1  1  0.935975  0.617680  0.250000  1
  Ce  Ce2  1  0.681706  0.064025  0.250000  1
  Ce  Ce3  1  0.318294  0.935975  0.750000  1
  Ce  Ce4  1  0.064025  0.382320  0.750000  1
  Ce  Ce5  1  0.382320  0.318294  0.250000  1
  Ti  Ti6  1  0.000000  0.000000  0.500000  1
  Ti  Ti7  1  0.000000  0.000000  0.000000  1
  Mn  Mn8  1  0.666667  0.333333  0.750000  1
  Mn  Mn9  1  0.333333  0.666667  0.250000  1
  C  C10  1  0.959128  0.761398  0.750000  1
  C  C11  1  0.197730  0.959128  0.250000  1
  C  C12  1  0.761398  0.802270  0.250000  1
  C  C13  1  0.238602  0.197730  0.750000  1
  C  C14  1  0.802270  0.040872  0.750000  1
  C  C15  1  0.040872  0.238602  0.250000  1
  C  C16  1  0.859374  0.570073  0.750000  1
  C  C17  1  0.289299  0.859374  0.250000  1
  C  C18  1  0.570073  0.710701  0.250000  1
  C  C19  1  0.429927  0.289299  0.750000  1
  C  C20  1  0.140626  0.429927  0.250000  1
  C  C21  1  0.710701  0.140626  0.750000  1
