# generated using pymatgen
data_NaDyMn3Ni9As7
_symmetry_space_group_name_H-M   'P 1'
_cell_length_a   9.46810700
_cell_length_b   9.46810795
_cell_length_c   3.81413700
_cell_angle_alpha   90.00000000
_cell_angle_beta   90.00000000
_cell_angle_gamma   120.00000016
_symmetry_Int_Tables_number   1
_chemical_formula_structural   NaDyMn3Ni9As7
_chemical_formula_sum   'Na1 Dy1 Mn3 Ni9 As7'
_cell_volume   296.11013869
_cell_formula_units_Z   1
loop_
 _symmetry_equiv_pos_site_id
 _symmetry_equiv_pos_as_xyz
  1  'x, y, z'
loop_
 _atom_site_type_symbol
 _atom_site_label
 _atom_site_symmetry_multiplicity
 _atom_site_fract_x
 _atom_site_fract_y
 _atom_site_fract_z
 _atom_site_occupancy
  Na  Na0  1  0.666667  0.333333  0.500000  1
  Dy  Dy1  1  0.333333  0.666667  0.000000  1
  Mn  Mn2  1  0.220779  0.118943  0.500000  1
  Mn  Mn3  1  0.881057  0.101836  0.500000  1
  Mn  Mn4  1  0.898164  0.779221  0.500000  1
  Ni  Ni5  1  0.122774  0.281494  0.000000  1
  Ni  Ni6  1  0.718506  0.841279  0.000000  1
  Ni  Ni7  1  0.158721  0.877226  0.000000  1
  Ni  Ni8  1  0.429472  0.375347  0.000000  1
  Ni  Ni9  1  0.624653  0.054126  0.000000  1
  Ni  Ni10  1  0.945874  0.570528  0.000000  1
  Ni  Ni11  1  0.050269  0.429274  0.500000  1
  Ni  Ni12  1  0.570726  0.620995  0.500000  1
  Ni  Ni13  1  0.379005  0.949731  0.500000  1
  As  As14  1  0.294784  0.409614  0.500000  1
  As  As15  1  0.590386  0.885170  0.500000  1
  As  As16  1  0.114830  0.705216  0.500000  1
  As  As17  1  0.415703  0.119172  0.000000  1
  As  As18  1  0.880828  0.296533  0.000000  1
  As  As19  1  0.703467  0.584297  0.000000  1
  As  As20  1  0.000000  0.000000  0.000000  1
