# generated using pymatgen
data_La4Tb(NdSe4)3
_symmetry_space_group_name_H-M   'P 1'
_cell_length_a   4.26064900
_cell_length_b   11.20703416
_cell_length_c   11.58509700
_cell_angle_alpha   90.00981597
_cell_angle_beta   90.00000000
_cell_angle_gamma   90.00000000
_symmetry_Int_Tables_number   1
_chemical_formula_structural   La4Tb(NdSe4)3
_chemical_formula_sum   'La4 Tb1 Nd3 Se12'
_cell_volume   553.17955628
_cell_formula_units_Z   1
loop_
 _symmetry_equiv_pos_site_id
 _symmetry_equiv_pos_as_xyz
  1  'x, y, z'
loop_
 _atom_site_type_symbol
 _atom_site_label
 _atom_site_symmetry_multiplicity
 _atom_site_fract_x
 _atom_site_fract_y
 _atom_site_fract_z
 _atom_site_occupancy
  La  La0  1  0.250000  0.998283  0.694377  1
  La  La1  1  0.750000  0.003323  0.305969  1
  La  La2  1  0.750000  0.496457  0.807308  1
  La  La3  1  0.250000  0.501228  0.192445  1
  Tb  Tb4  1  0.250000  0.185975  0.009731  1
  Nd  Nd5  1  0.250000  0.313872  0.510208  1
  Nd  Nd6  1  0.750000  0.686087  0.489553  1
  Nd  Nd7  1  0.750000  0.814305  0.989770  1
  Se  Se8  1  0.750000  0.059689  0.885212  1
  Se  Se9  1  0.250000  0.946848  0.116401  1
  Se  Se10  1  0.250000  0.556335  0.618637  1
  Se  Se11  1  0.750000  0.443249  0.381490  1
  Se  Se12  1  0.250000  0.872442  0.454734  1
  Se  Se13  1  0.750000  0.128022  0.545353  1
  Se  Se14  1  0.750000  0.366613  0.044421  1
  Se  Se15  1  0.250000  0.627431  0.954805  1
  Se  Se16  1  0.250000  0.297924  0.773054  1
  Se  Se17  1  0.750000  0.700730  0.229240  1
  Se  Se18  1  0.750000  0.799790  0.729857  1
  Se  Se19  1  0.250000  0.201396  0.267441  1
