# generated using pymatgen
data_La2Ga2PtRh
_symmetry_space_group_name_H-M   'P 1'
_cell_length_a   4.52212500
_cell_length_b   7.17951200
_cell_length_c   7.94795700
_cell_angle_alpha   90.00000000
_cell_angle_beta   90.00000000
_cell_angle_gamma   90.00000000
_symmetry_Int_Tables_number   1
_chemical_formula_structural   La2Ga2PtRh
_chemical_formula_sum   'La4 Ga4 Pt2 Rh2'
_cell_volume   258.04354372
_cell_formula_units_Z   2
loop_
 _symmetry_equiv_pos_site_id
 _symmetry_equiv_pos_as_xyz
  1  'x, y, z'
loop_
 _atom_site_type_symbol
 _atom_site_label
 _atom_site_symmetry_multiplicity
 _atom_site_fract_x
 _atom_site_fract_y
 _atom_site_fract_z
 _atom_site_occupancy
  La  La0  1  0.250000  0.035567  0.683710  1
  La  La1  1  0.250000  0.535567  0.816290  1
  La  La2  1  0.750000  0.970790  0.306703  1
  La  La3  1  0.750000  0.470790  0.193297  1
  Ga  Ga4  1  0.250000  0.150601  0.072270  1
  Ga  Ga5  1  0.250000  0.650601  0.427730  1
  Ga  Ga6  1  0.750000  0.844564  0.930931  1
  Ga  Ga7  1  0.750000  0.344564  0.569069  1
  Pt  Pt8  1  0.750000  0.722116  0.608752  1
  Pt  Pt9  1  0.750000  0.222116  0.891248  1
  Rh  Rh10  1  0.250000  0.276362  0.394174  1
  Rh  Rh11  1  0.250000  0.776362  0.105826  1
