# generated using pymatgen
data_TbTm15
_symmetry_space_group_name_H-M   'P 1'
_cell_length_a   7.15976200
_cell_length_b   7.15976219
_cell_length_c   11.03565100
_cell_angle_alpha   90.00000000
_cell_angle_beta   90.00000000
_cell_angle_gamma   119.99999911
_symmetry_Int_Tables_number   1
_chemical_formula_structural   TbTm15
_chemical_formula_sum   'Tb1 Tm15'
_cell_volume   489.92068576
_cell_formula_units_Z   1
loop_
 _symmetry_equiv_pos_site_id
 _symmetry_equiv_pos_as_xyz
  1  'x, y, z'
loop_
 _atom_site_type_symbol
 _atom_site_label
 _atom_site_symmetry_multiplicity
 _atom_site_fract_x
 _atom_site_fract_y
 _atom_site_fract_z
 _atom_site_occupancy
  Tb  Tb0  1  0.000000  0.000000  0.500000  1
  Tm  Tm1  1  0.000000  0.000000  0.000000  1
  Tm  Tm2  1  0.002038  0.501019  0.500000  1
  Tm  Tm3  1  0.999454  0.499727  0.000000  1
  Tm  Tm4  1  0.498981  0.501019  0.500000  1
  Tm  Tm5  1  0.500273  0.499727  0.000000  1
  Tm  Tm6  1  0.498981  0.997962  0.500000  1
  Tm  Tm7  1  0.500273  0.000546  0.000000  1
  Tm  Tm8  1  0.167114  0.334227  0.248713  1
  Tm  Tm9  1  0.167114  0.334227  0.751287  1
  Tm  Tm10  1  0.167114  0.832886  0.248713  1
  Tm  Tm11  1  0.167114  0.832886  0.751287  1
  Tm  Tm12  1  0.665773  0.832886  0.248713  1
  Tm  Tm13  1  0.665773  0.832886  0.751287  1
  Tm  Tm14  1  0.666667  0.333333  0.251199  1
  Tm  Tm15  1  0.666667  0.333333  0.748801  1
