# generated using pymatgen
data_Lu2B4Ru5
_symmetry_space_group_name_H-M   'P 1'
_cell_length_a   3.04005700
_cell_length_b   8.74766928
_cell_length_c   10.14410708
_cell_angle_alpha   90.02223332
_cell_angle_beta   90.00000000
_cell_angle_gamma   90.00000000
_symmetry_Int_Tables_number   1
_chemical_formula_structural   Lu2B4Ru5
_chemical_formula_sum   'Lu4 B8 Ru10'
_cell_volume   269.76641110
_cell_formula_units_Z   2
loop_
 _symmetry_equiv_pos_site_id
 _symmetry_equiv_pos_as_xyz
  1  'x, y, z'
loop_
 _atom_site_type_symbol
 _atom_site_label
 _atom_site_symmetry_multiplicity
 _atom_site_fract_x
 _atom_site_fract_y
 _atom_site_fract_z
 _atom_site_occupancy
  Lu  Lu0  1  0.500000  0.839074  0.181510  1
  Lu  Lu1  1  0.500000  0.160926  0.818490  1
  Lu  Lu2  1  0.500000  0.660928  0.681469  1
  Lu  Lu3  1  0.500000  0.339072  0.318531  1
  B  B4  1  0.500000  0.967647  0.587244  1
  B  B5  1  0.500000  0.032353  0.412756  1
  B  B6  1  0.500000  0.854089  0.898841  1
  B  B7  1  0.500000  0.145911  0.101159  1
  B  B8  1  0.500000  0.645870  0.398807  1
  B  B9  1  0.500000  0.354130  0.601193  1
  B  B10  1  0.500000  0.467676  0.912763  1
  B  B11  1  0.500000  0.532324  0.087237  1
  Ru  Ru12  1  0.000000  0.663720  0.952686  1
  Ru  Ru13  1  0.000000  0.336280  0.047314  1
  Ru  Ru14  1  0.000000  0.836241  0.452640  1
  Ru  Ru15  1  0.000000  0.163759  0.547360  1
  Ru  Ru16  1  0.000000  0.000000  0.000000  1
  Ru  Ru17  1  0.000000  0.408509  0.762557  1
  Ru  Ru18  1  0.000000  0.591491  0.237443  1
  Ru  Ru19  1  0.000000  0.500000  0.500000  1
  Ru  Ru20  1  0.000000  0.908480  0.737453  1
  Ru  Ru21  1  0.000000  0.091520  0.262547  1
