# generated using pymatgen
data_Ho4Re(SiB4)2
_symmetry_space_group_name_H-M   'P 1'
_cell_length_a   7.06439200
_cell_length_b   7.06439200
_cell_length_c   7.53612600
_cell_angle_alpha   90.00000000
_cell_angle_beta   90.00000000
_cell_angle_gamma   90.00000000
_symmetry_Int_Tables_number   1
_chemical_formula_structural   Ho4Re(SiB4)2
_chemical_formula_sum   'Ho8 Re2 Si4 B16'
_cell_volume   376.09514842
_cell_formula_units_Z   2
loop_
 _symmetry_equiv_pos_site_id
 _symmetry_equiv_pos_as_xyz
  1  'x, y, z'
loop_
 _atom_site_type_symbol
 _atom_site_label
 _atom_site_symmetry_multiplicity
 _atom_site_fract_x
 _atom_site_fract_y
 _atom_site_fract_z
 _atom_site_occupancy
  Ho  Ho0  1  0.679046  0.179046  0.238235  1
  Ho  Ho1  1  0.320954  0.820954  0.761765  1
  Ho  Ho2  1  0.320954  0.820954  0.238235  1
  Ho  Ho3  1  0.820954  0.679046  0.238235  1
  Ho  Ho4  1  0.820954  0.679046  0.761765  1
  Ho  Ho5  1  0.679046  0.179046  0.761765  1
  Ho  Ho6  1  0.179046  0.320954  0.761765  1
  Ho  Ho7  1  0.179046  0.320954  0.238235  1
  Re  Re8  1  0.000000  0.000000  0.500000  1
  Re  Re9  1  0.500000  0.500000  0.500000  1
  Si  Si10  1  0.124372  0.624372  0.500000  1
  Si  Si11  1  0.875628  0.375628  0.500000  1
  Si  Si12  1  0.375628  0.124372  0.500000  1
  Si  Si13  1  0.624372  0.875628  0.500000  1
  B  B14  1  0.172021  0.039763  0.000000  1
  B  B15  1  0.827979  0.960237  0.000000  1
  B  B16  1  0.960237  0.172021  0.000000  1
  B  B17  1  0.327979  0.539763  0.000000  1
  B  B18  1  0.039763  0.827979  0.000000  1
  B  B19  1  0.672021  0.460237  0.000000  1
  B  B20  1  0.539763  0.672021  0.000000  1
  B  B21  1  0.460237  0.327979  0.000000  1
  B  B22  1  0.090436  0.590436  0.000000  1
  B  B23  1  0.909564  0.409564  0.000000  1
  B  B24  1  0.409564  0.090436  0.000000  1
  B  B25  1  0.590436  0.909564  0.000000  1
  B  B26  1  0.000000  0.000000  0.177903  1
  B  B27  1  0.000000  0.000000  0.822097  1
  B  B28  1  0.500000  0.500000  0.822097  1
  B  B29  1  0.500000  0.500000  0.177903  1
