# generated using pymatgen
data_Li3Pr8Zn5Rh8
_symmetry_space_group_name_H-M   'P 1'
_cell_length_a   4.13727300
_cell_length_b   7.28618296
_cell_length_c   16.51989582
_cell_angle_alpha   90.10369689
_cell_angle_beta   90.00000000
_cell_angle_gamma   90.00000000
_symmetry_Int_Tables_number   1
_chemical_formula_structural   Li3Pr8Zn5Rh8
_chemical_formula_sum   'Li3 Pr8 Zn5 Rh8'
_cell_volume   497.99025492
_cell_formula_units_Z   1
loop_
 _symmetry_equiv_pos_site_id
 _symmetry_equiv_pos_as_xyz
  1  'x, y, z'
loop_
 _atom_site_type_symbol
 _atom_site_label
 _atom_site_symmetry_multiplicity
 _atom_site_fract_x
 _atom_site_fract_y
 _atom_site_fract_z
 _atom_site_occupancy
  Li  Li0  1  0.250000  0.990589  0.436793  1
  Li  Li1  1  0.750000  0.507061  0.938854  1
  Li  Li2  1  0.750000  0.009224  0.563275  1
  Pr  Pr3  1  0.750000  0.454462  0.217952  1
  Pr  Pr4  1  0.750000  0.956539  0.281204  1
  Pr  Pr5  1  0.750000  0.833368  0.060761  1
  Pr  Pr6  1  0.250000  0.044401  0.718532  1
  Pr  Pr7  1  0.250000  0.163999  0.940039  1
  Pr  Pr8  1  0.250000  0.545039  0.781827  1
  Pr  Pr9  1  0.750000  0.338693  0.439396  1
  Pr  Pr10  1  0.250000  0.662430  0.560942  1
  Zn  Zn11  1  0.250000  0.631111  0.350706  1
  Zn  Zn12  1  0.750000  0.369499  0.649235  1
  Zn  Zn13  1  0.750000  0.871031  0.851390  1
  Zn  Zn14  1  0.250000  0.497903  0.059608  1
  Zn  Zn15  1  0.250000  0.127002  0.148796  1
  Rh  Rh16  1  0.250000  0.256953  0.565123  1
  Rh  Rh17  1  0.750000  0.256675  0.065593  1
  Rh  Rh18  1  0.250000  0.250897  0.312152  1
  Rh  Rh19  1  0.750000  0.246483  0.811611  1
  Rh  Rh20  1  0.250000  0.749845  0.936060  1
  Rh  Rh21  1  0.750000  0.745555  0.688174  1
  Rh  Rh22  1  0.750000  0.741657  0.434894  1
  Rh  Rh23  1  0.250000  0.749586  0.187083  1
