# generated using pymatgen
data_Dy3TlIn3NiRh
_symmetry_space_group_name_H-M   'P 1'
_cell_length_a   7.93300900
_cell_length_b   7.93301020
_cell_length_c   3.72602000
_cell_angle_alpha   90.00000000
_cell_angle_beta   90.00000000
_cell_angle_gamma   119.99999081
_symmetry_Int_Tables_number   1
_chemical_formula_structural   Dy3TlIn3NiRh
_chemical_formula_sum   'Dy3 Tl1 In3 Ni1 Rh1'
_cell_volume   203.07282640
_cell_formula_units_Z   1
loop_
 _symmetry_equiv_pos_site_id
 _symmetry_equiv_pos_as_xyz
  1  'x, y, z'
loop_
 _atom_site_type_symbol
 _atom_site_label
 _atom_site_symmetry_multiplicity
 _atom_site_fract_x
 _atom_site_fract_y
 _atom_site_fract_z
 _atom_site_occupancy
  Dy  Dy0  1  0.032529  0.611945  0.500000  1
  Dy  Dy1  1  0.579417  0.967471  0.500000  1
  Dy  Dy2  1  0.388055  0.420583  0.500000  1
  Tl  Tl3  1  0.666667  0.333333  0.000000  1
  In  In4  1  0.005426  0.248273  0.000000  1
  In  In5  1  0.242847  0.994574  0.000000  1
  In  In6  1  0.751727  0.757153  0.000000  1
  Ni  Ni7  1  0.000000  0.000000  0.500000  1
  Rh  Rh8  1  0.333333  0.666667  0.000000  1
