# generated using pymatgen
data_Ho8Tm2TcIr3
_symmetry_space_group_name_H-M   'P 1'
_cell_length_a   6.42003461
_cell_length_b   7.25215063
_cell_length_c   8.39015333
_cell_angle_alpha   96.63446799
_cell_angle_beta   112.00603962
_cell_angle_gamma   90.02636599
_symmetry_Int_Tables_number   1
_chemical_formula_structural   Ho8Tm2TcIr3
_chemical_formula_sum   'Ho8 Tm2 Tc1 Ir3'
_cell_volume   359.34593305
_cell_formula_units_Z   1
loop_
 _symmetry_equiv_pos_site_id
 _symmetry_equiv_pos_as_xyz
  1  'x, y, z'
loop_
 _atom_site_type_symbol
 _atom_site_label
 _atom_site_symmetry_multiplicity
 _atom_site_fract_x
 _atom_site_fract_y
 _atom_site_fract_z
 _atom_site_occupancy
  Ho  Ho0  1  0.970910  0.917324  0.183250  1
  Ho  Ho1  1  0.790815  0.581081  0.821923  1
  Ho  Ho2  1  0.028174  0.082649  0.818340  1
  Ho  Ho3  1  0.212856  0.419412  0.184144  1
  Ho  Ho4  1  0.653668  0.816315  0.438507  1
  Ho  Ho5  1  0.210262  0.683679  0.559805  1
  Ho  Ho6  1  0.347539  0.183312  0.560261  1
  Ho  Ho7  1  0.787007  0.317230  0.437960  1
  Tm  Tm8  1  0.426074  0.750424  0.999838  1
  Tm  Tm9  1  0.574535  0.250641  0.000522  1
  Tc  Tc10  1  0.823801  0.571719  0.214439  1
  Ir  Ir11  1  0.604631  0.927366  0.780439  1
  Ir  Ir12  1  0.176777  0.424850  0.782162  1
  Ir  Ir13  1  0.392953  0.073997  0.218409  1
