# generated using pymatgen
data_ThScB6Os
_symmetry_space_group_name_H-M   'P 1'
_cell_length_a   3.65687100
_cell_length_b   9.12061700
_cell_length_c   11.54253300
_cell_angle_alpha   90.00000000
_cell_angle_beta   90.00000000
_cell_angle_gamma   90.00000000
_symmetry_Int_Tables_number   1
_chemical_formula_structural   ThScB6Os
_chemical_formula_sum   'Th4 Sc4 B24 Os4'
_cell_volume   384.97717755
_cell_formula_units_Z   4
loop_
 _symmetry_equiv_pos_site_id
 _symmetry_equiv_pos_as_xyz
  1  'x, y, z'
loop_
 _atom_site_type_symbol
 _atom_site_label
 _atom_site_symmetry_multiplicity
 _atom_site_fract_x
 _atom_site_fract_y
 _atom_site_fract_z
 _atom_site_occupancy
  Th  Th0  1  0.000000  0.820561  0.085692  1
  Th  Th1  1  0.000000  0.179439  0.914308  1
  Th  Th2  1  0.000000  0.320561  0.414308  1
  Th  Th3  1  0.000000  0.679439  0.585692  1
  Sc  Sc4  1  0.000000  0.445673  0.123943  1
  Sc  Sc5  1  0.000000  0.554327  0.876057  1
  Sc  Sc6  1  0.000000  0.945673  0.376057  1
  Sc  Sc7  1  0.000000  0.054327  0.623943  1
  B  B8  1  0.500000  0.056688  0.070017  1
  B  B9  1  0.500000  0.943312  0.929983  1
  B  B10  1  0.500000  0.556688  0.429983  1
  B  B11  1  0.500000  0.443312  0.570017  1
  B  B12  1  0.500000  0.255058  0.083557  1
  B  B13  1  0.500000  0.744942  0.916443  1
  B  B14  1  0.500000  0.755058  0.416443  1
  B  B15  1  0.500000  0.244942  0.583557  1
  B  B16  1  0.500000  0.294141  0.233594  1
  B  B17  1  0.500000  0.705859  0.766406  1
  B  B18  1  0.500000  0.794141  0.266406  1
  B  B19  1  0.500000  0.205859  0.733594  1
  B  B20  1  0.500000  0.128653  0.317370  1
  B  B21  1  0.500000  0.871347  0.682630  1
  B  B22  1  0.500000  0.628653  0.182630  1
  B  B23  1  0.500000  0.371347  0.817370  1
  B  B24  1  0.500000  0.484204  0.283680  1
  B  B25  1  0.500000  0.515796  0.716320  1
  B  B26  1  0.500000  0.984204  0.216320  1
  B  B27  1  0.500000  0.015796  0.783680  1
  B  B28  1  0.500000  0.098464  0.473874  1
  B  B29  1  0.500000  0.901536  0.526126  1
  B  B30  1  0.500000  0.598464  0.026126  1
  B  B31  1  0.500000  0.401536  0.973874  1
  Os  Os32  1  0.000000  0.141298  0.183095  1
  Os  Os33  1  0.000000  0.858702  0.816905  1
  Os  Os34  1  0.000000  0.641298  0.316905  1
  Os  Os35  1  0.000000  0.358702  0.683095  1
