# generated using pymatgen
data_RbNb(SiO3)3
_symmetry_space_group_name_H-M   'P 1'
_cell_length_a   6.94641700
_cell_length_b   6.94641761
_cell_length_c   9.97741900
_cell_angle_alpha   90.00000000
_cell_angle_beta   90.00000000
_cell_angle_gamma   120.00000187
_symmetry_Int_Tables_number   1
_chemical_formula_structural   RbNb(SiO3)3
_chemical_formula_sum   'Rb2 Nb2 Si6 O18'
_cell_volume   416.93713130
_cell_formula_units_Z   2
loop_
 _symmetry_equiv_pos_site_id
 _symmetry_equiv_pos_as_xyz
  1  'x, y, z'
loop_
 _atom_site_type_symbol
 _atom_site_label
 _atom_site_symmetry_multiplicity
 _atom_site_fract_x
 _atom_site_fract_y
 _atom_site_fract_z
 _atom_site_occupancy
  Rb  Rb0  1  0.666667  0.333333  0.500000  1
  Rb  Rb1  1  0.666667  0.333333  0.000000  1
  Nb  Nb2  1  0.333333  0.666667  0.500000  1
  Nb  Nb3  1  0.333333  0.666667  0.000000  1
  Si  Si4  1  0.206692  0.927103  0.250000  1
  Si  Si5  1  0.206692  0.279588  0.750000  1
  Si  Si6  1  0.720412  0.927103  0.750000  1
  Si  Si7  1  0.720412  0.793308  0.250000  1
  Si  Si8  1  0.072897  0.279588  0.250000  1
  Si  Si9  1  0.072897  0.793308  0.750000  1
  O  O10  1  0.104331  0.678411  0.616042  1
  O  O11  1  0.321589  0.895669  0.383958  1
  O  O12  1  0.574082  0.895669  0.616042  1
  O  O13  1  0.321589  0.425918  0.883958  1
  O  O14  1  0.574082  0.895669  0.883958  1
  O  O15  1  0.104331  0.678411  0.883958  1
  O  O16  1  0.574082  0.678411  0.116042  1
  O  O17  1  0.104331  0.425918  0.116042  1
  O  O18  1  0.246583  0.182404  0.250000  1
  O  O19  1  0.935822  0.753417  0.250000  1
  O  O20  1  0.817596  0.064178  0.250000  1
  O  O21  1  0.817596  0.753417  0.750000  1
  O  O22  1  0.574082  0.678411  0.383958  1
  O  O23  1  0.246583  0.064178  0.750000  1
  O  O24  1  0.935822  0.182404  0.750000  1
  O  O25  1  0.104331  0.425918  0.383958  1
  O  O26  1  0.321589  0.895669  0.116042  1
  O  O27  1  0.321589  0.425918  0.616042  1
