# generated using pymatgen
data_Sr3CaRuO6
_symmetry_space_group_name_H-M   'P 1'
_cell_length_a   6.86297084
_cell_length_b   6.86297125
_cell_length_c   6.86297102
_cell_angle_alpha   91.78409753
_cell_angle_beta   91.78409756
_cell_angle_gamma   91.78409874
_symmetry_Int_Tables_number   1
_chemical_formula_structural   Sr3CaRuO6
_chemical_formula_sum   'Sr6 Ca2 Ru2 O12'
_cell_volume   322.76839417
_cell_formula_units_Z   2
loop_
 _symmetry_equiv_pos_site_id
 _symmetry_equiv_pos_as_xyz
  1  'x, y, z'
loop_
 _atom_site_type_symbol
 _atom_site_label
 _atom_site_symmetry_multiplicity
 _atom_site_fract_x
 _atom_site_fract_y
 _atom_site_fract_z
 _atom_site_occupancy
  Sr  Sr0  1  0.750000  0.388131  0.111869  1
  Sr  Sr1  1  0.111869  0.750000  0.388131  1
  Sr  Sr2  1  0.388131  0.111869  0.750000  1
  Sr  Sr3  1  0.250000  0.611869  0.888131  1
  Sr  Sr4  1  0.888131  0.250000  0.611869  1
  Sr  Sr5  1  0.611869  0.888131  0.250000  1
  Ca  Ca6  1  0.250000  0.250000  0.250000  1
  Ca  Ca7  1  0.750000  0.750000  0.750000  1
  Ru  Ru8  1  0.000000  0.000000  0.000000  1
  Ru  Ru9  1  0.500000  0.500000  0.500000  1
  O  O10  1  0.450053  0.784471  0.580706  1
  O  O11  1  0.580706  0.450053  0.784471  1
  O  O12  1  0.784471  0.580706  0.450053  1
  O  O13  1  0.049947  0.919294  0.715529  1
  O  O14  1  0.715529  0.049947  0.919294  1
  O  O15  1  0.919294  0.715529  0.049947  1
  O  O16  1  0.549947  0.215529  0.419294  1
  O  O17  1  0.419294  0.549947  0.215529  1
  O  O18  1  0.215529  0.419294  0.549947  1
  O  O19  1  0.950053  0.080706  0.284471  1
  O  O20  1  0.080706  0.284471  0.950053  1
  O  O21  1  0.284471  0.950053  0.080706  1
