# generated using pymatgen
data_Li3IrRh
_symmetry_space_group_name_H-M   'P 1'
_cell_length_a   6.69642900
_cell_length_b   6.69642900
_cell_length_c   6.69642900
_cell_angle_alpha   90.00000000
_cell_angle_beta   90.00000000
_cell_angle_gamma   90.00000000
_symmetry_Int_Tables_number   1
_chemical_formula_structural   Li3IrRh
_chemical_formula_sum   'Li12 Ir4 Rh4'
_cell_volume   300.28234970
_cell_formula_units_Z   4
loop_
 _symmetry_equiv_pos_site_id
 _symmetry_equiv_pos_as_xyz
  1  'x, y, z'
loop_
 _atom_site_type_symbol
 _atom_site_label
 _atom_site_symmetry_multiplicity
 _atom_site_fract_x
 _atom_site_fract_y
 _atom_site_fract_z
 _atom_site_occupancy
  Li  Li0  1  0.125191  0.209163  0.456877  1
  Li  Li1  1  0.374809  0.790837  0.956877  1
  Li  Li2  1  0.874809  0.709163  0.043123  1
  Li  Li3  1  0.456877  0.125191  0.209163  1
  Li  Li4  1  0.625191  0.290837  0.543123  1
  Li  Li5  1  0.956877  0.374809  0.790837  1
  Li  Li6  1  0.043123  0.874809  0.709163  1
  Li  Li7  1  0.543123  0.625191  0.290837  1
  Li  Li8  1  0.209163  0.456877  0.125191  1
  Li  Li9  1  0.709163  0.043123  0.874809  1
  Li  Li10  1  0.290837  0.543123  0.625191  1
  Li  Li11  1  0.790837  0.956877  0.374809  1
  Ir  Ir12  1  0.075366  0.075366  0.075366  1
  Ir  Ir13  1  0.424634  0.924634  0.575366  1
  Ir  Ir14  1  0.924634  0.575366  0.424634  1
  Ir  Ir15  1  0.575366  0.424634  0.924634  1
  Rh  Rh16  1  0.673297  0.673297  0.673297  1
  Rh  Rh17  1  0.826703  0.326703  0.173297  1
  Rh  Rh18  1  0.326703  0.173297  0.826703  1
  Rh  Rh19  1  0.173297  0.826703  0.326703  1
