# generated using pymatgen
data_Dy3Er9Tc3Ir
_symmetry_space_group_name_H-M   'P 1'
_cell_length_a   6.25964545
_cell_length_b   7.37225659
_cell_length_c   9.04513500
_cell_angle_alpha   90.00000000
_cell_angle_beta   90.00000000
_cell_angle_gamma   89.94064283
_symmetry_Int_Tables_number   1
_chemical_formula_structural   Dy3Er9Tc3Ir
_chemical_formula_sum   'Dy3 Er9 Tc3 Ir1'
_cell_volume   417.41206473
_cell_formula_units_Z   1
loop_
 _symmetry_equiv_pos_site_id
 _symmetry_equiv_pos_as_xyz
  1  'x, y, z'
loop_
 _atom_site_type_symbol
 _atom_site_label
 _atom_site_symmetry_multiplicity
 _atom_site_fract_x
 _atom_site_fract_y
 _atom_site_fract_z
 _atom_site_occupancy
  Dy  Dy0  1  0.875771  0.540157  0.250000  1
  Dy  Dy1  1  0.623626  0.038075  0.250000  1
  Dy  Dy2  1  0.129528  0.458399  0.750000  1
  Er  Er3  1  0.334561  0.676344  0.063720  1
  Er  Er4  1  0.161834  0.175453  0.437138  1
  Er  Er5  1  0.663035  0.322611  0.561494  1
  Er  Er6  1  0.836690  0.825448  0.938072  1
  Er  Er7  1  0.663035  0.322611  0.938506  1
  Er  Er8  1  0.836690  0.825448  0.561928  1
  Er  Er9  1  0.334561  0.676344  0.436280  1
  Er  Er10  1  0.161834  0.175453  0.062862  1
  Er  Er11  1  0.373095  0.960489  0.750000  1
  Tc  Tc12  1  0.039701  0.883609  0.250000  1
  Tc  Tc13  1  0.462402  0.385908  0.250000  1
  Tc  Tc14  1  0.960375  0.116540  0.750000  1
  Ir  Ir15  1  0.543263  0.617112  0.750000  1
