# generated using pymatgen
data_Sc10InBi5S2
_symmetry_space_group_name_H-M   'P 1'
_cell_length_a   8.70519300
_cell_length_b   8.66287973
_cell_length_c   6.21375000
_cell_angle_alpha   90.00000000
_cell_angle_beta   90.00000000
_cell_angle_gamma   120.16171158
_symmetry_Int_Tables_number   1
_chemical_formula_structural   Sc10InBi5S2
_chemical_formula_sum   'Sc10 In1 Bi5 S2'
_cell_volume   405.14930634
_cell_formula_units_Z   1
loop_
 _symmetry_equiv_pos_site_id
 _symmetry_equiv_pos_as_xyz
  1  'x, y, z'
loop_
 _atom_site_type_symbol
 _atom_site_label
 _atom_site_symmetry_multiplicity
 _atom_site_fract_x
 _atom_site_fract_y
 _atom_site_fract_z
 _atom_site_occupancy
  Sc  Sc0  1  0.245001  0.000000  0.750000  1
  Sc  Sc1  1  0.757911  0.000000  0.250000  1
  Sc  Sc2  1  0.992692  0.237982  0.750000  1
  Sc  Sc3  1  0.000118  0.757898  0.250000  1
  Sc  Sc4  1  0.754709  0.762018  0.750000  1
  Sc  Sc5  1  0.242221  0.242102  0.250000  1
  Sc  Sc6  1  0.336054  0.670524  0.502079  1
  Sc  Sc7  1  0.665531  0.329476  0.502079  1
  Sc  Sc8  1  0.665531  0.329476  0.997921  1
  Sc  Sc9  1  0.336054  0.670524  0.997921  1
  In  In10  1  0.601105  0.000000  0.750000  1
  Bi  Bi11  1  0.401037  0.000000  0.250000  1
  Bi  Bi12  1  0.999233  0.603392  0.750000  1
  Bi  Bi13  1  0.000812  0.397871  0.250000  1
  Bi  Bi14  1  0.395840  0.396608  0.750000  1
  Bi  Bi15  1  0.602943  0.602129  0.250000  1
  S  S16  1  0.001602  0.000000  0.499900  1
  S  S17  1  0.001602  0.000000  0.000100  1
