# generated using pymatgen
data_Zr8FeCo15SiP11
_symmetry_space_group_name_H-M   'P 1'
_cell_length_a   12.14600059
_cell_length_b   12.15526012
_cell_length_c   3.66234300
_cell_angle_alpha   90.00000000
_cell_angle_beta   90.00000000
_cell_angle_gamma   120.11354507
_symmetry_Int_Tables_number   1
_chemical_formula_structural   Zr8FeCo15SiP11
_chemical_formula_sum   'Zr8 Fe1 Co15 Si1 P11'
_cell_volume   467.72347144
_cell_formula_units_Z   1
loop_
 _symmetry_equiv_pos_site_id
 _symmetry_equiv_pos_as_xyz
  1  'x, y, z'
loop_
 _atom_site_type_symbol
 _atom_site_label
 _atom_site_symmetry_multiplicity
 _atom_site_fract_x
 _atom_site_fract_y
 _atom_site_fract_z
 _atom_site_occupancy
  Zr  Zr0  1  0.442040  0.442434  0.000000  1
  Zr  Zr1  1  0.555136  0.000548  0.000000  1
  Zr  Zr2  1  0.000277  0.555167  0.000000  1
  Zr  Zr3  1  0.666972  0.333950  0.000000  1
  Zr  Zr4  1  0.333316  0.665618  0.000000  1
  Zr  Zr5  1  0.825562  0.825627  0.500000  1
  Zr  Zr6  1  0.175254  0.000040  0.500000  1
  Zr  Zr7  1  0.000250  0.176504  0.500000  1
  Fe  Fe8  1  0.193939  0.371402  0.000000  1
  Co  Co9  1  0.177976  0.806550  0.000000  1
  Co  Co10  1  0.825587  0.628352  0.000000  1
  Co  Co11  1  0.807364  0.178620  0.000000  1
  Co  Co12  1  0.371216  0.192271  0.000000  1
  Co  Co13  1  0.124831  0.480092  0.500000  1
  Co  Co14  1  0.353281  0.874158  0.500000  1
  Co  Co15  1  0.518080  0.645146  0.500000  1
  Co  Co16  1  0.645661  0.517964  0.500000  1
  Co  Co17  1  0.872672  0.353877  0.500000  1
  Co  Co18  1  0.479881  0.126249  0.500000  1
  Co  Co19  1  0.000607  0.000106  0.000000  1
  Co  Co20  1  0.723085  0.002294  0.500000  1
  Co  Co21  1  0.002023  0.722920  0.500000  1
  Co  Co22  1  0.628272  0.825972  0.000000  1
  Co  Co23  1  0.278354  0.275543  0.500000  1
  Si  Si24  1  0.654847  0.655022  0.000000  1
  P  P25  1  0.344359  0.999623  0.000000  1
  P  P26  1  0.002085  0.345778  0.000000  1
  P  P27  1  0.481474  0.307967  0.500000  1
  P  P28  1  0.691888  0.173953  0.500000  1
  P  P29  1  0.826706  0.518808  0.500000  1
  P  P30  1  0.518581  0.826281  0.500000  1
  P  P31  1  0.173837  0.691075  0.500000  1
  P  P32  1  0.825206  0.000144  0.000000  1
  P  P33  1  0.999695  0.824637  0.000000  1
  P  P34  1  0.305268  0.478784  0.500000  1
  P  P35  1  0.174420  0.176525  0.000000  1
