# generated using pymatgen
data_Er5MoOsC7
_symmetry_space_group_name_H-M   'P 1'
_cell_length_a   8.22368906
_cell_length_b   8.22368924
_cell_length_c   3.44810500
_cell_angle_alpha   90.00000000
_cell_angle_beta   90.00000000
_cell_angle_gamma   121.97943233
_symmetry_Int_Tables_number   1
_chemical_formula_structural   Er5MoOsC7
_chemical_formula_sum   'Er5 Mo1 Os1 C7'
_cell_volume   197.80247246
_cell_formula_units_Z   1
loop_
 _symmetry_equiv_pos_site_id
 _symmetry_equiv_pos_as_xyz
  1  'x, y, z'
loop_
 _atom_site_type_symbol
 _atom_site_label
 _atom_site_symmetry_multiplicity
 _atom_site_fract_x
 _atom_site_fract_y
 _atom_site_fract_z
 _atom_site_occupancy
  Er  Er0  1  0.501570  0.498430  0.000000  1
  Er  Er1  1  0.075184  0.335995  0.500000  1
  Er  Er2  1  0.921328  0.662449  0.500000  1
  Er  Er3  1  0.664005  0.924816  0.500000  1
  Er  Er4  1  0.337551  0.078672  0.500000  1
  Mo  Mo5  1  0.286196  0.713804  0.000000  1
  Os  Os6  1  0.711621  0.288379  0.000000  1
  C  C7  1  0.630312  0.369688  0.500000  1
  C  C8  1  0.377348  0.622652  0.500000  1
  C  C9  1  0.999436  0.000564  0.000000  1
  C  C10  1  0.169348  0.170699  0.000000  1
  C  C11  1  0.829301  0.830652  0.000000  1
  C  C12  1  0.997637  0.500838  0.000000  1
  C  C13  1  0.499162  0.002363  0.000000  1
