# generated using pymatgen
data_Tb3LuOsI4
_symmetry_space_group_name_H-M   'P 1'
_cell_length_a   11.29489753
_cell_length_b   11.29489904
_cell_length_c   6.18746826
_cell_angle_alpha   89.98023409
_cell_angle_beta   89.98023680
_cell_angle_gamma   90.20868533
_symmetry_Int_Tables_number   1
_chemical_formula_structural   Tb3LuOsI4
_chemical_formula_sum   'Tb6 Lu2 Os2 I8'
_cell_volume   789.35924537
_cell_formula_units_Z   2
loop_
 _symmetry_equiv_pos_site_id
 _symmetry_equiv_pos_as_xyz
  1  'x, y, z'
loop_
 _atom_site_type_symbol
 _atom_site_label
 _atom_site_symmetry_multiplicity
 _atom_site_fract_x
 _atom_site_fract_y
 _atom_site_fract_z
 _atom_site_occupancy
  Tb  Tb0  1  0.082874  0.199661  0.000125  1
  Tb  Tb1  1  0.199661  0.082874  0.500125  1
  Tb  Tb2  1  0.918612  0.798947  0.000172  1
  Tb  Tb3  1  0.916933  0.199784  0.499878  1
  Tb  Tb4  1  0.199784  0.916933  0.999878  1
  Tb  Tb5  1  0.798947  0.918612  0.500172  1
  Lu  Lu6  1  0.809301  0.077318  0.000571  1
  Lu  Lu7  1  0.077318  0.809301  0.500571  1
  Os  Os8  1  0.000072  0.999982  0.250159  1
  Os  Os9  1  0.999982  0.000072  0.750159  1
  I  I10  1  0.642473  0.149656  0.497488  1
  I  I11  1  0.854786  0.643453  0.502141  1
  I  I12  1  0.357363  0.149751  0.997674  1
  I  I13  1  0.149751  0.357363  0.497674  1
  I  I14  1  0.643453  0.854786  0.002141  1
  I  I15  1  0.351768  0.847266  0.501791  1
  I  I16  1  0.149656  0.642473  0.997488  1
  I  I17  1  0.847266  0.351768  0.001791  1
