# generated using pymatgen
data_La2Nb3Co9As7
_symmetry_space_group_name_H-M   'P 1'
_cell_length_a   3.89188800
_cell_length_b   9.62859982
_cell_length_c   9.62860100
_cell_angle_alpha   120.00000060
_cell_angle_beta   90.00000000
_cell_angle_gamma   90.00000000
_symmetry_Int_Tables_number   1
_chemical_formula_structural   La2Nb3Co9As7
_chemical_formula_sum   'La2 Nb3 Co9 As7'
_cell_volume   312.47644885
_cell_formula_units_Z   1
loop_
 _symmetry_equiv_pos_site_id
 _symmetry_equiv_pos_as_xyz
  1  'x, y, z'
loop_
 _atom_site_type_symbol
 _atom_site_label
 _atom_site_symmetry_multiplicity
 _atom_site_fract_x
 _atom_site_fract_y
 _atom_site_fract_z
 _atom_site_occupancy
  La  La0  1  0.000000  0.666667  0.333333  1
  La  La1  1  0.500000  0.333333  0.666667  1
  Nb  Nb2  1  0.500000  0.779159  0.893975  1
  Nb  Nb3  1  0.500000  0.114816  0.220841  1
  Nb  Nb4  1  0.500000  0.106025  0.885184  1
  Co  Co5  1  0.000000  0.572993  0.937986  1
  Co  Co6  1  0.000000  0.364992  0.427007  1
  Co  Co7  1  0.000000  0.062014  0.635008  1
  Co  Co8  1  0.000000  0.875526  0.155186  1
  Co  Co9  1  0.000000  0.279661  0.124474  1
  Co  Co10  1  0.000000  0.844814  0.720339  1
  Co  Co11  1  0.500000  0.947113  0.381236  1
  Co  Co12  1  0.500000  0.434123  0.052887  1
  Co  Co13  1  0.500000  0.618764  0.565877  1
  As  As14  1  0.500000  0.706285  0.115059  1
  As  As15  1  0.500000  0.408776  0.293715  1
  As  As16  1  0.500000  0.884941  0.591224  1
  As  As17  1  0.000000  0.000000  0.000000  1
  As  As18  1  0.000000  0.586510  0.689933  1
  As  As19  1  0.000000  0.103423  0.413490  1
  As  As20  1  0.000000  0.310067  0.896577  1
