# generated using pymatgen
data_Tb3ThMgOs
_symmetry_space_group_name_H-M   'P 1'
_cell_length_a   9.80806263
_cell_length_b   9.80806335
_cell_length_c   9.80806300
_cell_angle_alpha   59.99999782
_cell_angle_beta   59.99999537
_cell_angle_gamma   59.99999742
_symmetry_Int_Tables_number   1
_chemical_formula_structural   Tb3ThMgOs
_chemical_formula_sum   'Tb12 Th4 Mg4 Os4'
_cell_volume   667.16723680
_cell_formula_units_Z   4
loop_
 _symmetry_equiv_pos_site_id
 _symmetry_equiv_pos_as_xyz
  1  'x, y, z'
loop_
 _atom_site_type_symbol
 _atom_site_label
 _atom_site_symmetry_multiplicity
 _atom_site_fract_x
 _atom_site_fract_y
 _atom_site_fract_z
 _atom_site_occupancy
  Tb  Tb0  1  0.062612  0.437388  0.437388  1
  Tb  Tb1  1  0.437388  0.062612  0.062612  1
  Tb  Tb2  1  0.437388  0.062612  0.437388  1
  Tb  Tb3  1  0.062612  0.437388  0.062612  1
  Tb  Tb4  1  0.437388  0.437388  0.062612  1
  Tb  Tb5  1  0.062612  0.062612  0.437388  1
  Tb  Tb6  1  0.187349  0.812651  0.812651  1
  Tb  Tb7  1  0.812651  0.187349  0.187349  1
  Tb  Tb8  1  0.812651  0.187349  0.812651  1
  Tb  Tb9  1  0.187349  0.812651  0.187349  1
  Tb  Tb10  1  0.812651  0.812651  0.187349  1
  Tb  Tb11  1  0.187349  0.187349  0.812651  1
  Th  Th12  1  0.595907  0.595907  0.595907  1
  Th  Th13  1  0.595907  0.595907  0.212281  1
  Th  Th14  1  0.595907  0.212281  0.595907  1
  Th  Th15  1  0.212281  0.595907  0.595907  1
  Mg  Mg16  1  0.829910  0.829910  0.829910  1
  Mg  Mg17  1  0.829910  0.829910  0.510270  1
  Mg  Mg18  1  0.829910  0.510270  0.829910  1
  Mg  Mg19  1  0.510270  0.829910  0.829910  1
  Os  Os20  1  0.392627  0.392627  0.392627  1
  Os  Os21  1  0.392627  0.392627  0.822119  1
  Os  Os22  1  0.392627  0.822119  0.392627  1
  Os  Os23  1  0.822119  0.392627  0.392627  1
