# generated using pymatgen
data_Zr3Ta3FeB4Ru9
_symmetry_space_group_name_H-M   'P 1'
_cell_length_a   9.42661003
_cell_length_b   9.42661080
_cell_length_c   3.10154300
_cell_angle_alpha   90.00000000
_cell_angle_beta   90.00000000
_cell_angle_gamma   89.75931348
_symmetry_Int_Tables_number   1
_chemical_formula_structural   Zr3Ta3FeB4Ru9
_chemical_formula_sum   'Zr3 Ta3 Fe1 B4 Ru9'
_cell_volume   275.60373090
_cell_formula_units_Z   1
loop_
 _symmetry_equiv_pos_site_id
 _symmetry_equiv_pos_as_xyz
  1  'x, y, z'
loop_
 _atom_site_type_symbol
 _atom_site_label
 _atom_site_symmetry_multiplicity
 _atom_site_fract_x
 _atom_site_fract_y
 _atom_site_fract_z
 _atom_site_occupancy
  Zr  Zr0  1  0.822107  0.677837  0.000000  1
  Zr  Zr1  1  0.177837  0.322107  0.000000  1
  Zr  Zr2  1  0.328718  0.828718  0.000000  1
  Ta  Ta3  1  0.669683  0.169683  0.000000  1
  Ta  Ta4  1  0.499907  0.500758  0.000000  1
  Ta  Ta5  1  0.000758  0.999907  0.000000  1
  Fe  Fe6  1  0.505160  0.005160  0.500000  1
  B  B7  1  0.613658  0.888979  0.000000  1
  B  B8  1  0.388979  0.113658  0.000000  1
  B  B9  1  0.120981  0.620981  0.000000  1
  B  B10  1  0.877192  0.377192  0.000000  1
  Ru  Ru11  1  0.567936  0.725082  0.500000  1
  Ru  Ru12  1  0.438238  0.275933  0.500000  1
  Ru  Ru13  1  0.068976  0.781926  0.500000  1
  Ru  Ru14  1  0.923667  0.215095  0.500000  1
  Ru  Ru15  1  0.281926  0.568976  0.500000  1
  Ru  Ru16  1  0.715095  0.423667  0.500000  1
  Ru  Ru17  1  0.225082  0.067936  0.500000  1
  Ru  Ru18  1  0.775933  0.938238  0.500000  1
  Ru  Ru19  1  0.998172  0.498172  0.500000  1
