# generated using pymatgen
data_CsSb(PSe3)2
_symmetry_space_group_name_H-M   'P 1'
_cell_length_a   8.42325700
_cell_length_b   7.29504835
_cell_length_c   10.71712118
_cell_angle_alpha   88.78484983
_cell_angle_beta   90.00000000
_cell_angle_gamma   90.00000000
_symmetry_Int_Tables_number   1
_chemical_formula_structural   CsSb(PSe3)2
_chemical_formula_sum   'Cs2 Sb2 P4 Se12'
_cell_volume   658.39828117
_cell_formula_units_Z   2
loop_
 _symmetry_equiv_pos_site_id
 _symmetry_equiv_pos_as_xyz
  1  'x, y, z'
loop_
 _atom_site_type_symbol
 _atom_site_label
 _atom_site_symmetry_multiplicity
 _atom_site_fract_x
 _atom_site_fract_y
 _atom_site_fract_z
 _atom_site_occupancy
  Cs  Cs0  1  0.451836  0.702238  0.492665  1
  Cs  Cs1  1  0.951836  0.297762  0.507335  1
  Sb  Sb2  1  0.739155  0.815817  0.014167  1
  Sb  Sb3  1  0.239155  0.184183  0.985833  1
  P  P4  1  0.936517  0.786277  0.285983  1
  P  P5  1  0.644619  0.299269  0.838770  1
  P  P6  1  0.144619  0.700731  0.161230  1
  P  P7  1  0.436517  0.213723  0.714017  1
  Se  Se8  1  0.364583  0.953175  0.813890  1
  Se  Se9  1  0.028421  0.675884  0.970365  1
  Se  Se10  1  0.252050  0.417478  0.755510  1
  Se  Se11  1  0.528421  0.324116  0.029635  1
  Se  Se12  1  0.833424  0.084588  0.832651  1
  Se  Se13  1  0.333424  0.915412  0.167349  1
  Se  Se14  1  0.752050  0.582522  0.244490  1
  Se  Se15  1  0.864583  0.046825  0.186110  1
  Se  Se16  1  0.510799  0.194229  0.523087  1
  Se  Se17  1  0.731747  0.565104  0.769413  1
  Se  Se18  1  0.010799  0.805771  0.476913  1
  Se  Se19  1  0.231747  0.434896  0.230587  1
