# generated using pymatgen
data_Y6Ho14Cd6RuRh
_symmetry_space_group_name_H-M   'P 1'
_cell_length_a   9.61515900
_cell_length_b   9.61515792
_cell_length_c   9.77959400
_cell_angle_alpha   90.00000000
_cell_angle_beta   90.00000000
_cell_angle_gamma   120.00000027
_symmetry_Int_Tables_number   1
_chemical_formula_structural   Y6Ho14Cd6RuRh
_chemical_formula_sum   'Y6 Ho14 Cd6 Ru1 Rh1'
_cell_volume   783.00466205
_cell_formula_units_Z   1
loop_
 _symmetry_equiv_pos_site_id
 _symmetry_equiv_pos_as_xyz
  1  'x, y, z'
loop_
 _atom_site_type_symbol
 _atom_site_label
 _atom_site_symmetry_multiplicity
 _atom_site_fract_x
 _atom_site_fract_y
 _atom_site_fract_z
 _atom_site_occupancy
  Y  Y0  1  0.541937  0.458063  0.250000  1
  Y  Y1  1  0.541937  0.083874  0.250000  1
  Y  Y2  1  0.916126  0.458063  0.250000  1
  Y  Y3  1  0.458839  0.541161  0.750000  1
  Y  Y4  1  0.458839  0.917680  0.750000  1
  Y  Y5  1  0.082320  0.541161  0.750000  1
  Ho  Ho6  1  0.000000  0.000000  0.499734  1
  Ho  Ho7  1  0.000000  0.000000  0.000266  1
  Ho  Ho8  1  0.209423  0.790577  0.440125  1
  Ho  Ho9  1  0.209423  0.418846  0.440125  1
  Ho  Ho10  1  0.581154  0.790577  0.440125  1
  Ho  Ho11  1  0.790171  0.209829  0.560397  1
  Ho  Ho12  1  0.790171  0.580339  0.560397  1
  Ho  Ho13  1  0.419661  0.209829  0.560397  1
  Ho  Ho14  1  0.790171  0.209829  0.939603  1
  Ho  Ho15  1  0.790171  0.580339  0.939603  1
  Ho  Ho16  1  0.419661  0.209829  0.939603  1
  Ho  Ho17  1  0.209423  0.790577  0.059875  1
  Ho  Ho18  1  0.209423  0.418846  0.059875  1
  Ho  Ho19  1  0.581154  0.790577  0.059875  1
  Cd  Cd20  1  0.885257  0.114743  0.250000  1
  Cd  Cd21  1  0.885257  0.770516  0.250000  1
  Cd  Cd22  1  0.229484  0.114743  0.250000  1
  Cd  Cd23  1  0.114731  0.885269  0.750000  1
  Cd  Cd24  1  0.114731  0.229460  0.750000  1
  Cd  Cd25  1  0.770540  0.885269  0.750000  1
  Ru  Ru26  1  0.666667  0.333333  0.750000  1
  Rh  Rh27  1  0.333333  0.666667  0.250000  1
