# generated using pymatgen
data_Y5In4AgPd
_symmetry_space_group_name_H-M   'P 1'
_cell_length_a   3.66651700
_cell_length_b   8.20871417
_cell_length_c   18.38916800
_cell_angle_alpha   90.01182390
_cell_angle_beta   90.00000000
_cell_angle_gamma   90.00000000
_symmetry_Int_Tables_number   1
_chemical_formula_structural   Y5In4AgPd
_chemical_formula_sum   'Y10 In8 Ag2 Pd2'
_cell_volume   553.46595057
_cell_formula_units_Z   2
loop_
 _symmetry_equiv_pos_site_id
 _symmetry_equiv_pos_as_xyz
  1  'x, y, z'
loop_
 _atom_site_type_symbol
 _atom_site_label
 _atom_site_symmetry_multiplicity
 _atom_site_fract_x
 _atom_site_fract_y
 _atom_site_fract_z
 _atom_site_occupancy
  Y  Y0  1  0.500000  0.250235  0.784990  1
  Y  Y1  1  0.500000  0.749765  0.215010  1
  Y  Y2  1  0.500000  0.272468  0.281088  1
  Y  Y3  1  0.500000  0.727532  0.718912  1
  Y  Y4  1  0.500000  0.122292  0.578431  1
  Y  Y5  1  0.500000  0.877708  0.421569  1
  Y  Y6  1  0.500000  0.382483  0.082248  1
  Y  Y7  1  0.500000  0.617517  0.917752  1
  Y  Y8  1  0.500000  0.000000  0.000000  1
  Y  Y9  1  0.500000  0.500000  0.500000  1
  In  In10  1  0.000000  0.081366  0.148834  1
  In  In11  1  0.000000  0.918634  0.851166  1
  In  In12  1  0.000000  0.418627  0.649247  1
  In  In13  1  0.000000  0.581373  0.350753  1
  In  In14  1  0.000000  0.208680  0.431245  1
  In  In15  1  0.000000  0.791320  0.568755  1
  In  In16  1  0.000000  0.291856  0.933220  1
  In  In17  1  0.000000  0.708144  0.066780  1
  Ag  Ag18  1  0.000000  0.025901  0.698135  1
  Ag  Ag19  1  0.000000  0.974099  0.301865  1
  Pd  Pd20  1  0.000000  0.474010  0.195894  1
  Pd  Pd21  1  0.000000  0.525990  0.804106  1
