# generated using pymatgen
data_Eu2Ag3Hg
_symmetry_space_group_name_H-M   'P 1'
_cell_length_a   6.21857500
_cell_length_b   6.10878653
_cell_length_c   6.10878622
_cell_angle_alpha   133.02882809
_cell_angle_beta   104.65935214
_cell_angle_gamma   93.37979391
_symmetry_Int_Tables_number   1
_chemical_formula_structural   Eu2Ag3Hg
_chemical_formula_sum   'Eu2 Ag3 Hg1'
_cell_volume   155.06314834
_cell_formula_units_Z   1
loop_
 _symmetry_equiv_pos_site_id
 _symmetry_equiv_pos_as_xyz
  1  'x, y, z'
loop_
 _atom_site_type_symbol
 _atom_site_label
 _atom_site_symmetry_multiplicity
 _atom_site_fract_x
 _atom_site_fract_y
 _atom_site_fract_z
 _atom_site_occupancy
  Eu  Eu0  1  0.294812  0.544126  0.750686  1
  Eu  Eu1  1  0.706123  0.456675  0.249448  1
  Ag  Ag2  1  0.882351  0.831041  0.051310  1
  Ag  Ag3  1  0.293311  0.842992  0.450319  1
  Ag  Ag4  1  0.706239  0.161818  0.544421  1
  Hg  Hg5  1  0.117164  0.163348  0.953816  1
