# generated using pymatgen
data_TmZn2Cu2Ag
_symmetry_space_group_name_H-M   'P 1'
_cell_length_a   5.14938149
_cell_length_b   5.11266093
_cell_length_c   5.11266039
_cell_angle_alpha   60.31254350
_cell_angle_beta   59.76213979
_cell_angle_gamma   59.76212559
_symmetry_Int_Tables_number   1
_chemical_formula_structural   TmZn2Cu2Ag
_chemical_formula_sum   'Tm1 Zn2 Cu2 Ag1'
_cell_volume   95.05413326
_cell_formula_units_Z   1
loop_
 _symmetry_equiv_pos_site_id
 _symmetry_equiv_pos_as_xyz
  1  'x, y, z'
loop_
 _atom_site_type_symbol
 _atom_site_label
 _atom_site_symmetry_multiplicity
 _atom_site_fract_x
 _atom_site_fract_y
 _atom_site_fract_z
 _atom_site_occupancy
  Tm  Tm0  1  0.003559  0.996441  0.996441  1
  Zn  Zn1  1  0.622251  0.624799  0.130699  1
  Zn  Zn2  1  0.622251  0.130699  0.624799  1
  Cu  Cu3  1  0.126004  0.624613  0.624613  1
  Cu  Cu4  1  0.624770  0.624613  0.624613  1
  Ag  Ag5  1  0.251165  0.248835  0.248835  1
