# generated using pymatgen
data_La3Nd4Y(CdNi)2
_symmetry_space_group_name_H-M   'P 1'
_cell_length_a   9.86397545
_cell_length_b   9.92151544
_cell_length_c   9.89241738
_cell_angle_alpha   59.71288852
_cell_angle_beta   60.29013747
_cell_angle_gamma   59.99697272
_symmetry_Int_Tables_number   1
_chemical_formula_structural   La3Nd4Y(CdNi)2
_chemical_formula_sum   'La6 Nd8 Y2 Cd4 Ni4'
_cell_volume   684.53455999
_cell_formula_units_Z   2
loop_
 _symmetry_equiv_pos_site_id
 _symmetry_equiv_pos_as_xyz
  1  'x, y, z'
loop_
 _atom_site_type_symbol
 _atom_site_label
 _atom_site_symmetry_multiplicity
 _atom_site_fract_x
 _atom_site_fract_y
 _atom_site_fract_z
 _atom_site_occupancy
  La  La0  1  0.594479  0.602510  0.598406  1
  La  La1  1  0.602510  0.594479  0.204604  1
  La  La2  1  0.598406  0.204604  0.594479  1
  La  La3  1  0.204604  0.598406  0.602510  1
  La  La4  1  0.063389  0.436611  0.436611  1
  La  La5  1  0.436611  0.063389  0.063389  1
  Nd  Nd6  1  0.440243  0.440243  0.059757  1
  Nd  Nd7  1  0.059757  0.059757  0.440243  1
  Nd  Nd8  1  0.184868  0.815132  0.815132  1
  Nd  Nd9  1  0.815132  0.184868  0.184868  1
  Nd  Nd10  1  0.813654  0.186346  0.813654  1
  Nd  Nd11  1  0.186346  0.813654  0.186346  1
  Nd  Nd12  1  0.813675  0.813675  0.186325  1
  Nd  Nd13  1  0.186325  0.186325  0.813675  1
  Y  Y14  1  0.440811  0.059189  0.440811  1
  Y  Y15  1  0.059189  0.440811  0.059189  1
  Cd  Cd16  1  0.832269  0.828221  0.830628  1
  Cd  Cd17  1  0.828221  0.832269  0.508883  1
  Cd  Cd18  1  0.830628  0.508883  0.832269  1
  Cd  Cd19  1  0.508883  0.830628  0.828221  1
  Ni  Ni20  1  0.387985  0.390918  0.394756  1
  Ni  Ni21  1  0.390918  0.387985  0.826340  1
  Ni  Ni22  1  0.394756  0.826340  0.387985  1
  Ni  Ni23  1  0.826340  0.394756  0.390918  1
