# generated using pymatgen
data_Er7Tm13(OsRh2)4
_symmetry_space_group_name_H-M   'P 1'
_cell_length_a   10.72589600
_cell_length_b   10.72484312
_cell_length_c   6.34681000
_cell_angle_alpha   90.00389991
_cell_angle_beta   90.00032585
_cell_angle_gamma   89.99237111
_symmetry_Int_Tables_number   1
_chemical_formula_structural   Er7Tm13(OsRh2)4
_chemical_formula_sum   'Er7 Tm13 Os4 Rh8'
_cell_volume   730.09608950
_cell_formula_units_Z   1
loop_
 _symmetry_equiv_pos_site_id
 _symmetry_equiv_pos_as_xyz
  1  'x, y, z'
loop_
 _atom_site_type_symbol
 _atom_site_label
 _atom_site_symmetry_multiplicity
 _atom_site_fract_x
 _atom_site_fract_y
 _atom_site_fract_z
 _atom_site_occupancy
  Er  Er0  1  0.293537  0.086550  0.375332  1
  Er  Er1  1  0.293535  0.913757  0.875303  1
  Er  Er2  1  0.706364  0.086512  0.875352  1
  Er  Er3  1  0.706430  0.913652  0.375340  1
  Er  Er4  1  0.586392  0.793545  0.875337  1
  Er  Er5  1  0.586279  0.206551  0.375301  1
  Er  Er6  1  0.413645  0.793573  0.375340  1
  Tm  Tm7  1  0.413737  0.206088  0.875476  1
  Tm  Tm8  1  0.205680  0.414021  0.624343  1
  Tm  Tm9  1  0.205532  0.585808  0.124279  1
  Tm  Tm10  1  0.794470  0.414179  0.124189  1
  Tm  Tm11  1  0.794456  0.585792  0.624179  1
  Tm  Tm12  1  0.914205  0.705556  0.124228  1
  Tm  Tm13  1  0.914186  0.294443  0.624186  1
  Tm  Tm14  1  0.085825  0.705544  0.624187  1
  Tm  Tm15  1  0.085853  0.294451  0.124147  1
  Tm  Tm16  1  0.000033  0.000019  0.500420  1
  Tm  Tm17  1  0.999989  0.000050  0.000391  1
  Tm  Tm18  1  0.499915  0.499788  0.000325  1
  Tm  Tm19  1  0.499979  0.499976  0.500411  1
  Os  Os20  1  0.499891  0.000228  0.122825  1
  Os  Os21  1  0.499910  0.000167  0.623294  1
  Os  Os22  1  0.000040  0.499999  0.876825  1
  Os  Os23  1  0.000017  0.499995  0.376908  1
  Rh  Rh24  1  0.848270  0.152408  0.250320  1
  Rh  Rh25  1  0.848246  0.847544  0.750578  1
  Rh  Rh26  1  0.151980  0.152529  0.750358  1
  Rh  Rh27  1  0.151741  0.847532  0.250306  1
  Rh  Rh28  1  0.652273  0.348171  0.750280  1
  Rh  Rh29  1  0.652514  0.651713  0.250280  1
  Rh  Rh30  1  0.347553  0.348180  0.249748  1
  Rh  Rh31  1  0.347525  0.651675  0.750212  1
