# generated using pymatgen
data_Ca5RhAu
_symmetry_space_group_name_H-M   'P 1'
_cell_length_a   8.89605342
_cell_length_b   8.89605388
_cell_length_c   7.70099726
_cell_angle_alpha   83.30519545
_cell_angle_beta   83.30519661
_cell_angle_gamma   44.55941528
_symmetry_Int_Tables_number   1
_chemical_formula_structural   Ca5RhAu
_chemical_formula_sum   'Ca10 Rh2 Au2'
_cell_volume   424.21599955
_cell_formula_units_Z   2
loop_
 _symmetry_equiv_pos_site_id
 _symmetry_equiv_pos_as_xyz
  1  'x, y, z'
loop_
 _atom_site_type_symbol
 _atom_site_label
 _atom_site_symmetry_multiplicity
 _atom_site_fract_x
 _atom_site_fract_y
 _atom_site_fract_z
 _atom_site_occupancy
  Ca  Ca0  1  0.356974  0.203601  0.810705  1
  Ca  Ca1  1  0.796399  0.643026  0.689295  1
  Ca  Ca2  1  0.628596  0.801781  0.172372  1
  Ca  Ca3  1  0.198219  0.371404  0.327628  1
  Ca  Ca4  1  0.411794  0.588206  0.250000  1
  Ca  Ca5  1  0.567303  0.432697  0.750000  1
  Ca  Ca6  1  0.809173  0.007695  0.428808  1
  Ca  Ca7  1  0.992305  0.190827  0.071192  1
  Ca  Ca8  1  0.208055  0.970537  0.589772  1
  Ca  Ca9  1  0.029463  0.791945  0.910228  1
  Rh  Rh10  1  0.179617  0.597398  0.582582  1
  Rh  Rh11  1  0.402602  0.820383  0.917418  1
  Au  Au12  1  0.820299  0.400799  0.417972  1
  Au  Au13  1  0.599201  0.179701  0.082028  1
