# generated using pymatgen
data_Y3Re(P3Rh4)2
_symmetry_space_group_name_H-M   'P 1'
_cell_length_a   3.93787000
_cell_length_b   11.11871600
_cell_length_c   12.83897500
_cell_angle_alpha   90.00000000
_cell_angle_beta   90.00000000
_cell_angle_gamma   90.00000000
_symmetry_Int_Tables_number   1
_chemical_formula_structural   Y3Re(P3Rh4)2
_chemical_formula_sum   'Y6 Re2 P12 Rh16'
_cell_volume   562.14242831
_cell_formula_units_Z   2
loop_
 _symmetry_equiv_pos_site_id
 _symmetry_equiv_pos_as_xyz
  1  'x, y, z'
loop_
 _atom_site_type_symbol
 _atom_site_label
 _atom_site_symmetry_multiplicity
 _atom_site_fract_x
 _atom_site_fract_y
 _atom_site_fract_z
 _atom_site_occupancy
  Y  Y0  1  0.000000  0.500000  0.520917  1
  Y  Y1  1  0.500000  0.000000  0.479083  1
  Y  Y2  1  0.500000  0.816406  0.205249  1
  Y  Y3  1  0.500000  0.183594  0.205249  1
  Y  Y4  1  0.000000  0.683594  0.794751  1
  Y  Y5  1  0.000000  0.316406  0.794751  1
  Re  Re6  1  0.500000  0.500000  0.159095  1
  Re  Re7  1  0.000000  0.000000  0.840905  1
  P  P8  1  0.500000  0.500000  0.876032  1
  P  P9  1  0.000000  0.000000  0.123968  1
  P  P10  1  0.500000  0.500000  0.346631  1
  P  P11  1  0.000000  0.000000  0.653369  1
  P  P12  1  0.500000  0.315518  0.618601  1
  P  P13  1  0.500000  0.684482  0.618601  1
  P  P14  1  0.000000  0.184482  0.381399  1
  P  P15  1  0.000000  0.815518  0.381399  1
  P  P16  1  0.500000  0.848841  0.887693  1
  P  P17  1  0.500000  0.151159  0.887693  1
  P  P18  1  0.000000  0.651159  0.112307  1
  P  P19  1  0.000000  0.348841  0.112307  1
  Rh  Rh20  1  0.500000  0.500000  0.700595  1
  Rh  Rh21  1  0.000000  0.000000  0.299405  1
  Rh  Rh22  1  0.000000  0.500000  0.990042  1
  Rh  Rh23  1  0.500000  0.000000  0.009958  1
  Rh  Rh24  1  0.500000  0.331403  0.983577  1
  Rh  Rh25  1  0.500000  0.668597  0.983577  1
  Rh  Rh26  1  0.000000  0.168597  0.016423  1
  Rh  Rh27  1  0.000000  0.831403  0.016423  1
  Rh  Rh28  1  0.500000  0.295930  0.432086  1
  Rh  Rh29  1  0.500000  0.704070  0.432086  1
  Rh  Rh30  1  0.000000  0.204070  0.567914  1
  Rh  Rh31  1  0.000000  0.795930  0.567914  1
  Rh  Rh32  1  0.500000  0.875774  0.709609  1
  Rh  Rh33  1  0.500000  0.124226  0.709609  1
  Rh  Rh34  1  0.000000  0.624226  0.290391  1
  Rh  Rh35  1  0.000000  0.375774  0.290391  1
