# generated using pymatgen
data_Rb4TbPaBr12
_symmetry_space_group_name_H-M   'P 1'
_cell_length_a   7.84669200
_cell_length_b   7.84669200
_cell_length_c   11.70801300
_cell_angle_alpha   90.00000000
_cell_angle_beta   90.00000000
_cell_angle_gamma   90.00000000
_symmetry_Int_Tables_number   1
_chemical_formula_structural   Rb4TbPaBr12
_chemical_formula_sum   'Rb4 Tb1 Pa1 Br12'
_cell_volume   720.86909653
_cell_formula_units_Z   1
loop_
 _symmetry_equiv_pos_site_id
 _symmetry_equiv_pos_as_xyz
  1  'x, y, z'
loop_
 _atom_site_type_symbol
 _atom_site_label
 _atom_site_symmetry_multiplicity
 _atom_site_fract_x
 _atom_site_fract_y
 _atom_site_fract_z
 _atom_site_occupancy
  Rb  Rb0  1  0.500000  0.000000  0.799481  1
  Rb  Rb1  1  0.500000  0.000000  0.200519  1
  Rb  Rb2  1  0.000000  0.500000  0.200519  1
  Rb  Rb3  1  0.000000  0.500000  0.799481  1
  Tb  Tb4  1  0.000000  0.000000  0.000000  1
  Pa  Pa5  1  0.500000  0.500000  0.500000  1
  Br  Br6  1  0.746316  0.253449  0.000000  1
  Br  Br7  1  0.253684  0.746551  0.000000  1
  Br  Br8  1  0.500000  0.500000  0.265617  1
  Br  Br9  1  0.318307  0.205433  0.500000  1
  Br  Br10  1  0.253449  0.253684  0.000000  1
  Br  Br11  1  0.794567  0.318307  0.500000  1
  Br  Br12  1  0.000000  0.000000  0.240602  1
  Br  Br13  1  0.681693  0.794567  0.500000  1
  Br  Br14  1  0.205433  0.681693  0.500000  1
  Br  Br15  1  0.500000  0.500000  0.734383  1
  Br  Br16  1  0.746551  0.746316  0.000000  1
  Br  Br17  1  0.000000  0.000000  0.759398  1
