# generated using pymatgen
data_ErThIr7
_symmetry_space_group_name_H-M   'P 1'
_cell_length_a   5.33117437
_cell_length_b   5.33117418
_cell_length_c   13.48771885
_cell_angle_alpha   78.60155931
_cell_angle_beta   78.60155829
_cell_angle_gamma   60.00000253
_symmetry_Int_Tables_number   1
_chemical_formula_structural   ErThIr7
_chemical_formula_sum   'Er2 Th2 Ir14'
_cell_volume   323.22235986
_cell_formula_units_Z   2
loop_
 _symmetry_equiv_pos_site_id
 _symmetry_equiv_pos_as_xyz
  1  'x, y, z'
loop_
 _atom_site_type_symbol
 _atom_site_label
 _atom_site_symmetry_multiplicity
 _atom_site_fract_x
 _atom_site_fract_y
 _atom_site_fract_z
 _atom_site_occupancy
  Er  Er0  1  0.851681  0.851681  0.444955  1
  Er  Er1  1  0.148319  0.148319  0.555045  1
  Th  Th2  1  0.948420  0.948420  0.154741  1
  Th  Th3  1  0.051580  0.051580  0.845259  1
  Ir  Ir4  1  0.500000  0.500000  0.500000  1
  Ir  Ir5  1  0.722660  0.722660  0.832022  1
  Ir  Ir6  1  0.277340  0.277340  0.167978  1
  Ir  Ir7  1  0.610548  0.610548  0.168354  1
  Ir  Ir8  1  0.389452  0.389452  0.831646  1
  Ir  Ir9  1  0.000000  0.500000  0.000000  1
  Ir  Ir10  1  0.500000  0.000000  0.000000  1
  Ir  Ir11  1  0.500000  0.500000  0.000000  1
  Ir  Ir12  1  0.388417  0.388417  0.333200  1
  Ir  Ir13  1  0.889966  0.388417  0.333200  1
  Ir  Ir14  1  0.388417  0.889966  0.333200  1
  Ir  Ir15  1  0.611583  0.611583  0.666800  1
  Ir  Ir16  1  0.110034  0.611583  0.666800  1
  Ir  Ir17  1  0.611583  0.110034  0.666800  1
