# generated using pymatgen
data_LiDy3Ho2(P2Ru3)6
_symmetry_space_group_name_H-M   'P 1'
_cell_length_a   12.61062620
_cell_length_b   12.41728568
_cell_length_c   3.96812300
_cell_angle_alpha   90.00000000
_cell_angle_beta   90.00000000
_cell_angle_gamma   119.49317468
_symmetry_Int_Tables_number   1
_chemical_formula_structural   LiDy3Ho2(P2Ru3)6
_chemical_formula_sum   'Li1 Dy3 Ho2 P12 Ru18'
_cell_volume   540.84708461
_cell_formula_units_Z   1
loop_
 _symmetry_equiv_pos_site_id
 _symmetry_equiv_pos_as_xyz
  1  'x, y, z'
loop_
 _atom_site_type_symbol
 _atom_site_label
 _atom_site_symmetry_multiplicity
 _atom_site_fract_x
 _atom_site_fract_y
 _atom_site_fract_z
 _atom_site_occupancy
  Li  Li0  1  0.000002  0.561652  0.000000  1
  Dy  Dy1  1  0.000004  0.181717  0.500000  1
  Dy  Dy2  1  0.816957  0.816608  0.500000  1
  Dy  Dy3  1  0.659943  0.329259  0.000000  1
  Ho  Ho4  1  0.183011  0.999740  0.500000  1
  Ho  Ho5  1  0.340039  0.669268  0.000000  1
  P  P6  1  0.000165  0.808996  0.000000  1
  P  P7  1  0.182327  0.183295  0.000000  1
  P  P8  1  0.817711  0.001009  0.000000  1
  P  P9  1  0.691970  0.173073  0.500000  1
  P  P10  1  0.820257  0.519069  0.500000  1
  P  P11  1  0.474125  0.306825  0.500000  1
  P  P12  1  0.179955  0.698764  0.500000  1
  P  P13  1  0.525646  0.832520  0.500000  1
  P  P14  1  0.308002  0.481230  0.500000  1
  P  P15  1  0.999996  0.367282  0.000000  1
  P  P16  1  0.626445  0.625331  0.000000  1
  P  P17  1  0.373498  0.998909  0.000000  1
  Ru  Ru18  1  0.444360  0.444618  0.000000  1
  Ru  Ru19  1  0.555592  0.000301  0.000000  1
  Ru  Ru20  1  0.000179  0.712861  0.500000  1
  Ru  Ru21  1  0.280815  0.283141  0.500000  1
  Ru  Ru22  1  0.719060  0.002291  0.500000  1
  Ru  Ru23  1  0.806008  0.186262  0.000000  1
  Ru  Ru24  1  0.813491  0.619179  0.000000  1
  Ru  Ru25  1  0.372516  0.188493  0.000000  1
  Ru  Ru26  1  0.186743  0.805945  0.000000  1
  Ru  Ru27  1  0.627028  0.815901  0.000000  1
  Ru  Ru28  1  0.194110  0.380447  0.000000  1
  Ru  Ru29  1  0.876543  0.367285  0.500000  1
  Ru  Ru30  1  0.631280  0.509184  0.500000  1
  Ru  Ru31  1  0.492315  0.128284  0.500000  1
  Ru  Ru32  1  0.368683  0.877602  0.500000  1
  Ru  Ru33  1  0.507276  0.635896  0.500000  1
  Ru  Ru34  1  0.123706  0.490943  0.500000  1
  Ru  Ru35  1  0.000241  0.996825  0.000000  1
