# generated using pymatgen
data_Li7LuSc7ZnSn8
_symmetry_space_group_name_H-M   'P 1'
_cell_length_a   9.18607000
_cell_length_b   9.19127784
_cell_length_c   6.73453821
_cell_angle_alpha   89.98371447
_cell_angle_beta   90.00000000
_cell_angle_gamma   119.98126576
_symmetry_Int_Tables_number   1
_chemical_formula_structural   Li7LuSc7ZnSn8
_chemical_formula_sum   'Li7 Lu1 Sc7 Zn1 Sn8'
_cell_volume   492.52244794
_cell_formula_units_Z   1
loop_
 _symmetry_equiv_pos_site_id
 _symmetry_equiv_pos_as_xyz
  1  'x, y, z'
loop_
 _atom_site_type_symbol
 _atom_site_label
 _atom_site_symmetry_multiplicity
 _atom_site_fract_x
 _atom_site_fract_y
 _atom_site_fract_z
 _atom_site_occupancy
  Li  Li0  1  0.165934  0.832506  0.281500  1
  Li  Li1  1  0.666571  0.832506  0.281500  1
  Li  Li2  1  0.832141  0.664282  0.780522  1
  Li  Li3  1  0.830778  0.166778  0.775663  1
  Li  Li4  1  0.336001  0.166778  0.775663  1
  Li  Li5  1  0.333884  0.667769  0.694183  1
  Li  Li6  1  0.668038  0.336073  0.191739  1
  Lu  Lu7  1  0.001410  0.002820  0.998348  1
  Sc  Sc8  1  0.508033  0.016065  0.497469  1
  Sc  Sc9  1  0.509300  0.492609  0.493472  1
  Sc  Sc10  1  0.983309  0.492609  0.493472  1
  Sc  Sc11  1  0.491908  0.983815  0.988869  1
  Sc  Sc12  1  0.489026  0.506172  0.993393  1
  Sc  Sc13  1  0.017146  0.506172  0.993393  1
  Sc  Sc14  1  0.999395  0.998790  0.498780  1
  Zn  Zn15  1  0.166713  0.333427  0.303799  1
  Sn  Sn16  1  0.167565  0.335130  0.736976  1
  Sn  Sn17  1  0.166494  0.831735  0.731771  1
  Sn  Sn18  1  0.665241  0.831735  0.731771  1
  Sn  Sn19  1  0.832229  0.664458  0.238740  1
  Sn  Sn20  1  0.828879  0.167162  0.234984  1
  Sn  Sn21  1  0.338283  0.167162  0.234984  1
  Sn  Sn22  1  0.334743  0.669487  0.242815  1
  Sn  Sn23  1  0.666980  0.333958  0.748194  1
