# generated using pymatgen
data_Ba2Dy3BiS8
_symmetry_space_group_name_H-M   'P 1'
_cell_length_a   4.07667900
_cell_length_b   12.39129500
_cell_length_c   14.67794300
_cell_angle_alpha   90.00000000
_cell_angle_beta   90.00000000
_cell_angle_gamma   90.00000000
_symmetry_Int_Tables_number   1
_chemical_formula_structural   Ba2Dy3BiS8
_chemical_formula_sum   'Ba4 Dy6 Bi2 S16'
_cell_volume   741.46116533
_cell_formula_units_Z   2
loop_
 _symmetry_equiv_pos_site_id
 _symmetry_equiv_pos_as_xyz
  1  'x, y, z'
loop_
 _atom_site_type_symbol
 _atom_site_label
 _atom_site_symmetry_multiplicity
 _atom_site_fract_x
 _atom_site_fract_y
 _atom_site_fract_z
 _atom_site_occupancy
  Ba  Ba0  1  0.250000  0.760076  0.337105  1
  Ba  Ba1  1  0.250000  0.260076  0.162895  1
  Ba  Ba2  1  0.750000  0.240168  0.662666  1
  Ba  Ba3  1  0.750000  0.740168  0.837334  1
  Dy  Dy4  1  0.750000  0.565616  0.610611  1
  Dy  Dy5  1  0.750000  0.065616  0.889389  1
  Dy  Dy6  1  0.250000  0.419970  0.898841  1
  Dy  Dy7  1  0.250000  0.919970  0.601159  1
  Dy  Dy8  1  0.750000  0.578917  0.099655  1
  Dy  Dy9  1  0.750000  0.078917  0.400345  1
  Bi  Bi10  1  0.250000  0.435101  0.390596  1
  Bi  Bi11  1  0.250000  0.935101  0.109404  1
  S  S12  1  0.250000  0.205642  0.837017  1
  S  S13  1  0.250000  0.705642  0.662983  1
  S  S14  1  0.750000  0.788354  0.165746  1
  S  S15  1  0.750000  0.288354  0.334254  1
  S  S16  1  0.250000  0.122423  0.524622  1
  S  S17  1  0.250000  0.622423  0.975378  1
  S  S18  1  0.750000  0.876903  0.476619  1
  S  S19  1  0.750000  0.376903  0.023381  1
  S  S20  1  0.250000  0.525714  0.213247  1
  S  S21  1  0.250000  0.025714  0.286753  1
  S  S22  1  0.750000  0.475103  0.783830  1
  S  S23  1  0.750000  0.975103  0.716170  1
  S  S24  1  0.250000  0.418340  0.580349  1
  S  S25  1  0.250000  0.918340  0.919651  1
  S  S26  1  0.750000  0.587675  0.426234  1
  S  S27  1  0.750000  0.087675  0.073766  1
