# generated using pymatgen
data_Ho4MnV3F28
_symmetry_space_group_name_H-M   'P 1'
_cell_length_a   5.46014460
_cell_length_b   8.74870313
_cell_length_c   11.74421631
_cell_angle_alpha   63.18674992
_cell_angle_beta   90.04282514
_cell_angle_gamma   89.98962307
_symmetry_Int_Tables_number   1
_chemical_formula_structural   Ho4MnV3F28
_chemical_formula_sum   'Ho4 Mn1 V3 F28'
_cell_volume   500.69229326
_cell_formula_units_Z   1
loop_
 _symmetry_equiv_pos_site_id
 _symmetry_equiv_pos_as_xyz
  1  'x, y, z'
loop_
 _atom_site_type_symbol
 _atom_site_label
 _atom_site_symmetry_multiplicity
 _atom_site_fract_x
 _atom_site_fract_y
 _atom_site_fract_z
 _atom_site_occupancy
  Ho  Ho0  1  0.758538  0.804663  0.770501  1
  Ho  Ho1  1  0.259011  0.189716  0.732640  1
  Ho  Ho2  1  0.239899  0.191239  0.231308  1
  Ho  Ho3  1  0.741526  0.811454  0.267116  1
  Mn  Mn4  1  0.757730  0.272835  0.955742  1
  V  V5  1  0.255877  0.726391  0.544319  1
  V  V6  1  0.244393  0.726941  0.044565  1
  V  V7  1  0.743909  0.273193  0.455851  1
  F  F8  1  0.441582  0.706156  0.920489  1
  F  F9  1  0.942764  0.293532  0.580329  1
  F  F10  1  0.564376  0.295420  0.075396  1
  F  F11  1  0.057265  0.706098  0.420092  1
  F  F12  1  0.452112  0.278825  0.544735  1
  F  F13  1  0.952571  0.720863  0.956866  1
  F  F14  1  0.547313  0.720967  0.455366  1
  F  F15  1  0.041450  0.280480  0.040885  1
  F  F16  1  0.773422  0.508299  0.862981  1
  F  F17  1  0.273407  0.490822  0.637322  1
  F  F18  1  0.227795  0.490645  0.135862  1
  F  F19  1  0.726449  0.507941  0.363498  1
  F  F20  1  0.755649  0.039388  0.045795  1
  F  F21  1  0.256926  0.959920  0.453294  1
  F  F22  1  0.243208  0.960193  0.953342  1
  F  F23  1  0.743314  0.040635  0.545941  1
  F  F24  1  0.974697  0.729789  0.637769  1
  F  F25  1  0.482018  0.271040  0.864776  1
  F  F26  1  0.025449  0.270899  0.361477  1
  F  F27  1  0.525607  0.728305  0.138768  1
  F  F28  1  0.047706  0.746310  0.171807  1
  F  F29  1  0.546593  0.253039  0.327818  1
  F  F30  1  0.949970  0.254174  0.831804  1
  F  F31  1  0.452199  0.747604  0.671106  1
  F  F32  1  0.414710  0.972373  0.230217  1
  F  F33  1  0.916386  0.030044  0.270573  1
  F  F34  1  0.582490  0.027843  0.769268  1
  F  F35  1  0.081690  0.971964  0.730381  1
