# generated using pymatgen
data_Dy15Ho5CoBi8Rh3
_symmetry_space_group_name_H-M   'P 1'
_cell_length_a   8.02323547
_cell_length_b   8.98533809
_cell_length_c   12.45680941
_cell_angle_alpha   90.01612525
_cell_angle_beta   89.82720922
_cell_angle_gamma   90.00420087
_symmetry_Int_Tables_number   1
_chemical_formula_structural   Dy15Ho5CoBi8Rh3
_chemical_formula_sum   'Dy15 Ho5 Co1 Bi8 Rh3'
_cell_volume   898.02574622
_cell_formula_units_Z   1
loop_
 _symmetry_equiv_pos_site_id
 _symmetry_equiv_pos_as_xyz
  1  'x, y, z'
loop_
 _atom_site_type_symbol
 _atom_site_label
 _atom_site_symmetry_multiplicity
 _atom_site_fract_x
 _atom_site_fract_y
 _atom_site_fract_z
 _atom_site_occupancy
  Dy  Dy0  1  0.345603  0.750068  0.699706  1
  Dy  Dy1  1  0.657691  0.249962  0.294049  1
  Dy  Dy2  1  0.842705  0.249949  0.793967  1
  Dy  Dy3  1  0.157270  0.750043  0.205632  1
  Dy  Dy4  1  0.879606  0.750032  0.806173  1
  Dy  Dy5  1  0.120819  0.249951  0.193407  1
  Dy  Dy6  1  0.379097  0.249917  0.693584  1
  Dy  Dy7  1  0.614848  0.750095  0.311583  1
  Dy  Dy8  1  0.676876  0.545199  0.564151  1
  Dy  Dy9  1  0.323745  0.465427  0.436435  1
  Dy  Dy10  1  0.178022  0.457544  0.934280  1
  Dy  Dy11  1  0.051540  0.750084  0.498875  1
  Dy  Dy12  1  0.950070  0.249920  0.501330  1
  Dy  Dy13  1  0.547708  0.249955  0.000795  1
  Dy  Dy14  1  0.451109  0.750035  0.998305  1
  Ho  Ho15  1  0.324191  0.034599  0.436530  1
  Ho  Ho16  1  0.821755  0.541732  0.065611  1
  Ho  Ho17  1  0.676467  0.954791  0.564056  1
  Ho  Ho18  1  0.821881  0.958233  0.065576  1
  Ho  Ho19  1  0.177698  0.042502  0.934349  1
  Co  Co20  1  0.432463  0.750203  0.491684  1
  Bi  Bi21  1  0.571118  0.509889  0.826124  1
  Bi  Bi22  1  0.429022  0.490999  0.173744  1
  Bi  Bi23  1  0.071889  0.490565  0.672807  1
  Bi  Bi24  1  0.429011  0.009009  0.173782  1
  Bi  Bi25  1  0.928334  0.510111  0.327334  1
  Bi  Bi26  1  0.571049  0.990127  0.826116  1
  Bi  Bi27  1  0.928444  0.989909  0.327386  1
  Bi  Bi28  1  0.071794  0.009437  0.672809  1
  Rh  Rh29  1  0.069995  0.750149  0.990599  1
  Rh  Rh30  1  0.928522  0.249861  0.010029  1
  Rh  Rh31  1  0.569658  0.249705  0.509192  1
