# generated using pymatgen
data_CsSrVS4
_symmetry_space_group_name_H-M   'P 1'
_cell_length_a   12.37967500
_cell_length_b   6.86013700
_cell_length_c   9.58950200
_cell_angle_alpha   90.00000000
_cell_angle_beta   90.00000000
_cell_angle_gamma   90.00000000
_symmetry_Int_Tables_number   1
_chemical_formula_structural   CsSrVS4
_chemical_formula_sum   'Cs4 Sr4 V4 S16'
_cell_volume   814.40060260
_cell_formula_units_Z   4
loop_
 _symmetry_equiv_pos_site_id
 _symmetry_equiv_pos_as_xyz
  1  'x, y, z'
loop_
 _atom_site_type_symbol
 _atom_site_label
 _atom_site_symmetry_multiplicity
 _atom_site_fract_x
 _atom_site_fract_y
 _atom_site_fract_z
 _atom_site_occupancy
  Cs  Cs0  1  0.577971  0.250000  0.123448  1
  Cs  Cs1  1  0.077971  0.250000  0.376551  1
  Cs  Cs2  1  0.922028  0.750000  0.623448  1
  Cs  Cs3  1  0.422028  0.750000  0.876552  1
  Sr  Sr4  1  0.855160  0.750000  0.096662  1
  Sr  Sr5  1  0.355160  0.750000  0.403337  1
  Sr  Sr6  1  0.644840  0.250000  0.596662  1
  Sr  Sr7  1  0.144840  0.250000  0.903338  1
  V  V8  1  0.154401  0.750000  0.122366  1
  V  V9  1  0.654401  0.750000  0.377633  1
  V  V10  1  0.345598  0.250000  0.622366  1
  V  V11  1  0.845598  0.250000  0.877634  1
  S  S12  1  0.932991  0.250000  0.070832  1
  S  S13  1  0.257641  0.497914  0.139040  1
  S  S14  1  0.257641  0.002086  0.139040  1
  S  S15  1  0.542702  0.750000  0.204826  1
  S  S16  1  0.042702  0.750000  0.295173  1
  S  S17  1  0.757641  0.497914  0.360960  1
  S  S18  1  0.757641  0.002086  0.360960  1
  S  S19  1  0.432991  0.250000  0.429167  1
  S  S20  1  0.567008  0.750000  0.570833  1
  S  S21  1  0.242359  0.997915  0.639040  1
  S  S22  1  0.242359  0.502086  0.639040  1
  S  S23  1  0.957298  0.250000  0.704826  1
  S  S24  1  0.457298  0.250000  0.795174  1
  S  S25  1  0.742359  0.997915  0.860960  1
  S  S26  1  0.742359  0.502086  0.860960  1
  S  S27  1  0.067008  0.750000  0.929167  1
