# generated using pymatgen
data_Tb12MgIn(CoPd)2
_symmetry_space_group_name_H-M   'P 1'
_cell_length_a   8.50524141
_cell_length_b   8.50386234
_cell_length_c   8.50524222
_cell_angle_alpha   112.43662209
_cell_angle_beta   110.19083123
_cell_angle_gamma   105.86054733
_symmetry_Int_Tables_number   1
_chemical_formula_structural   Tb12MgIn(CoPd)2
_chemical_formula_sum   'Tb12 Mg1 In1 Co2 Pd2'
_cell_volume   471.91942593
_cell_formula_units_Z   1
loop_
 _symmetry_equiv_pos_site_id
 _symmetry_equiv_pos_as_xyz
  1  'x, y, z'
loop_
 _atom_site_type_symbol
 _atom_site_label
 _atom_site_symmetry_multiplicity
 _atom_site_fract_x
 _atom_site_fract_y
 _atom_site_fract_z
 _atom_site_occupancy
  Tb  Tb0  1  0.440991  0.242911  0.198094  1
  Tb  Tb1  1  0.559009  0.757089  0.801906  1
  Tb  Tb2  1  0.044816  0.242911  0.801919  1
  Tb  Tb3  1  0.955184  0.757089  0.198081  1
  Tb  Tb4  1  0.182192  0.289343  0.471515  1
  Tb  Tb5  1  0.817808  0.710657  0.528485  1
  Tb  Tb6  1  0.182173  0.710657  0.892850  1
  Tb  Tb7  1  0.817827  0.289343  0.107150  1
  Tb  Tb8  1  0.308616  0.616451  0.307835  1
  Tb  Tb9  1  0.691384  0.383549  0.692165  1
  Tb  Tb10  1  0.308575  0.000801  0.692224  1
  Tb  Tb11  1  0.691425  0.999199  0.307776  1
  Mg  Mg12  1  0.000000  0.000000  0.000000  1
  In  In13  1  0.500000  0.500000  0.000000  1
  Co  Co14  1  0.111376  0.611361  0.499985  1
  Co  Co15  1  0.888624  0.388639  0.500015  1
  Pd  Pd16  1  0.342940  0.000000  0.342940  1
  Pd  Pd17  1  0.657060  0.000000  0.657060  1
