# generated using pymatgen
data_Pr3Dy(WO6)2
_symmetry_space_group_name_H-M   'P 1'
_cell_length_a   5.41289800
_cell_length_b   9.40828175
_cell_length_c   10.28765568
_cell_angle_alpha   90.77259836
_cell_angle_beta   90.00000000
_cell_angle_gamma   90.00000000
_symmetry_Int_Tables_number   1
_chemical_formula_structural   Pr3Dy(WO6)2
_chemical_formula_sum   'Pr6 Dy2 W4 O24'
_cell_volume   523.86223767
_cell_formula_units_Z   2
loop_
 _symmetry_equiv_pos_site_id
 _symmetry_equiv_pos_as_xyz
  1  'x, y, z'
loop_
 _atom_site_type_symbol
 _atom_site_label
 _atom_site_symmetry_multiplicity
 _atom_site_fract_x
 _atom_site_fract_y
 _atom_site_fract_z
 _atom_site_occupancy
  Pr  Pr0  1  0.477623  0.602498  0.535724  1
  Pr  Pr1  1  0.977623  0.897502  0.464276  1
  Pr  Pr2  1  0.521530  0.104674  0.964412  1
  Pr  Pr3  1  0.021530  0.395326  0.035588  1
  Pr  Pr4  1  0.968109  0.783380  0.867632  1
  Pr  Pr5  1  0.468109  0.716620  0.132368  1
  Dy  Dy6  1  0.040303  0.281111  0.625689  1
  Dy  Dy7  1  0.540303  0.218889  0.374311  1
  W  W8  1  0.459272  0.003551  0.647084  1
  W  W9  1  0.959272  0.496449  0.352916  1
  W  W10  1  0.541836  0.492982  0.846818  1
  W  W11  1  0.041836  0.007018  0.153182  1
  O  O12  1  0.257264  0.097398  0.506386  1
  O  O13  1  0.757264  0.402602  0.493614  1
  O  O14  1  0.751234  0.587507  0.987203  1
  O  O15  1  0.251234  0.912493  0.012797  1
  O  O16  1  0.730325  0.117638  0.567016  1
  O  O17  1  0.230325  0.382362  0.432984  1
  O  O18  1  0.276615  0.610531  0.931956  1
  O  O19  1  0.776615  0.889469  0.068044  1
  O  O20  1  0.188883  0.871285  0.677487  1
  O  O21  1  0.688883  0.628715  0.322513  1
  O  O22  1  0.810711  0.362789  0.809777  1
  O  O23  1  0.310711  0.137211  0.190223  1
  O  O24  1  0.178349  0.861198  0.261001  1
  O  O25  1  0.678349  0.638802  0.738999  1
  O  O26  1  0.804608  0.356524  0.242318  1
  O  O27  1  0.304608  0.143476  0.757682  1
  O  O28  1  0.823658  0.055284  0.291457  1
  O  O29  1  0.323658  0.444716  0.708543  1
  O  O30  1  0.168108  0.544570  0.212632  1
  O  O31  1  0.668108  0.955430  0.787368  1
  O  O32  1  0.934342  0.149599  0.026689  1
  O  O33  1  0.434342  0.350401  0.973311  1
  O  O34  1  0.067230  0.646799  0.475601  1
  O  O35  1  0.567230  0.853201  0.524399  1
