# generated using pymatgen
data_Y2Sc3GaSi3
_symmetry_space_group_name_H-M   'P 1'
_cell_length_a   7.14365300
_cell_length_b   7.41566697
_cell_length_c   14.16189005
_cell_angle_alpha   89.99834526
_cell_angle_beta   89.84734388
_cell_angle_gamma   90.13251428
_symmetry_Int_Tables_number   1
_chemical_formula_structural   Y2Sc3GaSi3
_chemical_formula_sum   'Y8 Sc12 Ga4 Si12'
_cell_volume   750.22076969
_cell_formula_units_Z   4
loop_
 _symmetry_equiv_pos_site_id
 _symmetry_equiv_pos_as_xyz
  1  'x, y, z'
loop_
 _atom_site_type_symbol
 _atom_site_label
 _atom_site_symmetry_multiplicity
 _atom_site_fract_x
 _atom_site_fract_y
 _atom_site_fract_z
 _atom_site_occupancy
  Y  Y0  1  0.013847  0.174099  0.097391  1
  Y  Y1  1  0.987761  0.825510  0.901494  1
  Y  Y2  1  0.486736  0.676321  0.901210  1
  Y  Y3  1  0.987455  0.828259  0.600515  1
  Y  Y4  1  0.511098  0.321989  0.097597  1
  Y  Y5  1  0.009986  0.173932  0.400359  1
  Y  Y6  1  0.511376  0.325103  0.400261  1
  Y  Y7  1  0.490014  0.675349  0.600906  1
  Sc  Sc8  1  0.162531  0.500431  0.751483  1
  Sc  Sc9  1  0.836692  0.498730  0.250079  1
  Sc  Sc10  1  0.336274  0.001452  0.248310  1
  Sc  Sc11  1  0.663179  0.999087  0.750010  1
  Sc  Sc12  1  0.333323  0.174960  0.627721  1
  Sc  Sc13  1  0.669468  0.826082  0.373771  1
  Sc  Sc14  1  0.170310  0.674173  0.372999  1
  Sc  Sc15  1  0.668845  0.825951  0.125390  1
  Sc  Sc16  1  0.828667  0.324249  0.626747  1
  Sc  Sc17  1  0.330305  0.175764  0.874708  1
  Sc  Sc18  1  0.829029  0.323071  0.874271  1
  Sc  Sc19  1  0.173439  0.675588  0.124419  1
  Ga  Ga20  1  0.160762  0.460909  0.539921  1
  Ga  Ga21  1  0.840211  0.538495  0.461236  1
  Ga  Ga22  1  0.340466  0.961343  0.461387  1
  Ga  Ga23  1  0.840774  0.538508  0.038797  1
  Si  Si24  1  0.033425  0.118077  0.751198  1
  Si  Si25  1  0.966723  0.882118  0.249192  1
  Si  Si26  1  0.467131  0.616352  0.248468  1
  Si  Si27  1  0.533298  0.383557  0.751199  1
  Si  Si28  1  0.286020  0.873564  0.751043  1
  Si  Si29  1  0.714767  0.126194  0.248672  1
  Si  Si30  1  0.213899  0.373687  0.248828  1
  Si  Si31  1  0.786896  0.627024  0.751447  1
  Si  Si32  1  0.657199  0.036760  0.539398  1
  Si  Si33  1  0.157113  0.463265  0.960591  1
  Si  Si34  1  0.655673  0.036200  0.961070  1
  Si  Si35  1  0.345307  0.963848  0.037912  1
