# generated using pymatgen
data_Hf2ScMn4NbP4
_symmetry_space_group_name_H-M   'P 1'
_cell_length_a   3.57513200
_cell_length_b   6.36502284
_cell_length_c   7.41103555
_cell_angle_alpha   90.46405504
_cell_angle_beta   90.00000000
_cell_angle_gamma   90.00000000
_symmetry_Int_Tables_number   1
_chemical_formula_structural   Hf2ScMn4NbP4
_chemical_formula_sum   'Hf2 Sc1 Mn4 Nb1 P4'
_cell_volume   168.63848791
_cell_formula_units_Z   1
loop_
 _symmetry_equiv_pos_site_id
 _symmetry_equiv_pos_as_xyz
  1  'x, y, z'
loop_
 _atom_site_type_symbol
 _atom_site_label
 _atom_site_symmetry_multiplicity
 _atom_site_fract_x
 _atom_site_fract_y
 _atom_site_fract_z
 _atom_site_occupancy
  Hf  Hf0  1  0.750000  0.468146  0.827772  1
  Hf  Hf1  1  0.750000  0.966889  0.673833  1
  Sc  Sc2  1  0.250000  0.031194  0.323857  1
  Mn  Mn3  1  0.250000  0.634649  0.559782  1
  Mn  Mn4  1  0.750000  0.364552  0.440386  1
  Mn  Mn5  1  0.750000  0.864220  0.059465  1
  Mn  Mn6  1  0.250000  0.138137  0.940842  1
  Nb  Nb7  1  0.250000  0.532247  0.172293  1
  P  P8  1  0.250000  0.767192  0.873417  1
  P  P9  1  0.750000  0.235713  0.132028  1
  P  P10  1  0.750000  0.730974  0.368813  1
  P  P11  1  0.250000  0.266088  0.627510  1
