# generated using pymatgen
data_Er7Tm3(IrPb3)2
_symmetry_space_group_name_H-M   'P 1'
_cell_length_a   9.14223600
_cell_length_b   9.14229723
_cell_length_c   6.79306700
_cell_angle_alpha   90.00000000
_cell_angle_beta   90.00000000
_cell_angle_gamma   120.00022118
_symmetry_Int_Tables_number   1
_chemical_formula_structural   Er7Tm3(IrPb3)2
_chemical_formula_sum   'Er7 Tm3 Ir2 Pb6'
_cell_volume   491.70353031
_cell_formula_units_Z   1
loop_
 _symmetry_equiv_pos_site_id
 _symmetry_equiv_pos_as_xyz
  1  'x, y, z'
loop_
 _atom_site_type_symbol
 _atom_site_label
 _atom_site_symmetry_multiplicity
 _atom_site_fract_x
 _atom_site_fract_y
 _atom_site_fract_z
 _atom_site_occupancy
  Er  Er0  1  0.764719  0.764692  0.250000  1
  Er  Er1  1  0.000000  0.764714  0.750000  1
  Er  Er2  1  0.333327  0.666576  0.499989  1
  Er  Er3  1  0.235281  0.999973  0.250000  1
  Er  Er4  1  0.666673  0.333248  0.499989  1
  Er  Er5  1  0.333327  0.666576  0.000011  1
  Er  Er6  1  0.666673  0.333248  0.000011  1
  Tm  Tm7  1  0.234956  0.234972  0.750000  1
  Tm  Tm8  1  0.000000  0.235013  0.250000  1
  Tm  Tm9  1  0.765044  0.000016  0.750000  1
  Ir  Ir10  1  0.000000  0.000699  0.999706  1
  Ir  Ir11  1  0.000000  0.000699  0.500294  1
  Pb  Pb12  1  0.405587  0.000138  0.750000  1
  Pb  Pb13  1  0.594825  0.000131  0.250000  1
  Pb  Pb14  1  0.405175  0.405306  0.250000  1
  Pb  Pb15  1  0.000000  0.594314  0.250000  1
  Pb  Pb16  1  0.000000  0.405133  0.750000  1
  Pb  Pb17  1  0.594413  0.594551  0.750000  1
