# generated using pymatgen
data_Tm3PaCdOs
_symmetry_space_group_name_H-M   'P 1'
_cell_length_a   9.40247767
_cell_length_b   9.40247803
_cell_length_c   9.40247800
_cell_angle_alpha   60.00000714
_cell_angle_beta   60.00000587
_cell_angle_gamma   60.00000925
_symmetry_Int_Tables_number   1
_chemical_formula_structural   Tm3PaCdOs
_chemical_formula_sum   'Tm12 Pa4 Cd4 Os4'
_cell_volume   587.77625705
_cell_formula_units_Z   4
loop_
 _symmetry_equiv_pos_site_id
 _symmetry_equiv_pos_as_xyz
  1  'x, y, z'
loop_
 _atom_site_type_symbol
 _atom_site_label
 _atom_site_symmetry_multiplicity
 _atom_site_fract_x
 _atom_site_fract_y
 _atom_site_fract_z
 _atom_site_occupancy
  Tm  Tm0  1  0.059704  0.440296  0.440296  1
  Tm  Tm1  1  0.440296  0.059704  0.059704  1
  Tm  Tm2  1  0.440296  0.059704  0.440296  1
  Tm  Tm3  1  0.059704  0.440296  0.059704  1
  Tm  Tm4  1  0.440296  0.440296  0.059704  1
  Tm  Tm5  1  0.059704  0.059704  0.440296  1
  Tm  Tm6  1  0.188805  0.811195  0.811195  1
  Tm  Tm7  1  0.811195  0.188805  0.188805  1
  Tm  Tm8  1  0.811195  0.188805  0.811195  1
  Tm  Tm9  1  0.188805  0.811195  0.188805  1
  Tm  Tm10  1  0.811195  0.811195  0.188805  1
  Tm  Tm11  1  0.188805  0.188805  0.811195  1
  Pa  Pa12  1  0.598504  0.598504  0.598504  1
  Pa  Pa13  1  0.598504  0.598504  0.204487  1
  Pa  Pa14  1  0.598504  0.204487  0.598504  1
  Pa  Pa15  1  0.204487  0.598504  0.598504  1
  Cd  Cd16  1  0.832292  0.832292  0.832292  1
  Cd  Cd17  1  0.832292  0.832292  0.503122  1
  Cd  Cd18  1  0.832292  0.503122  0.832292  1
  Cd  Cd19  1  0.503122  0.832292  0.832292  1
  Os  Os20  1  0.395242  0.395242  0.395242  1
  Os  Os21  1  0.395242  0.395242  0.814274  1
  Os  Os22  1  0.395242  0.814274  0.395242  1
  Os  Os23  1  0.814274  0.395242  0.395242  1
