# generated using pymatgen
data_Tb2Nd2ErPb4
_symmetry_space_group_name_H-M   'P 1'
_cell_length_a   8.29475700
_cell_length_b   8.37780200
_cell_length_c   15.85649200
_cell_angle_alpha   90.00000000
_cell_angle_beta   90.00000000
_cell_angle_gamma   90.00000000
_symmetry_Int_Tables_number   1
_chemical_formula_structural   Tb2Nd2ErPb4
_chemical_formula_sum   'Tb8 Nd8 Er4 Pb16'
_cell_volume   1101.89667475
_cell_formula_units_Z   4
loop_
 _symmetry_equiv_pos_site_id
 _symmetry_equiv_pos_as_xyz
  1  'x, y, z'
loop_
 _atom_site_type_symbol
 _atom_site_label
 _atom_site_symmetry_multiplicity
 _atom_site_fract_x
 _atom_site_fract_y
 _atom_site_fract_z
 _atom_site_occupancy
  Tb  Tb0  1  0.626639  0.160122  0.620879  1
  Tb  Tb1  1  0.126639  0.339878  0.879121  1
  Tb  Tb2  1  0.373361  0.839878  0.120879  1
  Tb  Tb3  1  0.873361  0.660122  0.379121  1
  Tb  Tb4  1  0.373361  0.839878  0.379121  1
  Tb  Tb5  1  0.873361  0.660122  0.120879  1
  Tb  Tb6  1  0.626639  0.160122  0.879121  1
  Tb  Tb7  1  0.126639  0.339878  0.620879  1
  Nd  Nd8  1  0.470277  0.678245  0.599412  1
  Nd  Nd9  1  0.970277  0.821755  0.900588  1
  Nd  Nd10  1  0.529723  0.321755  0.099412  1
  Nd  Nd11  1  0.029723  0.178245  0.400588  1
  Nd  Nd12  1  0.529723  0.321755  0.400588  1
  Nd  Nd13  1  0.029723  0.178245  0.099412  1
  Nd  Nd14  1  0.470277  0.678245  0.900588  1
  Nd  Nd15  1  0.970277  0.821755  0.599412  1
  Er  Er16  1  0.794159  0.494824  0.750000  1
  Er  Er17  1  0.294159  0.005176  0.750000  1
  Er  Er18  1  0.205841  0.505176  0.250000  1
  Er  Er19  1  0.705841  0.994824  0.250000  1
  Pb  Pb20  1  0.712648  0.964006  0.456258  1
  Pb  Pb21  1  0.212648  0.535994  0.043742  1
  Pb  Pb22  1  0.287352  0.035994  0.956258  1
  Pb  Pb23  1  0.787352  0.464006  0.543742  1
  Pb  Pb24  1  0.287352  0.035994  0.543742  1
  Pb  Pb25  1  0.787352  0.464006  0.956258  1
  Pb  Pb26  1  0.712648  0.964006  0.043742  1
  Pb  Pb27  1  0.212648  0.535994  0.456258  1
  Pb  Pb28  1  0.431309  0.371826  0.750000  1
  Pb  Pb29  1  0.931309  0.128174  0.750000  1
  Pb  Pb30  1  0.568691  0.628174  0.250000  1
  Pb  Pb31  1  0.068691  0.871826  0.250000  1
  Pb  Pb32  1  0.660144  0.850898  0.750000  1
  Pb  Pb33  1  0.160144  0.649102  0.750000  1
  Pb  Pb34  1  0.339856  0.149102  0.250000  1
  Pb  Pb35  1  0.839856  0.350898  0.250000  1
