# generated using pymatgen
data_TbThPd2Pb
_symmetry_space_group_name_H-M   'P 1'
_cell_length_a   8.05396100
_cell_length_b   8.03219600
_cell_length_c   3.71603600
_cell_angle_alpha   90.00000000
_cell_angle_beta   90.00000000
_cell_angle_gamma   90.00000000
_symmetry_Int_Tables_number   1
_chemical_formula_structural   TbThPd2Pb
_chemical_formula_sum   'Tb2 Th2 Pd4 Pb2'
_cell_volume   240.39406008
_cell_formula_units_Z   2
loop_
 _symmetry_equiv_pos_site_id
 _symmetry_equiv_pos_as_xyz
  1  'x, y, z'
loop_
 _atom_site_type_symbol
 _atom_site_label
 _atom_site_symmetry_multiplicity
 _atom_site_fract_x
 _atom_site_fract_y
 _atom_site_fract_z
 _atom_site_occupancy
  Tb  Tb0  1  0.827971  0.673911  0.500000  1
  Tb  Tb1  1  0.327971  0.826089  0.500000  1
  Th  Th2  1  0.671091  0.167813  0.500000  1
  Th  Th3  1  0.171091  0.332187  0.500000  1
  Pd  Pd4  1  0.373103  0.127215  0.000000  1
  Pd  Pd5  1  0.125310  0.622577  0.000000  1
  Pd  Pd6  1  0.625310  0.877423  0.000000  1
  Pd  Pd7  1  0.873103  0.372785  0.000000  1
  Pb  Pb8  1  0.002525  0.990722  0.000000  1
  Pb  Pb9  1  0.502525  0.509278  0.000000  1
