# generated using pymatgen
data_HoInCu3Ir
_symmetry_space_group_name_H-M   'P 1'
_cell_length_a   5.10317397
_cell_length_b   5.10317417
_cell_length_c   5.22297768
_cell_angle_alpha   60.75593865
_cell_angle_beta   60.75592658
_cell_angle_gamma   60.00000623
_symmetry_Int_Tables_number   1
_chemical_formula_structural   HoInCu3Ir
_chemical_formula_sum   'Ho1 In1 Cu3 Ir1'
_cell_volume   97.26415185
_cell_formula_units_Z   1
loop_
 _symmetry_equiv_pos_site_id
 _symmetry_equiv_pos_as_xyz
  1  'x, y, z'
loop_
 _atom_site_type_symbol
 _atom_site_label
 _atom_site_symmetry_multiplicity
 _atom_site_fract_x
 _atom_site_fract_y
 _atom_site_fract_z
 _atom_site_occupancy
  Ho  Ho0  1  0.748738  0.748738  0.753787  1
  In  In1  1  0.002524  0.002524  0.992429  1
  Cu  Cu2  1  0.375502  0.874463  0.374533  1
  Cu  Cu3  1  0.375502  0.375502  0.374533  1
  Cu  Cu4  1  0.874463  0.375502  0.374533  1
  Ir  Ir5  1  0.373272  0.373272  0.880183  1
