# generated using pymatgen
data_Cs14Tl5V2InAs10
_symmetry_space_group_name_H-M   'P 1'
_cell_length_a   8.81161409
_cell_length_b   9.66423001
_cell_length_c   14.73761800
_cell_angle_alpha   85.58762196
_cell_angle_beta   84.77395015
_cell_angle_gamma   85.82024898
_symmetry_Int_Tables_number   1
_chemical_formula_structural   Cs14Tl5V2InAs10
_chemical_formula_sum   'Cs14 Tl5 V2 In1 As10'
_cell_volume   1243.35111150
_cell_formula_units_Z   1
loop_
 _symmetry_equiv_pos_site_id
 _symmetry_equiv_pos_as_xyz
  1  'x, y, z'
loop_
 _atom_site_type_symbol
 _atom_site_label
 _atom_site_symmetry_multiplicity
 _atom_site_fract_x
 _atom_site_fract_y
 _atom_site_fract_z
 _atom_site_occupancy
  Cs  Cs0  1  0.816122  0.811871  0.128980  1
  Cs  Cs1  1  0.186540  0.188322  0.870422  1
  Cs  Cs2  1  0.271469  0.254830  0.252264  1
  Cs  Cs3  1  0.728142  0.746713  0.747662  1
  Cs  Cs4  1  0.742722  0.503107  0.974355  1
  Cs  Cs5  1  0.258535  0.497664  0.025365  1
  Cs  Cs6  1  0.682046  0.083268  0.884764  1
  Cs  Cs7  1  0.316442  0.917670  0.114217  1
  Cs  Cs8  1  0.681710  0.659815  0.398672  1
  Cs  Cs9  1  0.319930  0.338873  0.601994  1
  Cs  Cs10  1  0.755104  0.991189  0.532208  1
  Cs  Cs11  1  0.245423  0.010188  0.468950  1
  Cs  Cs12  1  0.830505  0.367190  0.644361  1
  Cs  Cs13  1  0.169548  0.632382  0.355678  1
  Tl  Tl14  1  0.909242  0.278597  0.380426  1
  Tl  Tl15  1  0.090307  0.719814  0.618929  1
  Tl  Tl16  1  0.945143  0.184324  0.127292  1
  Tl  Tl17  1  0.054067  0.815561  0.873250  1
  Tl  Tl18  1  0.631771  0.043912  0.296804  1
  V  V19  1  0.648204  0.392745  0.227484  1
  V  V20  1  0.350368  0.607510  0.772611  1
  In  In21  1  0.361146  0.946704  0.704964  1
  As  As22  1  0.495979  0.590058  0.193071  1
  As  As23  1  0.504938  0.412289  0.806804  1
  As  As24  1  0.909050  0.454774  0.210485  1
  As  As25  1  0.090161  0.545004  0.789632  1
  As  As26  1  0.580877  0.306094  0.385377  1
  As  As27  1  0.418532  0.697842  0.615328  1
  As  As28  1  0.617961  0.211892  0.123547  1
  As  As29  1  0.381317  0.791258  0.874596  1
  As  As30  1  0.972733  0.992363  0.300376  1
  As  As31  1  0.033964  0.006176  0.699133  1
