# generated using pymatgen
data_TbY(VB4)2
_symmetry_space_group_name_H-M   'P 1'
_cell_length_a   3.45686800
_cell_length_b   6.01883618
_cell_length_c   11.65656836
_cell_angle_alpha   89.97164981
_cell_angle_beta   90.00000000
_cell_angle_gamma   90.00000000
_symmetry_Int_Tables_number   1
_chemical_formula_structural   TbY(VB4)2
_chemical_formula_sum   'Tb2 Y2 V4 B16'
_cell_volume   242.53028732
_cell_formula_units_Z   2
loop_
 _symmetry_equiv_pos_site_id
 _symmetry_equiv_pos_as_xyz
  1  'x, y, z'
loop_
 _atom_site_type_symbol
 _atom_site_label
 _atom_site_symmetry_multiplicity
 _atom_site_fract_x
 _atom_site_fract_y
 _atom_site_fract_z
 _atom_site_occupancy
  Tb  Tb0  1  0.000000  0.624223  0.348462  1
  Tb  Tb1  1  0.000000  0.375777  0.651538  1
  Y  Y2  1  0.000000  0.124059  0.151578  1
  Y  Y3  1  0.000000  0.875941  0.848422  1
  V  V4  1  0.000000  0.126770  0.417337  1
  V  V5  1  0.000000  0.873230  0.582663  1
  V  V6  1  0.000000  0.626784  0.082613  1
  V  V7  1  0.000000  0.373216  0.917387  1
  B  B8  1  0.500000  0.476638  0.191828  1
  B  B9  1  0.500000  0.523362  0.808172  1
  B  B10  1  0.500000  0.976914  0.308010  1
  B  B11  1  0.500000  0.023086  0.691990  1
  B  B12  1  0.500000  0.285414  0.314338  1
  B  B13  1  0.500000  0.714586  0.685662  1
  B  B14  1  0.500000  0.785747  0.185515  1
  B  B15  1  0.500000  0.214253  0.814485  1
  B  B16  1  0.500000  0.363569  0.467276  1
  B  B17  1  0.500000  0.636431  0.532724  1
  B  B18  1  0.500000  0.863951  0.032665  1
  B  B19  1  0.500000  0.136049  0.967335  1
  B  B20  1  0.500000  0.385607  0.047249  1
  B  B21  1  0.500000  0.614393  0.952751  1
  B  B22  1  0.500000  0.885883  0.452827  1
  B  B23  1  0.500000  0.114117  0.547173  1
