# generated using pymatgen
data_Sc5Sn3P
_symmetry_space_group_name_H-M   'P 1'
_cell_length_a   8.59533800
_cell_length_b   8.59533695
_cell_length_c   6.19166800
_cell_angle_alpha   90.00000000
_cell_angle_beta   90.00000000
_cell_angle_gamma   119.99998866
_symmetry_Int_Tables_number   1
_chemical_formula_structural   Sc5Sn3P
_chemical_formula_sum   'Sc10 Sn6 P2'
_cell_volume   396.15414842
_cell_formula_units_Z   2
loop_
 _symmetry_equiv_pos_site_id
 _symmetry_equiv_pos_as_xyz
  1  'x, y, z'
loop_
 _atom_site_type_symbol
 _atom_site_label
 _atom_site_symmetry_multiplicity
 _atom_site_fract_x
 _atom_site_fract_y
 _atom_site_fract_z
 _atom_site_occupancy
  Sc  Sc0  1  0.666667  0.333333  0.000000  1
  Sc  Sc1  1  0.333333  0.666667  0.000000  1
  Sc  Sc2  1  0.333333  0.666667  0.500000  1
  Sc  Sc3  1  0.666667  0.333333  0.500000  1
  Sc  Sc4  1  0.758215  0.758215  0.750000  1
  Sc  Sc5  1  0.241785  0.000000  0.750000  1
  Sc  Sc6  1  0.000000  0.241785  0.750000  1
  Sc  Sc7  1  0.241785  0.241785  0.250000  1
  Sc  Sc8  1  0.758215  0.000000  0.250000  1
  Sc  Sc9  1  0.000000  0.758215  0.250000  1
  Sn  Sn10  1  0.398626  0.398626  0.750000  1
  Sn  Sn11  1  0.601374  0.000000  0.750000  1
  Sn  Sn12  1  0.000000  0.601374  0.750000  1
  Sn  Sn13  1  0.601374  0.601374  0.250000  1
  Sn  Sn14  1  0.398626  0.000000  0.250000  1
  Sn  Sn15  1  0.000000  0.398626  0.250000  1
  P  P16  1  0.000000  0.000000  0.000000  1
  P  P17  1  0.000000  0.000000  0.500000  1
