# generated using pymatgen
data_Lu2Re7Si4Tc
_symmetry_space_group_name_H-M   'P 1'
_cell_length_a   7.35401308
_cell_length_b   7.38631604
_cell_length_c   4.12750100
_cell_angle_alpha   90.00000000
_cell_angle_beta   90.00000000
_cell_angle_gamma   89.98550439
_symmetry_Int_Tables_number   1
_chemical_formula_structural   Lu2Re7Si4Tc
_chemical_formula_sum   'Lu2 Re7 Si4 Tc1'
_cell_volume   224.20198700
_cell_formula_units_Z   1
loop_
 _symmetry_equiv_pos_site_id
 _symmetry_equiv_pos_as_xyz
  1  'x, y, z'
loop_
 _atom_site_type_symbol
 _atom_site_label
 _atom_site_symmetry_multiplicity
 _atom_site_fract_x
 _atom_site_fract_y
 _atom_site_fract_z
 _atom_site_occupancy
  Lu  Lu0  1  0.500188  0.500410  0.000000  1
  Lu  Lu1  1  0.000139  0.000714  0.500000  1
  Re  Re2  1  0.158341  0.595544  0.500000  1
  Re  Re3  1  0.093551  0.339961  0.000000  1
  Re  Re4  1  0.907339  0.657126  0.000000  1
  Re  Re5  1  0.404929  0.841627  0.500000  1
  Re  Re6  1  0.592871  0.159103  0.500000  1
  Re  Re7  1  0.343275  0.094324  0.000000  1
  Re  Re8  1  0.840342  0.405143  0.500000  1
  Si  Si9  1  0.208919  0.792765  0.000000  1
  Si  Si10  1  0.790275  0.206429  0.000000  1
  Si  Si11  1  0.708721  0.709855  0.500000  1
  Si  Si12  1  0.290414  0.292634  0.500000  1
  Tc  Tc13  1  0.660696  0.904364  0.000000  1
