# generated using pymatgen
data_CaNd9(Si2Sn)2
_symmetry_space_group_name_H-M   'P 1'
_cell_length_a   9.16659846
_cell_length_b   9.16659855
_cell_length_c   9.16659717
_cell_angle_alpha   128.98835238
_cell_angle_beta   128.98833867
_cell_angle_gamma   75.02931887
_symmetry_Int_Tables_number   1
_chemical_formula_structural   CaNd9(Si2Sn)2
_chemical_formula_sum   'Ca1 Nd9 Si4 Sn2'
_cell_volume   453.12686377
_cell_formula_units_Z   1
loop_
 _symmetry_equiv_pos_site_id
 _symmetry_equiv_pos_as_xyz
  1  'x, y, z'
loop_
 _atom_site_type_symbol
 _atom_site_label
 _atom_site_symmetry_multiplicity
 _atom_site_fract_x
 _atom_site_fract_y
 _atom_site_fract_z
 _atom_site_occupancy
  Ca  Ca0  1  0.500000  0.500000  0.000000  1
  Nd  Nd1  1  0.535901  0.036517  0.851040  1
  Nd  Nd2  1  0.185478  0.684861  0.148960  1
  Nd  Nd3  1  0.036517  0.185478  0.500617  1
  Nd  Nd4  1  0.684861  0.535901  0.499383  1
  Nd  Nd5  1  0.464099  0.963483  0.148960  1
  Nd  Nd6  1  0.814522  0.315139  0.851040  1
  Nd  Nd7  1  0.963483  0.814522  0.499383  1
  Nd  Nd8  1  0.315139  0.464099  0.500617  1
  Nd  Nd9  1  0.000000  0.000000  0.000000  1
  Si  Si10  1  0.886486  0.382873  0.269359  1
  Si  Si11  1  0.113514  0.617127  0.730641  1
  Si  Si12  1  0.382873  0.113514  0.496388  1
  Si  Si13  1  0.617127  0.886486  0.503612  1
  Sn  Sn14  1  0.248100  0.248100  0.000000  1
  Sn  Sn15  1  0.751900  0.751900  0.000000  1
