# generated using pymatgen
data_Tb5Ho3Re2(B12Os)2
_symmetry_space_group_name_H-M   'P 1'
_cell_length_a   3.67478100
_cell_length_b   9.17163553
_cell_length_c   11.56401600
_cell_angle_alpha   90.14146248
_cell_angle_beta   90.00000000
_cell_angle_gamma   90.00000000
_symmetry_Int_Tables_number   1
_chemical_formula_structural   Tb5Ho3Re2(B12Os)2
_chemical_formula_sum   'Tb5 Ho3 Re2 B24 Os2'
_cell_volume   389.74953945
_cell_formula_units_Z   1
loop_
 _symmetry_equiv_pos_site_id
 _symmetry_equiv_pos_as_xyz
  1  'x, y, z'
loop_
 _atom_site_type_symbol
 _atom_site_label
 _atom_site_symmetry_multiplicity
 _atom_site_fract_x
 _atom_site_fract_y
 _atom_site_fract_z
 _atom_site_occupancy
  Tb  Tb0  1  0.000000  0.321101  0.412517  1
  Tb  Tb1  1  0.000000  0.678944  0.587656  1
  Tb  Tb2  1  0.000000  0.824472  0.084761  1
  Tb  Tb3  1  0.000000  0.175513  0.915059  1
  Tb  Tb4  1  0.000000  0.943297  0.370784  1
  Ho  Ho5  1  0.000000  0.056822  0.629650  1
  Ho  Ho6  1  0.000000  0.442456  0.128797  1
  Ho  Ho7  1  0.000000  0.557596  0.871117  1
  Re  Re8  1  0.000000  0.139098  0.179463  1
  Re  Re9  1  0.000000  0.861242  0.820196  1
  B  B10  1  0.500000  0.553778  0.432670  1
  B  B11  1  0.500000  0.446026  0.567394  1
  B  B12  1  0.500000  0.053355  0.067099  1
  B  B13  1  0.500000  0.946695  0.932753  1
  B  B14  1  0.500000  0.747972  0.418424  1
  B  B15  1  0.500000  0.251423  0.581625  1
  B  B16  1  0.500000  0.248849  0.081345  1
  B  B17  1  0.500000  0.751236  0.918611  1
  B  B18  1  0.500000  0.789911  0.266050  1
  B  B19  1  0.500000  0.209557  0.733803  1
  B  B20  1  0.500000  0.291628  0.234262  1
  B  B21  1  0.500000  0.708593  0.765693  1
  B  B22  1  0.500000  0.630524  0.186230  1
  B  B23  1  0.500000  0.369340  0.813682  1
  B  B24  1  0.500000  0.131696  0.314312  1
  B  B25  1  0.500000  0.868815  0.685475  1
  B  B26  1  0.500000  0.983433  0.212270  1
  B  B27  1  0.500000  0.016933  0.787271  1
  B  B28  1  0.500000  0.483301  0.287766  1
  B  B29  1  0.500000  0.516611  0.712196  1
  B  B30  1  0.500000  0.602756  0.028699  1
  B  B31  1  0.500000  0.397245  0.971272  1
  B  B32  1  0.500000  0.104134  0.471892  1
  B  B33  1  0.500000  0.896372  0.529178  1
  Os  Os34  1  0.000000  0.636890  0.321483  1
  Os  Os35  1  0.000000  0.362385  0.678546  1
