# generated using pymatgen
data_VW(SeO3)4
_symmetry_space_group_name_H-M   'P 1'
_cell_length_a   8.39283800
_cell_length_b   8.37347203
_cell_length_c   8.18850723
_cell_angle_alpha   88.95122632
_cell_angle_beta   90.00000000
_cell_angle_gamma   90.00000000
_symmetry_Int_Tables_number   1
_chemical_formula_structural   VW(SeO3)4
_chemical_formula_sum   'V2 W2 Se8 O24'
_cell_volume   575.36890877
_cell_formula_units_Z   2
loop_
 _symmetry_equiv_pos_site_id
 _symmetry_equiv_pos_as_xyz
  1  'x, y, z'
loop_
 _atom_site_type_symbol
 _atom_site_label
 _atom_site_symmetry_multiplicity
 _atom_site_fract_x
 _atom_site_fract_y
 _atom_site_fract_z
 _atom_site_occupancy
  V  V0  1  0.000000  0.500000  0.000000  1
  V  V1  1  0.500000  0.500000  0.500000  1
  W  W2  1  0.000000  0.000000  0.500000  1
  W  W3  1  0.500000  0.000000  0.000000  1
  Se  Se4  1  0.318299  0.658450  0.175259  1
  Se  Se5  1  0.818299  0.341550  0.324741  1
  Se  Se6  1  0.665313  0.816341  0.672507  1
  Se  Se7  1  0.165313  0.183659  0.827493  1
  Se  Se8  1  0.681701  0.341550  0.824741  1
  Se  Se9  1  0.181701  0.658450  0.675259  1
  Se  Se10  1  0.334687  0.183659  0.327493  1
  Se  Se11  1  0.834687  0.816341  0.172507  1
  O  O12  1  0.238072  0.532293  0.036298  1
  O  O13  1  0.738072  0.467707  0.463702  1
  O  O14  1  0.765897  0.944215  0.535592  1
  O  O15  1  0.265897  0.055785  0.964408  1
  O  O16  1  0.536008  0.957927  0.759690  1
  O  O17  1  0.465927  0.541400  0.255129  1
  O  O18  1  0.965927  0.458600  0.244871  1
  O  O19  1  0.036008  0.042073  0.740310  1
  O  O20  1  0.937614  0.223096  0.467087  1
  O  O21  1  0.533175  0.738036  0.539015  1
  O  O22  1  0.437614  0.776904  0.032913  1
  O  O23  1  0.033175  0.261964  0.960985  1
  O  O24  1  0.761928  0.467707  0.963702  1
  O  O25  1  0.261928  0.532293  0.536298  1
  O  O26  1  0.234103  0.055785  0.464408  1
  O  O27  1  0.734103  0.944215  0.035592  1
  O  O28  1  0.463992  0.042073  0.240310  1
  O  O29  1  0.534073  0.458600  0.744871  1
  O  O30  1  0.034073  0.541400  0.755129  1
  O  O31  1  0.963992  0.957927  0.259690  1
  O  O32  1  0.062386  0.776904  0.532913  1
  O  O33  1  0.466825  0.261964  0.460985  1
  O  O34  1  0.562386  0.223096  0.967087  1
  O  O35  1  0.966825  0.738036  0.039015  1
