# generated using pymatgen
data_Tb7YAl3Fe
_symmetry_space_group_name_H-M   'P 1'
_cell_length_a   10.26919900
_cell_length_b   10.26919993
_cell_length_c   6.85327900
_cell_angle_alpha   90.00000000
_cell_angle_beta   90.00000000
_cell_angle_gamma   120.00000021
_symmetry_Int_Tables_number   1
_chemical_formula_structural   Tb7YAl3Fe
_chemical_formula_sum   'Tb14 Y2 Al6 Fe2'
_cell_volume   625.89606684
_cell_formula_units_Z   2
loop_
 _symmetry_equiv_pos_site_id
 _symmetry_equiv_pos_as_xyz
  1  'x, y, z'
loop_
 _atom_site_type_symbol
 _atom_site_label
 _atom_site_symmetry_multiplicity
 _atom_site_fract_x
 _atom_site_fract_y
 _atom_site_fract_z
 _atom_site_occupancy
  Tb  Tb0  1  0.174940  0.825060  0.997880  1
  Tb  Tb1  1  0.825060  0.174940  0.497880  1
  Tb  Tb2  1  0.174940  0.349880  0.997880  1
  Tb  Tb3  1  0.650120  0.825060  0.997880  1
  Tb  Tb4  1  0.349880  0.174940  0.497880  1
  Tb  Tb5  1  0.825060  0.650120  0.497880  1
  Tb  Tb6  1  0.333333  0.666667  0.669464  1
  Tb  Tb7  1  0.666667  0.333333  0.169464  1
  Tb  Tb8  1  0.466076  0.533924  0.290490  1
  Tb  Tb9  1  0.533924  0.466076  0.790490  1
  Tb  Tb10  1  0.466076  0.932152  0.290490  1
  Tb  Tb11  1  0.067848  0.533924  0.290490  1
  Tb  Tb12  1  0.932152  0.466076  0.790490  1
  Tb  Tb13  1  0.533924  0.067848  0.790490  1
  Y  Y14  1  0.000000  0.000000  0.276704  1
  Y  Y15  1  0.000000  0.000000  0.776704  1
  Al  Al16  1  0.162459  0.837541  0.532025  1
  Al  Al17  1  0.837541  0.162459  0.032025  1
  Al  Al18  1  0.162459  0.324921  0.532025  1
  Al  Al19  1  0.675079  0.837541  0.532025  1
  Al  Al20  1  0.324921  0.162459  0.032025  1
  Al  Al21  1  0.837541  0.675079  0.032025  1
  Fe  Fe22  1  0.333333  0.666667  0.065711  1
  Fe  Fe23  1  0.666667  0.333333  0.565711  1
