# generated using pymatgen
data_Dy2Ho4ScCrO12
_symmetry_space_group_name_H-M   'P 1'
_cell_length_a   6.54345311
_cell_length_b   6.54164666
_cell_length_c   6.54298526
_cell_angle_alpha   92.61855230
_cell_angle_beta   92.62759296
_cell_angle_gamma   92.63622616
_symmetry_Int_Tables_number   1
_chemical_formula_structural   Dy2Ho4ScCrO12
_chemical_formula_sum   'Dy2 Ho4 Sc1 Cr1 O12'
_cell_volume   279.16089891
_cell_formula_units_Z   1
loop_
 _symmetry_equiv_pos_site_id
 _symmetry_equiv_pos_as_xyz
  1  'x, y, z'
loop_
 _atom_site_type_symbol
 _atom_site_label
 _atom_site_symmetry_multiplicity
 _atom_site_fract_x
 _atom_site_fract_y
 _atom_site_fract_z
 _atom_site_occupancy
  Dy  Dy0  1  0.742971  0.927258  0.436345  1
  Dy  Dy1  1  0.927453  0.436790  0.743334  1
  Ho  Ho2  1  0.436414  0.743347  0.927367  1
  Ho  Ho3  1  0.257004  0.072682  0.563487  1
  Ho  Ho4  1  0.073231  0.563342  0.256732  1
  Ho  Ho5  1  0.562989  0.257024  0.072710  1
  Sc  Sc6  1  0.000506  0.000056  0.000310  1
  Cr  Cr7  1  0.499661  0.500022  0.499847  1
  O  O8  1  0.587416  0.461176  0.799897  1
  O  O9  1  0.460059  0.799313  0.589237  1
  O  O10  1  0.799362  0.587875  0.460056  1
  O  O11  1  0.411326  0.538859  0.200185  1
  O  O12  1  0.537957  0.200875  0.411137  1
  O  O13  1  0.200794  0.411110  0.537824  1
  O  O14  1  0.069623  0.913973  0.308365  1
  O  O15  1  0.913830  0.308178  0.069839  1
  O  O16  1  0.691566  0.931602  0.084597  1
  O  O17  1  0.086611  0.692252  0.932362  1
  O  O18  1  0.932594  0.085403  0.692319  1
  O  O19  1  0.308635  0.068864  0.914049  1
