# generated using pymatgen
data_KBa8Ca3(TcN4)4
_symmetry_space_group_name_H-M   'P 1'
_cell_length_a   10.91709584
_cell_length_b   10.56401732
_cell_length_c   8.09781935
_cell_angle_alpha   70.18747756
_cell_angle_beta   65.55785180
_cell_angle_gamma   44.49580390
_symmetry_Int_Tables_number   1
_chemical_formula_structural   KBa8Ca3(TcN4)4
_chemical_formula_sum   'K1 Ba8 Ca3 Tc4 N16'
_cell_volume   594.47093629
_cell_formula_units_Z   1
loop_
 _symmetry_equiv_pos_site_id
 _symmetry_equiv_pos_as_xyz
  1  'x, y, z'
loop_
 _atom_site_type_symbol
 _atom_site_label
 _atom_site_symmetry_multiplicity
 _atom_site_fract_x
 _atom_site_fract_y
 _atom_site_fract_z
 _atom_site_occupancy
  K  K0  1  0.347484  0.347484  0.652516  1
  Ba  Ba1  1  0.567803  0.940682  0.918938  1
  Ba  Ba2  1  0.940682  0.567803  0.572577  1
  Ba  Ba3  1  0.314385  0.683106  0.679380  1
  Ba  Ba4  1  0.110020  0.110020  0.889980  1
  Ba  Ba5  1  0.140531  0.140531  0.359469  1
  Ba  Ba6  1  0.363899  0.363899  0.136101  1
  Ba  Ba7  1  0.683106  0.314385  0.323129  1
  Ba  Ba8  1  0.884558  0.884558  0.115442  1
  Ca  Ca9  1  0.913359  0.913359  0.586641  1
  Ca  Ca10  1  0.659309  0.659309  0.340691  1
  Ca  Ca11  1  0.588436  0.588436  0.911564  1
  Tc  Tc12  1  0.500429  0.999029  0.487122  1
  Tc  Tc13  1  0.999029  0.500429  0.013420  1
  Tc  Tc14  1  0.766691  0.234030  0.760197  1
  Tc  Tc15  1  0.234030  0.766691  0.239082  1
  N  N16  1  0.997382  0.670550  0.841358  1
  N  N17  1  0.714954  0.280711  0.995045  1
  N  N18  1  0.670550  0.997382  0.490709  1
  N  N19  1  0.524627  0.813669  0.648425  1
  N  N20  1  0.185123  0.631825  0.407749  1
  N  N21  1  0.728018  0.420576  0.588951  1
  N  N22  1  0.008814  0.021847  0.696926  1
  N  N23  1  0.546807  0.964089  0.250442  1
  N  N24  1  0.420576  0.728018  0.262456  1
  N  N25  1  0.964089  0.546807  0.238661  1
  N  N26  1  0.280711  0.714954  0.009291  1
  N  N27  1  0.813669  0.524627  0.013278  1
  N  N28  1  0.212818  0.264439  0.978611  1
  N  N29  1  0.631825  0.185123  0.775303  1
  N  N30  1  0.264439  0.212818  0.544132  1
  N  N31  1  0.021847  0.008814  0.272414  1
