# generated using pymatgen
data_Ac3Dy(B2Ir5)2
_symmetry_space_group_name_H-M   'P 1'
_cell_length_a   11.27351944
_cell_length_b   11.27351879
_cell_length_c   11.27352030
_cell_angle_alpha   28.76937903
_cell_angle_beta   28.76938451
_cell_angle_gamma   28.76938965
_symmetry_Int_Tables_number   1
_chemical_formula_structural   Ac3Dy(B2Ir5)2
_chemical_formula_sum   'Ac3 Dy1 B4 Ir10'
_cell_volume   293.44970817
_cell_formula_units_Z   1
loop_
 _symmetry_equiv_pos_site_id
 _symmetry_equiv_pos_as_xyz
  1  'x, y, z'
loop_
 _atom_site_type_symbol
 _atom_site_label
 _atom_site_symmetry_multiplicity
 _atom_site_fract_x
 _atom_site_fract_y
 _atom_site_fract_z
 _atom_site_occupancy
  Ac  Ac0  1  0.149996  0.149996  0.149996  1
  Ac  Ac1  1  0.951213  0.951213  0.951213  1
  Ac  Ac2  1  0.848454  0.848454  0.848454  1
  Dy  Dy3  1  0.049496  0.049496  0.049496  1
  B  B4  1  0.618872  0.618872  0.618872  1
  B  B5  1  0.716456  0.716456  0.716456  1
  B  B6  1  0.381266  0.381266  0.381266  1
  B  B7  1  0.284123  0.284123  0.284123  1
  Ir  Ir8  1  0.409954  0.898765  0.409954  1
  Ir  Ir9  1  0.898765  0.409954  0.409954  1
  Ir  Ir10  1  0.501502  0.501502  0.000670  1
  Ir  Ir11  1  0.501502  0.000670  0.501502  1
  Ir  Ir12  1  0.000670  0.501502  0.501502  1
  Ir  Ir13  1  0.499584  0.499584  0.499584  1
  Ir  Ir14  1  0.588754  0.100683  0.588754  1
  Ir  Ir15  1  0.588754  0.588754  0.100683  1
  Ir  Ir16  1  0.100683  0.588754  0.588754  1
  Ir  Ir17  1  0.409954  0.409954  0.898765  1
