# generated using pymatgen
data_TbAlWO6
_symmetry_space_group_name_H-M   'P 1'
_cell_length_a   5.20984200
_cell_length_b   7.32023900
_cell_length_c   10.82178700
_cell_angle_alpha   90.00000000
_cell_angle_beta   90.00000000
_cell_angle_gamma   90.00000000
_symmetry_Int_Tables_number   1
_chemical_formula_structural   TbAlWO6
_chemical_formula_sum   'Tb4 Al4 W4 O24'
_cell_volume   412.71361390
_cell_formula_units_Z   4
loop_
 _symmetry_equiv_pos_site_id
 _symmetry_equiv_pos_as_xyz
  1  'x, y, z'
loop_
 _atom_site_type_symbol
 _atom_site_label
 _atom_site_symmetry_multiplicity
 _atom_site_fract_x
 _atom_site_fract_y
 _atom_site_fract_z
 _atom_site_occupancy
  Tb  Tb0  1  0.953257  0.252740  0.044631  1
  Tb  Tb1  1  0.453257  0.752740  0.455369  1
  Tb  Tb2  1  0.546744  0.252740  0.544632  1
  Tb  Tb3  1  0.046742  0.752740  0.955369  1
  Al  Al4  1  0.454054  0.507126  0.136488  1
  Al  Al5  1  0.954055  0.007125  0.363513  1
  Al  Al6  1  0.045946  0.507126  0.636489  1
  Al  Al7  1  0.545945  0.007125  0.863512  1
  W  W8  1  0.446614  0.998334  0.144292  1
  W  W9  1  0.946612  0.498335  0.355706  1
  W  W10  1  0.053387  0.998334  0.644293  1
  W  W11  1  0.553387  0.498335  0.855707  1
  O  O12  1  0.736571  0.541842  0.024276  1
  O  O13  1  0.733253  0.962503  0.023930  1
  O  O14  1  0.336165  0.749218  0.120897  1
  O  O15  1  0.553487  0.253472  0.143816  1
  O  O16  1  0.121729  0.063006  0.213407  1
  O  O17  1  0.130333  0.441863  0.212021  1
  O  O18  1  0.630334  0.941862  0.287979  1
  O  O19  1  0.621729  0.563007  0.286594  1
  O  O20  1  0.053489  0.753474  0.356183  1
  O  O21  1  0.836164  0.249218  0.379102  1
  O  O22  1  0.233250  0.462502  0.476071  1
  O  O23  1  0.236570  0.041842  0.475724  1
  O  O24  1  0.763431  0.541842  0.524277  1
  O  O25  1  0.766749  0.962503  0.523929  1
  O  O26  1  0.163837  0.749218  0.620898  1
  O  O27  1  0.946512  0.253472  0.643816  1
  O  O28  1  0.378270  0.063006  0.713408  1
  O  O29  1  0.369667  0.441863  0.712021  1
  O  O30  1  0.869668  0.941862  0.787979  1
  O  O31  1  0.878270  0.563007  0.786593  1
  O  O32  1  0.446513  0.753474  0.856184  1
  O  O33  1  0.663836  0.249218  0.879102  1
  O  O34  1  0.266748  0.462502  0.976071  1
  O  O35  1  0.263430  0.041842  0.975724  1
