# generated using pymatgen
data_Sc2Fe11ReP7
_symmetry_space_group_name_H-M   'P 1'
_cell_length_a   8.89915000
_cell_length_b   8.89208324
_cell_length_c   3.58089800
_cell_angle_alpha   90.00000000
_cell_angle_beta   90.00000000
_cell_angle_gamma   120.05290979
_symmetry_Int_Tables_number   1
_chemical_formula_structural   Sc2Fe11ReP7
_chemical_formula_sum   'Sc2 Fe11 Re1 P7'
_cell_volume   245.26909922
_cell_formula_units_Z   1
loop_
 _symmetry_equiv_pos_site_id
 _symmetry_equiv_pos_as_xyz
  1  'x, y, z'
loop_
 _atom_site_type_symbol
 _atom_site_label
 _atom_site_symmetry_multiplicity
 _atom_site_fract_x
 _atom_site_fract_y
 _atom_site_fract_z
 _atom_site_occupancy
  Sc  Sc0  1  0.002837  0.999368  0.000000  1
  Sc  Sc1  1  0.664964  0.332005  0.500000  1
  Fe  Fe2  1  0.390773  0.297671  0.000000  1
  Fe  Fe3  1  0.905140  0.609619  0.000000  1
  Fe  Fe4  1  0.707916  0.098665  0.000000  1
  Fe  Fe5  1  0.611304  0.782993  0.000000  1
  Fe  Fe6  1  0.172933  0.387957  0.000000  1
  Fe  Fe7  1  0.212454  0.821452  0.000000  1
  Fe  Fe8  1  0.768029  0.714007  0.500000  1
  Fe  Fe9  1  0.948688  0.233738  0.500000  1
  Fe  Fe10  1  0.280558  0.052279  0.500000  1
  Fe  Fe11  1  0.428041  0.546450  0.500000  1
  Fe  Fe12  1  0.115893  0.572325  0.500000  1
  Re  Re13  1  0.452947  0.883270  0.500000  1
  P  P14  1  0.630921  0.546928  0.000000  1
  P  P15  1  0.918301  0.373348  0.000000  1
  P  P16  1  0.449374  0.085640  0.000000  1
  P  P17  1  0.747872  0.956163  0.500000  1
  P  P18  1  0.217164  0.260795  0.500000  1
  P  P19  1  0.043033  0.784401  0.500000  1
  P  P20  1  0.330857  0.660925  0.000000  1
