# generated using pymatgen
data_La4(SCl2)3
_symmetry_space_group_name_H-M   'P 1'
_cell_length_a   15.04019924
_cell_length_b   15.04019813
_cell_length_c   7.12926678
_cell_angle_alpha   85.20489130
_cell_angle_beta   85.20489144
_cell_angle_gamma   26.15472114
_symmetry_Int_Tables_number   1
_chemical_formula_structural   La4(SCl2)3
_chemical_formula_sum   'La8 S6 Cl12'
_cell_volume   708.24762448
_cell_formula_units_Z   2
loop_
 _symmetry_equiv_pos_site_id
 _symmetry_equiv_pos_as_xyz
  1  'x, y, z'
loop_
 _atom_site_type_symbol
 _atom_site_label
 _atom_site_symmetry_multiplicity
 _atom_site_fract_x
 _atom_site_fract_y
 _atom_site_fract_z
 _atom_site_occupancy
  La  La0  1  0.238245  0.646597  0.982597  1
  La  La1  1  0.471370  0.877516  0.901780  1
  La  La2  1  0.528630  0.122484  0.098220  1
  La  La3  1  0.761755  0.353403  0.017403  1
  La  La4  1  0.122484  0.528630  0.598220  1
  La  La5  1  0.646597  0.238245  0.482597  1
  La  La6  1  0.877516  0.471370  0.401780  1
  La  La7  1  0.353403  0.761755  0.517403  1
  S  S8  1  0.433177  0.330076  0.791360  1
  S  S9  1  0.552613  0.447387  0.750000  1
  S  S10  1  0.669924  0.566823  0.708640  1
  S  S11  1  0.566823  0.669924  0.208640  1
  S  S12  1  0.330076  0.433177  0.291360  1
  S  S13  1  0.447387  0.552613  0.250000  1
  Cl  Cl14  1  0.843127  0.054034  0.114022  1
  Cl  Cl15  1  0.156873  0.945966  0.885978  1
  Cl  Cl16  1  0.756254  0.932638  0.439887  1
  Cl  Cl17  1  0.816114  0.654587  0.680367  1
  Cl  Cl18  1  0.067362  0.243746  0.060113  1
  Cl  Cl19  1  0.243746  0.067362  0.560113  1
  Cl  Cl20  1  0.945966  0.156873  0.385978  1
  Cl  Cl21  1  0.054034  0.843127  0.614022  1
  Cl  Cl22  1  0.932638  0.756254  0.939887  1
  Cl  Cl23  1  0.345413  0.183886  0.819633  1
  Cl  Cl24  1  0.654587  0.816114  0.180367  1
  Cl  Cl25  1  0.183886  0.345413  0.319633  1
