# generated using pymatgen
data_Zn20Cu2NiPd3
_symmetry_space_group_name_H-M   'P 1'
_cell_length_a   7.83866208
_cell_length_b   7.83866151
_cell_length_c   7.85023710
_cell_angle_alpha   70.56803423
_cell_angle_beta   70.56803725
_cell_angle_gamma   109.44856689
_symmetry_Int_Tables_number   1
_chemical_formula_structural   Zn20Cu2NiPd3
_chemical_formula_sum   'Zn20 Cu2 Ni1 Pd3'
_cell_volume   371.77978792
_cell_formula_units_Z   1
loop_
 _symmetry_equiv_pos_site_id
 _symmetry_equiv_pos_as_xyz
  1  'x, y, z'
loop_
 _atom_site_type_symbol
 _atom_site_label
 _atom_site_symmetry_multiplicity
 _atom_site_fract_x
 _atom_site_fract_y
 _atom_site_fract_z
 _atom_site_occupancy
  Zn  Zn0  1  0.005233  0.005233  0.796760  1
  Zn  Zn1  1  0.773649  0.773649  0.233278  1
  Zn  Zn2  1  0.219651  0.999530  0.001988  1
  Zn  Zn3  1  0.999530  0.219651  0.001988  1
  Zn  Zn4  1  0.250807  0.250807  0.397800  1
  Zn  Zn5  1  0.008746  0.753636  0.640542  1
  Zn  Zn6  1  0.753636  0.008746  0.640542  1
  Zn  Zn7  1  0.655769  0.655769  0.628381  1
  Zn  Zn8  1  0.361975  0.639536  0.347936  1
  Zn  Zn9  1  0.639536  0.361975  0.347936  1
  Zn  Zn10  1  0.359645  0.737838  0.974631  1
  Zn  Zn11  1  0.626815  0.265443  0.716167  1
  Zn  Zn12  1  0.350089  0.006760  0.274776  1
  Zn  Zn13  1  0.737838  0.359645  0.974631  1
  Zn  Zn14  1  0.006760  0.350089  0.274776  1
  Zn  Zn15  1  0.265443  0.626815  0.716167  1
  Zn  Zn16  1  0.640200  0.640200  0.005372  1
  Zn  Zn17  1  0.999084  0.643553  0.363673  1
  Zn  Zn18  1  0.643553  0.999084  0.363673  1
  Zn  Zn19  1  0.352109  0.352109  0.008522  1
  Cu  Cu20  1  0.997065  0.356626  0.643444  1
  Cu  Cu21  1  0.356626  0.997065  0.643444  1
  Ni  Ni22  1  0.999573  0.999573  0.336766  1
  Pd  Pd23  1  0.355552  0.355552  0.651589  1
  Pd  Pd24  1  0.647613  0.993504  0.007607  1
  Pd  Pd25  1  0.993504  0.647613  0.007607  1
