# generated using pymatgen
data_DyHo2Sc2(In2Ni)2
_symmetry_space_group_name_H-M   'P 1'
_cell_length_a   3.54768700
_cell_length_b   7.83689000
_cell_length_c   17.49983100
_cell_angle_alpha   90.00000000
_cell_angle_beta   90.00000000
_cell_angle_gamma   90.00000000
_symmetry_Int_Tables_number   1
_chemical_formula_structural   DyHo2Sc2(In2Ni)2
_chemical_formula_sum   'Dy2 Ho4 Sc4 In8 Ni4'
_cell_volume   486.54487486
_cell_formula_units_Z   2
loop_
 _symmetry_equiv_pos_site_id
 _symmetry_equiv_pos_as_xyz
  1  'x, y, z'
loop_
 _atom_site_type_symbol
 _atom_site_label
 _atom_site_symmetry_multiplicity
 _atom_site_fract_x
 _atom_site_fract_y
 _atom_site_fract_z
 _atom_site_occupancy
  Dy  Dy0  1  0.000000  0.000000  0.000000  1
  Dy  Dy1  1  0.000000  0.500000  0.500000  1
  Ho  Ho2  1  0.000000  0.244356  0.215708  1
  Ho  Ho3  1  0.000000  0.755644  0.784292  1
  Ho  Ho4  1  0.000000  0.255644  0.715708  1
  Ho  Ho5  1  0.000000  0.744356  0.284292  1
  Sc  Sc6  1  0.000000  0.119859  0.408295  1
  Sc  Sc7  1  0.000000  0.880141  0.591705  1
  Sc  Sc8  1  0.000000  0.380141  0.908295  1
  Sc  Sc9  1  0.000000  0.619859  0.091705  1
  In  In10  1  0.500000  0.414930  0.347132  1
  In  In11  1  0.500000  0.585070  0.652868  1
  In  In12  1  0.500000  0.085070  0.847132  1
  In  In13  1  0.500000  0.914930  0.152868  1
  In  In14  1  0.500000  0.315254  0.060304  1
  In  In15  1  0.500000  0.684746  0.939696  1
  In  In16  1  0.500000  0.184746  0.560304  1
  In  In17  1  0.500000  0.815254  0.439696  1
  Ni  Ni18  1  0.500000  0.031326  0.306553  1
  Ni  Ni19  1  0.500000  0.968674  0.693447  1
  Ni  Ni20  1  0.500000  0.468674  0.806553  1
  Ni  Ni21  1  0.500000  0.531326  0.193447  1
