# generated using pymatgen
data_Sr2NbMoO6
_symmetry_space_group_name_H-M   'P 1'
_cell_length_a   5.79082600
_cell_length_b   5.78507882
_cell_length_c   10.01458020
_cell_angle_alpha   54.59953138
_cell_angle_beta   90.00000000
_cell_angle_gamma   90.00000000
_symmetry_Int_Tables_number   1
_chemical_formula_structural   Sr2NbMoO6
_chemical_formula_sum   'Sr4 Nb2 Mo2 O12'
_cell_volume   273.46750199
_cell_formula_units_Z   2
loop_
 _symmetry_equiv_pos_site_id
 _symmetry_equiv_pos_as_xyz
  1  'x, y, z'
loop_
 _atom_site_type_symbol
 _atom_site_label
 _atom_site_symmetry_multiplicity
 _atom_site_fract_x
 _atom_site_fract_y
 _atom_site_fract_z
 _atom_site_occupancy
  Sr  Sr0  1  0.474794  0.756126  0.249634  1
  Sr  Sr1  1  0.525206  0.243874  0.750366  1
  Sr  Sr2  1  0.974794  0.243874  0.250366  1
  Sr  Sr3  1  0.025206  0.756126  0.749634  1
  Nb  Nb4  1  0.000000  0.500000  0.500000  1
  Nb  Nb5  1  0.500000  0.500000  0.000000  1
  Mo  Mo6  1  0.000000  0.000000  0.000000  1
  Mo  Mo7  1  0.500000  0.000000  0.500000  1
  O  O8  1  0.713414  0.192640  0.036061  1
  O  O9  1  0.286586  0.807360  0.963939  1
  O  O10  1  0.213414  0.807360  0.463939  1
  O  O11  1  0.786586  0.192640  0.536061  1
  O  O12  1  0.013651  0.672055  0.258016  1
  O  O13  1  0.986349  0.327945  0.741984  1
  O  O14  1  0.513651  0.327945  0.241984  1
  O  O15  1  0.486349  0.672055  0.758016  1
  O  O16  1  0.227248  0.250530  0.037803  1
  O  O17  1  0.772752  0.749470  0.962197  1
  O  O18  1  0.727248  0.749470  0.462197  1
  O  O19  1  0.272752  0.250530  0.537803  1
