# generated using pymatgen
data_La8Yb11DySi16
_symmetry_space_group_name_H-M   'P 1'
_cell_length_a   7.51863422
_cell_length_b   7.94999442
_cell_length_c   15.17898100
_cell_angle_alpha   89.97896270
_cell_angle_beta   90.01387694
_cell_angle_gamma   89.97297876
_symmetry_Int_Tables_number   1
_chemical_formula_structural   La8Yb11DySi16
_chemical_formula_sum   'La8 Yb11 Dy1 Si16'
_cell_volume   907.29456205
_cell_formula_units_Z   1
loop_
 _symmetry_equiv_pos_site_id
 _symmetry_equiv_pos_as_xyz
  1  'x, y, z'
loop_
 _atom_site_type_symbol
 _atom_site_label
 _atom_site_symmetry_multiplicity
 _atom_site_fract_x
 _atom_site_fract_y
 _atom_site_fract_z
 _atom_site_occupancy
  La  La0  1  0.025240  0.183228  0.401103  1
  La  La1  1  0.525348  0.316718  0.401827  1
  La  La2  1  0.472331  0.685312  0.900643  1
  La  La3  1  0.473141  0.685164  0.599086  1
  La  La4  1  0.973598  0.814982  0.598504  1
  La  La5  1  0.972551  0.814474  0.900455  1
  La  La6  1  0.527006  0.316195  0.099377  1
  La  La7  1  0.025894  0.185203  0.096685  1
  Yb  Yb8  1  0.320785  0.181492  0.622942  1
  Yb  Yb9  1  0.679163  0.818882  0.376974  1
  Yb  Yb10  1  0.644721  0.005294  0.749968  1
  Yb  Yb11  1  0.180769  0.681218  0.376847  1
  Yb  Yb12  1  0.820023  0.318941  0.877760  1
  Yb  Yb13  1  0.820787  0.318481  0.622591  1
  Yb  Yb14  1  0.858384  0.500818  0.251483  1
  Yb  Yb15  1  0.351170  0.999245  0.251048  1
  Yb  Yb16  1  0.320547  0.180333  0.879277  1
  Yb  Yb17  1  0.179621  0.682433  0.121645  1
  Yb  Yb18  1  0.143687  0.494056  0.749935  1
  Dy  Dy19  1  0.678677  0.816566  0.123812  1
  Si  Si20  1  0.256922  0.876128  0.750665  1
  Si  Si21  1  0.472893  0.596539  0.247329  1
  Si  Si22  1  0.031127  0.092858  0.750618  1
  Si  Si23  1  0.530323  0.406416  0.751067  1
  Si  Si24  1  0.143443  0.471509  0.536480  1
  Si  Si25  1  0.965511  0.903419  0.245820  1
  Si  Si26  1  0.741332  0.120160  0.246995  1
  Si  Si27  1  0.853170  0.533642  0.038175  1
  Si  Si28  1  0.364212  0.970757  0.040235  1
  Si  Si29  1  0.139803  0.472848  0.963092  1
  Si  Si30  1  0.642662  0.028265  0.536702  1
  Si  Si31  1  0.357000  0.972889  0.462461  1
  Si  Si32  1  0.858187  0.527382  0.462042  1
  Si  Si33  1  0.755923  0.624171  0.750405  1
  Si  Si34  1  0.245741  0.378271  0.249140  1
  Si  Si35  1  0.648310  0.025710  0.966814  1
