# generated using pymatgen
data_LiEu2InPt2
_symmetry_space_group_name_H-M   'P 1'
_cell_length_a   4.27665100
_cell_length_b   7.38635100
_cell_length_c   8.74374200
_cell_angle_alpha   90.00000000
_cell_angle_beta   90.00000000
_cell_angle_gamma   90.00000000
_symmetry_Int_Tables_number   1
_chemical_formula_structural   LiEu2InPt2
_chemical_formula_sum   'Li2 Eu4 In2 Pt4'
_cell_volume   276.20471417
_cell_formula_units_Z   2
loop_
 _symmetry_equiv_pos_site_id
 _symmetry_equiv_pos_as_xyz
  1  'x, y, z'
loop_
 _atom_site_type_symbol
 _atom_site_label
 _atom_site_symmetry_multiplicity
 _atom_site_fract_x
 _atom_site_fract_y
 _atom_site_fract_z
 _atom_site_occupancy
  Li  Li0  1  0.250000  0.632691  0.560833  1
  Li  Li1  1  0.250000  0.132691  0.939167  1
  Eu  Eu2  1  0.750000  0.459495  0.822511  1
  Eu  Eu3  1  0.250000  0.036917  0.322993  1
  Eu  Eu4  1  0.750000  0.959495  0.677489  1
  Eu  Eu5  1  0.250000  0.536917  0.177007  1
  In  In6  1  0.750000  0.370852  0.441451  1
  In  In7  1  0.750000  0.870852  0.058549  1
  Pt  Pt8  1  0.250000  0.760129  0.874342  1
  Pt  Pt9  1  0.250000  0.260129  0.625658  1
  Pt  Pt10  1  0.750000  0.739917  0.371752  1
  Pt  Pt11  1  0.750000  0.239917  0.128248  1
