# generated using pymatgen
data_Pr5RuPb2
_symmetry_space_group_name_H-M   'P 1'
_cell_length_a   8.34299200
_cell_length_b   9.29283700
_cell_length_c   12.95554800
_cell_angle_alpha   90.00000000
_cell_angle_beta   90.00000000
_cell_angle_gamma   90.00000000
_symmetry_Int_Tables_number   1
_chemical_formula_structural   Pr5RuPb2
_chemical_formula_sum   'Pr20 Ru4 Pb8'
_cell_volume   1004.44447529
_cell_formula_units_Z   4
loop_
 _symmetry_equiv_pos_site_id
 _symmetry_equiv_pos_as_xyz
  1  'x, y, z'
loop_
 _atom_site_type_symbol
 _atom_site_label
 _atom_site_symmetry_multiplicity
 _atom_site_fract_x
 _atom_site_fract_y
 _atom_site_fract_z
 _atom_site_occupancy
  Pr  Pr0  1  0.651131  0.750000  0.712391  1
  Pr  Pr1  1  0.348869  0.250000  0.287609  1
  Pr  Pr2  1  0.151131  0.250000  0.787609  1
  Pr  Pr3  1  0.848869  0.750000  0.212391  1
  Pr  Pr4  1  0.115930  0.750000  0.805458  1
  Pr  Pr5  1  0.884070  0.250000  0.194542  1
  Pr  Pr6  1  0.615930  0.250000  0.694542  1
  Pr  Pr7  1  0.384070  0.750000  0.305458  1
  Pr  Pr8  1  0.550069  0.750000  0.997909  1
  Pr  Pr9  1  0.449931  0.250000  0.002091  1
  Pr  Pr10  1  0.050069  0.250000  0.502091  1
  Pr  Pr11  1  0.949931  0.750000  0.497909  1
  Pr  Pr12  1  0.825252  0.463670  0.931094  1
  Pr  Pr13  1  0.174748  0.536330  0.068906  1
  Pr  Pr14  1  0.325252  0.536330  0.568906  1
  Pr  Pr15  1  0.174748  0.963670  0.068906  1
  Pr  Pr16  1  0.674748  0.463670  0.431094  1
  Pr  Pr17  1  0.825252  0.036330  0.931094  1
  Pr  Pr18  1  0.674748  0.036330  0.431094  1
  Pr  Pr19  1  0.325252  0.963670  0.568906  1
  Ru  Ru20  1  0.918829  0.750000  0.990713  1
  Ru  Ru21  1  0.081171  0.250000  0.009287  1
  Ru  Ru22  1  0.418829  0.250000  0.509287  1
  Ru  Ru23  1  0.581171  0.750000  0.490713  1
  Pb  Pb24  1  0.923247  0.005808  0.669427  1
  Pb  Pb25  1  0.076753  0.994192  0.330573  1
  Pb  Pb26  1  0.423247  0.994192  0.830573  1
  Pb  Pb27  1  0.076753  0.505808  0.330573  1
  Pb  Pb28  1  0.576753  0.005808  0.169427  1
  Pb  Pb29  1  0.923247  0.494192  0.669427  1
  Pb  Pb30  1  0.576753  0.494192  0.169427  1
  Pb  Pb31  1  0.423247  0.505808  0.830573  1
