# generated using pymatgen
data_Th3Cd3CuIrPt
_symmetry_space_group_name_H-M   'P 1'
_cell_length_a   7.79035300
_cell_length_b   7.79035359
_cell_length_c   3.92868000
_cell_angle_alpha   90.00000000
_cell_angle_beta   90.00000000
_cell_angle_gamma   120.00000172
_symmetry_Int_Tables_number   1
_chemical_formula_structural   Th3Cd3CuIrPt
_chemical_formula_sum   'Th3 Cd3 Cu1 Ir1 Pt1'
_cell_volume   206.48646408
_cell_formula_units_Z   1
loop_
 _symmetry_equiv_pos_site_id
 _symmetry_equiv_pos_as_xyz
  1  'x, y, z'
loop_
 _atom_site_type_symbol
 _atom_site_label
 _atom_site_symmetry_multiplicity
 _atom_site_fract_x
 _atom_site_fract_y
 _atom_site_fract_z
 _atom_site_occupancy
  Th  Th0  1  0.417932  0.424853  0.500000  1
  Th  Th1  1  0.575147  0.993078  0.500000  1
  Th  Th2  1  0.006922  0.582068  0.500000  1
  Cd  Cd3  1  0.760772  0.759499  0.000000  1
  Cd  Cd4  1  0.240501  0.001273  0.000000  1
  Cd  Cd5  1  0.998727  0.239228  0.000000  1
  Cu  Cu6  1  0.000000  0.000000  0.500000  1
  Ir  Ir7  1  0.333333  0.666667  0.000000  1
  Pt  Pt8  1  0.666667  0.333333  0.000000  1
