# generated using pymatgen
data_Tb3Ho2(In2Au)2
_symmetry_space_group_name_H-M   'P 1'
_cell_length_a   3.67823600
_cell_length_b   8.22079000
_cell_length_c   18.46138100
_cell_angle_alpha   90.00000000
_cell_angle_beta   90.00000000
_cell_angle_gamma   90.00000000
_symmetry_Int_Tables_number   1
_chemical_formula_structural   Tb3Ho2(In2Au)2
_chemical_formula_sum   'Tb6 Ho4 In8 Au4'
_cell_volume   558.23534440
_cell_formula_units_Z   2
loop_
 _symmetry_equiv_pos_site_id
 _symmetry_equiv_pos_as_xyz
  1  'x, y, z'
loop_
 _atom_site_type_symbol
 _atom_site_label
 _atom_site_symmetry_multiplicity
 _atom_site_fract_x
 _atom_site_fract_y
 _atom_site_fract_z
 _atom_site_occupancy
  Tb  Tb0  1  0.000000  0.500000  0.500000  1
  Tb  Tb1  1  0.000000  0.000000  0.000000  1
  Tb  Tb2  1  0.000000  0.735511  0.283114  1
  Tb  Tb3  1  0.000000  0.264489  0.716886  1
  Tb  Tb4  1  0.000000  0.764489  0.783114  1
  Tb  Tb5  1  0.000000  0.235511  0.216886  1
  Ho  Ho6  1  0.000000  0.620151  0.079871  1
  Ho  Ho7  1  0.000000  0.379849  0.920129  1
  Ho  Ho8  1  0.000000  0.879849  0.579871  1
  Ho  Ho9  1  0.000000  0.120151  0.420129  1
  In  In10  1  0.500000  0.708900  0.933443  1
  In  In11  1  0.500000  0.291100  0.066557  1
  In  In12  1  0.500000  0.791100  0.433443  1
  In  In13  1  0.500000  0.208900  0.566557  1
  In  In14  1  0.500000  0.581201  0.647201  1
  In  In15  1  0.500000  0.418799  0.352799  1
  In  In16  1  0.500000  0.918799  0.147201  1
  In  In17  1  0.500000  0.081201  0.852799  1
  Au  Au18  1  0.500000  0.527067  0.195647  1
  Au  Au19  1  0.500000  0.472933  0.804353  1
  Au  Au20  1  0.500000  0.972933  0.695647  1
  Au  Au21  1  0.500000  0.027067  0.304353  1
