# generated using pymatgen
data_LaLuFe3P7Ru9
_symmetry_space_group_name_H-M   'P 1'
_cell_length_a   3.86246600
_cell_length_b   9.34177867
_cell_length_c   9.34262807
_cell_angle_alpha   120.00021632
_cell_angle_beta   90.00000000
_cell_angle_gamma   90.00000000
_symmetry_Int_Tables_number   1
_chemical_formula_structural   LaLuFe3P7Ru9
_chemical_formula_sum   'La1 Lu1 Fe3 P7 Ru9'
_cell_volume   291.93958639
_cell_formula_units_Z   1
loop_
 _symmetry_equiv_pos_site_id
 _symmetry_equiv_pos_as_xyz
  1  'x, y, z'
loop_
 _atom_site_type_symbol
 _atom_site_label
 _atom_site_symmetry_multiplicity
 _atom_site_fract_x
 _atom_site_fract_y
 _atom_site_fract_z
 _atom_site_occupancy
  La  La0  1  0.000000  0.666671  0.333454  1
  Lu  Lu1  1  0.500000  0.333330  0.666677  1
  Fe  Fe2  1  0.000000  0.889555  0.733238  1
  Fe  Fe3  1  0.000000  0.266846  0.156325  1
  Fe  Fe4  1  0.000000  0.843569  0.110387  1
  P  P5  1  0.000000  0.108031  0.693408  1
  P  P6  1  0.000000  0.306570  0.414659  1
  P  P7  1  0.000000  0.585392  0.891911  1
  P  P8  1  0.500000  0.721585  0.609806  1
  P  P9  1  0.500000  0.390242  0.111778  1
  P  P10  1  0.500000  0.888231  0.278453  1
  P  P11  1  0.000000  0.999936  0.999923  1
  Ru  Ru12  1  0.000000  0.356935  0.935268  1
  Ru  Ru13  1  0.000000  0.064692  0.421620  1
  Ru  Ru14  1  0.000000  0.578399  0.643074  1
  Ru  Ru15  1  0.500000  0.953334  0.564968  1
  Ru  Ru16  1  0.500000  0.435106  0.388425  1
  Ru  Ru17  1  0.500000  0.611613  0.046733  1
  Ru  Ru18  1  0.500000  0.114452  0.911524  1
  Ru  Ru19  1  0.500000  0.088427  0.202908  1
  Ru  Ru20  1  0.500000  0.797083  0.885460  1
