# generated using pymatgen
data_Ca7Ho3(Si3H)2
_symmetry_space_group_name_H-M   'P 1'
_cell_length_a   8.87274479
_cell_length_b   8.88047487
_cell_length_c   8.87779065
_cell_angle_alpha   129.44618748
_cell_angle_beta   129.42262866
_cell_angle_gamma   74.30252759
_symmetry_Int_Tables_number   1
_chemical_formula_structural   Ca7Ho3(Si3H)2
_chemical_formula_sum   'Ca7 Ho3 Si6 H2'
_cell_volume   406.79228897
_cell_formula_units_Z   1
loop_
 _symmetry_equiv_pos_site_id
 _symmetry_equiv_pos_as_xyz
  1  'x, y, z'
loop_
 _atom_site_type_symbol
 _atom_site_label
 _atom_site_symmetry_multiplicity
 _atom_site_fract_x
 _atom_site_fract_y
 _atom_site_fract_z
 _atom_site_occupancy
  Ca  Ca0  1  0.504810  0.503680  0.005014  1
  Ca  Ca1  1  0.999796  0.998666  0.994986  1
  Ca  Ca2  1  0.681176  0.520168  0.500000  1
  Ca  Ca3  1  0.478724  0.978283  0.165969  1
  Ca  Ca4  1  0.812755  0.312314  0.834031  1
  Ca  Ca5  1  0.981925  0.812915  0.500000  1
  Ca  Ca6  1  0.313464  0.480494  0.500000  1
  Ho  Ho7  1  0.524203  0.026003  0.842571  1
  Ho  Ho8  1  0.181632  0.683432  0.157429  1
  Ho  Ho9  1  0.022954  0.185308  0.500000  1
  Si  Si10  1  0.247357  0.252613  0.986144  1
  Si  Si11  1  0.761213  0.766468  0.013856  1
  Si  Si12  1  0.880971  0.375277  0.266929  1
  Si  Si13  1  0.114043  0.608348  0.733071  1
  Si  Si14  1  0.374846  0.109834  0.500000  1
  Si  Si15  1  0.601452  0.882350  0.500000  1
  H  H16  1  0.260163  0.757122  0.500000  1
  H  H17  1  0.758517  0.246726  0.500000  1
