# generated using pymatgen
data_Ho11LuGa9Si9Ge2
_symmetry_space_group_name_H-M   'P 1'
_cell_length_a   5.93591573
_cell_length_b   5.93591718
_cell_length_c   18.62040500
_cell_angle_alpha   90.00000000
_cell_angle_beta   90.00000000
_cell_angle_gamma   102.90443178
_symmetry_Int_Tables_number   1
_chemical_formula_structural   Ho11LuGa9Si9Ge2
_chemical_formula_sum   'Ho11 Lu1 Ga9 Si9 Ge2'
_cell_volume   639.52160214
_cell_formula_units_Z   1
loop_
 _symmetry_equiv_pos_site_id
 _symmetry_equiv_pos_as_xyz
  1  'x, y, z'
loop_
 _atom_site_type_symbol
 _atom_site_label
 _atom_site_symmetry_multiplicity
 _atom_site_fract_x
 _atom_site_fract_y
 _atom_site_fract_z
 _atom_site_occupancy
  Ho  Ho0  1  0.659595  0.659595  0.500000  1
  Ho  Ho1  1  0.341752  0.341752  0.250342  1
  Ho  Ho2  1  0.341752  0.341752  0.749658  1
  Ho  Ho3  1  0.200323  0.802357  0.127878  1
  Ho  Ho4  1  0.198674  0.801875  0.625034  1
  Ho  Ho5  1  0.200323  0.802357  0.872122  1
  Ho  Ho6  1  0.198674  0.801875  0.374966  1
  Ho  Ho7  1  0.802357  0.200323  0.127878  1
  Ho  Ho8  1  0.801875  0.198674  0.625034  1
  Ho  Ho9  1  0.801875  0.198674  0.374966  1
  Ho  Ho10  1  0.802357  0.200323  0.872122  1
  Lu  Lu11  1  0.652110  0.652110  0.000000  1
  Ga  Ga12  1  0.318197  0.318197  0.902483  1
  Ga  Ga13  1  0.323634  0.323634  0.402187  1
  Ga  Ga14  1  0.677791  0.677791  0.348111  1
  Ga  Ga15  1  0.677007  0.677007  0.848496  1
  Ga  Ga16  1  0.318197  0.318197  0.097517  1
  Ga  Ga17  1  0.323634  0.323634  0.597813  1
  Ga  Ga18  1  0.677007  0.677007  0.151504  1
  Ga  Ga19  1  0.677791  0.677791  0.651889  1
  Ga  Ga20  1  0.037553  0.037553  0.000000  1
  Si  Si21  1  0.484289  0.088082  0.500000  1
  Si  Si22  1  0.912881  0.517151  0.250362  1
  Si  Si23  1  0.912881  0.517151  0.749638  1
  Si  Si24  1  0.517151  0.912881  0.250362  1
  Si  Si25  1  0.517151  0.912881  0.749638  1
  Si  Si26  1  0.088082  0.484289  0.500000  1
  Si  Si27  1  0.051962  0.051962  0.500000  1
  Si  Si28  1  0.949437  0.949437  0.250649  1
  Si  Si29  1  0.949437  0.949437  0.749351  1
  Ge  Ge30  1  0.498720  0.085536  0.000000  1
  Ge  Ge31  1  0.085536  0.498720  0.000000  1
