# generated using pymatgen
data_YTm6Sn23Ru6
_symmetry_space_group_name_H-M   'P 1'
_cell_length_a   9.82773500
_cell_length_b   9.82773510
_cell_length_c   10.04819300
_cell_angle_alpha   90.00000000
_cell_angle_beta   90.00000000
_cell_angle_gamma   120.00000302
_symmetry_Int_Tables_number   1
_chemical_formula_structural   YTm6Sn23Ru6
_chemical_formula_sum   'Y1 Tm6 Sn23 Ru6'
_cell_volume   840.47628910
_cell_formula_units_Z   1
loop_
 _symmetry_equiv_pos_site_id
 _symmetry_equiv_pos_as_xyz
  1  'x, y, z'
loop_
 _atom_site_type_symbol
 _atom_site_label
 _atom_site_symmetry_multiplicity
 _atom_site_fract_x
 _atom_site_fract_y
 _atom_site_fract_z
 _atom_site_occupancy
  Y  Y0  1  0.000000  0.000000  0.000000  1
  Tm  Tm1  1  0.026955  0.513477  0.302062  1
  Tm  Tm2  1  0.486523  0.973045  0.302062  1
  Tm  Tm3  1  0.486523  0.513477  0.302062  1
  Tm  Tm4  1  0.973045  0.486523  0.697938  1
  Tm  Tm5  1  0.513477  0.026955  0.697938  1
  Tm  Tm6  1  0.513477  0.486523  0.697938  1
  Sn  Sn7  1  0.000000  0.000000  0.500000  1
  Sn  Sn8  1  0.119180  0.880820  0.274676  1
  Sn  Sn9  1  0.761639  0.880820  0.274676  1
  Sn  Sn10  1  0.119180  0.238361  0.274676  1
  Sn  Sn11  1  0.880820  0.119180  0.725324  1
  Sn  Sn12  1  0.238361  0.119180  0.725324  1
  Sn  Sn13  1  0.880820  0.761639  0.725324  1
  Sn  Sn14  1  0.349233  0.000000  0.000000  1
  Sn  Sn15  1  0.650767  0.650767  0.000000  1
  Sn  Sn16  1  0.000000  0.349233  0.000000  1
  Sn  Sn17  1  0.349233  0.349233  0.000000  1
  Sn  Sn18  1  0.000000  0.650767  0.000000  1
  Sn  Sn19  1  0.650767  0.000000  0.000000  1
  Sn  Sn20  1  0.779370  0.558739  0.464405  1
  Sn  Sn21  1  0.779370  0.220630  0.464405  1
  Sn  Sn22  1  0.441261  0.220630  0.464405  1
  Sn  Sn23  1  0.220630  0.441261  0.535595  1
  Sn  Sn24  1  0.220630  0.779370  0.535595  1
  Sn  Sn25  1  0.558739  0.779370  0.535595  1
  Sn  Sn26  1  0.666667  0.333333  0.176636  1
  Sn  Sn27  1  0.333333  0.666667  0.823364  1
  Sn  Sn28  1  0.666667  0.333333  0.867926  1
  Sn  Sn29  1  0.333333  0.666667  0.132074  1
  Ru  Ru30  1  0.170762  0.829238  0.796786  1
  Ru  Ru31  1  0.658475  0.829238  0.796786  1
  Ru  Ru32  1  0.170762  0.341525  0.796786  1
  Ru  Ru33  1  0.829238  0.170762  0.203214  1
  Ru  Ru34  1  0.341525  0.170762  0.203214  1
  Ru  Ru35  1  0.829238  0.658475  0.203214  1
