# generated using pymatgen
data_CaCoSb12Ru2Pt
_symmetry_space_group_name_H-M   'P 1'
_cell_length_a   8.12414775
_cell_length_b   8.14054240
_cell_length_c   8.11984750
_cell_angle_alpha   109.55279852
_cell_angle_beta   109.55009069
_cell_angle_gamma   109.39652788
_symmetry_Int_Tables_number   1
_chemical_formula_structural   CaCoSb12Ru2Pt
_chemical_formula_sum   'Ca1 Co1 Sb12 Ru2 Pt1'
_cell_volume   412.94847151
_cell_formula_units_Z   1
loop_
 _symmetry_equiv_pos_site_id
 _symmetry_equiv_pos_as_xyz
  1  'x, y, z'
loop_
 _atom_site_type_symbol
 _atom_site_label
 _atom_site_symmetry_multiplicity
 _atom_site_fract_x
 _atom_site_fract_y
 _atom_site_fract_z
 _atom_site_occupancy
  Ca  Ca0  1  0.000000  0.000000  0.000000  1
  Co  Co1  1  0.000000  0.500000  0.000000  1
  Sb  Sb2  1  0.148897  0.810342  0.652860  1
  Sb  Sb3  1  0.851103  0.189658  0.347140  1
  Sb  Sb4  1  0.843827  0.506079  0.669777  1
  Sb  Sb5  1  0.156173  0.493921  0.330223  1
  Sb  Sb6  1  0.826011  0.660702  0.155772  1
  Sb  Sb7  1  0.173989  0.339298  0.844228  1
  Sb  Sb8  1  0.503119  0.652588  0.841929  1
  Sb  Sb9  1  0.496881  0.347412  0.158071  1
  Sb  Sb10  1  0.670440  0.165524  0.817605  1
  Sb  Sb11  1  0.329560  0.834476  0.182395  1
  Sb  Sb12  1  0.661505  0.843042  0.503603  1
  Sb  Sb13  1  0.338495  0.156958  0.496397  1
  Ru  Ru14  1  0.000000  0.000000  0.500000  1
  Ru  Ru15  1  0.500000  0.500000  0.500000  1
  Pt  Pt16  1  0.500000  0.000000  0.000000  1
