# generated using pymatgen
data_Dy4Th(TcB3)2
_symmetry_space_group_name_H-M   'P 1'
_cell_length_a   5.51976610
_cell_length_b   5.51976622
_cell_length_c   8.57941964
_cell_angle_alpha   71.23506262
_cell_angle_beta   71.23506147
_cell_angle_gamma   59.99998655
_symmetry_Int_Tables_number   1
_chemical_formula_structural   Dy4Th(TcB3)2
_chemical_formula_sum   'Dy4 Th1 Tc2 B6'
_cell_volume   210.17908314
_cell_formula_units_Z   1
loop_
 _symmetry_equiv_pos_site_id
 _symmetry_equiv_pos_as_xyz
  1  'x, y, z'
loop_
 _atom_site_type_symbol
 _atom_site_label
 _atom_site_symmetry_multiplicity
 _atom_site_fract_x
 _atom_site_fract_y
 _atom_site_fract_z
 _atom_site_occupancy
  Dy  Dy0  1  0.247452  0.247452  0.257643  1
  Dy  Dy1  1  0.752548  0.752548  0.742357  1
  Dy  Dy2  1  0.419075  0.419075  0.742777  1
  Dy  Dy3  1  0.580925  0.580925  0.257223  1
  Th  Th4  1  0.000000  0.000000  0.000000  1
  Tc  Tc5  1  0.110850  0.110850  0.667451  1
  Tc  Tc6  1  0.889150  0.889150  0.332549  1
  B  B7  1  0.171105  0.828895  0.500000  1
  B  B8  1  0.828895  0.500000  0.500000  1
  B  B9  1  0.500000  0.171105  0.500000  1
  B  B10  1  0.171105  0.500000  0.500000  1
  B  B11  1  0.500000  0.828895  0.500000  1
  B  B12  1  0.828895  0.171105  0.500000  1
