# generated using pymatgen
data_CaNi5P3
_symmetry_space_group_name_H-M   'P 1'
_cell_length_a   6.11425502
_cell_length_b   6.11425517
_cell_length_c   11.50071900
_cell_angle_alpha   90.00000000
_cell_angle_beta   90.00000000
_cell_angle_gamma   146.04939538
_symmetry_Int_Tables_number   1
_chemical_formula_structural   CaNi5P3
_chemical_formula_sum   'Ca2 Ni10 P6'
_cell_volume   240.11436863
_cell_formula_units_Z   2
loop_
 _symmetry_equiv_pos_site_id
 _symmetry_equiv_pos_as_xyz
  1  'x, y, z'
loop_
 _atom_site_type_symbol
 _atom_site_label
 _atom_site_symmetry_multiplicity
 _atom_site_fract_x
 _atom_site_fract_y
 _atom_site_fract_z
 _atom_site_occupancy
  Ca  Ca0  1  0.159810  0.840190  0.250000  1
  Ca  Ca1  1  0.840190  0.159810  0.750000  1
  Ni  Ni2  1  0.800777  0.199223  0.070585  1
  Ni  Ni3  1  0.199223  0.800777  0.929415  1
  Ni  Ni4  1  0.199223  0.800777  0.570585  1
  Ni  Ni5  1  0.800777  0.199223  0.429415  1
  Ni  Ni6  1  0.450372  0.549628  0.145027  1
  Ni  Ni7  1  0.549628  0.450372  0.854973  1
  Ni  Ni8  1  0.549628  0.450372  0.645027  1
  Ni  Ni9  1  0.450372  0.549628  0.354973  1
  Ni  Ni10  1  0.000000  0.000000  0.000000  1
  Ni  Ni11  1  0.000000  0.000000  0.500000  1
  P  P12  1  0.882764  0.117236  0.250000  1
  P  P13  1  0.117236  0.882764  0.750000  1
  P  P14  1  0.618442  0.381558  0.040889  1
  P  P15  1  0.381558  0.618442  0.959111  1
  P  P16  1  0.381558  0.618442  0.540889  1
  P  P17  1  0.618442  0.381558  0.459111  1
