# generated using pymatgen
data_Dy3YTm4(B6Os)4
_symmetry_space_group_name_H-M   'P 1'
_cell_length_a   3.63452700
_cell_length_b   9.10823301
_cell_length_c   11.49912901
_cell_angle_alpha   89.99523419
_cell_angle_beta   90.00000000
_cell_angle_gamma   90.00000000
_symmetry_Int_Tables_number   1
_chemical_formula_structural   Dy3YTm4(B6Os)4
_chemical_formula_sum   'Dy3 Y1 Tm4 B24 Os4'
_cell_volume   380.66853140
_cell_formula_units_Z   1
loop_
 _symmetry_equiv_pos_site_id
 _symmetry_equiv_pos_as_xyz
  1  'x, y, z'
loop_
 _atom_site_type_symbol
 _atom_site_label
 _atom_site_symmetry_multiplicity
 _atom_site_fract_x
 _atom_site_fract_y
 _atom_site_fract_z
 _atom_site_occupancy
  Dy  Dy0  1  0.000000  0.678250  0.586065  1
  Dy  Dy1  1  0.000000  0.821769  0.086041  1
  Dy  Dy2  1  0.000000  0.178242  0.913949  1
  Y  Y3  1  0.000000  0.321558  0.413952  1
  Tm  Tm4  1  0.000000  0.944042  0.373013  1
  Tm  Tm5  1  0.000000  0.055897  0.627019  1
  Tm  Tm6  1  0.000000  0.444078  0.126947  1
  Tm  Tm7  1  0.000000  0.555941  0.873055  1
  B  B8  1  0.500000  0.554338  0.432963  1
  B  B9  1  0.500000  0.445972  0.567210  1
  B  B10  1  0.500000  0.054133  0.067027  1
  B  B11  1  0.500000  0.945837  0.932921  1
  B  B12  1  0.500000  0.749015  0.419660  1
  B  B13  1  0.500000  0.251010  0.580521  1
  B  B14  1  0.500000  0.248965  0.080281  1
  B  B15  1  0.500000  0.751049  0.919659  1
  B  B16  1  0.500000  0.791579  0.266284  1
  B  B17  1  0.500000  0.208424  0.733749  1
  B  B18  1  0.500000  0.291516  0.233533  1
  B  B19  1  0.500000  0.708463  0.766331  1
  B  B20  1  0.500000  0.631263  0.184829  1
  B  B21  1  0.500000  0.368800  0.815162  1
  B  B22  1  0.500000  0.131053  0.315008  1
  B  B23  1  0.500000  0.868788  0.684885  1
  B  B24  1  0.500000  0.982801  0.213432  1
  B  B25  1  0.500000  0.017129  0.786549  1
  B  B26  1  0.500000  0.482977  0.286431  1
  B  B27  1  0.500000  0.517187  0.713520  1
  B  B28  1  0.500000  0.605541  0.029130  1
  B  B29  1  0.500000  0.394483  0.970860  1
  B  B30  1  0.500000  0.105369  0.470903  1
  B  B31  1  0.500000  0.894514  0.529142  1
  Os  Os32  1  0.000000  0.637923  0.320712  1
  Os  Os33  1  0.000000  0.362203  0.679385  1
  Os  Os34  1  0.000000  0.137691  0.179103  1
  Os  Os35  1  0.000000  0.862200  0.820769  1
