# generated using pymatgen
data_Er4B16Ir3Pd
_symmetry_space_group_name_H-M   'P 1'
_cell_length_a   3.57472800
_cell_length_b   5.96040788
_cell_length_c   11.54486931
_cell_angle_alpha   90.01684560
_cell_angle_beta   90.00000000
_cell_angle_gamma   90.00000000
_symmetry_Int_Tables_number   1
_chemical_formula_structural   Er4B16Ir3Pd
_chemical_formula_sum   'Er4 B16 Ir3 Pd1'
_cell_volume   245.98463738
_cell_formula_units_Z   1
loop_
 _symmetry_equiv_pos_site_id
 _symmetry_equiv_pos_as_xyz
  1  'x, y, z'
loop_
 _atom_site_type_symbol
 _atom_site_label
 _atom_site_symmetry_multiplicity
 _atom_site_fract_x
 _atom_site_fract_y
 _atom_site_fract_z
 _atom_site_occupancy
  Er  Er0  1  0.500000  0.367301  0.148075  1
  Er  Er1  1  0.500000  0.629847  0.852131  1
  Er  Er2  1  0.500000  0.132425  0.648902  1
  Er  Er3  1  0.500000  0.868726  0.352179  1
  B  B4  1  0.000000  0.117930  0.043882  1
  B  B5  1  0.000000  0.889283  0.950895  1
  B  B6  1  0.000000  0.386889  0.547063  1
  B  B7  1  0.000000  0.612151  0.453596  1
  B  B8  1  0.000000  0.135504  0.468635  1
  B  B9  1  0.000000  0.865057  0.530641  1
  B  B10  1  0.000000  0.366367  0.966231  1
  B  B11  1  0.000000  0.634928  0.030814  1
  B  B12  1  0.000000  0.026733  0.190833  1
  B  B13  1  0.000000  0.980083  0.806520  1
  B  B14  1  0.000000  0.475500  0.691833  1
  B  B15  1  0.000000  0.524356  0.307920  1
  B  B16  1  0.000000  0.207218  0.312467  1
  B  B17  1  0.000000  0.793685  0.687248  1
  B  B18  1  0.000000  0.292576  0.812758  1
  B  B19  1  0.000000  0.702199  0.186931  1
  Ir  Ir20  1  0.500000  0.355686  0.404678  1
  Ir  Ir21  1  0.500000  0.647185  0.597684  1
  Ir  Ir22  1  0.500000  0.136902  0.906187  1
  Pd  Pd23  1  0.500000  0.851472  0.101899  1
