# generated using pymatgen
data_Dy5Lu3(ScBi3)2
_symmetry_space_group_name_H-M   'P 1'
_cell_length_a   8.09165774
_cell_length_b   9.35213715
_cell_length_c   11.91193621
_cell_angle_alpha   89.99295227
_cell_angle_beta   89.86525852
_cell_angle_gamma   89.98116340
_symmetry_Int_Tables_number   1
_chemical_formula_structural   Dy5Lu3(ScBi3)2
_chemical_formula_sum   'Dy10 Lu6 Sc4 Bi12'
_cell_volume   901.42480121
_cell_formula_units_Z   2
loop_
 _symmetry_equiv_pos_site_id
 _symmetry_equiv_pos_as_xyz
  1  'x, y, z'
loop_
 _atom_site_type_symbol
 _atom_site_label
 _atom_site_symmetry_multiplicity
 _atom_site_fract_x
 _atom_site_fract_y
 _atom_site_fract_z
 _atom_site_occupancy
  Dy  Dy0  1  0.355139  0.250494  0.283887  1
  Dy  Dy1  1  0.644861  0.749506  0.716113  1
  Dy  Dy2  1  0.145921  0.749747  0.783328  1
  Dy  Dy3  1  0.854079  0.250253  0.216672  1
  Dy  Dy4  1  0.185666  0.250347  0.780686  1
  Dy  Dy5  1  0.814334  0.749653  0.219314  1
  Dy  Dy6  1  0.314087  0.749942  0.281178  1
  Dy  Dy7  1  0.685913  0.250058  0.718822  1
  Dy  Dy8  1  0.194793  0.065462  0.058250  1
  Dy  Dy9  1  0.805207  0.934538  0.941750  1
  Lu  Lu10  1  0.304338  0.932835  0.558157  1
  Lu  Lu11  1  0.804119  0.566676  0.941669  1
  Lu  Lu12  1  0.695662  0.067165  0.441843  1
  Lu  Lu13  1  0.195881  0.433324  0.058331  1
  Lu  Lu14  1  0.695909  0.432990  0.441857  1
  Lu  Lu15  1  0.304091  0.567010  0.558143  1
  Sc  Sc16  1  0.023385  0.249647  0.511749  1
  Sc  Sc17  1  0.976615  0.750353  0.488251  1
  Sc  Sc18  1  0.475839  0.749778  0.012007  1
  Sc  Sc19  1  0.524161  0.250222  0.987993  1
  Bi  Bi20  1  0.400703  0.249931  0.543026  1
  Bi  Bi21  1  0.599297  0.750069  0.456974  1
  Bi  Bi22  1  0.099151  0.747170  0.042945  1
  Bi  Bi23  1  0.900849  0.252830  0.957055  1
  Bi  Bi24  1  0.065313  0.003992  0.330906  1
  Bi  Bi25  1  0.934687  0.996008  0.669094  1
  Bi  Bi26  1  0.434005  0.996185  0.829926  1
  Bi  Bi27  1  0.934594  0.503986  0.669303  1
  Bi  Bi28  1  0.565995  0.003815  0.170074  1
  Bi  Bi29  1  0.065406  0.496014  0.330697  1
  Bi  Bi30  1  0.565301  0.496099  0.169688  1
  Bi  Bi31  1  0.434699  0.503901  0.830312  1
