# generated using pymatgen
data_Sm4Zn5Pt9
_symmetry_space_group_name_H-M   'P 1'
_cell_length_a   5.56565860
_cell_length_b   5.56565954
_cell_length_c   12.81524481
_cell_angle_alpha   77.45831914
_cell_angle_beta   77.45831674
_cell_angle_gamma   59.99999667
_symmetry_Int_Tables_number   1
_chemical_formula_structural   Sm4Zn5Pt9
_chemical_formula_sum   'Sm4 Zn5 Pt9'
_cell_volume   332.80525129
_cell_formula_units_Z   1
loop_
 _symmetry_equiv_pos_site_id
 _symmetry_equiv_pos_as_xyz
  1  'x, y, z'
loop_
 _atom_site_type_symbol
 _atom_site_label
 _atom_site_symmetry_multiplicity
 _atom_site_fract_x
 _atom_site_fract_y
 _atom_site_fract_z
 _atom_site_occupancy
  Sm  Sm0  1  0.952558  0.952558  0.142329  1
  Sm  Sm1  1  0.047442  0.047442  0.857671  1
  Sm  Sm2  1  0.853416  0.853416  0.439752  1
  Sm  Sm3  1  0.146584  0.146584  0.560248  1
  Zn  Zn4  1  0.500000  0.500000  0.500000  1
  Zn  Zn5  1  0.722323  0.722323  0.833033  1
  Zn  Zn6  1  0.277677  0.277677  0.166967  1
  Zn  Zn7  1  0.610855  0.610855  0.167434  1
  Zn  Zn8  1  0.389145  0.389145  0.832566  1
  Pt  Pt9  1  0.000000  0.500000  0.000000  1
  Pt  Pt10  1  0.500000  0.000000  0.000000  1
  Pt  Pt11  1  0.500000  0.500000  0.000000  1
  Pt  Pt12  1  0.387030  0.387030  0.334245  1
  Pt  Pt13  1  0.891696  0.387030  0.334245  1
  Pt  Pt14  1  0.387030  0.891696  0.334245  1
  Pt  Pt15  1  0.612970  0.612970  0.665755  1
  Pt  Pt16  1  0.108304  0.612970  0.665755  1
  Pt  Pt17  1  0.612970  0.108304  0.665755  1
