# generated using pymatgen
data_Nd4Dy3Lu3Pb8
_symmetry_space_group_name_H-M   'P 1'
_cell_length_a   8.23146500
_cell_length_b   8.34971614
_cell_length_c   15.74280027
_cell_angle_alpha   89.97885377
_cell_angle_beta   90.00000000
_cell_angle_gamma   90.00000000
_symmetry_Int_Tables_number   1
_chemical_formula_structural   Nd4Dy3Lu3Pb8
_chemical_formula_sum   'Nd8 Dy6 Lu6 Pb16'
_cell_volume   1082.00882578
_cell_formula_units_Z   2
loop_
 _symmetry_equiv_pos_site_id
 _symmetry_equiv_pos_as_xyz
  1  'x, y, z'
loop_
 _atom_site_type_symbol
 _atom_site_label
 _atom_site_symmetry_multiplicity
 _atom_site_fract_x
 _atom_site_fract_y
 _atom_site_fract_z
 _atom_site_occupancy
  Nd  Nd0  1  0.472657  0.677215  0.597768  1
  Nd  Nd1  1  0.972657  0.822785  0.902232  1
  Nd  Nd2  1  0.527257  0.322543  0.097361  1
  Nd  Nd3  1  0.027257  0.177457  0.402639  1
  Nd  Nd4  1  0.527217  0.322516  0.402323  1
  Nd  Nd5  1  0.027217  0.177484  0.097677  1
  Nd  Nd6  1  0.472822  0.677464  0.902308  1
  Nd  Nd7  1  0.972822  0.822536  0.597692  1
  Dy  Dy8  1  0.632246  0.157979  0.622486  1
  Dy  Dy9  1  0.132246  0.342021  0.877514  1
  Dy  Dy10  1  0.367687  0.841859  0.122505  1
  Dy  Dy11  1  0.867687  0.658141  0.377495  1
  Dy  Dy12  1  0.367762  0.842052  0.377681  1
  Dy  Dy13  1  0.867762  0.657948  0.122319  1
  Lu  Lu14  1  0.632445  0.157923  0.877383  1
  Lu  Lu15  1  0.132445  0.342077  0.622617  1
  Lu  Lu16  1  0.798753  0.493805  0.750028  1
  Lu  Lu17  1  0.298753  0.006195  0.749972  1
  Lu  Lu18  1  0.201326  0.505650  0.250012  1
  Lu  Lu19  1  0.701326  0.994350  0.249988  1
  Pb  Pb20  1  0.706972  0.959696  0.456303  1
  Pb  Pb21  1  0.206972  0.540304  0.043697  1
  Pb  Pb22  1  0.294028  0.040583  0.956128  1
  Pb  Pb23  1  0.794028  0.459417  0.543872  1
  Pb  Pb24  1  0.292414  0.041334  0.543931  1
  Pb  Pb25  1  0.792414  0.458666  0.956069  1
  Pb  Pb26  1  0.706674  0.960260  0.043130  1
  Pb  Pb27  1  0.206674  0.539740  0.456870  1
  Pb  Pb28  1  0.436873  0.371039  0.750069  1
  Pb  Pb29  1  0.936873  0.128961  0.749931  1
  Pb  Pb30  1  0.563076  0.628534  0.249985  1
  Pb  Pb31  1  0.063076  0.871466  0.250015  1
  Pb  Pb32  1  0.661772  0.848589  0.750194  1
  Pb  Pb33  1  0.161772  0.651411  0.749806  1
  Pb  Pb34  1  0.338020  0.151814  0.250003  1
  Pb  Pb35  1  0.838020  0.348186  0.249997  1
