# generated using pymatgen
data_Y5ErAl24(Ir3Ru)2
_symmetry_space_group_name_H-M   'P 1'
_cell_length_a   8.83520846
_cell_length_b   8.83520776
_cell_length_c   9.49611700
_cell_angle_alpha   89.99959056
_cell_angle_beta   90.00041273
_cell_angle_gamma   120.06586234
_symmetry_Int_Tables_number   1
_chemical_formula_structural   Y5ErAl24(Ir3Ru)2
_chemical_formula_sum   'Y5 Er1 Al24 Ir6 Ru2'
_cell_volume   641.53690321
_cell_formula_units_Z   1
loop_
 _symmetry_equiv_pos_site_id
 _symmetry_equiv_pos_as_xyz
  1  'x, y, z'
loop_
 _atom_site_type_symbol
 _atom_site_label
 _atom_site_symmetry_multiplicity
 _atom_site_fract_x
 _atom_site_fract_y
 _atom_site_fract_z
 _atom_site_occupancy
  Y  Y0  1  0.192492  0.384708  0.250010  1
  Y  Y1  1  0.807746  0.615057  0.749977  1
  Y  Y2  1  0.615292  0.807508  0.250010  1
  Y  Y3  1  0.384943  0.192254  0.749977  1
  Y  Y4  1  0.192296  0.807704  0.250005  1
  Er  Er5  1  0.806685  0.193315  0.750082  1
  Al  Al6  1  0.333449  0.666551  0.027840  1
  Al  Al7  1  0.666687  0.333313  0.971886  1
  Al  Al8  1  0.666709  0.333291  0.528102  1
  Al  Al9  1  0.333452  0.666548  0.472176  1
  Al  Al10  1  0.162573  0.325967  0.576384  1
  Al  Al11  1  0.836898  0.673684  0.424228  1
  Al  Al12  1  0.674033  0.837427  0.576384  1
  Al  Al13  1  0.836873  0.673649  0.075779  1
  Al  Al14  1  0.326316  0.163102  0.424228  1
  Al  Al15  1  0.162632  0.326009  0.923592  1
  Al  Al16  1  0.163070  0.836930  0.576259  1
  Al  Al17  1  0.326351  0.163127  0.075779  1
  Al  Al18  1  0.836989  0.163011  0.424695  1
  Al  Al19  1  0.673991  0.837368  0.923592  1
  Al  Al20  1  0.836978  0.163022  0.075378  1
  Al  Al21  1  0.163087  0.836913  0.923710  1
  Al  Al22  1  0.562105  0.124148  0.250002  1
  Al  Al23  1  0.438434  0.876012  0.749987  1
  Al  Al24  1  0.875852  0.437895  0.250002  1
  Al  Al25  1  0.123988  0.561566  0.749987  1
  Al  Al26  1  0.562195  0.437805  0.249990  1
  Al  Al27  1  0.437808  0.562192  0.749994  1
  Al  Al28  1  0.999899  0.000101  0.250032  1
  Al  Al29  1  0.999155  0.000845  0.749967  1
  Ir  Ir30  1  0.500734  0.000469  0.999350  1
  Ir  Ir31  1  0.999531  0.499266  0.999350  1
  Ir  Ir32  1  0.500720  0.000462  0.500635  1
  Ir  Ir33  1  0.500158  0.499842  0.999849  1
  Ir  Ir34  1  0.999538  0.499280  0.500635  1
  Ir  Ir35  1  0.500165  0.499835  0.500136  1
  Ru  Ru36  1  0.000094  0.999906  0.999911  1
  Ru  Ru37  1  0.000083  0.999917  0.500100  1
