# generated using pymatgen
data_Tm8Ta5Ge16Mo7
_symmetry_space_group_name_H-M   'P 1'
_cell_length_a   6.87691316
_cell_length_b   7.06707519
_cell_length_c   13.34693606
_cell_angle_alpha   89.98952082
_cell_angle_beta   89.99749538
_cell_angle_gamma   89.97562281
_symmetry_Int_Tables_number   1
_chemical_formula_structural   Tm8Ta5Ge16Mo7
_chemical_formula_sum   'Tm8 Ta5 Ge16 Mo7'
_cell_volume   648.65651575
_cell_formula_units_Z   1
loop_
 _symmetry_equiv_pos_site_id
 _symmetry_equiv_pos_as_xyz
  1  'x, y, z'
loop_
 _atom_site_type_symbol
 _atom_site_label
 _atom_site_symmetry_multiplicity
 _atom_site_fract_x
 _atom_site_fract_y
 _atom_site_fract_z
 _atom_site_occupancy
  Tm  Tm0  1  0.491711  0.674814  0.592125  1
  Tm  Tm1  1  0.990534  0.825303  0.907578  1
  Tm  Tm2  1  0.508462  0.324378  0.091899  1
  Tm  Tm3  1  0.008968  0.173936  0.408050  1
  Tm  Tm4  1  0.508760  0.325183  0.408534  1
  Tm  Tm5  1  0.008378  0.174546  0.091308  1
  Tm  Tm6  1  0.490796  0.673185  0.908073  1
  Tm  Tm7  1  0.990742  0.827308  0.592588  1
  Ta  Ta8  1  0.836448  0.663751  0.373920  1
  Ta  Ta9  1  0.338995  0.836609  0.372528  1
  Ta  Ta10  1  0.839986  0.662741  0.126231  1
  Ta  Ta11  1  0.659952  0.162271  0.872815  1
  Ta  Ta12  1  0.160669  0.335891  0.628199  1
  Ge  Ge13  1  0.677543  0.958191  0.457890  1
  Ge  Ge14  1  0.177745  0.544970  0.043691  1
  Ge  Ge15  1  0.322118  0.044328  0.955223  1
  Ge  Ge16  1  0.821305  0.455275  0.545132  1
  Ge  Ge17  1  0.326512  0.042245  0.545276  1
  Ge  Ge18  1  0.825930  0.457250  0.954768  1
  Ge  Ge19  1  0.673949  0.956772  0.044198  1
  Ge  Ge20  1  0.177169  0.542405  0.456995  1
  Ge  Ge21  1  0.466465  0.376678  0.748287  1
  Ge  Ge22  1  0.966184  0.123438  0.752585  1
  Ge  Ge23  1  0.531168  0.621455  0.247456  1
  Ge  Ge24  1  0.036748  0.880112  0.249278  1
  Ge  Ge25  1  0.690603  0.853630  0.749892  1
  Ge  Ge26  1  0.191182  0.645791  0.750242  1
  Ge  Ge27  1  0.309167  0.146426  0.249874  1
  Ge  Ge28  1  0.807035  0.351657  0.250090  1
  Mo  Mo29  1  0.665770  0.160296  0.625462  1
  Mo  Mo30  1  0.166042  0.340075  0.876105  1
  Mo  Mo31  1  0.335384  0.839497  0.123864  1
  Mo  Mo32  1  0.836137  0.492124  0.749747  1
  Mo  Mo33  1  0.335821  0.007938  0.750853  1
  Mo  Mo34  1  0.161542  0.509734  0.249393  1
  Mo  Mo35  1  0.664082  0.989796  0.249851  1
