# generated using pymatgen
data_LiTb16In3Rh4
_symmetry_space_group_name_H-M   'P 1'
_cell_length_a   9.69123105
_cell_length_b   9.69123093
_cell_length_c   9.69123065
_cell_angle_alpha   59.96578404
_cell_angle_beta   59.96578241
_cell_angle_gamma   59.96577901
_symmetry_Int_Tables_number   1
_chemical_formula_structural   LiTb16In3Rh4
_chemical_formula_sum   'Li1 Tb16 In3 Rh4'
_cell_volume   643.10914941
_cell_formula_units_Z   1
loop_
 _symmetry_equiv_pos_site_id
 _symmetry_equiv_pos_as_xyz
  1  'x, y, z'
loop_
 _atom_site_type_symbol
 _atom_site_label
 _atom_site_symmetry_multiplicity
 _atom_site_fract_x
 _atom_site_fract_y
 _atom_site_fract_z
 _atom_site_occupancy
  Li  Li0  1  0.427182  0.427182  0.427182  1
  Tb  Tb1  1  0.808404  0.808404  0.191474  1
  Tb  Tb2  1  0.808404  0.191474  0.808404  1
  Tb  Tb3  1  0.187523  0.187523  0.813684  1
  Tb  Tb4  1  0.650173  0.047864  0.650173  1
  Tb  Tb5  1  0.061530  0.061530  0.438298  1
  Tb  Tb6  1  0.436551  0.436551  0.063093  1
  Tb  Tb7  1  0.650410  0.650410  0.650410  1
  Tb  Tb8  1  0.813684  0.187523  0.187523  1
  Tb  Tb9  1  0.191474  0.808404  0.808404  1
  Tb  Tb10  1  0.047864  0.650173  0.650173  1
  Tb  Tb11  1  0.438298  0.061530  0.061530  1
  Tb  Tb12  1  0.436551  0.063093  0.436551  1
  Tb  Tb13  1  0.061530  0.438298  0.061530  1
  Tb  Tb14  1  0.650173  0.650173  0.047864  1
  Tb  Tb15  1  0.187523  0.813684  0.187523  1
  Tb  Tb16  1  0.063093  0.436551  0.436551  1
  In  In17  1  0.418319  0.418319  0.744487  1
  In  In18  1  0.418319  0.744487  0.418319  1
  In  In19  1  0.744487  0.418319  0.418319  1
  Rh  Rh20  1  0.857643  0.426092  0.857643  1
  Rh  Rh21  1  0.857130  0.857130  0.857130  1
  Rh  Rh22  1  0.857643  0.857643  0.426092  1
  Rh  Rh23  1  0.426092  0.857643  0.857643  1
