# generated using pymatgen
data_YZr3Al17GaRh6
_symmetry_space_group_name_H-M   'P 1'
_cell_length_a   7.47829258
_cell_length_b   7.46717322
_cell_length_c   9.35361900
_cell_angle_alpha   90.00000000
_cell_angle_beta   90.00000000
_cell_angle_gamma   119.60533306
_symmetry_Int_Tables_number   1
_chemical_formula_structural   YZr3Al17GaRh6
_chemical_formula_sum   'Y1 Zr3 Al17 Ga1 Rh6'
_cell_volume   454.13235178
_cell_formula_units_Z   1
loop_
 _symmetry_equiv_pos_site_id
 _symmetry_equiv_pos_as_xyz
  1  'x, y, z'
loop_
 _atom_site_type_symbol
 _atom_site_label
 _atom_site_symmetry_multiplicity
 _atom_site_fract_x
 _atom_site_fract_y
 _atom_site_fract_z
 _atom_site_occupancy
  Y  Y0  1  0.326461  0.007039  0.750000  1
  Zr  Zr1  1  0.994193  0.671309  0.250000  1
  Zr  Zr2  1  0.006889  0.327924  0.750000  1
  Zr  Zr3  1  0.670724  0.994037  0.250000  1
  Al  Al4  1  0.121866  0.123215  0.250000  1
  Al  Al5  1  0.997016  0.334511  0.076651  1
  Al  Al6  1  0.000021  0.662182  0.927373  1
  Al  Al7  1  0.000021  0.662182  0.572627  1
  Al  Al8  1  0.335078  0.997879  0.419739  1
  Al  Al9  1  0.997016  0.334511  0.423349  1
  Al  Al10  1  0.668028  0.002118  0.573338  1
  Al  Al11  1  0.668028  0.002118  0.926662  1
  Al  Al12  1  0.335078  0.997879  0.080261  1
  Al  Al13  1  0.332248  0.334810  0.552886  1
  Al  Al14  1  0.669031  0.668887  0.438891  1
  Al  Al15  1  0.669031  0.668887  0.061109  1
  Al  Al16  1  0.332248  0.334810  0.947114  1
  Al  Al17  1  0.337378  0.553790  0.250000  1
  Al  Al18  1  0.667929  0.450820  0.750000  1
  Al  Al19  1  0.555824  0.338871  0.250000  1
  Al  Al20  1  0.444684  0.657432  0.750000  1
  Ga  Ga21  1  0.867799  0.871376  0.750000  1
  Rh  Rh22  1  0.673024  0.328694  0.001001  1
  Rh  Rh23  1  0.328915  0.673523  0.001603  1
  Rh  Rh24  1  0.328915  0.673523  0.498397  1
  Rh  Rh25  1  0.673024  0.328694  0.498999  1
  Rh  Rh26  1  0.999766  0.999491  0.003327  1
  Rh  Rh27  1  0.999766  0.999491  0.496673  1
