# generated using pymatgen
data_LaEr2RhO7
_symmetry_space_group_name_H-M   'P 1'
_cell_length_a   6.43285768
_cell_length_b   6.43285741
_cell_length_c   7.53852500
_cell_angle_alpha   90.00000000
_cell_angle_beta   90.00000000
_cell_angle_gamma   109.34235934
_symmetry_Int_Tables_number   1
_chemical_formula_structural   LaEr2RhO7
_chemical_formula_sum   'La2 Er4 Rh2 O14'
_cell_volume   294.34867483
_cell_formula_units_Z   2
loop_
 _symmetry_equiv_pos_site_id
 _symmetry_equiv_pos_as_xyz
  1  'x, y, z'
loop_
 _atom_site_type_symbol
 _atom_site_label
 _atom_site_symmetry_multiplicity
 _atom_site_fract_x
 _atom_site_fract_y
 _atom_site_fract_z
 _atom_site_occupancy
  La  La0  1  0.000000  0.000000  0.000000  1
  La  La1  1  0.000000  0.000000  0.500000  1
  Er  Er2  1  0.512094  0.064224  0.250000  1
  Er  Er3  1  0.935776  0.487906  0.750000  1
  Er  Er4  1  0.064224  0.512094  0.250000  1
  Er  Er5  1  0.487906  0.935776  0.750000  1
  Rh  Rh6  1  0.500000  0.500000  0.000000  1
  Rh  Rh7  1  0.500000  0.500000  0.500000  1
  O  O8  1  0.839041  0.125889  0.750000  1
  O  O9  1  0.874111  0.160959  0.250000  1
  O  O10  1  0.442522  0.178862  0.533079  1
  O  O11  1  0.442522  0.178862  0.966921  1
  O  O12  1  0.821138  0.557478  0.033079  1
  O  O13  1  0.821138  0.557478  0.466921  1
  O  O14  1  0.404778  0.404778  0.250000  1
  O  O15  1  0.595222  0.595222  0.750000  1
  O  O16  1  0.178862  0.442522  0.966921  1
  O  O17  1  0.178862  0.442522  0.533079  1
  O  O18  1  0.557478  0.821138  0.033079  1
  O  O19  1  0.557478  0.821138  0.466921  1
  O  O20  1  0.125889  0.839041  0.750000  1
  O  O21  1  0.160959  0.874111  0.250000  1
