# generated using pymatgen
data_Tb7Y3(SnSb)4
_symmetry_space_group_name_H-M   'P 1'
_cell_length_a   8.12393900
_cell_length_b   8.17883912
_cell_length_c   15.50718323
_cell_angle_alpha   89.98044779
_cell_angle_beta   90.00000000
_cell_angle_gamma   90.00000000
_symmetry_Int_Tables_number   1
_chemical_formula_structural   Tb7Y3(SnSb)4
_chemical_formula_sum   'Tb14 Y6 Sn8 Sb8'
_cell_volume   1030.36527152
_cell_formula_units_Z   2
loop_
 _symmetry_equiv_pos_site_id
 _symmetry_equiv_pos_as_xyz
  1  'x, y, z'
loop_
 _atom_site_type_symbol
 _atom_site_label
 _atom_site_symmetry_multiplicity
 _atom_site_fract_x
 _atom_site_fract_y
 _atom_site_fract_z
 _atom_site_occupancy
  Tb  Tb0  1  0.390911  0.838608  0.881121  1
  Tb  Tb1  1  0.890911  0.661392  0.618879  1
  Tb  Tb2  1  0.609080  0.161369  0.381152  1
  Tb  Tb3  1  0.109080  0.338631  0.118848  1
  Tb  Tb4  1  0.609093  0.161409  0.118849  1
  Tb  Tb5  1  0.109093  0.338591  0.381151  1
  Tb  Tb6  1  0.390917  0.838601  0.618844  1
  Tb  Tb7  1  0.890917  0.661399  0.881156  1
  Tb  Tb8  1  0.556781  0.329590  0.892155  1
  Tb  Tb9  1  0.056781  0.170410  0.607845  1
  Tb  Tb10  1  0.443199  0.670430  0.392134  1
  Tb  Tb11  1  0.943199  0.829570  0.107866  1
  Tb  Tb12  1  0.443209  0.670415  0.107860  1
  Tb  Tb13  1  0.943209  0.829585  0.392140  1
  Y  Y14  1  0.556945  0.329754  0.608007  1
  Y  Y15  1  0.056945  0.170246  0.891993  1
  Y  Y16  1  0.222376  0.499196  0.750001  1
  Y  Y17  1  0.722376  0.000804  0.749999  1
  Y  Y18  1  0.777622  0.500816  0.249985  1
  Y  Y19  1  0.277622  0.999184  0.250015  1
  Sn  Sn20  1  0.587889  0.627535  0.750016  1
  Sn  Sn21  1  0.087889  0.872465  0.749984  1
  Sn  Sn22  1  0.412061  0.372490  0.250007  1
  Sn  Sn23  1  0.912061  0.127510  0.249993  1
  Sn  Sn24  1  0.359592  0.142291  0.749933  1
  Sn  Sn25  1  0.859592  0.357709  0.750067  1
  Sn  Sn26  1  0.640462  0.857786  0.249998  1
  Sn  Sn27  1  0.140462  0.642214  0.250002  1
  Sb  Sb28  1  0.266885  0.017556  0.046830  1
  Sb  Sb29  1  0.766885  0.482444  0.453170  1
  Sb  Sb30  1  0.732941  0.982608  0.546909  1
  Sb  Sb31  1  0.232941  0.517392  0.953091  1
  Sb  Sb32  1  0.733114  0.982603  0.953098  1
  Sb  Sb33  1  0.233114  0.517397  0.546902  1
  Sb  Sb34  1  0.266923  0.017413  0.453070  1
  Sb  Sb35  1  0.766923  0.482587  0.046930  1
