# generated using pymatgen
data_SrEu3Sc3Cr5O16
_symmetry_space_group_name_H-M   'P 1'
_cell_length_a   5.32695773
_cell_length_b   6.12402253
_cell_length_c   11.69326434
_cell_angle_alpha   90.36744120
_cell_angle_beta   89.99298404
_cell_angle_gamma   89.81835069
_symmetry_Int_Tables_number   1
_chemical_formula_structural   SrEu3Sc3Cr5O16
_chemical_formula_sum   'Sr1 Eu3 Sc3 Cr5 O16'
_cell_volume   381.45268835
_cell_formula_units_Z   1
loop_
 _symmetry_equiv_pos_site_id
 _symmetry_equiv_pos_as_xyz
  1  'x, y, z'
loop_
 _atom_site_type_symbol
 _atom_site_label
 _atom_site_symmetry_multiplicity
 _atom_site_fract_x
 _atom_site_fract_y
 _atom_site_fract_z
 _atom_site_occupancy
  Sr  Sr0  1  0.453389  0.751625  0.750212  1
  Eu  Eu1  1  0.857986  0.246057  0.752449  1
  Eu  Eu2  1  0.140059  0.753785  0.248304  1
  Eu  Eu3  1  0.535652  0.248979  0.249436  1
  Sc  Sc4  1  0.507465  0.749422  0.014886  1
  Sc  Sc5  1  0.002422  0.495108  0.500981  1
  Sc  Sc6  1  0.506791  0.755738  0.484009  1
  Cr  Cr7  1  0.496251  0.250103  0.990736  1
  Cr  Cr8  1  0.000034  0.001359  0.500298  1
  Cr  Cr9  1  0.496897  0.248792  0.509968  1
  Cr  Cr10  1  0.000607  0.002185  0.999864  1
  Cr  Cr11  1  0.000571  0.497873  0.999809  1
  O  O12  1  0.848784  0.755177  0.402363  1
  O  O13  1  0.851961  0.751641  0.094588  1
  O  O14  1  0.164241  0.241703  0.595434  1
  O  O15  1  0.160033  0.248485  0.908951  1
  O  O16  1  0.175494  0.757049  0.585192  1
  O  O17  1  0.170298  0.748808  0.915895  1
  O  O18  1  0.814172  0.240103  0.413657  1
  O  O19  1  0.819489  0.251262  0.083976  1
  O  O20  1  0.660668  0.497246  0.599383  1
  O  O21  1  0.669807  0.002018  0.902747  1
  O  O22  1  0.326490  0.012262  0.400265  1
  O  O23  1  0.329766  0.491156  0.099193  1
  O  O24  1  0.339321  0.492335  0.397498  1
  O  O25  1  0.329493  0.010906  0.099366  1
  O  O26  1  0.672401  0.002652  0.597679  1
  O  O27  1  0.669460  0.496171  0.902861  1
