# generated using pymatgen
data_Ac2Th(MgPt)3
_symmetry_space_group_name_H-M   'P 1'
_cell_length_a   7.69869200
_cell_length_b   7.65210174
_cell_length_c   4.19607500
_cell_angle_alpha   90.00000000
_cell_angle_beta   90.00000000
_cell_angle_gamma   119.80002318
_symmetry_Int_Tables_number   1
_chemical_formula_structural   Ac2Th(MgPt)3
_chemical_formula_sum   'Ac2 Th1 Mg3 Pt3'
_cell_volume   214.50784456
_cell_formula_units_Z   1
loop_
 _symmetry_equiv_pos_site_id
 _symmetry_equiv_pos_as_xyz
  1  'x, y, z'
loop_
 _atom_site_type_symbol
 _atom_site_label
 _atom_site_symmetry_multiplicity
 _atom_site_fract_x
 _atom_site_fract_y
 _atom_site_fract_z
 _atom_site_occupancy
  Ac  Ac0  1  0.415444  0.416106  0.500000  1
  Ac  Ac1  1  0.584556  0.000661  0.500000  1
  Th  Th2  1  0.000000  0.583825  0.500000  1
  Mg  Mg3  1  0.772223  0.764314  0.000000  1
  Mg  Mg4  1  0.227777  0.992092  0.000000  1
  Mg  Mg5  1  0.000000  0.233759  0.000000  1
  Pt  Pt6  1  0.693963  0.356902  0.000000  1
  Pt  Pt7  1  0.306037  0.662939  0.000000  1
  Pt  Pt8  1  0.000000  0.989402  0.500000  1
