# generated using pymatgen
data_CrRe2Sb7
_symmetry_space_group_name_H-M   'P 1'
_cell_length_a   8.21993990
_cell_length_b   8.21994032
_cell_length_c   8.21970062
_cell_angle_alpha   109.67482363
_cell_angle_beta   109.67481900
_cell_angle_gamma   109.06595447
_symmetry_Int_Tables_number   1
_chemical_formula_structural   CrRe2Sb7
_chemical_formula_sum   'Cr2 Re4 Sb14'
_cell_volume   427.51248538
_cell_formula_units_Z   2
loop_
 _symmetry_equiv_pos_site_id
 _symmetry_equiv_pos_as_xyz
  1  'x, y, z'
loop_
 _atom_site_type_symbol
 _atom_site_label
 _atom_site_symmetry_multiplicity
 _atom_site_fract_x
 _atom_site_fract_y
 _atom_site_fract_z
 _atom_site_occupancy
  Cr  Cr0  1  0.341060  0.000824  0.341884  1
  Cr  Cr1  1  0.000824  0.341060  0.341884  1
  Re  Re2  1  0.000742  0.658225  0.658968  1
  Re  Re3  1  0.342009  0.342009  0.001288  1
  Re  Re4  1  0.659279  0.659279  0.001288  1
  Re  Re5  1  0.658225  0.000742  0.658968  1
  Sb  Sb6  1  0.751595  0.495792  0.247386  1
  Sb  Sb7  1  0.495792  0.751595  0.247386  1
  Sb  Sb8  1  0.495785  0.248152  0.743937  1
  Sb  Sb9  1  0.746518  0.246518  0.493037  1
  Sb  Sb10  1  0.246518  0.746518  0.493037  1
  Sb  Sb11  1  0.248152  0.495785  0.743937  1
  Sb  Sb12  1  0.005358  0.005358  0.328639  1
  Sb  Sb13  1  0.678026  0.005900  0.005996  1
  Sb  Sb14  1  0.005900  0.678026  0.005996  1
  Sb  Sb15  1  0.323281  0.323281  0.328639  1
  Sb  Sb16  1  0.000096  0.327970  0.005996  1
  Sb  Sb17  1  0.672942  0.672942  0.672869  1
  Sb  Sb18  1  0.327970  0.000096  0.005996  1
  Sb  Sb19  1  0.999927  0.999927  0.672869  1
