# generated using pymatgen
data_Ho3Er5(Si3Rh4)2
_symmetry_space_group_name_H-M   'P 1'
_cell_length_a   10.67687434
_cell_length_b   10.67828257
_cell_length_c   7.68194513
_cell_angle_alpha   71.25251191
_cell_angle_beta   71.25593545
_cell_angle_gamma   29.72692190
_symmetry_Int_Tables_number   1
_chemical_formula_structural   Ho3Er5(Si3Rh4)2
_chemical_formula_sum   'Ho3 Er5 Si6 Rh8'
_cell_volume   409.58287945
_cell_formula_units_Z   1
loop_
 _symmetry_equiv_pos_site_id
 _symmetry_equiv_pos_as_xyz
  1  'x, y, z'
loop_
 _atom_site_type_symbol
 _atom_site_label
 _atom_site_symmetry_multiplicity
 _atom_site_fract_x
 _atom_site_fract_y
 _atom_site_fract_z
 _atom_site_occupancy
  Ho  Ho0  1  0.210117  0.449884  0.399107  1
  Ho  Ho1  1  0.550082  0.789780  0.100999  1
  Ho  Ho2  1  0.449859  0.210223  0.899062  1
  Er  Er3  1  0.924911  0.209958  0.332520  1
  Er  Er4  1  0.790138  0.075067  0.167533  1
  Er  Er5  1  0.075109  0.790084  0.667502  1
  Er  Er6  1  0.209957  0.924928  0.832376  1
  Er  Er7  1  0.789543  0.550477  0.600959  1
  Si  Si8  1  0.638786  0.361352  0.749921  1
  Si  Si9  1  0.361367  0.638644  0.250008  1
  Si  Si10  1  0.295882  0.047086  0.445878  1
  Si  Si11  1  0.952831  0.704139  0.054371  1
  Si  Si12  1  0.704125  0.952836  0.554367  1
  Si  Si13  1  0.046998  0.296012  0.945336  1
  Rh  Rh14  1  0.298481  0.575500  0.019031  1
  Rh  Rh15  1  0.575545  0.298436  0.519081  1
  Rh  Rh16  1  0.701538  0.424580  0.980721  1
  Rh  Rh17  1  0.069583  0.371987  0.192291  1
  Rh  Rh18  1  0.628321  0.929918  0.308067  1
  Rh  Rh19  1  0.424733  0.701398  0.480995  1
  Rh  Rh20  1  0.930138  0.628148  0.807812  1
  Rh  Rh21  1  0.371959  0.069565  0.692063  1
