# generated using pymatgen
data_Th2Ga3Si2Rh3
_symmetry_space_group_name_H-M   'P 1'
_cell_length_a   8.52543472
_cell_length_b   8.52543328
_cell_length_c   8.52543400
_cell_angle_alpha   140.28152852
_cell_angle_beta   106.80256530
_cell_angle_gamma   86.65958918
_symmetry_Int_Tables_number   1
_chemical_formula_structural   Th2Ga3Si2Rh3
_chemical_formula_sum   'Th4 Ga6 Si4 Rh6'
_cell_volume   365.17268613
_cell_formula_units_Z   2
loop_
 _symmetry_equiv_pos_site_id
 _symmetry_equiv_pos_as_xyz
  1  'x, y, z'
loop_
 _atom_site_type_symbol
 _atom_site_label
 _atom_site_symmetry_multiplicity
 _atom_site_fract_x
 _atom_site_fract_y
 _atom_site_fract_z
 _atom_site_occupancy
  Th  Th0  1  0.863611  0.633101  0.230511  1
  Th  Th1  1  0.136389  0.366899  0.769489  1
  Th  Th2  1  0.402590  0.133101  0.269489  1
  Th  Th3  1  0.597410  0.866899  0.730511  1
  Ga  Ga4  1  0.500000  0.750000  0.250000  1
  Ga  Ga5  1  0.500000  0.250000  0.750000  1
  Ga  Ga6  1  0.221946  0.971946  0.750000  1
  Ga  Ga7  1  0.778054  0.528054  0.750000  1
  Ga  Ga8  1  0.778054  0.028054  0.250000  1
  Ga  Ga9  1  0.221946  0.471946  0.250000  1
  Si  Si10  1  0.048955  0.898082  0.150874  1
  Si  Si11  1  0.951045  0.101918  0.849126  1
  Si  Si12  1  0.747208  0.398082  0.349126  1
  Si  Si13  1  0.252792  0.601918  0.650874  1
  Rh  Rh14  1  0.000000  0.750000  0.750000  1
  Rh  Rh15  1  0.000000  0.250000  0.250000  1
  Rh  Rh16  1  0.238761  0.860020  0.378741  1
  Rh  Rh17  1  0.761239  0.139980  0.621259  1
  Rh  Rh18  1  0.481280  0.360020  0.121259  1
  Rh  Rh19  1  0.518720  0.639980  0.878741  1
