# generated using pymatgen
data_Er6Al17Zn(Si3Os4)2
_symmetry_space_group_name_H-M   'P 1'
_cell_length_a   8.64266813
_cell_length_b   8.66384606
_cell_length_c   9.56800200
_cell_angle_alpha   90.00000000
_cell_angle_beta   90.00000000
_cell_angle_gamma   119.95204476
_symmetry_Int_Tables_number   1
_chemical_formula_structural   Er6Al17Zn(Si3Os4)2
_chemical_formula_sum   'Er6 Al17 Zn1 Si6 Os8'
_cell_volume   620.75483944
_cell_formula_units_Z   1
loop_
 _symmetry_equiv_pos_site_id
 _symmetry_equiv_pos_as_xyz
  1  'x, y, z'
loop_
 _atom_site_type_symbol
 _atom_site_label
 _atom_site_symmetry_multiplicity
 _atom_site_fract_x
 _atom_site_fract_y
 _atom_site_fract_z
 _atom_site_occupancy
  Er  Er0  1  0.193538  0.390956  0.250000  1
  Er  Er1  1  0.805019  0.610714  0.750000  1
  Er  Er2  1  0.609314  0.806187  0.250000  1
  Er  Er3  1  0.390900  0.193181  0.750000  1
  Er  Er4  1  0.196758  0.804308  0.250000  1
  Er  Er5  1  0.801476  0.193137  0.750000  1
  Al  Al6  1  0.165024  0.330761  0.577605  1
  Al  Al7  1  0.835063  0.671777  0.420212  1
  Al  Al8  1  0.671217  0.833891  0.579042  1
  Al  Al9  1  0.835063  0.671777  0.079788  1
  Al  Al10  1  0.333465  0.164461  0.421206  1
  Al  Al11  1  0.165024  0.330761  0.922395  1
  Al  Al12  1  0.162614  0.833305  0.577870  1
  Al  Al13  1  0.333465  0.164461  0.078794  1
  Al  Al14  1  0.830074  0.163458  0.420465  1
  Al  Al15  1  0.671217  0.833891  0.920958  1
  Al  Al16  1  0.830074  0.163458  0.079535  1
  Al  Al17  1  0.162614  0.833305  0.922130  1
  Al  Al18  1  0.125202  0.564993  0.750000  1
  Al  Al19  1  0.567782  0.436625  0.250000  1
  Al  Al20  1  0.438534  0.565598  0.750000  1
  Al  Al21  1  0.999597  0.999222  0.250000  1
  Al  Al22  1  0.999434  0.999785  0.750000  1
  Zn  Zn23  1  0.565190  0.125834  0.250000  1
  Si  Si24  1  0.334810  0.667256  0.040314  1
  Si  Si25  1  0.666129  0.333826  0.958602  1
  Si  Si26  1  0.666129  0.333826  0.541398  1
  Si  Si27  1  0.334810  0.667256  0.459686  1
  Si  Si28  1  0.434858  0.870717  0.750000  1
  Si  Si29  1  0.871696  0.436713  0.250000  1
  Os  Os30  1  0.499569  0.998587  0.988125  1
  Os  Os31  1  0.999843  0.500654  0.005652  1
  Os  Os32  1  0.499569  0.998587  0.511875  1
  Os  Os33  1  0.501211  0.500920  0.000230  1
  Os  Os34  1  0.999843  0.500654  0.494348  1
  Os  Os35  1  0.501211  0.500920  0.499770  1
  Os  Os36  1  0.001332  0.002120  0.000020  1
  Os  Os37  1  0.001332  0.002120  0.499980  1
