# generated using pymatgen
data_Y4Al2B4RuRh9
_symmetry_space_group_name_H-M   'P 1'
_cell_length_a   9.59334369
_cell_length_b   9.59334369
_cell_length_c   3.14073700
_cell_angle_alpha   90.00000000
_cell_angle_beta   90.00000000
_cell_angle_gamma   89.76781482
_symmetry_Int_Tables_number   1
_chemical_formula_structural   Y4Al2B4RuRh9
_chemical_formula_sum   'Y4 Al2 B4 Ru1 Rh9'
_cell_volume   289.04669806
_cell_formula_units_Z   1
loop_
 _symmetry_equiv_pos_site_id
 _symmetry_equiv_pos_as_xyz
  1  'x, y, z'
loop_
 _atom_site_type_symbol
 _atom_site_label
 _atom_site_symmetry_multiplicity
 _atom_site_fract_x
 _atom_site_fract_y
 _atom_site_fract_z
 _atom_site_occupancy
  Y  Y0  1  0.823669  0.323669  0.000000  1
  Y  Y1  1  0.325474  0.174526  0.000000  1
  Y  Y2  1  0.674526  0.825474  0.000000  1
  Y  Y3  1  0.176331  0.676331  0.000000  1
  Al  Al4  1  0.000000  0.000000  0.000000  1
  Al  Al5  1  0.500000  0.500000  0.000000  1
  B  B6  1  0.620819  0.120819  0.000000  1
  B  B7  1  0.122145  0.377855  0.000000  1
  B  B8  1  0.877855  0.622145  0.000000  1
  B  B9  1  0.379181  0.879181  0.000000  1
  Ru  Ru10  1  0.500000  0.000000  0.500000  1
  Rh  Rh11  1  0.069454  0.218915  0.500000  1
  Rh  Rh12  1  0.217401  0.929753  0.500000  1
  Rh  Rh13  1  0.782599  0.070247  0.500000  1
  Rh  Rh14  1  0.930546  0.781085  0.500000  1
  Rh  Rh15  1  0.429753  0.717401  0.500000  1
  Rh  Rh16  1  0.570247  0.282599  0.500000  1
  Rh  Rh17  1  0.718915  0.569454  0.500000  1
  Rh  Rh18  1  0.281085  0.430546  0.500000  1
  Rh  Rh19  1  0.000000  0.500000  0.500000  1
