# generated using pymatgen
data_PrPu3Zr4F28
_symmetry_space_group_name_H-M   'P 1'
_cell_length_a   5.95760907
_cell_length_b   9.46189298
_cell_length_c   12.69053900
_cell_angle_alpha   62.03684062
_cell_angle_beta   89.99109443
_cell_angle_gamma   89.98704378
_symmetry_Int_Tables_number   1
_chemical_formula_structural   PrPu3Zr4F28
_chemical_formula_sum   'Pr1 Pu3 Zr4 F28'
_cell_volume   631.84911316
_cell_formula_units_Z   1
loop_
 _symmetry_equiv_pos_site_id
 _symmetry_equiv_pos_as_xyz
  1  'x, y, z'
loop_
 _atom_site_type_symbol
 _atom_site_label
 _atom_site_symmetry_multiplicity
 _atom_site_fract_x
 _atom_site_fract_y
 _atom_site_fract_z
 _atom_site_occupancy
  Pr  Pr0  1  0.756314  0.812457  0.765642  1
  Pu  Pu1  1  0.743654  0.814771  0.264078  1
  Pu  Pu2  1  0.243419  0.184720  0.236470  1
  Pu  Pu3  1  0.256151  0.185282  0.735885  1
  Zr  Zr4  1  0.742549  0.275356  0.455595  1
  Zr  Zr5  1  0.243798  0.724792  0.044834  1
  Zr  Zr6  1  0.256740  0.724677  0.544153  1
  Zr  Zr7  1  0.756694  0.274277  0.956161  1
  F  F8  1  0.463571  0.713388  0.925525  1
  F  F9  1  0.963072  0.287001  0.573941  1
  F  F10  1  0.536383  0.284181  0.075406  1
  F  F11  1  0.035580  0.714637  0.425320  1
  F  F12  1  0.463756  0.285117  0.547075  1
  F  F13  1  0.965907  0.717042  0.951767  1
  F  F14  1  0.535353  0.715092  0.452594  1
  F  F15  1  0.035547  0.284453  0.047180  1
  F  F16  1  0.762167  0.518467  0.861052  1
  F  F17  1  0.268345  0.481445  0.640681  1
  F  F18  1  0.232532  0.481273  0.140321  1
  F  F19  1  0.732594  0.519410  0.358698  1
  F  F20  1  0.760203  0.029926  0.056733  1
  F  F21  1  0.258713  0.969246  0.442749  1
  F  F22  1  0.238061  0.968684  0.943492  1
  F  F23  1  0.738877  0.031861  0.556661  1
  F  F24  1  0.996391  0.735561  0.646268  1
  F  F25  1  0.493317  0.260718  0.857436  1
  F  F26  1  0.005475  0.260921  0.356359  1
  F  F27  1  0.507587  0.739101  0.142875  1
  F  F28  1  0.039789  0.742511  0.169517  1
  F  F29  1  0.539051  0.257331  0.330197  1
  F  F30  1  0.960508  0.258677  0.830420  1
  F  F31  1  0.464245  0.746912  0.665710  1
  F  F32  1  0.431584  0.970216  0.241248  1
  F  F33  1  0.931933  0.028919  0.258760  1
  F  F34  1  0.567356  0.028926  0.761891  1
  F  F35  1  0.072784  0.972651  0.737314  1
