# generated using pymatgen
data_Nd8DyYSn6
_symmetry_space_group_name_H-M   'P 1'
_cell_length_a   9.22813900
_cell_length_b   9.22813942
_cell_length_c   6.80078300
_cell_angle_alpha   90.00000000
_cell_angle_beta   90.00000000
_cell_angle_gamma   120.00000208
_symmetry_Int_Tables_number   1
_chemical_formula_structural   Nd8DyYSn6
_chemical_formula_sum   'Nd8 Dy1 Y1 Sn6'
_cell_volume   501.55413466
_cell_formula_units_Z   1
loop_
 _symmetry_equiv_pos_site_id
 _symmetry_equiv_pos_as_xyz
  1  'x, y, z'
loop_
 _atom_site_type_symbol
 _atom_site_label
 _atom_site_symmetry_multiplicity
 _atom_site_fract_x
 _atom_site_fract_y
 _atom_site_fract_z
 _atom_site_occupancy
  Nd  Nd0  1  0.758512  0.758486  0.248378  1
  Nd  Nd1  1  0.999975  0.241488  0.248378  1
  Nd  Nd2  1  0.758512  0.000025  0.751622  1
  Nd  Nd3  1  0.333333  0.666667  0.500000  1
  Nd  Nd4  1  0.241514  0.000025  0.248378  1
  Nd  Nd5  1  0.666667  0.333333  0.500000  1
  Nd  Nd6  1  0.999975  0.758486  0.751622  1
  Nd  Nd7  1  0.241514  0.241488  0.751622  1
  Dy  Dy8  1  0.333333  0.666667  0.000000  1
  Y  Y9  1  0.666667  0.333333  0.000000  1
  Sn  Sn10  1  0.602799  0.602834  0.758112  1
  Sn  Sn11  1  0.397166  0.999965  0.758112  1
  Sn  Sn12  1  0.602799  0.999965  0.241888  1
  Sn  Sn13  1  0.000035  0.397201  0.758112  1
  Sn  Sn14  1  0.397166  0.397201  0.241888  1
  Sn  Sn15  1  0.000035  0.602834  0.241888  1
