# generated using pymatgen
data_NdEuSiN3
_symmetry_space_group_name_H-M   'P 1'
_cell_length_a   6.01299300
_cell_length_b   6.01299225
_cell_length_c   11.71598200
_cell_angle_alpha   90.00000000
_cell_angle_beta   90.00000000
_cell_angle_gamma   126.10054095
_symmetry_Int_Tables_number   1
_chemical_formula_structural   NdEuSiN3
_chemical_formula_sum   'Nd4 Eu4 Si4 N12'
_cell_volume   342.26537938
_cell_formula_units_Z   4
loop_
 _symmetry_equiv_pos_site_id
 _symmetry_equiv_pos_as_xyz
  1  'x, y, z'
loop_
 _atom_site_type_symbol
 _atom_site_label
 _atom_site_symmetry_multiplicity
 _atom_site_fract_x
 _atom_site_fract_y
 _atom_site_fract_z
 _atom_site_occupancy
  Nd  Nd0  1  0.053795  0.946205  0.857279  1
  Nd  Nd1  1  0.946205  0.053795  0.142721  1
  Nd  Nd2  1  0.446205  0.553795  0.357279  1
  Nd  Nd3  1  0.553795  0.446205  0.642721  1
  Eu  Eu4  1  0.638555  0.361445  0.074371  1
  Eu  Eu5  1  0.361445  0.638555  0.925629  1
  Eu  Eu6  1  0.861445  0.138555  0.574371  1
  Eu  Eu7  1  0.138555  0.861445  0.425629  1
  Si  Si8  1  0.747908  0.252092  0.834387  1
  Si  Si9  1  0.252092  0.747908  0.165613  1
  Si  Si10  1  0.752092  0.247908  0.334387  1
  Si  Si11  1  0.247908  0.752092  0.665613  1
  N  N12  1  0.584850  0.415150  0.858860  1
  N  N13  1  0.415150  0.584850  0.141140  1
  N  N14  1  0.915150  0.084850  0.358860  1
  N  N15  1  0.084850  0.915150  0.641140  1
  N  N16  1  0.536777  0.963223  0.750000  1
  N  N17  1  0.963223  0.536777  0.250000  1
  N  N18  1  0.463223  0.036777  0.250000  1
  N  N19  1  0.036777  0.463223  0.750000  1
  N  N20  1  0.847621  0.152379  0.954236  1
  N  N21  1  0.152379  0.847621  0.045764  1
  N  N22  1  0.652379  0.347621  0.454236  1
  N  N23  1  0.347621  0.652379  0.545764  1
