# generated using pymatgen
data_Ce8Co3Si12Rh
_symmetry_space_group_name_H-M   'P 1'
_cell_length_a   8.06836701
_cell_length_b   8.06854198
_cell_length_c   8.18579701
_cell_angle_alpha   89.99787195
_cell_angle_beta   89.99643400
_cell_angle_gamma   119.99648229
_symmetry_Int_Tables_number   1
_chemical_formula_structural   Ce8Co3Si12Rh
_chemical_formula_sum   'Ce8 Co3 Si12 Rh1'
_cell_volume   461.51699833
_cell_formula_units_Z   1
loop_
 _symmetry_equiv_pos_site_id
 _symmetry_equiv_pos_as_xyz
  1  'x, y, z'
loop_
 _atom_site_type_symbol
 _atom_site_label
 _atom_site_symmetry_multiplicity
 _atom_site_fract_x
 _atom_site_fract_y
 _atom_site_fract_z
 _atom_site_occupancy
  Ce  Ce0  1  0.000017  0.000004  0.251113  1
  Ce  Ce1  1  0.999988  0.000001  0.749295  1
  Ce  Ce2  1  0.500556  0.499436  0.251694  1
  Ce  Ce3  1  0.500565  0.001106  0.251712  1
  Ce  Ce4  1  0.998873  0.499423  0.251697  1
  Ce  Ce5  1  0.501616  0.498390  0.749332  1
  Ce  Ce6  1  0.501690  0.003362  0.749300  1
  Ce  Ce7  1  0.996708  0.498350  0.749324  1
  Co  Co8  1  0.333318  0.666643  0.490792  1
  Co  Co9  1  0.666679  0.333351  0.507474  1
  Co  Co10  1  0.666696  0.333362  0.991930  1
  Si  Si11  1  0.170182  0.829821  0.501530  1
  Si  Si12  1  0.170248  0.340420  0.501509  1
  Si  Si13  1  0.659569  0.829751  0.501405  1
  Si  Si14  1  0.830335  0.169670  0.498844  1
  Si  Si15  1  0.830257  0.660582  0.498848  1
  Si  Si16  1  0.339430  0.169748  0.498743  1
  Si  Si17  1  0.829322  0.170659  0.001798  1
  Si  Si18  1  0.829280  0.658594  0.001797  1
  Si  Si19  1  0.341460  0.170735  0.001901  1
  Si  Si20  1  0.164390  0.835637  0.999213  1
  Si  Si21  1  0.164417  0.328767  0.999244  1
  Si  Si22  1  0.671173  0.835568  0.999353  1
  Rh  Rh23  1  0.333228  0.666623  0.002152  1
