# generated using pymatgen
data_Dy3Zr(SnRh5)2
_symmetry_space_group_name_H-M   'P 1'
_cell_length_a   5.71573623
_cell_length_b   5.71573577
_cell_length_c   8.52256106
_cell_angle_alpha   89.99087785
_cell_angle_beta   89.99087927
_cell_angle_gamma   97.22008152
_symmetry_Int_Tables_number   1
_chemical_formula_structural   Dy3Zr(SnRh5)2
_chemical_formula_sum   'Dy3 Zr1 Sn2 Rh10'
_cell_volume   276.22123363
_cell_formula_units_Z   1
loop_
 _symmetry_equiv_pos_site_id
 _symmetry_equiv_pos_as_xyz
  1  'x, y, z'
loop_
 _atom_site_type_symbol
 _atom_site_label
 _atom_site_symmetry_multiplicity
 _atom_site_fract_x
 _atom_site_fract_y
 _atom_site_fract_z
 _atom_site_occupancy
  Dy  Dy0  1  0.779710  0.220290  0.500000  1
  Dy  Dy1  1  0.220786  0.779214  0.000000  1
  Dy  Dy2  1  0.220647  0.779353  0.500000  1
  Zr  Zr3  1  0.783839  0.216161  0.000000  1
  Sn  Sn4  1  0.503398  0.500391  0.751159  1
  Sn  Sn5  1  0.499609  0.496602  0.248841  1
  Rh  Rh6  1  0.725369  0.726507  0.000858  1
  Rh  Rh7  1  0.725417  0.726607  0.498941  1
  Rh  Rh8  1  0.273493  0.274631  0.999142  1
  Rh  Rh9  1  0.273393  0.274583  0.501059  1
  Rh  Rh10  1  0.503646  0.004686  0.755945  1
  Rh  Rh11  1  0.503899  0.003628  0.244098  1
  Rh  Rh12  1  0.997852  0.002743  0.244166  1
  Rh  Rh13  1  0.997257  0.002148  0.755834  1
  Rh  Rh14  1  0.996372  0.496101  0.755902  1
  Rh  Rh15  1  0.995314  0.496354  0.244055  1
