# generated using pymatgen
data_TbNd(Be11Cu2)2
_symmetry_space_group_name_H-M   'P 1'
_cell_length_a   7.39726188
_cell_length_b   7.39207045
_cell_length_c   7.35804662
_cell_angle_alpha   60.19906644
_cell_angle_beta   60.12846542
_cell_angle_gamma   59.67228551
_symmetry_Int_Tables_number   1
_chemical_formula_structural   TbNd(Be11Cu2)2
_chemical_formula_sum   'Tb1 Nd1 Be22 Cu4'
_cell_volume   284.48702395
_cell_formula_units_Z   1
loop_
 _symmetry_equiv_pos_site_id
 _symmetry_equiv_pos_as_xyz
  1  'x, y, z'
loop_
 _atom_site_type_symbol
 _atom_site_label
 _atom_site_symmetry_multiplicity
 _atom_site_fract_x
 _atom_site_fract_y
 _atom_site_fract_z
 _atom_site_occupancy
  Tb  Tb0  1  0.750006  0.749993  0.750007  1
  Nd  Nd1  1  0.250007  0.249990  0.250009  1
  Be  Be2  1  0.433359  0.792545  0.568418  1
  Be  Be3  1  0.561094  0.440530  0.797540  1
  Be  Be4  1  0.792543  0.433364  0.205668  1
  Be  Be5  1  0.797535  0.200832  0.561097  1
  Be  Be6  1  0.205675  0.568419  0.792545  1
  Be  Be7  1  0.440534  0.561097  0.200853  1
  Be  Be8  1  0.568420  0.205676  0.433361  1
  Be  Be9  1  0.200854  0.797515  0.440536  1
  Be  Be10  1  0.939260  0.715076  0.059152  1
  Be  Be11  1  0.715057  0.939276  0.286499  1
  Be  Be12  1  0.059155  0.286511  0.939259  1
  Be  Be13  1  0.286503  0.059165  0.715061  1
  Be  Be14  1  0.720992  0.068014  0.930393  1
  Be  Be15  1  0.065863  0.933018  0.715826  1
  Be  Be16  1  0.068029  0.720994  0.280600  1
  Be  Be17  1  0.285297  0.715822  0.933014  1
  Be  Be18  1  0.930393  0.280591  0.721003  1
  Be  Be19  1  0.933012  0.065863  0.285298  1
  Be  Be20  1  0.280607  0.930384  0.068019  1
  Be  Be21  1  0.715826  0.285297  0.065861  1
  Be  Be22  1  0.499993  0.500005  0.499994  1
  Be  Be23  1  0.000007  0.999991  0.000009  1
  Cu  Cu24  1  0.801896  0.559769  0.443549  1
  Cu  Cu25  1  0.559759  0.801902  0.194768  1
  Cu  Cu26  1  0.194779  0.443563  0.559763  1
  Cu  Cu27  1  0.443544  0.194798  0.801897  1
