# generated using pymatgen
data_RbFeGe3O8
_symmetry_space_group_name_H-M   'P 1'
_cell_length_a   7.76955244
_cell_length_b   8.17664623
_cell_length_c   8.57424158
_cell_angle_alpha   112.03183283
_cell_angle_beta   104.32353864
_cell_angle_gamma   104.04209419
_symmetry_Int_Tables_number   1
_chemical_formula_structural   RbFeGe3O8
_chemical_formula_sum   'Rb2 Fe2 Ge6 O16'
_cell_volume   453.83755822
_cell_formula_units_Z   2
loop_
 _symmetry_equiv_pos_site_id
 _symmetry_equiv_pos_as_xyz
  1  'x, y, z'
loop_
 _atom_site_type_symbol
 _atom_site_label
 _atom_site_symmetry_multiplicity
 _atom_site_fract_x
 _atom_site_fract_y
 _atom_site_fract_z
 _atom_site_occupancy
  Rb  Rb0  1  0.138326  0.290279  0.276869  1
  Rb  Rb1  1  0.861674  0.709721  0.723131  1
  Fe  Fe2  1  0.216513  0.812092  0.197814  1
  Fe  Fe3  1  0.783487  0.187908  0.802186  1
  Ge  Ge4  1  0.232494  0.189586  0.828463  1
  Ge  Ge5  1  0.767506  0.810414  0.171537  1
  Ge  Ge6  1  0.342244  0.594100  0.838194  1
  Ge  Ge7  1  0.348878  0.825928  0.599866  1
  Ge  Ge8  1  0.657756  0.405900  0.161806  1
  Ge  Ge9  1  0.651122  0.174072  0.400134  1
  O  O10  1  0.271735  0.625867  0.641681  1
  O  O11  1  0.728265  0.374133  0.358319  1
  O  O12  1  0.403532  0.057211  0.294605  1
  O  O13  1  0.405757  0.279165  0.050993  1
  O  O14  1  0.596468  0.942789  0.705395  1
  O  O15  1  0.594243  0.720835  0.949007  1
  O  O16  1  0.259703  0.712690  0.362269  1
  O  O17  1  0.292933  0.344389  0.733703  1
  O  O18  1  0.740297  0.287310  0.637731  1
  O  O19  1  0.707067  0.655611  0.266297  1
  O  O20  1  0.206178  0.649879  0.967817  1
  O  O21  1  0.210709  0.961890  0.675048  1
  O  O22  1  0.793822  0.350121  0.032183  1
  O  O23  1  0.789291  0.038110  0.324952  1
  O  O24  1  0.983489  0.851229  0.139728  1
  O  O25  1  0.016511  0.148771  0.860272  1
