# generated using pymatgen
data_ScPaCdPt2
_symmetry_space_group_name_H-M   'P 1'
_cell_length_a   7.60126700
_cell_length_b   7.80569300
_cell_length_c   3.56845300
_cell_angle_alpha   90.00000000
_cell_angle_beta   90.00000000
_cell_angle_gamma   90.00000000
_symmetry_Int_Tables_number   1
_chemical_formula_structural   ScPaCdPt2
_chemical_formula_sum   'Sc2 Pa2 Cd2 Pt4'
_cell_volume   211.72758072
_cell_formula_units_Z   2
loop_
 _symmetry_equiv_pos_site_id
 _symmetry_equiv_pos_as_xyz
  1  'x, y, z'
loop_
 _atom_site_type_symbol
 _atom_site_label
 _atom_site_symmetry_multiplicity
 _atom_site_fract_x
 _atom_site_fract_y
 _atom_site_fract_z
 _atom_site_occupancy
  Sc  Sc0  1  0.827681  0.670802  0.500000  1
  Sc  Sc1  1  0.672319  0.170802  0.500000  1
  Pa  Pa2  1  0.160691  0.331838  0.500000  1
  Pa  Pa3  1  0.339309  0.831838  0.500000  1
  Cd  Cd4  1  0.512249  0.494239  0.000000  1
  Cd  Cd5  1  0.987751  0.994239  0.000000  1
  Pt  Pt6  1  0.626694  0.869858  0.000000  1
  Pt  Pt7  1  0.137560  0.633262  0.000000  1
  Pt  Pt8  1  0.873306  0.369858  0.000000  1
  Pt  Pt9  1  0.362440  0.133262  0.000000  1
