# generated using pymatgen
data_Ca2LaEu7Si6
_symmetry_space_group_name_H-M   'P 1'
_cell_length_a   9.23585419
_cell_length_b   9.23585472
_cell_length_c   9.23750300
_cell_angle_alpha   130.24838085
_cell_angle_beta   130.24837549
_cell_angle_gamma   73.00010995
_symmetry_Int_Tables_number   1
_chemical_formula_structural   Ca2LaEu7Si6
_chemical_formula_sum   'Ca2 La1 Eu7 Si6'
_cell_volume   448.32689508
_cell_formula_units_Z   1
loop_
 _symmetry_equiv_pos_site_id
 _symmetry_equiv_pos_as_xyz
  1  'x, y, z'
loop_
 _atom_site_type_symbol
 _atom_site_label
 _atom_site_symmetry_multiplicity
 _atom_site_fract_x
 _atom_site_fract_y
 _atom_site_fract_z
 _atom_site_occupancy
  Ca  Ca0  1  0.001296  0.997414  0.000310  1
  Ca  Ca1  1  0.497414  0.501296  0.000310  1
  La  La2  1  0.823788  0.323788  0.860162  1
  Eu  Eu3  1  0.179495  0.679495  0.147433  1
  Eu  Eu4  1  0.467868  0.967868  0.144553  1
  Eu  Eu5  1  0.322801  0.468623  0.500701  1
  Eu  Eu6  1  0.031048  0.177585  0.499286  1
  Eu  Eu7  1  0.531210  0.031210  0.853253  1
  Eu  Eu8  1  0.677585  0.531048  0.499286  1
  Eu  Eu9  1  0.968623  0.822801  0.500701  1
  Si  Si10  1  0.110026  0.610026  0.719912  1
  Si  Si11  1  0.888423  0.388423  0.273860  1
  Si  Si12  1  0.614411  0.891434  0.503152  1
  Si  Si13  1  0.391434  0.114411  0.503152  1
  Si  Si14  1  0.244182  0.250393  0.996964  1
  Si  Si15  1  0.750393  0.744182  0.996964  1
