# generated using pymatgen
data_Ta6Be7Ni16
_symmetry_space_group_name_H-M   'P 1'
_cell_length_a   7.74866411
_cell_length_b   7.74866438
_cell_length_c   7.74866300
_cell_angle_alpha   60.00000164
_cell_angle_beta   60.00000048
_cell_angle_gamma   59.99999901
_symmetry_Int_Tables_number   1
_chemical_formula_structural   Ta6Be7Ni16
_chemical_formula_sum   'Ta6 Be7 Ni16'
_cell_volume   328.97694676
_cell_formula_units_Z   1
loop_
 _symmetry_equiv_pos_site_id
 _symmetry_equiv_pos_as_xyz
  1  'x, y, z'
loop_
 _atom_site_type_symbol
 _atom_site_label
 _atom_site_symmetry_multiplicity
 _atom_site_fract_x
 _atom_site_fract_y
 _atom_site_fract_z
 _atom_site_occupancy
  Ta  Ta0  1  0.204822  0.795178  0.795178  1
  Ta  Ta1  1  0.795178  0.795178  0.204822  1
  Ta  Ta2  1  0.795178  0.204822  0.204822  1
  Ta  Ta3  1  0.204822  0.204822  0.795178  1
  Ta  Ta4  1  0.795178  0.204822  0.795178  1
  Ta  Ta5  1  0.204822  0.795178  0.204822  1
  Be  Be6  1  0.500000  0.000000  0.500000  1
  Be  Be7  1  0.500000  0.500000  0.000000  1
  Be  Be8  1  0.500000  0.500000  0.500000  1
  Be  Be9  1  0.000000  0.000000  0.500000  1
  Be  Be10  1  0.000000  0.500000  0.000000  1
  Be  Be11  1  0.000000  0.500000  0.500000  1
  Be  Be12  1  0.500000  0.000000  0.000000  1
  Ni  Ni13  1  0.617795  0.617795  0.146613  1
  Ni  Ni14  1  0.166086  0.501742  0.166086  1
  Ni  Ni15  1  0.853387  0.382205  0.382205  1
  Ni  Ni16  1  0.498258  0.833914  0.833914  1
  Ni  Ni17  1  0.501742  0.166086  0.166086  1
  Ni  Ni18  1  0.833914  0.833914  0.498258  1
  Ni  Ni19  1  0.166086  0.166086  0.501742  1
  Ni  Ni20  1  0.146613  0.617795  0.617795  1
  Ni  Ni21  1  0.166086  0.166086  0.166086  1
  Ni  Ni22  1  0.382205  0.382205  0.853387  1
  Ni  Ni23  1  0.617795  0.617795  0.617795  1
  Ni  Ni24  1  0.382205  0.853387  0.382205  1
  Ni  Ni25  1  0.382205  0.382205  0.382205  1
  Ni  Ni26  1  0.833914  0.833914  0.833914  1
  Ni  Ni27  1  0.617795  0.146613  0.617795  1
  Ni  Ni28  1  0.833914  0.498258  0.833914  1
