# generated using pymatgen
data_ScU(Tl2Se3)2
_symmetry_space_group_name_H-M   'P 1'
_cell_length_a   7.41573604
_cell_length_b   7.41573743
_cell_length_c   8.05763100
_cell_angle_alpha   81.00499011
_cell_angle_beta   81.00498841
_cell_angle_gamma   120.04214128
_symmetry_Int_Tables_number   1
_chemical_formula_structural   ScU(Tl2Se3)2
_chemical_formula_sum   'Sc1 U1 Tl4 Se6'
_cell_volume   364.32452058
_cell_formula_units_Z   1
loop_
 _symmetry_equiv_pos_site_id
 _symmetry_equiv_pos_as_xyz
  1  'x, y, z'
loop_
 _atom_site_type_symbol
 _atom_site_label
 _atom_site_symmetry_multiplicity
 _atom_site_fract_x
 _atom_site_fract_y
 _atom_site_fract_z
 _atom_site_occupancy
  Sc  Sc0  1  0.166848  0.833152  0.000000  1
  U  U1  1  0.832283  0.167717  0.000000  1
  Tl  Tl2  1  0.345460  0.654540  0.500000  1
  Tl  Tl3  1  0.655189  0.344811  0.500000  1
  Tl  Tl4  1  0.000015  0.999985  0.500000  1
  Tl  Tl5  1  0.500014  0.499986  0.000000  1
  Se  Se6  1  0.811198  0.811279  0.196892  1
  Se  Se7  1  0.429120  0.050115  0.206550  1
  Se  Se8  1  0.050567  0.429299  0.207218  1
  Se  Se9  1  0.570701  0.949433  0.792782  1
  Se  Se10  1  0.949885  0.570880  0.793450  1
  Se  Se11  1  0.188721  0.188802  0.803108  1
