# generated using pymatgen
data_Th2Si5RuRh2
_symmetry_space_group_name_H-M   'P 1'
_cell_length_a   8.25510474
_cell_length_b   8.25510262
_cell_length_c   8.25510371
_cell_angle_alpha   137.96194006
_cell_angle_beta   105.70245581
_cell_angle_gamma   89.23555444
_symmetry_Int_Tables_number   1
_chemical_formula_structural   Th2Si5RuRh2
_chemical_formula_sum   'Th4 Si10 Ru2 Rh4'
_cell_volume   346.93711112
_cell_formula_units_Z   2
loop_
 _symmetry_equiv_pos_site_id
 _symmetry_equiv_pos_as_xyz
  1  'x, y, z'
loop_
 _atom_site_type_symbol
 _atom_site_label
 _atom_site_symmetry_multiplicity
 _atom_site_fract_x
 _atom_site_fract_y
 _atom_site_fract_z
 _atom_site_occupancy
  Th  Th0  1  0.863247  0.629349  0.233899  1
  Th  Th1  1  0.136753  0.370651  0.766101  1
  Th  Th2  1  0.395450  0.129349  0.266101  1
  Th  Th3  1  0.604550  0.870651  0.733899  1
  Si  Si4  1  0.500000  0.750000  0.250000  1
  Si  Si5  1  0.500000  0.250000  0.750000  1
  Si  Si6  1  0.224405  0.974405  0.750000  1
  Si  Si7  1  0.775595  0.525595  0.750000  1
  Si  Si8  1  0.775595  0.025595  0.250000  1
  Si  Si9  1  0.224405  0.474405  0.250000  1
  Si  Si10  1  0.044185  0.894412  0.149774  1
  Si  Si11  1  0.955815  0.105588  0.850226  1
  Si  Si12  1  0.744638  0.394412  0.350226  1
  Si  Si13  1  0.255362  0.605588  0.649774  1
  Ru  Ru14  1  0.000000  0.750000  0.750000  1
  Ru  Ru15  1  0.000000  0.250000  0.250000  1
  Rh  Rh16  1  0.249155  0.860400  0.388755  1
  Rh  Rh17  1  0.750845  0.139600  0.611245  1
  Rh  Rh18  1  0.471645  0.360400  0.111245  1
  Rh  Rh19  1  0.528355  0.639600  0.888755  1
