# generated using pymatgen
data_CsRb3(AlBr4)4
_symmetry_space_group_name_H-M   'P 1'
_cell_length_a   7.57360455
_cell_length_b   8.27518624
_cell_length_c   15.37504200
_cell_angle_alpha   85.77561580
_cell_angle_beta   90.34781188
_cell_angle_gamma   90.08439571
_symmetry_Int_Tables_number   1
_chemical_formula_structural   CsRb3(AlBr4)4
_chemical_formula_sum   'Cs1 Rb3 Al4 Br16'
_cell_volume   960.96371962
_cell_formula_units_Z   1
loop_
 _symmetry_equiv_pos_site_id
 _symmetry_equiv_pos_as_xyz
  1  'x, y, z'
loop_
 _atom_site_type_symbol
 _atom_site_label
 _atom_site_symmetry_multiplicity
 _atom_site_fract_x
 _atom_site_fract_y
 _atom_site_fract_z
 _atom_site_occupancy
  Cs  Cs0  1  0.989438  0.256807  0.139904  1
  Rb  Rb1  1  0.507829  0.255957  0.640015  1
  Rb  Rb2  1  0.008891  0.743557  0.860875  1
  Rb  Rb3  1  0.492068  0.743957  0.358662  1
  Al  Al4  1  0.353727  0.248038  0.360444  1
  Al  Al5  1  0.858111  0.751903  0.139405  1
  Al  Al6  1  0.644522  0.751914  0.639129  1
  Al  Al7  1  0.143744  0.247565  0.861272  1
  Br  Br8  1  0.869659  0.148910  0.907887  1
  Br  Br9  1  0.371229  0.849333  0.589936  1
  Br  Br10  1  0.131979  0.847086  0.090766  1
  Br  Br11  1  0.627286  0.150431  0.408886  1
  Br  Br12  1  0.398459  0.402102  0.229173  1
  Br  Br13  1  0.896732  0.602164  0.272500  1
  Br  Br14  1  0.604323  0.600293  0.771415  1
  Br  Br15  1  0.104381  0.401241  0.729530  1
  Br  Br16  1  0.655909  0.957262  0.159752  1
  Br  Br17  1  0.157478  0.035851  0.342127  1
  Br  Br18  1  0.341382  0.037990  0.841785  1
  Br  Br19  1  0.842231  0.962090  0.659259  1
  Br  Br20  1  0.236694  0.413597  0.461636  1
  Br  Br21  1  0.737127  0.591439  0.035966  1
  Br  Br22  1  0.761940  0.586626  0.537774  1
  Br  Br23  1  0.264862  0.413887  0.961904  1
