# generated using pymatgen
data_Nb2SiRu4Pt
_symmetry_space_group_name_H-M   'P 1'
_cell_length_a   4.05546400
_cell_length_b   5.45953007
_cell_length_c   10.75899508
_cell_angle_alpha   88.31604296
_cell_angle_beta   90.00000000
_cell_angle_gamma   90.00000000
_symmetry_Int_Tables_number   1
_chemical_formula_structural   Nb2SiRu4Pt
_chemical_formula_sum   'Nb4 Si2 Ru8 Pt2'
_cell_volume   238.11125375
_cell_formula_units_Z   2
loop_
 _symmetry_equiv_pos_site_id
 _symmetry_equiv_pos_as_xyz
  1  'x, y, z'
loop_
 _atom_site_type_symbol
 _atom_site_label
 _atom_site_symmetry_multiplicity
 _atom_site_fract_x
 _atom_site_fract_y
 _atom_site_fract_z
 _atom_site_occupancy
  Nb  Nb0  1  0.500000  0.841261  0.363094  1
  Nb  Nb1  1  0.500000  0.158739  0.636906  1
  Nb  Nb2  1  0.500000  0.319189  0.136076  1
  Nb  Nb3  1  0.500000  0.680811  0.863924  1
  Si  Si4  1  0.000000  0.500000  0.500000  1
  Si  Si5  1  0.000000  0.000000  0.000000  1
  Ru  Ru6  1  0.000000  0.500000  0.000000  1
  Ru  Ru7  1  0.000000  0.000000  0.500000  1
  Ru  Ru8  1  0.000000  0.078209  0.246350  1
  Ru  Ru9  1  0.000000  0.921791  0.753650  1
  Ru  Ru10  1  0.500000  0.821253  0.106577  1
  Ru  Ru11  1  0.500000  0.178747  0.893423  1
  Ru  Ru12  1  0.500000  0.325998  0.394487  1
  Ru  Ru13  1  0.500000  0.674002  0.605513  1
  Pt  Pt14  1  0.000000  0.576481  0.251706  1
  Pt  Pt15  1  0.000000  0.423519  0.748294  1
