# generated using pymatgen
data_BaErIn3B4Ir9
_symmetry_space_group_name_H-M   'P 1'
_cell_length_a   5.67103200
_cell_length_b   5.67103133
_cell_length_c   10.34009900
_cell_angle_alpha   90.00000000
_cell_angle_beta   90.00000000
_cell_angle_gamma   120.00000393
_symmetry_Int_Tables_number   1
_chemical_formula_structural   BaErIn3B4Ir9
_chemical_formula_sum   'Ba1 Er1 In3 B4 Ir9'
_cell_volume   287.99135792
_cell_formula_units_Z   1
loop_
 _symmetry_equiv_pos_site_id
 _symmetry_equiv_pos_as_xyz
  1  'x, y, z'
loop_
 _atom_site_type_symbol
 _atom_site_label
 _atom_site_symmetry_multiplicity
 _atom_site_fract_x
 _atom_site_fract_y
 _atom_site_fract_z
 _atom_site_occupancy
  Ba  Ba0  1  0.000000  0.000000  0.527086  1
  Er  Er1  1  0.000000  0.000000  0.878744  1
  In  In2  1  0.666667  0.333333  0.525726  1
  In  In3  1  0.000000  0.000000  0.194179  1
  In  In4  1  0.333333  0.666667  0.525726  1
  B  B5  1  0.666667  0.333333  0.173171  1
  B  B6  1  0.333333  0.666667  0.882012  1
  B  B7  1  0.666667  0.333333  0.882012  1
  B  B8  1  0.333333  0.666667  0.173171  1
  Ir  Ir9  1  0.000000  0.469467  0.300991  1
  Ir  Ir10  1  0.493972  0.000000  0.751308  1
  Ir  Ir11  1  0.469467  0.000000  0.300991  1
  Ir  Ir12  1  0.000000  0.463161  0.027093  1
  Ir  Ir13  1  0.506028  0.506028  0.751308  1
  Ir  Ir14  1  0.000000  0.493972  0.751308  1
  Ir  Ir15  1  0.536839  0.536839  0.027093  1
  Ir  Ir16  1  0.463161  0.000000  0.027093  1
  Ir  Ir17  1  0.530533  0.530533  0.300991  1
