# generated using pymatgen
data_Pm4Mn3MoO12
_symmetry_space_group_name_H-M   'P 1'
_cell_length_a   5.50349103
_cell_length_b   5.90296138
_cell_length_c   7.85973666
_cell_angle_alpha   90.95020389
_cell_angle_beta   89.67027628
_cell_angle_gamma   90.22207798
_symmetry_Int_Tables_number   1
_chemical_formula_structural   Pm4Mn3MoO12
_chemical_formula_sum   'Pm4 Mn3 Mo1 O12'
_cell_volume   255.29727442
_cell_formula_units_Z   1
loop_
 _symmetry_equiv_pos_site_id
 _symmetry_equiv_pos_as_xyz
  1  'x, y, z'
loop_
 _atom_site_type_symbol
 _atom_site_label
 _atom_site_symmetry_multiplicity
 _atom_site_fract_x
 _atom_site_fract_y
 _atom_site_fract_z
 _atom_site_occupancy
  Pm  Pm0  1  0.982147  0.075231  0.257725  1
  Pm  Pm1  1  0.514774  0.568338  0.260433  1
  Pm  Pm2  1  0.485226  0.431662  0.739567  1
  Pm  Pm3  1  0.017853  0.924769  0.742275  1
  Mn  Mn4  1  0.000000  0.499999  0.000000  1
  Mn  Mn5  1  0.500001  0.000000  0.500000  1
  Mn  Mn6  1  0.000000  0.499999  0.500000  1
  Mo  Mo7  1  0.500001  0.000000  0.000000  1
  O  O8  1  0.680246  0.295459  0.062619  1
  O  O9  1  0.801926  0.816797  0.056478  1
  O  O10  1  0.106976  0.462856  0.260094  1
  O  O11  1  0.385767  0.959010  0.256899  1
  O  O12  1  0.706125  0.319348  0.448426  1
  O  O13  1  0.788057  0.822149  0.446324  1
  O  O14  1  0.211943  0.177851  0.553676  1
  O  O15  1  0.293875  0.680651  0.551574  1
  O  O16  1  0.614233  0.040991  0.743101  1
  O  O17  1  0.893024  0.537144  0.739906  1
  O  O18  1  0.198074  0.183203  0.943523  1
  O  O19  1  0.319754  0.704540  0.937382  1
