# generated using pymatgen
data_Hf4MgTc24
_symmetry_space_group_name_H-M   'P 1'
_cell_length_a   8.39481560
_cell_length_b   8.39481673
_cell_length_c   8.39481600
_cell_angle_alpha   109.47121888
_cell_angle_beta   109.47122161
_cell_angle_gamma   109.47122376
_symmetry_Int_Tables_number   1
_chemical_formula_structural   Hf4MgTc24
_chemical_formula_sum   'Hf4 Mg1 Tc24'
_cell_volume   455.41953796
_cell_formula_units_Z   1
loop_
 _symmetry_equiv_pos_site_id
 _symmetry_equiv_pos_as_xyz
  1  'x, y, z'
loop_
 _atom_site_type_symbol
 _atom_site_label
 _atom_site_symmetry_multiplicity
 _atom_site_fract_x
 _atom_site_fract_y
 _atom_site_fract_z
 _atom_site_occupancy
  Hf  Hf0  1  0.628944  0.000000  0.000000  1
  Hf  Hf1  1  0.000000  0.628944  0.000000  1
  Hf  Hf2  1  0.000000  0.000000  0.628944  1
  Hf  Hf3  1  0.371056  0.371056  0.371056  1
  Mg  Mg4  1  0.000000  0.000000  0.000000  1
  Tc  Tc5  1  0.393258  0.673593  0.000000  1
  Tc  Tc6  1  0.719666  0.326407  0.326407  1
  Tc  Tc7  1  0.393258  0.000000  0.673593  1
  Tc  Tc8  1  0.673593  0.393258  0.000000  1
  Tc  Tc9  1  0.000000  0.393258  0.673593  1
  Tc  Tc10  1  0.326407  0.719666  0.326407  1
  Tc  Tc11  1  0.326407  0.326407  0.719666  1
  Tc  Tc12  1  0.000000  0.673593  0.393258  1
  Tc  Tc13  1  0.673593  0.000000  0.393258  1
  Tc  Tc14  1  0.606742  0.606742  0.280334  1
  Tc  Tc15  1  0.280334  0.606742  0.606742  1
  Tc  Tc16  1  0.606742  0.280334  0.606742  1
  Tc  Tc17  1  0.373607  0.193245  0.000000  1
  Tc  Tc18  1  0.180362  0.806755  0.806755  1
  Tc  Tc19  1  0.373607  0.000000  0.193245  1
  Tc  Tc20  1  0.193245  0.373607  0.000000  1
  Tc  Tc21  1  0.000000  0.373607  0.193245  1
  Tc  Tc22  1  0.806755  0.180362  0.806755  1
  Tc  Tc23  1  0.806755  0.806755  0.180362  1
  Tc  Tc24  1  0.000000  0.193245  0.373607  1
  Tc  Tc25  1  0.193245  0.000000  0.373607  1
  Tc  Tc26  1  0.626393  0.626393  0.819638  1
  Tc  Tc27  1  0.819638  0.626393  0.626393  1
  Tc  Tc28  1  0.626393  0.819638  0.626393  1
