# generated using pymatgen
data_RbAlGe3O8
_symmetry_space_group_name_H-M   'P 1'
_cell_length_a   7.63077128
_cell_length_b   8.15855732
_cell_length_c   8.34487592
_cell_angle_alpha   112.82206459
_cell_angle_beta   104.22308728
_cell_angle_gamma   103.12310299
_symmetry_Int_Tables_number   1
_chemical_formula_structural   RbAlGe3O8
_chemical_formula_sum   'Rb2 Al2 Ge6 O16'
_cell_volume   432.90823153
_cell_formula_units_Z   2
loop_
 _symmetry_equiv_pos_site_id
 _symmetry_equiv_pos_as_xyz
  1  'x, y, z'
loop_
 _atom_site_type_symbol
 _atom_site_label
 _atom_site_symmetry_multiplicity
 _atom_site_fract_x
 _atom_site_fract_y
 _atom_site_fract_z
 _atom_site_occupancy
  Rb  Rb0  1  0.137301  0.285789  0.277678  1
  Rb  Rb1  1  0.862699  0.714211  0.722322  1
  Al  Al2  1  0.223139  0.817707  0.196293  1
  Al  Al3  1  0.776861  0.182293  0.803707  1
  Ge  Ge4  1  0.221362  0.193177  0.822996  1
  Ge  Ge5  1  0.778638  0.806823  0.177004  1
  Ge  Ge6  1  0.347011  0.595979  0.835238  1
  Ge  Ge7  1  0.354107  0.830494  0.592947  1
  Ge  Ge8  1  0.652989  0.404021  0.164762  1
  Ge  Ge9  1  0.645893  0.169506  0.407053  1
  O  O10  1  0.286359  0.629419  0.634249  1
  O  O11  1  0.713641  0.370581  0.365751  1
  O  O12  1  0.397070  0.049411  0.296425  1
  O  O13  1  0.396179  0.300044  0.055121  1
  O  O14  1  0.602929  0.950589  0.703575  1
  O  O15  1  0.603821  0.699956  0.944879  1
  O  O16  1  0.997703  0.848048  0.146126  1
  O  O17  1  0.002297  0.151952  0.853874  1
  O  O18  1  0.263397  0.718605  0.349124  1
  O  O19  1  0.275469  0.341894  0.719409  1
  O  O20  1  0.736603  0.281395  0.650876  1
  O  O21  1  0.724531  0.658106  0.280591  1
  O  O22  1  0.216620  0.670888  0.972870  1
  O  O23  1  0.210380  0.963125  0.677649  1
  O  O24  1  0.783380  0.329112  0.027130  1
  O  O25  1  0.789620  0.036875  0.322351  1
