# generated using pymatgen
data_Ba8LaPrTi10O30
_symmetry_space_group_name_H-M   'P 1'
_cell_length_a   5.68132600
_cell_length_b   5.68132600
_cell_length_c   20.20552500
_cell_angle_alpha   90.00000000
_cell_angle_beta   90.00000000
_cell_angle_gamma   90.00000000
_symmetry_Int_Tables_number   1
_chemical_formula_structural   Ba8LaPrTi10O30
_chemical_formula_sum   'Ba8 La1 Pr1 Ti10 O30'
_cell_volume   652.18312838
_cell_formula_units_Z   1
loop_
 _symmetry_equiv_pos_site_id
 _symmetry_equiv_pos_as_xyz
  1  'x, y, z'
loop_
 _atom_site_type_symbol
 _atom_site_label
 _atom_site_symmetry_multiplicity
 _atom_site_fract_x
 _atom_site_fract_y
 _atom_site_fract_z
 _atom_site_occupancy
  Ba  Ba0  1  0.000000  0.000000  0.200292  1
  Ba  Ba1  1  0.500000  0.500000  0.200429  1
  Ba  Ba2  1  0.500000  0.500000  0.400509  1
  Ba  Ba3  1  0.500000  0.500000  0.599491  1
  Ba  Ba4  1  0.500000  0.500000  0.799571  1
  Ba  Ba5  1  0.000000  0.000000  0.400475  1
  Ba  Ba6  1  0.000000  0.000000  0.599525  1
  Ba  Ba7  1  0.000000  0.000000  0.799708  1
  La  La8  1  0.500000  0.500000  0.000000  1
  Pr  Pr9  1  0.000000  0.000000  0.000000  1
  Ti  Ti10  1  0.000000  0.500000  0.500000  1
  Ti  Ti11  1  0.000000  0.500000  0.302348  1
  Ti  Ti12  1  0.000000  0.500000  0.902068  1
  Ti  Ti13  1  0.000000  0.500000  0.697652  1
  Ti  Ti14  1  0.000000  0.500000  0.097932  1
  Ti  Ti15  1  0.500000  0.000000  0.302348  1
  Ti  Ti16  1  0.500000  0.000000  0.500000  1
  Ti  Ti17  1  0.500000  0.000000  0.902068  1
  Ti  Ti18  1  0.500000  0.000000  0.097932  1
  Ti  Ti19  1  0.500000  0.000000  0.697652  1
  O  O20  1  0.000000  0.500000  0.397970  1
  O  O21  1  0.000000  0.500000  0.807330  1
  O  O22  1  0.249991  0.750009  0.297625  1
  O  O23  1  0.250000  0.750000  0.500000  1
  O  O24  1  0.249991  0.750009  0.702375  1
  O  O25  1  0.249352  0.750648  0.911029  1
  O  O26  1  0.249352  0.750648  0.088971  1
  O  O27  1  0.500000  0.000000  0.397970  1
  O  O28  1  0.249991  0.249991  0.297625  1
  O  O29  1  0.500000  0.000000  0.192670  1
  O  O30  1  0.250000  0.250000  0.500000  1
  O  O31  1  0.249991  0.249991  0.702375  1
  O  O32  1  0.249352  0.249352  0.088971  1
  O  O33  1  0.500000  0.000000  0.807330  1
  O  O34  1  0.500000  0.000000  0.000000  1
  O  O35  1  0.249352  0.249352  0.911029  1
  O  O36  1  0.500000  0.000000  0.602030  1
  O  O37  1  0.750009  0.249991  0.297625  1
  O  O38  1  0.750000  0.250000  0.500000  1
  O  O39  1  0.750009  0.249991  0.702375  1
  O  O40  1  0.750648  0.249352  0.911029  1
  O  O41  1  0.750648  0.249352  0.088971  1
  O  O42  1  0.750009  0.750009  0.297625  1
  O  O43  1  0.750000  0.750000  0.500000  1
  O  O44  1  0.750009  0.750009  0.702375  1
  O  O45  1  0.750648  0.750648  0.911029  1
  O  O46  1  0.000000  0.500000  0.192670  1
  O  O47  1  0.000000  0.500000  0.602030  1
  O  O48  1  0.750648  0.750648  0.088971  1
  O  O49  1  0.000000  0.500000  0.000000  1
