# generated using pymatgen
data_Ho2Er3ReRuO12
_symmetry_space_group_name_H-M   'P 1'
_cell_length_a   6.80911214
_cell_length_b   6.80911386
_cell_length_c   7.46114139
_cell_angle_alpha   73.87923255
_cell_angle_beta   73.87922853
_cell_angle_gamma   49.02580779
_symmetry_Int_Tables_number   1
_chemical_formula_structural   Ho2Er3ReRuO12
_chemical_formula_sum   'Ho2 Er3 Re1 Ru1 O12'
_cell_volume   248.71916142
_cell_formula_units_Z   1
loop_
 _symmetry_equiv_pos_site_id
 _symmetry_equiv_pos_as_xyz
  1  'x, y, z'
loop_
 _atom_site_type_symbol
 _atom_site_label
 _atom_site_symmetry_multiplicity
 _atom_site_fract_x
 _atom_site_fract_y
 _atom_site_fract_z
 _atom_site_occupancy
  Ho  Ho0  1  0.710609  0.684720  0.642242  1
  Ho  Ho1  1  0.315280  0.289391  0.357758  1
  Er  Er2  1  0.689562  0.682081  0.173995  1
  Er  Er3  1  0.317919  0.310438  0.826005  1
  Er  Er4  1  0.006259  0.993741  0.500000  1
  Re  Re5  1  0.205455  0.794545  0.000000  1
  Ru  Ru6  1  0.770801  0.229199  0.000000  1
  O  O7  1  0.006622  0.997182  0.204288  1
  O  O8  1  0.002818  0.993378  0.795712  1
  O  O9  1  0.565956  0.085544  0.085772  1
  O  O10  1  0.408455  0.910707  0.915140  1
  O  O11  1  0.914456  0.434044  0.914228  1
  O  O12  1  0.089293  0.591545  0.084860  1
  O  O13  1  0.488433  0.510999  0.176936  1
  O  O14  1  0.489001  0.511567  0.823064  1
  O  O15  1  0.406456  0.893886  0.430958  1
  O  O16  1  0.598097  0.091584  0.577159  1
  O  O17  1  0.106114  0.593544  0.569042  1
  O  O18  1  0.908416  0.401903  0.422841  1
