# generated using pymatgen
data_ErV3(WO4)4
_symmetry_space_group_name_H-M   'P 1'
_cell_length_a   5.69268506
_cell_length_b   5.69264146
_cell_length_c   9.29550800
_cell_angle_alpha   91.86295592
_cell_angle_beta   88.13792439
_cell_angle_gamma   109.36404407
_symmetry_Int_Tables_number   1
_chemical_formula_structural   ErV3(WO4)4
_chemical_formula_sum   'Er1 V3 W4 O16'
_cell_volume   283.96801396
_cell_formula_units_Z   1
loop_
 _symmetry_equiv_pos_site_id
 _symmetry_equiv_pos_as_xyz
  1  'x, y, z'
loop_
 _atom_site_type_symbol
 _atom_site_label
 _atom_site_symmetry_multiplicity
 _atom_site_fract_x
 _atom_site_fract_y
 _atom_site_fract_z
 _atom_site_occupancy
  Er  Er0  1  0.874885  0.125016  0.625011  1
  V  V1  1  0.128544  0.871520  0.370431  1
  V  V2  1  0.621494  0.378475  0.879568  1
  V  V3  1  0.375123  0.624887  0.125022  1
  W  W4  1  0.003021  0.996973  0.004700  1
  W  W5  1  0.252152  0.747815  0.755594  1
  W  W6  1  0.497676  0.502335  0.494356  1
  W  W7  1  0.747148  0.252885  0.245395  1
  O  O8  1  0.034259  0.965743  0.788640  1
  O  O9  1  0.277626  0.722431  0.530270  1
  O  O10  1  0.779269  0.220721  0.026513  1
  O  O11  1  0.526196  0.473838  0.272654  1
  O  O12  1  0.715554  0.284451  0.461455  1
  O  O13  1  0.970893  0.029056  0.223513  1
  O  O14  1  0.472173  0.527879  0.719717  1
  O  O15  1  0.224042  0.775934  0.977293  1
  O  O16  1  0.531019  0.051196  0.761186  1
  O  O17  1  0.800879  0.781388  0.488585  1
  O  O18  1  0.296173  0.296875  0.001971  1
  O  O19  1  0.047240  0.545816  0.248145  1
  O  O20  1  0.948777  0.468929  0.761179  1
  O  O21  1  0.218608  0.199207  0.488622  1
  O  O22  1  0.703095  0.703825  0.001986  1
  O  O23  1  0.454150  0.952806  0.248183  1
