# generated using pymatgen
data_TiZnCo20B6Mo
_symmetry_space_group_name_H-M   'P 1'
_cell_length_a   7.41475552
_cell_length_b   7.41521706
_cell_length_c   7.41501200
_cell_angle_alpha   60.00293663
_cell_angle_beta   60.00095604
_cell_angle_gamma   60.00073959
_symmetry_Int_Tables_number   1
_chemical_formula_structural   TiZnCo20B6Mo
_chemical_formula_sum   'Ti1 Zn1 Co20 B6 Mo1'
_cell_volume   288.29211732
_cell_formula_units_Z   1
loop_
 _symmetry_equiv_pos_site_id
 _symmetry_equiv_pos_as_xyz
  1  'x, y, z'
loop_
 _atom_site_type_symbol
 _atom_site_label
 _atom_site_symmetry_multiplicity
 _atom_site_fract_x
 _atom_site_fract_y
 _atom_site_fract_z
 _atom_site_occupancy
  Ti  Ti0  1  0.749924  0.750094  0.750021  1
  Zn  Zn1  1  0.000033  0.999985  0.000006  1
  Co  Co2  1  0.854258  0.381894  0.381922  1
  Co  Co3  1  0.381898  0.854305  0.381890  1
  Co  Co4  1  0.381938  0.381891  0.854246  1
  Co  Co5  1  0.381938  0.381899  0.381924  1
  Co  Co6  1  0.147517  0.617505  0.617469  1
  Co  Co7  1  0.617474  0.147520  0.617486  1
  Co  Co8  1  0.617459  0.617494  0.147541  1
  Co  Co9  1  0.617476  0.617503  0.617486  1
  Co  Co10  1  0.657781  0.000136  0.000127  1
  Co  Co11  1  0.657795  0.000134  0.341966  1
  Co  Co12  1  0.657790  0.341926  0.000151  1
  Co  Co13  1  0.000150  0.657807  0.341915  1
  Co  Co14  1  0.000146  0.657786  0.000157  1
  Co  Co15  1  0.341930  0.657796  0.000149  1
  Co  Co16  1  0.000164  0.341929  0.657760  1
  Co  Co17  1  0.341927  0.000148  0.657813  1
  Co  Co18  1  0.000144  0.000148  0.657766  1
  Co  Co19  1  0.341933  0.000133  0.000127  1
  Co  Co20  1  0.000152  0.341900  0.000159  1
  Co  Co21  1  0.000133  0.000130  0.341924  1
  B  B22  1  0.724347  0.275627  0.275676  1
  B  B23  1  0.724331  0.275600  0.724383  1
  B  B24  1  0.724375  0.724361  0.275611  1
  B  B25  1  0.275636  0.724387  0.724371  1
  B  B26  1  0.275625  0.724397  0.275601  1
  B  B27  1  0.275716  0.275564  0.724361  1
  Mo  Mo28  1  0.250011  0.249999  0.249992  1
