# generated using pymatgen
data_Ce3NdAs7Ir8
_symmetry_space_group_name_H-M   'P 1'
_cell_length_a   4.16113400
_cell_length_b   13.26625271
_cell_length_c   13.70958500
_cell_angle_alpha   81.98073774
_cell_angle_beta   90.00000000
_cell_angle_gamma   90.00000000
_symmetry_Int_Tables_number   1
_chemical_formula_structural   Ce3NdAs7Ir8
_chemical_formula_sum   'Ce6 Nd2 As14 Ir16'
_cell_volume   749.40486255
_cell_formula_units_Z   2
loop_
 _symmetry_equiv_pos_site_id
 _symmetry_equiv_pos_as_xyz
  1  'x, y, z'
loop_
 _atom_site_type_symbol
 _atom_site_label
 _atom_site_symmetry_multiplicity
 _atom_site_fract_x
 _atom_site_fract_y
 _atom_site_fract_z
 _atom_site_occupancy
  Ce  Ce0  1  0.250000  0.100719  0.795295  1
  Ce  Ce1  1  0.750000  0.899281  0.204705  1
  Ce  Ce2  1  0.250000  0.288085  0.100571  1
  Ce  Ce3  1  0.750000  0.711915  0.899429  1
  Ce  Ce4  1  0.250000  0.517328  0.291527  1
  Ce  Ce5  1  0.750000  0.482672  0.708473  1
  Nd  Nd6  1  0.250000  0.206971  0.440490  1
  Nd  Nd7  1  0.750000  0.793029  0.559510  1
  As  As8  1  0.250000  0.061166  0.098312  1
  As  As9  1  0.750000  0.938834  0.901688  1
  As  As10  1  0.250000  0.311645  0.688727  1
  As  As11  1  0.750000  0.688355  0.311273  1
  As  As12  1  0.250000  0.607205  0.565737  1
  As  As13  1  0.750000  0.392795  0.434263  1
  As  As14  1  0.250000  0.846324  0.720133  1
  As  As15  1  0.750000  0.153676  0.279867  1
  As  As16  1  0.750000  0.254213  0.917686  1
  As  As17  1  0.250000  0.745787  0.082314  1
  As  As18  1  0.750000  0.095800  0.588282  1
  As  As19  1  0.250000  0.904200  0.411718  1
  As  As20  1  0.750000  0.472031  0.127151  1
  As  As21  1  0.250000  0.527969  0.872849  1
  Ir  Ir22  1  0.250000  0.989114  0.574901  1
  Ir  Ir23  1  0.750000  0.010886  0.425099  1
  Ir  Ir24  1  0.250000  0.661935  0.732740  1
  Ir  Ir25  1  0.750000  0.338065  0.267260  1
  Ir  Ir26  1  0.250000  0.552879  0.048314  1
  Ir  Ir27  1  0.750000  0.447121  0.951686  1
  Ir  Ir28  1  0.250000  0.052770  0.278137  1
  Ir  Ir29  1  0.750000  0.947230  0.721863  1
  Ir  Ir30  1  0.250000  0.426067  0.526566  1
  Ir  Ir31  1  0.750000  0.573933  0.473434  1
  Ir  Ir32  1  0.250000  0.920649  0.999459  1
  Ir  Ir33  1  0.750000  0.079351  0.000541  1
  Ir  Ir34  1  0.250000  0.720313  0.401248  1
  Ir  Ir35  1  0.750000  0.279687  0.598752  1
  Ir  Ir36  1  0.250000  0.342559  0.861499  1
  Ir  Ir37  1  0.750000  0.657441  0.138501  1
