# generated using pymatgen
data_Ca12Ga11Ag13
_symmetry_space_group_name_H-M   'P 1'
_cell_length_a   4.67498800
_cell_length_b   7.90118333
_cell_length_c   22.09669988
_cell_angle_alpha   89.81684270
_cell_angle_beta   90.00000000
_cell_angle_gamma   90.00000000
_symmetry_Int_Tables_number   1
_chemical_formula_structural   Ca12Ga11Ag13
_chemical_formula_sum   'Ca12 Ga11 Ag13'
_cell_volume   816.20234314
_cell_formula_units_Z   1
loop_
 _symmetry_equiv_pos_site_id
 _symmetry_equiv_pos_as_xyz
  1  'x, y, z'
loop_
 _atom_site_type_symbol
 _atom_site_label
 _atom_site_symmetry_multiplicity
 _atom_site_fract_x
 _atom_site_fract_y
 _atom_site_fract_z
 _atom_site_occupancy
  Ca  Ca0  1  0.250000  0.201918  0.999780  1
  Ca  Ca1  1  0.250000  0.297811  0.499549  1
  Ca  Ca2  1  0.750000  0.797831  0.000625  1
  Ca  Ca3  1  0.750000  0.699572  0.498085  1
  Ca  Ca4  1  0.250000  0.205222  0.332824  1
  Ca  Ca5  1  0.250000  0.294647  0.832822  1
  Ca  Ca6  1  0.750000  0.799746  0.668018  1
  Ca  Ca7  1  0.750000  0.706574  0.167170  1
  Ca  Ca8  1  0.250000  0.201637  0.666746  1
  Ca  Ca9  1  0.250000  0.296395  0.166193  1
  Ca  Ca10  1  0.750000  0.795572  0.333324  1
  Ca  Ca11  1  0.750000  0.703444  0.833432  1
  Ga  Ga12  1  0.250000  0.585758  0.729675  1
  Ga  Ga13  1  0.250000  0.915460  0.230643  1
  Ga  Ga14  1  0.750000  0.415195  0.270336  1
  Ga  Ga15  1  0.750000  0.084817  0.770632  1
  Ga  Ga16  1  0.250000  0.913635  0.105105  1
  Ga  Ga17  1  0.250000  0.584535  0.607205  1
  Ga  Ga18  1  0.750000  0.085832  0.895294  1
  Ga  Ga19  1  0.750000  0.413315  0.395438  1
  Ga  Ga20  1  0.250000  0.583316  0.933931  1
  Ga  Ga21  1  0.250000  0.915165  0.434162  1
  Ga  Ga22  1  0.750000  0.417600  0.066124  1
  Ag  Ag23  1  0.250000  0.913852  0.765373  1
  Ag  Ag24  1  0.250000  0.586647  0.265566  1
  Ag  Ag25  1  0.750000  0.086925  0.234662  1
  Ag  Ag26  1  0.750000  0.412511  0.734309  1
  Ag  Ag27  1  0.250000  0.913504  0.902517  1
  Ag  Ag28  1  0.250000  0.584755  0.402492  1
  Ag  Ag29  1  0.750000  0.086411  0.097296  1
  Ag  Ag30  1  0.750000  0.428526  0.600290  1
  Ag  Ag31  1  0.250000  0.897758  0.561359  1
  Ag  Ag32  1  0.250000  0.586696  0.064012  1
  Ag  Ag33  1  0.750000  0.084657  0.432647  1
  Ag  Ag34  1  0.750000  0.414162  0.935335  1
  Ag  Ag35  1  0.750000  0.088604  0.567026  1
