# generated using pymatgen
data_TbPaPd2Pb
_symmetry_space_group_name_H-M   'P 1'
_cell_length_a   7.92998200
_cell_length_b   7.88380200
_cell_length_c   3.67842000
_cell_angle_alpha   90.00000000
_cell_angle_beta   90.00000000
_cell_angle_gamma   90.00000000
_symmetry_Int_Tables_number   1
_chemical_formula_structural   TbPaPd2Pb
_chemical_formula_sum   'Tb2 Pa2 Pd4 Pb2'
_cell_volume   229.96896218
_cell_formula_units_Z   2
loop_
 _symmetry_equiv_pos_site_id
 _symmetry_equiv_pos_as_xyz
  1  'x, y, z'
loop_
 _atom_site_type_symbol
 _atom_site_label
 _atom_site_symmetry_multiplicity
 _atom_site_fract_x
 _atom_site_fract_y
 _atom_site_fract_z
 _atom_site_occupancy
  Tb  Tb0  1  0.826340  0.673002  0.500000  1
  Tb  Tb1  1  0.326340  0.826998  0.500000  1
  Pa  Pa2  1  0.670997  0.170704  0.500000  1
  Pa  Pa3  1  0.170997  0.329296  0.500000  1
  Pd  Pd4  1  0.372688  0.140347  0.000000  1
  Pd  Pd5  1  0.126816  0.609272  0.000000  1
  Pd  Pd6  1  0.626816  0.890728  0.000000  1
  Pd  Pd7  1  0.872688  0.359653  0.000000  1
  Pb  Pb8  1  0.003160  0.990398  0.000000  1
  Pb  Pb9  1  0.503160  0.509602  0.000000  1
