# generated using pymatgen
data_Rb3LuAs2
_symmetry_space_group_name_H-M   'P 1'
_cell_length_a   9.60609424
_cell_length_b   9.60609566
_cell_length_c   9.60609450
_cell_angle_alpha   128.40599918
_cell_angle_beta   70.47733564
_cell_angle_gamma   135.47544236
_symmetry_Int_Tables_number   1
_chemical_formula_structural   Rb3LuAs2
_chemical_formula_sum   'Rb6 Lu2 As4'
_cell_volume   477.45170971
_cell_formula_units_Z   2
loop_
 _symmetry_equiv_pos_site_id
 _symmetry_equiv_pos_as_xyz
  1  'x, y, z'
loop_
 _atom_site_type_symbol
 _atom_site_label
 _atom_site_symmetry_multiplicity
 _atom_site_fract_x
 _atom_site_fract_y
 _atom_site_fract_z
 _atom_site_occupancy
  Rb  Rb0  1  0.810376  0.200631  0.011007  1
  Rb  Rb1  1  0.689624  0.700631  0.390254  1
  Rb  Rb2  1  0.750000  0.250001  0.500000  1
  Rb  Rb3  1  0.250001  0.750001  0.500000  1
  Rb  Rb4  1  0.310376  0.299369  0.609745  1
  Rb  Rb5  1  0.189624  0.799369  0.988993  1
  Lu  Lu6  1  0.250001  0.250001  0.000000  1
  Lu  Lu7  1  0.750001  0.750001  0.000000  1
  As  As8  1  0.405774  0.684631  0.090406  1
  As  As9  1  0.094226  0.184631  0.278857  1
  As  As10  1  0.905774  0.815369  0.721143  1
  As  As11  1  0.594225  0.315369  0.909594  1
