# generated using pymatgen
data_Tb2U(AlFe)3
_symmetry_space_group_name_H-M   'P 1'
_cell_length_a   6.71561052
_cell_length_b   6.71561099
_cell_length_c   3.93999800
_cell_angle_alpha   90.00000000
_cell_angle_beta   90.00000000
_cell_angle_gamma   117.62484360
_symmetry_Int_Tables_number   1
_chemical_formula_structural   Tb2U(AlFe)3
_chemical_formula_sum   'Tb2 U1 Al3 Fe3'
_cell_volume   157.43527047
_cell_formula_units_Z   1
loop_
 _symmetry_equiv_pos_site_id
 _symmetry_equiv_pos_as_xyz
  1  'x, y, z'
loop_
 _atom_site_type_symbol
 _atom_site_label
 _atom_site_symmetry_multiplicity
 _atom_site_fract_x
 _atom_site_fract_y
 _atom_site_fract_z
 _atom_site_occupancy
  Tb  Tb0  1  0.421195  0.012518  0.500000  1
  Tb  Tb1  1  0.012518  0.421195  0.500000  1
  U  U2  1  0.615395  0.615395  0.500000  1
  Al  Al3  1  0.755291  0.018091  0.000000  1
  Al  Al4  1  0.018091  0.755291  0.000000  1
  Al  Al5  1  0.208689  0.208689  0.000000  1
  Fe  Fe6  1  0.395586  0.628643  0.000000  1
  Fe  Fe7  1  0.628643  0.395586  0.000000  1
  Fe  Fe8  1  0.944592  0.944592  0.500000  1
