# generated using pymatgen
data_YbSmGaRh3
_symmetry_space_group_name_H-M   'P 1'
_cell_length_a   5.19004195
_cell_length_b   5.61893965
_cell_length_c   5.61894000
_cell_angle_alpha   59.99999793
_cell_angle_beta   57.22650380
_cell_angle_gamma   57.22652245
_symmetry_Int_Tables_number   1
_chemical_formula_structural   YbSmGaRh3
_chemical_formula_sum   'Yb1 Sm1 Ga1 Rh3'
_cell_volume   110.77076365
_cell_formula_units_Z   1
loop_
 _symmetry_equiv_pos_site_id
 _symmetry_equiv_pos_as_xyz
  1  'x, y, z'
loop_
 _atom_site_type_symbol
 _atom_site_label
 _atom_site_symmetry_multiplicity
 _atom_site_fract_x
 _atom_site_fract_y
 _atom_site_fract_z
 _atom_site_occupancy
  Yb  Yb0  1  0.734933  0.755022  0.755022  1
  Sm  Sm1  1  0.508592  0.497136  0.497136  1
  Ga  Ga2  1  0.624554  0.125149  0.125149  1
  Rh  Rh3  1  0.127307  0.122970  0.626751  1
  Rh  Rh4  1  0.127307  0.626751  0.122970  1
  Rh  Rh5  1  0.127307  0.122970  0.122970  1
