# generated using pymatgen
data_Dy2ZnB2Rh5
_symmetry_space_group_name_H-M   'P 1'
_cell_length_a   9.51656200
_cell_length_b   3.19035900
_cell_length_c   9.51656200
_cell_angle_alpha   90.00000000
_cell_angle_beta   90.00000000
_cell_angle_gamma   90.00000000
_symmetry_Int_Tables_number   1
_chemical_formula_structural   Dy2ZnB2Rh5
_chemical_formula_sum   'Dy4 Zn2 B4 Rh10'
_cell_volume   288.93471065
_cell_formula_units_Z   2
loop_
 _symmetry_equiv_pos_site_id
 _symmetry_equiv_pos_as_xyz
  1  'x, y, z'
loop_
 _atom_site_type_symbol
 _atom_site_label
 _atom_site_symmetry_multiplicity
 _atom_site_fract_x
 _atom_site_fract_y
 _atom_site_fract_z
 _atom_site_occupancy
  Dy  Dy0  1  0.675514  0.000000  0.175513  1
  Dy  Dy1  1  0.175513  0.000000  0.324486  1
  Dy  Dy2  1  0.824487  0.000000  0.675514  1
  Dy  Dy3  1  0.324486  0.000000  0.824487  1
  Zn  Zn4  1  0.000000  0.000000  0.000000  1
  Zn  Zn5  1  0.500000  0.000000  0.500000  1
  B  B6  1  0.376678  0.000000  0.123322  1
  B  B7  1  0.876679  0.000000  0.376678  1
  B  B8  1  0.123322  0.000000  0.623322  1
  B  B9  1  0.623322  0.000000  0.876679  1
  Rh  Rh10  1  0.500000  0.500001  0.000000  1
  Rh  Rh11  1  0.219978  0.500001  0.069948  1
  Rh  Rh12  1  0.930052  0.500001  0.219978  1
  Rh  Rh13  1  0.430052  0.500001  0.280021  1
  Rh  Rh14  1  0.719979  0.500001  0.430052  1
  Rh  Rh15  1  0.000000  0.500001  0.500000  1
  Rh  Rh16  1  0.280021  0.500001  0.569948  1
  Rh  Rh17  1  0.569948  0.500001  0.719979  1
  Rh  Rh18  1  0.069948  0.500001  0.780021  1
  Rh  Rh19  1  0.780021  0.500001  0.930052  1
