# generated using pymatgen
data_CsTbGeS4
_symmetry_space_group_name_H-M   'P 1'
_cell_length_a   6.82610800
_cell_length_b   6.53176952
_cell_length_c   19.05520671
_cell_angle_alpha   71.34278138
_cell_angle_beta   90.00000000
_cell_angle_gamma   90.00000000
_symmetry_Int_Tables_number   1
_chemical_formula_structural   CsTbGeS4
_chemical_formula_sum   'Cs4 Tb4 Ge4 S16'
_cell_volume   804.95888819
_cell_formula_units_Z   4
loop_
 _symmetry_equiv_pos_site_id
 _symmetry_equiv_pos_as_xyz
  1  'x, y, z'
loop_
 _atom_site_type_symbol
 _atom_site_label
 _atom_site_symmetry_multiplicity
 _atom_site_fract_x
 _atom_site_fract_y
 _atom_site_fract_z
 _atom_site_occupancy
  Cs  Cs0  1  0.750139  0.717159  0.033556  1
  Cs  Cs1  1  0.249861  0.282841  0.966444  1
  Cs  Cs2  1  0.749861  0.717159  0.533556  1
  Cs  Cs3  1  0.250139  0.282841  0.466444  1
  Tb  Tb4  1  0.231327  0.227178  0.228065  1
  Tb  Tb5  1  0.731327  0.772822  0.271935  1
  Tb  Tb6  1  0.768673  0.772822  0.771935  1
  Tb  Tb7  1  0.268673  0.227178  0.728065  1
  Ge  Ge8  1  0.733384  0.216384  0.831707  1
  Ge  Ge9  1  0.766616  0.216384  0.331707  1
  Ge  Ge10  1  0.233384  0.783616  0.668293  1
  Ge  Ge11  1  0.266616  0.783616  0.168293  1
  S  S12  1  0.502083  0.034680  0.148043  1
  S  S13  1  0.756450  0.419611  0.404639  1
  S  S14  1  0.001692  0.010387  0.841862  1
  S  S15  1  0.842825  0.434914  0.219204  1
  S  S16  1  0.997917  0.034680  0.648043  1
  S  S17  1  0.256450  0.580389  0.095361  1
  S  S18  1  0.743550  0.419611  0.904639  1
  S  S19  1  0.342825  0.565086  0.280796  1
  S  S20  1  0.243550  0.580389  0.595361  1
  S  S21  1  0.497917  0.965320  0.851957  1
  S  S22  1  0.657175  0.434914  0.719204  1
  S  S23  1  0.157175  0.565086  0.780796  1
  S  S24  1  0.002083  0.965320  0.351957  1
  S  S25  1  0.998308  0.989613  0.158138  1
  S  S26  1  0.498308  0.010387  0.341862  1
  S  S27  1  0.501692  0.989613  0.658138  1
