# generated using pymatgen
data_TbLuFe6Co
_symmetry_space_group_name_H-M   'P 1'
_cell_length_a   5.06312291
_cell_length_b   5.06807546
_cell_length_c   12.38377868
_cell_angle_alpha   78.34709233
_cell_angle_beta   78.20411340
_cell_angle_gamma   60.03231032
_symmetry_Int_Tables_number   1
_chemical_formula_structural   TbLuFe6Co
_chemical_formula_sum   'Tb2 Lu2 Fe12 Co2'
_cell_volume   267.59884620
_cell_formula_units_Z   2
loop_
 _symmetry_equiv_pos_site_id
 _symmetry_equiv_pos_as_xyz
  1  'x, y, z'
loop_
 _atom_site_type_symbol
 _atom_site_label
 _atom_site_symmetry_multiplicity
 _atom_site_fract_x
 _atom_site_fract_y
 _atom_site_fract_z
 _atom_site_occupancy
  Tb  Tb0  1  0.946246  0.946999  0.160506  1
  Tb  Tb1  1  0.053592  0.052363  0.840452  1
  Lu  Lu2  1  0.849451  0.850384  0.450713  1
  Lu  Lu3  1  0.149259  0.150827  0.550656  1
  Fe  Fe4  1  0.722204  0.721017  0.834575  1
  Fe  Fe5  1  0.277865  0.278659  0.165610  1
  Fe  Fe6  1  0.611059  0.612386  0.165497  1
  Fe  Fe7  1  0.389329  0.386732  0.834609  1
  Fe  Fe8  1  0.999570  0.499874  0.000217  1
  Fe  Fe9  1  0.500171  0.999372  0.000285  1
  Fe  Fe10  1  0.500340  0.499874  0.000217  1
  Fe  Fe11  1  0.388914  0.388796  0.331444  1
  Fe  Fe12  1  0.890849  0.388796  0.331444  1
  Fe  Fe13  1  0.388122  0.892203  0.331554  1
  Fe  Fe14  1  0.610540  0.611564  0.667634  1
  Fe  Fe15  1  0.110262  0.611564  0.667634  1
  Co  Co16  1  0.500087  0.501049  0.498778  1
  Co  Co17  1  0.612139  0.107544  0.668178  1
