# generated using pymatgen
data_YbY2Ho(Ga3Ir)6
_symmetry_space_group_name_H-M   'P 1'
_cell_length_a   7.58042857
_cell_length_b   7.58668707
_cell_length_c   9.53494400
_cell_angle_alpha   90.00000000
_cell_angle_beta   90.00000000
_cell_angle_gamma   119.83019293
_symmetry_Int_Tables_number   1
_chemical_formula_structural   YbY2Ho(Ga3Ir)6
_chemical_formula_sum   'Yb1 Y2 Ho1 Ga18 Ir6'
_cell_volume   475.70233711
_cell_formula_units_Z   1
loop_
 _symmetry_equiv_pos_site_id
 _symmetry_equiv_pos_as_xyz
  1  'x, y, z'
loop_
 _atom_site_type_symbol
 _atom_site_label
 _atom_site_symmetry_multiplicity
 _atom_site_fract_x
 _atom_site_fract_y
 _atom_site_fract_z
 _atom_site_occupancy
  Yb  Yb0  1  0.996880  0.667802  0.250000  1
  Y  Y1  1  0.002262  0.332085  0.750000  1
  Y  Y2  1  0.667977  0.997429  0.250000  1
  Ho  Ho3  1  0.331718  0.002074  0.750000  1
  Ga  Ga4  1  0.126360  0.126625  0.250000  1
  Ga  Ga5  1  0.873200  0.872910  0.750000  1
  Ga  Ga6  1  0.000162  0.335557  0.080155  1
  Ga  Ga7  1  0.000237  0.665659  0.921031  1
  Ga  Ga8  1  0.000237  0.665659  0.578969  1
  Ga  Ga9  1  0.332961  0.998795  0.420373  1
  Ga  Ga10  1  0.000162  0.335557  0.419845  1
  Ga  Ga11  1  0.665464  0.000555  0.580004  1
  Ga  Ga12  1  0.665464  0.000555  0.919996  1
  Ga  Ga13  1  0.332961  0.998795  0.079627  1
  Ga  Ga14  1  0.332665  0.332404  0.564314  1
  Ga  Ga15  1  0.668535  0.667212  0.437012  1
  Ga  Ga16  1  0.668535  0.667212  0.062988  1
  Ga  Ga17  1  0.332665  0.332404  0.935686  1
  Ga  Ga18  1  0.337955  0.546478  0.250000  1
  Ga  Ga19  1  0.661697  0.453890  0.750000  1
  Ga  Ga20  1  0.546463  0.337827  0.250000  1
  Ga  Ga21  1  0.453886  0.661898  0.750000  1
  Ir  Ir22  1  0.670718  0.328315  0.999704  1
  Ir  Ir23  1  0.329118  0.671290  0.999377  1
  Ir  Ir24  1  0.329118  0.671290  0.500623  1
  Ir  Ir25  1  0.670718  0.328315  0.500296  1
  Ir  Ir26  1  0.000941  0.000703  0.999175  1
  Ir  Ir27  1  0.000941  0.000703  0.500825  1
