# generated using pymatgen
data_Cs2FeMoSe4
_symmetry_space_group_name_H-M   'P 1'
_cell_length_a   7.59812685
_cell_length_b   7.59812791
_cell_length_c   5.75093675
_cell_angle_alpha   79.31202257
_cell_angle_beta   79.31201910
_cell_angle_gamma   117.66689405
_symmetry_Int_Tables_number   1
_chemical_formula_structural   Cs2FeMoSe4
_chemical_formula_sum   'Cs2 Fe1 Mo1 Se4'
_cell_volume   274.51949165
_cell_formula_units_Z   1
loop_
 _symmetry_equiv_pos_site_id
 _symmetry_equiv_pos_as_xyz
  1  'x, y, z'
loop_
 _atom_site_type_symbol
 _atom_site_label
 _atom_site_symmetry_multiplicity
 _atom_site_fract_x
 _atom_site_fract_y
 _atom_site_fract_z
 _atom_site_occupancy
  Cs  Cs0  1  0.146422  0.853578  0.000000  1
  Cs  Cs1  1  0.854073  0.145927  0.500000  1
  Fe  Fe2  1  0.498931  0.501069  0.500000  1
  Mo  Mo3  1  0.501061  0.498939  0.000000  1
  Se  Se4  1  0.210018  0.418310  0.840476  1
  Se  Se5  1  0.581690  0.789982  0.159524  1
  Se  Se6  1  0.790260  0.582456  0.651792  1
  Se  Se7  1  0.417544  0.209740  0.348208  1
