# generated using pymatgen
data_Sm8Lu12Ga15Ge
_symmetry_space_group_name_H-M   'P 1'
_cell_length_a   7.53639920
_cell_length_b   7.78529155
_cell_length_c   14.94937500
_cell_angle_alpha   89.95682922
_cell_angle_beta   89.93953698
_cell_angle_gamma   90.07309304
_symmetry_Int_Tables_number   1
_chemical_formula_structural   Sm8Lu12Ga15Ge
_chemical_formula_sum   'Sm8 Lu12 Ga15 Ge1'
_cell_volume   877.12419912
_cell_formula_units_Z   1
loop_
 _symmetry_equiv_pos_site_id
 _symmetry_equiv_pos_as_xyz
  1  'x, y, z'
loop_
 _atom_site_type_symbol
 _atom_site_label
 _atom_site_symmetry_multiplicity
 _atom_site_fract_x
 _atom_site_fract_y
 _atom_site_fract_z
 _atom_site_occupancy
  Sm  Sm0  1  0.016708  0.179308  0.094398  1
  Sm  Sm1  1  0.982581  0.817544  0.905283  1
  Sm  Sm2  1  0.483565  0.680676  0.905305  1
  Sm  Sm3  1  0.983174  0.820914  0.594995  1
  Sm  Sm4  1  0.517427  0.320628  0.095135  1
  Sm  Sm5  1  0.015976  0.178777  0.405079  1
  Sm  Sm6  1  0.516377  0.320852  0.404462  1
  Sm  Sm7  1  0.483118  0.678960  0.594742  1
  Lu  Lu8  1  0.162404  0.509396  0.750292  1
  Lu  Lu9  1  0.838587  0.492194  0.249945  1
  Lu  Lu10  1  0.337816  0.009370  0.249612  1
  Lu  Lu11  1  0.660193  0.991675  0.749644  1
  Lu  Lu12  1  0.326719  0.173811  0.623555  1
  Lu  Lu13  1  0.672133  0.825898  0.376085  1
  Lu  Lu14  1  0.172621  0.674016  0.376084  1
  Lu  Lu15  1  0.672056  0.825318  0.123127  1
  Lu  Lu16  1  0.828018  0.325592  0.623746  1
  Lu  Lu17  1  0.326505  0.173785  0.878396  1
  Lu  Lu18  1  0.827521  0.328509  0.876759  1
  Lu  Lu19  1  0.175161  0.674106  0.122413  1
  Ga  Ga20  1  0.030555  0.111775  0.751842  1
  Ga  Ga21  1  0.968661  0.886768  0.249104  1
  Ga  Ga22  1  0.468677  0.611822  0.249399  1
  Ga  Ga23  1  0.531178  0.386660  0.749973  1
  Ga  Ga24  1  0.278654  0.874931  0.750776  1
  Ga  Ga25  1  0.721648  0.125489  0.249228  1
  Ga  Ga26  1  0.221006  0.373578  0.249351  1
  Ga  Ga27  1  0.777653  0.625822  0.750130  1
  Ga  Ga28  1  0.156263  0.467858  0.540223  1
  Ga  Ga29  1  0.843061  0.532021  0.459532  1
  Ga  Ga30  1  0.343038  0.968439  0.459555  1
  Ga  Ga31  1  0.844028  0.532139  0.041427  1
  Ga  Ga32  1  0.657101  0.031393  0.540061  1
  Ga  Ga33  1  0.156363  0.468511  0.959498  1
  Ga  Ga34  1  0.659020  0.032858  0.959266  1
  Ge  Ge35  1  0.344437  0.968608  0.041575  1
