# generated using pymatgen
data_TiMoIrRh5
_symmetry_space_group_name_H-M   'P 1'
_cell_length_a   5.49848700
_cell_length_b   5.50891662
_cell_length_c   4.41006100
_cell_angle_alpha   90.00000000
_cell_angle_beta   90.00000000
_cell_angle_gamma   119.93738636
_symmetry_Int_Tables_number   1
_chemical_formula_structural   TiMoIrRh5
_chemical_formula_sum   'Ti1 Mo1 Ir1 Rh5'
_cell_volume   115.75994096
_cell_formula_units_Z   1
loop_
 _symmetry_equiv_pos_site_id
 _symmetry_equiv_pos_as_xyz
  1  'x, y, z'
loop_
 _atom_site_type_symbol
 _atom_site_label
 _atom_site_symmetry_multiplicity
 _atom_site_fract_x
 _atom_site_fract_y
 _atom_site_fract_z
 _atom_site_occupancy
  Ti  Ti0  1  0.332097  0.664194  0.250000  1
  Mo  Mo1  1  0.667504  0.335006  0.750000  1
  Ir  Ir2  1  0.833292  0.666585  0.250000  1
  Rh  Rh3  1  0.166195  0.835570  0.750000  1
  Rh  Rh4  1  0.669376  0.835570  0.750000  1
  Rh  Rh5  1  0.332823  0.165802  0.250000  1
  Rh  Rh6  1  0.832978  0.165802  0.250000  1
  Rh  Rh7  1  0.165736  0.331471  0.750000  1
