# generated using pymatgen
data_Sc2Ga4CuNi
_symmetry_space_group_name_H-M   'P 1'
_cell_length_a   5.27329811
_cell_length_b   5.27329815
_cell_length_c   6.40158000
_cell_angle_alpha   90.00000000
_cell_angle_beta   90.00000000
_cell_angle_gamma   134.09125370
_symmetry_Int_Tables_number   1
_chemical_formula_structural   Sc2Ga4CuNi
_chemical_formula_sum   'Sc2 Ga4 Cu1 Ni1'
_cell_volume   127.85475783
_cell_formula_units_Z   1
loop_
 _symmetry_equiv_pos_site_id
 _symmetry_equiv_pos_as_xyz
  1  'x, y, z'
loop_
 _atom_site_type_symbol
 _atom_site_label
 _atom_site_symmetry_multiplicity
 _atom_site_fract_x
 _atom_site_fract_y
 _atom_site_fract_z
 _atom_site_occupancy
  Sc  Sc0  1  0.921826  0.078174  0.250000  1
  Sc  Sc1  1  0.075948  0.924052  0.750000  1
  Ga  Ga2  1  0.633941  0.366059  0.453963  1
  Ga  Ga3  1  0.366764  0.633236  0.551469  1
  Ga  Ga4  1  0.366764  0.633236  0.948531  1
  Ga  Ga5  1  0.633941  0.366059  0.046037  1
  Cu  Cu6  1  0.205549  0.794451  0.250000  1
  Ni  Ni7  1  0.795266  0.204734  0.750000  1
