# generated using pymatgen
data_CaPr4Nd2OsBr12
_symmetry_space_group_name_H-M   'P 1'
_cell_length_a   9.61612157
_cell_length_b   9.74500485
_cell_length_c   9.61910856
_cell_angle_alpha   107.05095254
_cell_angle_beta   106.92043491
_cell_angle_gamma   107.37416432
_symmetry_Int_Tables_number   1
_chemical_formula_structural   CaPr4Nd2OsBr12
_chemical_formula_sum   'Ca1 Pr4 Nd2 Os1 Br12'
_cell_volume   748.31240831
_cell_formula_units_Z   1
loop_
 _symmetry_equiv_pos_site_id
 _symmetry_equiv_pos_as_xyz
  1  'x, y, z'
loop_
 _atom_site_type_symbol
 _atom_site_label
 _atom_site_symmetry_multiplicity
 _atom_site_fract_x
 _atom_site_fract_y
 _atom_site_fract_z
 _atom_site_occupancy
  Ca  Ca0  1  0.499902  0.499970  0.499813  1
  Pr  Pr1  1  0.107204  0.024995  0.311463  1
  Pr  Pr2  1  0.893441  0.975519  0.688839  1
  Pr  Pr3  1  0.974667  0.679379  0.888638  1
  Pr  Pr4  1  0.687514  0.893038  0.974595  1
  Nd  Nd5  1  0.311416  0.107249  0.025716  1
  Nd  Nd6  1  0.025594  0.319363  0.110855  1
  Os  Os7  1  0.000497  0.000579  0.000298  1
  Br  Br8  1  0.682266  0.215869  0.067495  1
  Br  Br9  1  0.376704  0.456735  0.167287  1
  Br  Br10  1  0.067417  0.682123  0.215919  1
  Br  Br11  1  0.782743  0.932430  0.317942  1
  Br  Br12  1  0.459620  0.170297  0.377892  1
  Br  Br13  1  0.167837  0.377729  0.458640  1
  Br  Br14  1  0.831397  0.622211  0.539754  1
  Br  Br15  1  0.540139  0.829508  0.620592  1
  Br  Br16  1  0.218208  0.067923  0.683808  1
  Br  Br17  1  0.932920  0.317161  0.785567  1
  Br  Br18  1  0.621788  0.541528  0.831710  1
  Br  Br19  1  0.318729  0.786399  0.933180  1
