# generated using pymatgen
data_LaPr3C2Br5
_symmetry_space_group_name_H-M   'P 1'
_cell_length_a   3.98514616
_cell_length_b   8.40901386
_cell_length_c   10.04607979
_cell_angle_alpha   105.28266075
_cell_angle_beta   78.55989210
_cell_angle_gamma   90.00000456
_symmetry_Int_Tables_number   1
_chemical_formula_structural   LaPr3C2Br5
_chemical_formula_sum   'La1 Pr3 C2 Br5'
_cell_volume   317.81167239
_cell_formula_units_Z   1
loop_
 _symmetry_equiv_pos_site_id
 _symmetry_equiv_pos_as_xyz
  1  'x, y, z'
loop_
 _atom_site_type_symbol
 _atom_site_label
 _atom_site_symmetry_multiplicity
 _atom_site_fract_x
 _atom_site_fract_y
 _atom_site_fract_z
 _atom_site_occupancy
  La  La0  1  0.003411  0.202392  0.993177  1
  Pr  Pr1  1  0.003766  0.796832  0.992468  1
  Pr  Pr2  1  0.661485  0.888195  0.677031  1
  Pr  Pr3  1  0.345465  0.102078  0.309069  1
  C  C4  1  0.466540  0.025109  0.066919  1
  C  C5  1  0.540634  0.975785  0.918733  1
  Br  Br6  1  0.163913  0.622346  0.672174  1
  Br  Br7  1  0.841097  0.369514  0.317805  1
  Br  Br8  1  0.502783  0.503288  0.994434  1
  Br  Br9  1  0.170939  0.155837  0.658121  1
  Br  Br10  1  0.837566  0.833923  0.324868  1
