# generated using pymatgen
data_Tb5Dy(Er2Si3)2
_symmetry_space_group_name_H-M   'P 1'
_cell_length_a   8.44851900
_cell_length_b   8.44548777
_cell_length_c   6.33560500
_cell_angle_alpha   90.00005428
_cell_angle_beta   89.99988470
_cell_angle_gamma   120.01186966
_symmetry_Int_Tables_number   1
_chemical_formula_structural   Tb5Dy(Er2Si3)2
_chemical_formula_sum   'Tb5 Dy1 Er4 Si6'
_cell_volume   391.44620802
_cell_formula_units_Z   1
loop_
 _symmetry_equiv_pos_site_id
 _symmetry_equiv_pos_as_xyz
  1  'x, y, z'
loop_
 _atom_site_type_symbol
 _atom_site_label
 _atom_site_symmetry_multiplicity
 _atom_site_fract_x
 _atom_site_fract_y
 _atom_site_fract_z
 _atom_site_occupancy
  Tb  Tb0  1  0.000106  0.756444  0.750000  1
  Tb  Tb1  1  0.000033  0.243628  0.250001  1
  Tb  Tb2  1  0.756405  0.756372  0.250001  1
  Tb  Tb3  1  0.756211  0.000000  0.750004  1
  Tb  Tb4  1  0.243662  0.243556  0.750000  1
  Dy  Dy5  1  0.243762  0.000000  0.250006  1
  Er  Er6  1  0.333352  0.666774  0.499977  1
  Er  Er7  1  0.666586  0.333239  0.000007  1
  Er  Er8  1  0.666578  0.333226  0.499977  1
  Er  Er9  1  0.333346  0.666761  0.000007  1
  Si  Si10  1  0.395032  0.000000  0.750003  1
  Si  Si11  1  0.394889  0.394682  0.250004  1
  Si  Si12  1  0.000207  0.605318  0.250004  1
  Si  Si13  1  0.000031  0.395014  0.750004  1
  Si  Si14  1  0.605017  0.604986  0.750004  1
  Si  Si15  1  0.604786  0.000000  0.250002  1
