# generated using pymatgen
data_La5Nd10Th(CdIr)4
_symmetry_space_group_name_H-M   'P 1'
_cell_length_a   10.00781554
_cell_length_b   10.03984869
_cell_length_c   10.03984894
_cell_angle_alpha   59.73244090
_cell_angle_beta   60.15184592
_cell_angle_gamma   60.15185616
_symmetry_Int_Tables_number   1
_chemical_formula_structural   La5Nd10Th(CdIr)4
_chemical_formula_sum   'La5 Nd10 Th1 Cd4 Ir4'
_cell_volume   713.47995638
_cell_formula_units_Z   1
loop_
 _symmetry_equiv_pos_site_id
 _symmetry_equiv_pos_as_xyz
  1  'x, y, z'
loop_
 _atom_site_type_symbol
 _atom_site_label
 _atom_site_symmetry_multiplicity
 _atom_site_fract_x
 _atom_site_fract_y
 _atom_site_fract_z
 _atom_site_occupancy
  La  La0  1  0.349468  0.347172  0.954838  1
  La  La1  1  0.349468  0.954838  0.347172  1
  La  La2  1  0.954874  0.349268  0.349268  1
  La  La3  1  0.811835  0.188332  0.188332  1
  La  La4  1  0.188155  0.810690  0.810690  1
  Nd  Nd5  1  0.190549  0.809280  0.190621  1
  Nd  Nd6  1  0.808263  0.190468  0.808631  1
  Nd  Nd7  1  0.190549  0.190621  0.809280  1
  Nd  Nd8  1  0.808263  0.808631  0.190468  1
  Nd  Nd9  1  0.939735  0.563200  0.563200  1
  Nd  Nd10  1  0.561083  0.937646  0.937646  1
  Nd  Nd11  1  0.562455  0.940632  0.562667  1
  Nd  Nd12  1  0.938410  0.560838  0.938136  1
  Nd  Nd13  1  0.562455  0.562667  0.940632  1
  Nd  Nd14  1  0.938410  0.938136  0.560838  1
  Th  Th15  1  0.343495  0.345848  0.345848  1
  Cd  Cd16  1  0.581127  0.579487  0.579487  1
  Cd  Cd17  1  0.578748  0.580137  0.258006  1
  Cd  Cd18  1  0.578748  0.258006  0.580137  1
  Cd  Cd19  1  0.258098  0.578713  0.578713  1
  Ir  Ir20  1  0.139777  0.142942  0.142942  1
  Ir  Ir21  1  0.147033  0.144062  0.571363  1
  Ir  Ir22  1  0.147033  0.571363  0.144062  1
  Ir  Ir23  1  0.571968  0.147022  0.147022  1
