# generated using pymatgen
data_Pt(Rh2Se3)4
_symmetry_space_group_name_H-M   'P 1'
_cell_length_a   8.01240049
_cell_length_b   8.00891665
_cell_length_c   6.64938028
_cell_angle_alpha   77.31471664
_cell_angle_beta   77.18164104
_cell_angle_gamma   92.33566741
_symmetry_Int_Tables_number   1
_chemical_formula_structural   Pt(Rh2Se3)4
_chemical_formula_sum   'Pt1 Rh8 Se12'
_cell_volume   404.10601540
_cell_formula_units_Z   1
loop_
 _symmetry_equiv_pos_site_id
 _symmetry_equiv_pos_as_xyz
  1  'x, y, z'
loop_
 _atom_site_type_symbol
 _atom_site_label
 _atom_site_symmetry_multiplicity
 _atom_site_fract_x
 _atom_site_fract_y
 _atom_site_fract_z
 _atom_site_occupancy
  Pt  Pt0  1  0.772144  0.487577  0.453922  1
  Rh  Rh1  1  0.162076  0.839519  0.999497  1
  Rh  Rh2  1  0.839137  0.160002  0.000401  1
  Rh  Rh3  1  0.001062  0.001349  0.499221  1
  Rh  Rh4  1  0.351089  0.350811  0.939077  1
  Rh  Rh5  1  0.647800  0.646314  0.062588  1
  Rh  Rh6  1  0.512288  0.223149  0.546179  1
  Rh  Rh7  1  0.222620  0.513622  0.546412  1
  Rh  Rh8  1  0.486402  0.777025  0.453959  1
  Se  Se9  1  0.851057  0.435240  0.099773  1
  Se  Se10  1  0.564034  0.148640  0.895501  1
  Se  Se11  1  0.151860  0.565367  0.893600  1
  Se  Se12  1  0.435531  0.849301  0.106485  1
  Se  Se13  1  0.115921  0.115782  0.107988  1
  Se  Se14  1  0.884988  0.883809  0.891367  1
  Se  Se15  1  0.032797  0.716057  0.389287  1
  Se  Se16  1  0.289275  0.972270  0.609073  1
  Se  Se17  1  0.973452  0.285454  0.611465  1
  Se  Se18  1  0.580192  0.586407  0.736516  1
  Se  Se19  1  0.412783  0.413769  0.267833  1
  Se  Se20  1  0.713493  0.028533  0.389856  1
