# generated using pymatgen
data_Li3Sc5(Co4P3)4
_symmetry_space_group_name_H-M   'P 1'
_cell_length_a   11.87445100
_cell_length_b   11.87445142
_cell_length_c   3.61988300
_cell_angle_alpha   90.00000000
_cell_angle_beta   90.00000000
_cell_angle_gamma   119.99999603
_symmetry_Int_Tables_number   1
_chemical_formula_structural   Li3Sc5(Co4P3)4
_chemical_formula_sum   'Li3 Sc5 Co16 P12'
_cell_volume   442.03054183
_cell_formula_units_Z   1
loop_
 _symmetry_equiv_pos_site_id
 _symmetry_equiv_pos_as_xyz
  1  'x, y, z'
loop_
 _atom_site_type_symbol
 _atom_site_label
 _atom_site_symmetry_multiplicity
 _atom_site_fract_x
 _atom_site_fract_y
 _atom_site_fract_z
 _atom_site_occupancy
  Li  Li0  1  0.441652  0.441652  0.000000  1
  Li  Li1  1  0.558348  0.000000  0.000000  1
  Li  Li2  1  0.000000  0.558348  0.000000  1
  Sc  Sc3  1  0.666667  0.333333  0.000000  1
  Sc  Sc4  1  0.333333  0.666667  0.000000  1
  Sc  Sc5  1  0.812657  0.812657  0.500000  1
  Sc  Sc6  1  0.187343  0.000000  0.500000  1
  Sc  Sc7  1  0.000000  0.187343  0.500000  1
  Co  Co8  1  0.197101  0.375875  0.000000  1
  Co  Co9  1  0.178774  0.802899  0.000000  1
  Co  Co10  1  0.821226  0.624125  0.000000  1
  Co  Co11  1  0.802899  0.178774  0.000000  1
  Co  Co12  1  0.375875  0.197101  0.000000  1
  Co  Co13  1  0.126228  0.483624  0.500000  1
  Co  Co14  1  0.357396  0.873772  0.500000  1
  Co  Co15  1  0.516376  0.642604  0.500000  1
  Co  Co16  1  0.642604  0.516376  0.500000  1
  Co  Co17  1  0.873772  0.357396  0.500000  1
  Co  Co18  1  0.483624  0.126228  0.500000  1
  Co  Co19  1  0.000000  0.000000  0.000000  1
  Co  Co20  1  0.717573  0.000000  0.500000  1
  Co  Co21  1  0.000000  0.717573  0.500000  1
  Co  Co22  1  0.624125  0.821226  0.000000  1
  Co  Co23  1  0.282427  0.282427  0.500000  1
  P  P24  1  0.636883  0.636883  0.000000  1
  P  P25  1  0.363117  0.000000  0.000000  1
  P  P26  1  0.000000  0.363117  0.000000  1
  P  P27  1  0.483862  0.311821  0.500000  1
  P  P28  1  0.688179  0.172041  0.500000  1
  P  P29  1  0.827959  0.516138  0.500000  1
  P  P30  1  0.516138  0.827959  0.500000  1
  P  P31  1  0.172041  0.688179  0.500000  1
  P  P32  1  0.820678  0.000000  0.000000  1
  P  P33  1  0.000000  0.820678  0.000000  1
  P  P34  1  0.311821  0.483862  0.500000  1
  P  P35  1  0.179322  0.179322  0.000000  1
