# generated using pymatgen
data_K12Li4Si15Ge
_symmetry_space_group_name_H-M   'P 1'
_cell_length_a   7.67718839
_cell_length_b   9.78112400
_cell_length_c   12.31537806
_cell_angle_alpha   90.00000000
_cell_angle_beta   89.80597845
_cell_angle_gamma   90.00000000
_symmetry_Int_Tables_number   1
_chemical_formula_structural   K12Li4Si15Ge
_chemical_formula_sum   'K12 Li4 Si15 Ge1'
_cell_volume   924.77529922
_cell_formula_units_Z   1
loop_
 _symmetry_equiv_pos_site_id
 _symmetry_equiv_pos_as_xyz
  1  'x, y, z'
loop_
 _atom_site_type_symbol
 _atom_site_label
 _atom_site_symmetry_multiplicity
 _atom_site_fract_x
 _atom_site_fract_y
 _atom_site_fract_z
 _atom_site_occupancy
  K  K0  1  0.655770  0.250000  0.400384  1
  K  K1  1  0.154905  0.250000  0.100397  1
  K  K2  1  0.343430  0.750000  0.593926  1
  K  K3  1  0.850526  0.750000  0.900954  1
  K  K4  1  0.653925  0.446853  0.694548  1
  K  K5  1  0.153245  0.058386  0.806314  1
  K  K6  1  0.344748  0.947100  0.307331  1
  K  K7  1  0.843259  0.553874  0.193963  1
  K  K8  1  0.344748  0.552900  0.307331  1
  K  K9  1  0.843259  0.946126  0.193963  1
  K  K10  1  0.653925  0.053147  0.694548  1
  K  K11  1  0.153245  0.441614  0.806314  1
  Li  Li12  1  0.499954  0.498456  0.002285  1
  Li  Li13  1  0.999643  0.999891  0.500123  1
  Li  Li14  1  0.499954  0.001544  0.002285  1
  Li  Li15  1  0.999643  0.500109  0.500123  1
  Si  Si16  1  0.861934  0.750000  0.599624  1
  Si  Si17  1  0.637206  0.250000  0.100239  1
  Si  Si18  1  0.138158  0.250000  0.399827  1
  Si  Si19  1  0.715873  0.628246  0.451594  1
  Si  Si20  1  0.216237  0.871499  0.049759  1
  Si  Si21  1  0.283864  0.128338  0.548072  1
  Si  Si22  1  0.784891  0.371762  0.952150  1
  Si  Si23  1  0.010822  0.250000  0.583146  1
  Si  Si24  1  0.512996  0.250000  0.916420  1
  Si  Si25  1  0.988069  0.750000  0.415531  1
  Si  Si26  1  0.488517  0.750000  0.084483  1
  Si  Si27  1  0.216237  0.628501  0.049759  1
  Si  Si28  1  0.715873  0.871754  0.451594  1
  Si  Si29  1  0.784891  0.128238  0.952150  1
  Si  Si30  1  0.283864  0.371662  0.548072  1
  Ge  Ge31  1  0.366390  0.750000  0.892794  1
