# generated using pymatgen
data_Tb2ThCoSn3Rh2
_symmetry_space_group_name_H-M   'P 1'
_cell_length_a   7.58151200
_cell_length_b   7.45066583
_cell_length_c   3.96677800
_cell_angle_alpha   90.00000000
_cell_angle_beta   90.00000000
_cell_angle_gamma   120.58265601
_symmetry_Int_Tables_number   1
_chemical_formula_structural   Tb2ThCoSn3Rh2
_chemical_formula_sum   'Tb2 Th1 Co1 Sn3 Rh2'
_cell_volume   192.90324697
_cell_formula_units_Z   1
loop_
 _symmetry_equiv_pos_site_id
 _symmetry_equiv_pos_as_xyz
  1  'x, y, z'
loop_
 _atom_site_type_symbol
 _atom_site_label
 _atom_site_symmetry_multiplicity
 _atom_site_fract_x
 _atom_site_fract_y
 _atom_site_fract_z
 _atom_site_occupancy
  Tb  Tb0  1  0.001230  0.594578  0.000000  1
  Tb  Tb1  1  0.406652  0.405422  0.000000  1
  Th  Th2  1  0.587828  0.000000  0.000000  1
  Co  Co3  1  0.989690  0.000000  0.000000  1
  Sn  Sn4  1  0.236382  0.000000  0.500000  1
  Sn  Sn5  1  0.010572  0.257480  0.500000  1
  Sn  Sn6  1  0.753092  0.742520  0.500000  1
  Rh  Rh7  1  0.348767  0.682978  0.500000  1
  Rh  Rh8  1  0.665789  0.317022  0.500000  1
