# generated using pymatgen
data_PI21
_symmetry_space_group_name_H-M   'P 1'
_cell_length_a   7.01055835
_cell_length_b   16.07052144
_cell_length_c   15.18268512
_cell_angle_alpha   113.30601695
_cell_angle_beta   98.66963394
_cell_angle_gamma   67.35994761
_symmetry_Int_Tables_number   1
_chemical_formula_structural   PI21
_chemical_formula_sum   'P1 I21'
_cell_volume   1449.90214469
_cell_formula_units_Z   1
loop_
 _symmetry_equiv_pos_site_id
 _symmetry_equiv_pos_as_xyz
  1  'x, y, z'
loop_
 _atom_site_type_symbol
 _atom_site_label
 _atom_site_symmetry_multiplicity
 _atom_site_fract_x
 _atom_site_fract_y
 _atom_site_fract_z
 _atom_site_occupancy
  P  P0  1  0.599739  0.618249  0.463999  1
  I  I1  1  0.286475  0.316319  0.518701  1
  I  I2  1  0.571926  0.832888  0.828058  1
  I  I3  1  0.932097  0.588592  0.397979  1
  I  I4  1  0.364380  0.446945  0.691674  1
  I  I5  1  0.567395  0.106552  0.622164  1
  I  I6  1  0.709545  0.537354  0.579985  1
  I  I7  1  0.423148  0.833273  0.374040  1
  I  I8  1  0.355163  0.217172  0.188276  1
  I  I9  1  0.462679  0.509962  0.324979  1
  I  I10  1  0.845299  0.841757  0.655320  1
  I  I11  1  0.111042  0.829343  0.184566  1
  I  I12  1  0.122239  0.162912  0.346540  1
  I  I13  1  0.696820  0.202210  0.097745  1
  I  I14  1  0.748853  0.831176  0.283858  1
  I  I15  1  0.218026  0.126593  0.710106  1
  I  I16  1  0.876750  0.831845  0.012999  1
  I  I17  1  0.842392  0.150619  0.815521  1
  I  I18  1  0.227228  0.766735  0.563627  1
  I  I19  1  0.067466  0.184943  0.992846  1
  I  I20  1  0.241924  0.835560  0.916546  1
  I  I21  1  0.729414  0.229001  0.430468  1
