# generated using pymatgen
data_TbCe(AlIr)2
_symmetry_space_group_name_H-M   'P 1'
_cell_length_a   6.86510000
_cell_length_b   4.31524700
_cell_length_c   7.94685900
_cell_angle_alpha   90.00000000
_cell_angle_beta   90.00000000
_cell_angle_gamma   90.00000000
_symmetry_Int_Tables_number   1
_chemical_formula_structural   TbCe(AlIr)2
_chemical_formula_sum   'Tb2 Ce2 Al4 Ir4'
_cell_volume   235.42253645
_cell_formula_units_Z   2
loop_
 _symmetry_equiv_pos_site_id
 _symmetry_equiv_pos_as_xyz
  1  'x, y, z'
loop_
 _atom_site_type_symbol
 _atom_site_label
 _atom_site_symmetry_multiplicity
 _atom_site_fract_x
 _atom_site_fract_y
 _atom_site_fract_z
 _atom_site_occupancy
  Tb  Tb0  1  0.964501  0.250000  0.184372  1
  Tb  Tb1  1  0.464501  0.250000  0.315628  1
  Ce  Ce2  1  0.034275  0.750000  0.820993  1
  Ce  Ce3  1  0.534275  0.750000  0.679007  1
  Al  Al4  1  0.863641  0.250000  0.558139  1
  Al  Al5  1  0.363641  0.250000  0.941861  1
  Al  Al6  1  0.137786  0.750000  0.434499  1
  Al  Al7  1  0.637786  0.750000  0.065501  1
  Ir  Ir8  1  0.737269  0.250000  0.876480  1
  Ir  Ir9  1  0.237269  0.250000  0.623520  1
  Ir  Ir10  1  0.262528  0.750000  0.113575  1
  Ir  Ir11  1  0.762528  0.750000  0.386425  1
