# generated using pymatgen
data_Tb3Y3OsRh
_symmetry_space_group_name_H-M   'P 1'
_cell_length_a   6.43734646
_cell_length_b   7.33140589
_cell_length_c   9.21184765
_cell_angle_alpha   89.99826625
_cell_angle_beta   90.04305733
_cell_angle_gamma   90.60184631
_symmetry_Int_Tables_number   1
_chemical_formula_structural   Tb3Y3OsRh
_chemical_formula_sum   'Tb6 Y6 Os2 Rh2'
_cell_volume   434.72719813
_cell_formula_units_Z   2
loop_
 _symmetry_equiv_pos_site_id
 _symmetry_equiv_pos_as_xyz
  1  'x, y, z'
loop_
 _atom_site_type_symbol
 _atom_site_label
 _atom_site_symmetry_multiplicity
 _atom_site_fract_x
 _atom_site_fract_y
 _atom_site_fract_z
 _atom_site_occupancy
  Tb  Tb0  1  0.633701  0.037669  0.250062  1
  Tb  Tb1  1  0.366299  0.962331  0.749938  1
  Tb  Tb2  1  0.128582  0.461356  0.750157  1
  Tb  Tb3  1  0.871418  0.538644  0.249843  1
  Tb  Tb4  1  0.175859  0.179203  0.066335  1
  Tb  Tb5  1  0.824141  0.820797  0.933665  1
  Y  Y6  1  0.666949  0.326789  0.938537  1
  Y  Y7  1  0.824178  0.821111  0.565898  1
  Y  Y8  1  0.333051  0.673211  0.061463  1
  Y  Y9  1  0.175822  0.178889  0.434102  1
  Y  Y10  1  0.332587  0.672954  0.438978  1
  Y  Y11  1  0.667413  0.327046  0.561022  1
  Os  Os12  1  0.466485  0.382484  0.249700  1
  Os  Os13  1  0.533515  0.617516  0.750300  1
  Rh  Rh14  1  0.955343  0.114766  0.750588  1
  Rh  Rh15  1  0.044657  0.885234  0.249412  1
