# generated using pymatgen
data_Nd5Dy11Cd4OsPt3
_symmetry_space_group_name_H-M   'P 1'
_cell_length_a   9.78872937
_cell_length_b   9.77914701
_cell_length_c   9.77914796
_cell_angle_alpha   59.74527251
_cell_angle_beta   59.69785680
_cell_angle_gamma   59.69785178
_symmetry_Int_Tables_number   1
_chemical_formula_structural   Nd5Dy11Cd4OsPt3
_chemical_formula_sum   'Nd5 Dy11 Cd4 Os1 Pt3'
_cell_volume   657.62664555
_cell_formula_units_Z   1
loop_
 _symmetry_equiv_pos_site_id
 _symmetry_equiv_pos_as_xyz
  1  'x, y, z'
loop_
 _atom_site_type_symbol
 _atom_site_label
 _atom_site_symmetry_multiplicity
 _atom_site_fract_x
 _atom_site_fract_y
 _atom_site_fract_z
 _atom_site_occupancy
  Nd  Nd0  1  0.555649  0.940580  0.940580  1
  Nd  Nd1  1  0.564632  0.935787  0.562851  1
  Nd  Nd2  1  0.939571  0.556518  0.937239  1
  Nd  Nd3  1  0.564632  0.562851  0.935787  1
  Nd  Nd4  1  0.939571  0.937239  0.556518  1
  Dy  Dy5  1  0.351843  0.351389  0.351389  1
  Dy  Dy6  1  0.346956  0.349072  0.953708  1
  Dy  Dy7  1  0.346956  0.953708  0.349072  1
  Dy  Dy8  1  0.952282  0.348604  0.348604  1
  Dy  Dy9  1  0.816578  0.187253  0.187253  1
  Dy  Dy10  1  0.185920  0.810975  0.810975  1
  Dy  Dy11  1  0.186319  0.816055  0.188802  1
  Dy  Dy12  1  0.811322  0.186502  0.810509  1
  Dy  Dy13  1  0.186319  0.188802  0.816055  1
  Dy  Dy14  1  0.811322  0.810509  0.186502  1
  Dy  Dy15  1  0.940548  0.559572  0.559572  1
  Cd  Cd16  1  0.581877  0.578739  0.578739  1
  Cd  Cd17  1  0.579149  0.580166  0.259813  1
  Cd  Cd18  1  0.579149  0.259813  0.580166  1
  Cd  Cd19  1  0.257495  0.579458  0.579458  1
  Os  Os20  1  0.142300  0.142945  0.142945  1
  Pt  Pt21  1  0.143012  0.146229  0.573540  1
  Pt  Pt22  1  0.143012  0.573540  0.146229  1
  Pt  Pt23  1  0.573590  0.143698  0.143698  1
