# generated using pymatgen
data_SmHo9In8Pd3Rh
_symmetry_space_group_name_H-M   'P 1'
_cell_length_a   3.61540500
_cell_length_b   8.13848168
_cell_length_c   18.29811058
_cell_angle_alpha   90.10201988
_cell_angle_beta   90.00000000
_cell_angle_gamma   90.00000000
_symmetry_Int_Tables_number   1
_chemical_formula_structural   SmHo9In8Pd3Rh
_chemical_formula_sum   'Sm1 Ho9 In8 Pd3 Rh1'
_cell_volume   538.40105736
_cell_formula_units_Z   1
loop_
 _symmetry_equiv_pos_site_id
 _symmetry_equiv_pos_as_xyz
  1  'x, y, z'
loop_
 _atom_site_type_symbol
 _atom_site_label
 _atom_site_symmetry_multiplicity
 _atom_site_fract_x
 _atom_site_fract_y
 _atom_site_fract_z
 _atom_site_occupancy
  Sm  Sm0  1  0.000000  0.499634  0.500348  1
  Ho  Ho1  1  0.000000  0.999649  0.000352  1
  Ho  Ho2  1  0.000000  0.732684  0.277409  1
  Ho  Ho3  1  0.000000  0.259884  0.719444  1
  Ho  Ho4  1  0.000000  0.760150  0.781735  1
  Ho  Ho5  1  0.000000  0.253123  0.218825  1
  Ho  Ho6  1  0.000000  0.614613  0.086768  1
  Ho  Ho7  1  0.000000  0.382169  0.916900  1
  Ho  Ho8  1  0.000000  0.879429  0.583812  1
  Ho  Ho9  1  0.000000  0.120183  0.414428  1
  In  In10  1  0.500000  0.707376  0.933575  1
  In  In11  1  0.500000  0.291588  0.068332  1
  In  In12  1  0.500000  0.795826  0.430821  1
  In  In13  1  0.500000  0.201967  0.567854  1
  In  In14  1  0.500000  0.580567  0.652397  1
  In  In15  1  0.500000  0.423623  0.348342  1
  In  In16  1  0.500000  0.923425  0.149733  1
  In  In17  1  0.500000  0.079605  0.850279  1
  Pd  Pd18  1  0.500000  0.475512  0.804822  1
  Pd  Pd19  1  0.500000  0.975254  0.696499  1
  Pd  Pd20  1  0.500000  0.021619  0.302809  1
  Rh  Rh21  1  0.500000  0.522120  0.194517  1
