# generated using pymatgen
data_DyHo(SbO4)2
_symmetry_space_group_name_H-M   'P 1'
_cell_length_a   5.39193955
_cell_length_b   7.66392373
_cell_length_c   7.55248087
_cell_angle_alpha   81.08880131
_cell_angle_beta   90.38596611
_cell_angle_gamma   92.24801307
_symmetry_Int_Tables_number   1
_chemical_formula_structural   DyHo(SbO4)2
_chemical_formula_sum   'Dy2 Ho2 Sb4 O16'
_cell_volume   308.08983106
_cell_formula_units_Z   2
loop_
 _symmetry_equiv_pos_site_id
 _symmetry_equiv_pos_as_xyz
  1  'x, y, z'
loop_
 _atom_site_type_symbol
 _atom_site_label
 _atom_site_symmetry_multiplicity
 _atom_site_fract_x
 _atom_site_fract_y
 _atom_site_fract_z
 _atom_site_occupancy
  Dy  Dy0  1  0.263153  0.132371  0.613444  1
  Dy  Dy1  1  0.736847  0.867629  0.386556  1
  Ho  Ho2  1  0.211489  0.158450  0.109040  1
  Ho  Ho3  1  0.788511  0.841550  0.890960  1
  Sb  Sb4  1  0.240333  0.663546  0.194131  1
  Sb  Sb5  1  0.759667  0.336454  0.805869  1
  Sb  Sb6  1  0.724793  0.335691  0.307973  1
  Sb  Sb7  1  0.275207  0.664309  0.692027  1
  O  O8  1  0.086639  0.434784  0.689716  1
  O  O9  1  0.913362  0.565216  0.310284  1
  O  O10  1  0.609400  0.325974  0.560427  1
  O  O11  1  0.390600  0.674026  0.439573  1
  O  O12  1  0.874004  0.331857  0.061349  1
  O  O13  1  0.125996  0.668143  0.938651  1
  O  O14  1  0.400514  0.430350  0.195240  1
  O  O15  1  0.599486  0.569650  0.804760  1
  O  O16  1  0.043409  0.886169  0.172965  1
  O  O17  1  0.956591  0.113831  0.827035  1
  O  O18  1  0.506860  0.111212  0.322677  1
  O  O19  1  0.493140  0.888788  0.677323  1
  O  O20  1  0.462701  0.188953  0.878592  1
  O  O21  1  0.537299  0.811047  0.121408  1
  O  O22  1  0.990726  0.167330  0.380409  1
  O  O23  1  0.009274  0.832670  0.619591  1
