# generated using pymatgen
data_Dy2B(PtRh2)2
_symmetry_space_group_name_H-M   'P 1'
_cell_length_a   5.88694848
_cell_length_b   5.88694953
_cell_length_c   5.85287600
_cell_angle_alpha   60.19128077
_cell_angle_beta   60.19127492
_cell_angle_gamma   59.87168842
_symmetry_Int_Tables_number   1
_chemical_formula_structural   Dy2B(PtRh2)2
_chemical_formula_sum   'Dy2 B1 Pt2 Rh4'
_cell_volume   143.70078341
_cell_formula_units_Z   1
loop_
 _symmetry_equiv_pos_site_id
 _symmetry_equiv_pos_as_xyz
  1  'x, y, z'
loop_
 _atom_site_type_symbol
 _atom_site_label
 _atom_site_symmetry_multiplicity
 _atom_site_fract_x
 _atom_site_fract_y
 _atom_site_fract_z
 _atom_site_occupancy
  Dy  Dy0  1  0.250042  0.250042  0.250672  1
  Dy  Dy1  1  0.749958  0.749958  0.750755  1
  B  B2  1  0.500000  0.500000  0.492722  1
  Pt  Pt3  1  0.757718  0.242281  0.758009  1
  Pt  Pt4  1  0.242281  0.757718  0.758009  1
  Rh  Rh5  1  0.758104  0.241895  0.243350  1
  Rh  Rh6  1  0.241895  0.758104  0.243350  1
  Rh  Rh7  1  0.754915  0.754915  0.246650  1
  Rh  Rh8  1  0.245084  0.245084  0.756480  1
