# generated using pymatgen
data_Tb6Ho4Si16Sn
_symmetry_space_group_name_H-M   'P 1'
_cell_length_a   11.11249917
_cell_length_b   11.05485688
_cell_length_c   11.11402400
_cell_angle_alpha   144.70271546
_cell_angle_beta   136.03156917
_cell_angle_gamma   57.69726168
_symmetry_Int_Tables_number   1
_chemical_formula_structural   Tb6Ho4Si16Sn
_chemical_formula_sum   'Tb6 Ho4 Si16 Sn1'
_cell_volume   542.90605845
_cell_formula_units_Z   1
loop_
 _symmetry_equiv_pos_site_id
 _symmetry_equiv_pos_as_xyz
  1  'x, y, z'
loop_
 _atom_site_type_symbol
 _atom_site_label
 _atom_site_symmetry_multiplicity
 _atom_site_fract_x
 _atom_site_fract_y
 _atom_site_fract_z
 _atom_site_occupancy
  Tb  Tb0  1  0.150302  0.164047  0.515907  1
  Tb  Tb1  1  0.350083  0.368896  0.520564  1
  Tb  Tb2  1  0.242239  0.759861  0.003173  1
  Tb  Tb3  1  0.545186  0.558183  0.497249  1
  Tb  Tb4  1  0.060904  0.558219  0.012968  1
  Tb  Tb5  1  0.648177  0.164052  0.013754  1
  Ho  Ho6  1  0.756560  0.759829  0.517526  1
  Ho  Ho7  1  0.440617  0.971740  0.015494  1
  Ho  Ho8  1  0.848545  0.368856  0.019039  1
  Ho  Ho9  1  0.956302  0.971763  0.531166  1
  Si  Si10  1  0.198402  0.579794  0.380277  1
  Si  Si11  1  0.999521  0.083813  0.082793  1
  Si  Si12  1  0.697822  0.279475  0.582250  1
  Si  Si13  1  0.799446  0.177370  0.377859  1
  Si  Si14  1  0.895145  0.501536  0.605553  1
  Si  Si15  1  0.418501  0.871047  0.453423  1
  Si  Si16  1  0.103463  0.713297  0.608674  1
  Si  Si17  1  0.301112  0.894552  0.593376  1
  Si  Si18  1  0.579217  0.039207  0.461912  1
  Si  Si19  1  0.998949  0.431170  0.431086  1
  Si  Si20  1  0.882635  0.838635  0.955660  1
  Si  Si21  1  0.401762  0.500151  0.099007  1
  Si  Si22  1  0.117601  0.083698  0.964930  1
  Si  Si23  1  0.287919  0.237261  0.949396  1
  Si  Si24  1  0.500167  0.385676  0.886778  1
  Si  Si25  1  0.596502  0.705424  0.110331  1
  Sn  Sn26  1  0.722921  0.693949  0.971353  1
