# generated using pymatgen
data_TbYb3Os5Ru3
_symmetry_space_group_name_H-M   'P 1'
_cell_length_a   5.24445239
_cell_length_b   5.19408700
_cell_length_c   8.99607114
_cell_angle_alpha   89.98806329
_cell_angle_beta   89.99176967
_cell_angle_gamma   119.39207706
_symmetry_Int_Tables_number   1
_chemical_formula_structural   TbYb3Os5Ru3
_chemical_formula_sum   'Tb1 Yb3 Os5 Ru3'
_cell_volume   213.51127112
_cell_formula_units_Z   1
loop_
 _symmetry_equiv_pos_site_id
 _symmetry_equiv_pos_as_xyz
  1  'x, y, z'
loop_
 _atom_site_type_symbol
 _atom_site_label
 _atom_site_symmetry_multiplicity
 _atom_site_fract_x
 _atom_site_fract_y
 _atom_site_fract_z
 _atom_site_occupancy
  Tb  Tb0  1  0.667566  0.333592  0.565488  1
  Yb  Yb1  1  0.332496  0.666474  0.430635  1
  Yb  Yb2  1  0.331325  0.665731  0.064642  1
  Yb  Yb3  1  0.665276  0.332627  0.940227  1
  Os  Os4  1  0.174657  0.344458  0.750160  1
  Os  Os5  1  0.173721  0.830057  0.749990  1
  Os  Os6  1  0.660266  0.829192  0.751520  1
  Os  Os7  1  0.835547  0.661044  0.249337  1
  Os  Os8  1  0.838270  0.174761  0.249141  1
  Ru  Ru9  1  0.987049  0.993502  0.499078  1
  Ru  Ru10  1  0.983775  0.991960  0.999252  1
  Ru  Ru11  1  0.350050  0.176603  0.250530  1
