# generated using pymatgen
data_Dy5Y5Pb6
_symmetry_space_group_name_H-M   'P 1'
_cell_length_a   9.08374100
_cell_length_b   9.08392914
_cell_length_c   6.66496900
_cell_angle_alpha   90.00000000
_cell_angle_beta   90.00000000
_cell_angle_gamma   119.99931124
_symmetry_Int_Tables_number   1
_chemical_formula_structural   Dy5Y5Pb6
_chemical_formula_sum   'Dy5 Y5 Pb6'
_cell_volume   476.28868064
_cell_formula_units_Z   1
loop_
 _symmetry_equiv_pos_site_id
 _symmetry_equiv_pos_as_xyz
  1  'x, y, z'
loop_
 _atom_site_type_symbol
 _atom_site_label
 _atom_site_symmetry_multiplicity
 _atom_site_fract_x
 _atom_site_fract_y
 _atom_site_fract_z
 _atom_site_occupancy
  Dy  Dy0  1  0.333361  0.666689  0.999992  1
  Dy  Dy1  1  0.666673  0.333311  0.999992  1
  Dy  Dy2  1  0.761895  0.000000  0.750000  1
  Dy  Dy3  1  0.333361  0.666689  0.500008  1
  Dy  Dy4  1  0.666673  0.333311  0.500008  1
  Y  Y5  1  0.238008  0.238084  0.750000  1
  Y  Y6  1  0.238176  0.000000  0.250000  1
  Y  Y7  1  0.999925  0.761916  0.750000  1
  Y  Y8  1  0.761808  0.761913  0.250000  1
  Y  Y9  1  0.999895  0.238087  0.250000  1
  Pb  Pb10  1  0.999891  0.394542  0.750000  1
  Pb  Pb11  1  0.394718  0.394685  0.250000  1
  Pb  Pb12  1  0.605403  0.000000  0.250000  1
  Pb  Pb13  1  0.605349  0.605458  0.750000  1
  Pb  Pb14  1  0.394831  0.000000  0.750000  1
  Pb  Pb15  1  0.000033  0.605315  0.250000  1
