# generated using pymatgen
data_HoTm13Th2(CdNi)4
_symmetry_space_group_name_H-M   'P 1'
_cell_length_a   9.46654544
_cell_length_b   9.46654524
_cell_length_c   9.47578500
_cell_angle_alpha   59.96771096
_cell_angle_beta   59.96771168
_cell_angle_gamma   60.00585070
_symmetry_Int_Tables_number   1
_chemical_formula_structural   HoTm13Th2(CdNi)4
_chemical_formula_sum   'Ho1 Tm13 Th2 Cd4 Ni4'
_cell_volume   600.19212445
_cell_formula_units_Z   1
loop_
 _symmetry_equiv_pos_site_id
 _symmetry_equiv_pos_as_xyz
  1  'x, y, z'
loop_
 _atom_site_type_symbol
 _atom_site_label
 _atom_site_symmetry_multiplicity
 _atom_site_fract_x
 _atom_site_fract_y
 _atom_site_fract_z
 _atom_site_occupancy
  Ho  Ho0  1  0.935396  0.935396  0.564604  1
  Tm  Tm1  1  0.349457  0.948698  0.350922  1
  Tm  Tm2  1  0.948698  0.349457  0.350922  1
  Tm  Tm3  1  0.812988  0.189268  0.186749  1
  Tm  Tm4  1  0.189268  0.812988  0.810994  1
  Tm  Tm5  1  0.189268  0.812988  0.186749  1
  Tm  Tm6  1  0.812988  0.189268  0.810994  1
  Tm  Tm7  1  0.187406  0.187406  0.812594  1
  Tm  Tm8  1  0.811994  0.811994  0.188006  1
  Tm  Tm9  1  0.935692  0.564519  0.566034  1
  Tm  Tm10  1  0.564519  0.935692  0.933755  1
  Tm  Tm11  1  0.564519  0.935692  0.566034  1
  Tm  Tm12  1  0.935692  0.564519  0.933755  1
  Tm  Tm13  1  0.565378  0.565378  0.934622  1
  Th  Th14  1  0.344969  0.344969  0.351233  1
  Th  Th15  1  0.344969  0.344969  0.958828  1
  Cd  Cd16  1  0.583326  0.583326  0.579778  1
  Cd  Cd17  1  0.583326  0.583326  0.253572  1
  Cd  Cd18  1  0.584318  0.253671  0.581006  1
  Cd  Cd19  1  0.253671  0.584318  0.581006  1
  Ni  Ni20  1  0.142819  0.142819  0.142397  1
  Ni  Ni21  1  0.142819  0.142819  0.571964  1
  Ni  Ni22  1  0.145020  0.571500  0.141739  1
  Ni  Ni23  1  0.571500  0.145020  0.141739  1
