# generated using pymatgen
data_Pa3CdCo6
_symmetry_space_group_name_H-M   'P 1'
_cell_length_a   5.28364600
_cell_length_b   7.33448700
_cell_length_c   8.24188300
_cell_angle_alpha   90.00000000
_cell_angle_beta   90.00000000
_cell_angle_gamma   90.00000000
_symmetry_Int_Tables_number   1
_chemical_formula_structural   Pa3CdCo6
_chemical_formula_sum   'Pa6 Cd2 Co12'
_cell_volume   319.39631468
_cell_formula_units_Z   2
loop_
 _symmetry_equiv_pos_site_id
 _symmetry_equiv_pos_as_xyz
  1  'x, y, z'
loop_
 _atom_site_type_symbol
 _atom_site_label
 _atom_site_symmetry_multiplicity
 _atom_site_fract_x
 _atom_site_fract_y
 _atom_site_fract_z
 _atom_site_occupancy
  Pa  Pa0  1  0.750000  0.895090  0.858079  1
  Pa  Pa1  1  0.750000  0.395090  0.641921  1
  Pa  Pa2  1  0.250000  0.099384  0.147166  1
  Pa  Pa3  1  0.250000  0.599384  0.352834  1
  Pa  Pa4  1  0.750000  0.939629  0.418266  1
  Pa  Pa5  1  0.750000  0.439629  0.081734  1
  Cd  Cd6  1  0.250000  0.065189  0.606113  1
  Cd  Cd7  1  0.250000  0.565189  0.893887  1
  Co  Co8  1  0.750000  0.582795  0.360381  1
  Co  Co9  1  0.750000  0.082795  0.139619  1
  Co  Co10  1  0.250000  0.415948  0.610933  1
  Co  Co11  1  0.250000  0.915948  0.889067  1
  Co  Co12  1  0.998180  0.264698  0.369984  1
  Co  Co13  1  0.501820  0.764698  0.130016  1
  Co  Co14  1  0.499993  0.736285  0.614853  1
  Co  Co15  1  0.000007  0.236285  0.885147  1
  Co  Co16  1  0.000007  0.736285  0.614853  1
  Co  Co17  1  0.499993  0.236285  0.885147  1
  Co  Co18  1  0.501820  0.264698  0.369984  1
  Co  Co19  1  0.998180  0.764698  0.130016  1
