# generated using pymatgen
data_Al4Ga6PtPb3O20
_symmetry_space_group_name_H-M   'P 1'
_cell_length_a   9.76428816
_cell_length_b   9.76428855
_cell_length_c   5.19107724
_cell_angle_alpha   74.60135027
_cell_angle_beta   74.60134031
_cell_angle_gamma   73.59134249
_symmetry_Int_Tables_number   1
_chemical_formula_structural   Al4Ga6PtPb3O20
_chemical_formula_sum   'Al4 Ga6 Pt1 Pb3 O20'
_cell_volume   447.90516097
_cell_formula_units_Z   1
loop_
 _symmetry_equiv_pos_site_id
 _symmetry_equiv_pos_as_xyz
  1  'x, y, z'
loop_
 _atom_site_type_symbol
 _atom_site_label
 _atom_site_symmetry_multiplicity
 _atom_site_fract_x
 _atom_site_fract_y
 _atom_site_fract_z
 _atom_site_occupancy
  Al  Al0  1  0.632291  0.367709  0.500000  1
  Al  Al1  1  0.363963  0.636037  0.500000  1
  Al  Al2  1  0.280418  0.004874  0.370498  1
  Al  Al3  1  0.995126  0.719582  0.629502  1
  Ga  Ga4  1  0.722115  0.993974  0.626146  1
  Ga  Ga5  1  0.006026  0.277885  0.373854  1
  Ga  Ga6  1  0.578553  0.149062  0.106881  1
  Ga  Ga7  1  0.850938  0.421447  0.893119  1
  Ga  Ga8  1  0.417476  0.851965  0.895028  1
  Ga  Ga9  1  0.148035  0.582524  0.104972  1
  Pt  Pt10  1  0.499278  0.500722  0.000000  1
  Pb  Pb11  1  0.001318  0.998682  0.000000  1
  Pb  Pb12  1  0.725803  0.724375  0.217642  1
  Pb  Pb13  1  0.275625  0.274197  0.782358  1
  O  O14  1  0.564357  0.566865  0.278650  1
  O  O15  1  0.433135  0.435643  0.721350  1
  O  O16  1  0.103889  0.094502  0.305282  1
  O  O17  1  0.905498  0.896111  0.694718  1
  O  O18  1  0.395365  0.117774  0.145436  1
  O  O19  1  0.882226  0.604635  0.854564  1
  O  O20  1  0.602484  0.876335  0.867011  1
  O  O21  1  0.123665  0.397516  0.132989  1
  O  O22  1  0.337382  0.829169  0.275101  1
  O  O23  1  0.170831  0.662618  0.724899  1
  O  O24  1  0.659506  0.176880  0.728042  1
  O  O25  1  0.823120  0.340494  0.271958  1
  O  O26  1  0.993658  0.277973  0.736431  1
  O  O27  1  0.722027  0.006342  0.263569  1
  O  O28  1  0.009286  0.719271  0.281861  1
  O  O29  1  0.280729  0.990714  0.718139  1
  O  O30  1  0.691338  0.448963  0.735513  1
  O  O31  1  0.551037  0.308662  0.264487  1
  O  O32  1  0.307880  0.554377  0.262228  1
  O  O33  1  0.445623  0.692120  0.737772  1
