# generated using pymatgen
data_Dy5Co12As10P2Ru7
_symmetry_space_group_name_H-M   'P 1'
_cell_length_a   12.57606112
_cell_length_b   12.58996637
_cell_length_c   3.82234100
_cell_angle_alpha   90.00000000
_cell_angle_beta   90.00000000
_cell_angle_gamma   119.92844841
_symmetry_Int_Tables_number   1
_chemical_formula_structural   Dy5Co12As10P2Ru7
_chemical_formula_sum   'Dy5 Co12 As10 P2 Ru7'
_cell_volume   524.49571625
_cell_formula_units_Z   1
loop_
 _symmetry_equiv_pos_site_id
 _symmetry_equiv_pos_as_xyz
  1  'x, y, z'
loop_
 _atom_site_type_symbol
 _atom_site_label
 _atom_site_symmetry_multiplicity
 _atom_site_fract_x
 _atom_site_fract_y
 _atom_site_fract_z
 _atom_site_occupancy
  Dy  Dy0  1  0.667247  0.332423  0.000000  1
  Dy  Dy1  1  0.334244  0.667001  0.000000  1
  Dy  Dy2  1  0.176862  0.176366  0.500000  1
  Dy  Dy3  1  0.824809  0.005054  0.500000  1
  Dy  Dy4  1  0.004468  0.824910  0.500000  1
  Co  Co5  1  0.833205  0.193677  0.000000  1
  Co  Co6  1  0.801982  0.631758  0.000000  1
  Co  Co7  1  0.363545  0.168359  0.000000  1
  Co  Co8  1  0.196367  0.832469  0.000000  1
  Co  Co9  1  0.626937  0.802389  0.000000  1
  Co  Co10  1  0.170977  0.366381  0.000000  1
  Co  Co11  1  0.520526  0.872198  0.500000  1
  Co  Co12  1  0.352530  0.480975  0.500000  1
  Co  Co13  1  0.718102  0.721863  0.500000  1
  Co  Co14  1  0.274377  0.999389  0.500000  1
  Co  Co15  1  0.002342  0.274134  0.500000  1
  Co  Co16  1  0.007657  0.006829  0.000000  1
  As  As17  1  0.353896  0.359755  0.000000  1
  As  As18  1  0.639774  0.994380  0.000000  1
  As  As19  1  0.000820  0.642868  0.000000  1
  As  As20  1  0.842459  0.315918  0.500000  1
  As  As21  1  0.679968  0.523118  0.500000  1
  As  As22  1  0.475541  0.158593  0.500000  1
  As  As23  1  0.322077  0.842783  0.500000  1
  As  As24  1  0.518248  0.683263  0.500000  1
  As  As25  1  0.164043  0.475585  0.500000  1
  As  As26  1  0.824592  0.826381  0.000000  1
  P  P27  1  0.179035  0.000701  0.000000  1
  P  P28  1  0.002894  0.178917  0.000000  1
  Ru  Ru29  1  0.549480  0.556017  0.000000  1
  Ru  Ru30  1  0.444503  0.996495  0.000000  1
  Ru  Ru31  1  0.001043  0.444214  0.000000  1
  Ru  Ru32  1  0.648572  0.123672  0.500000  1
  Ru  Ru33  1  0.871675  0.520688  0.500000  1
  Ru  Ru34  1  0.474012  0.351252  0.500000  1
  Ru  Ru35  1  0.131191  0.649229  0.500000  1
