# generated using pymatgen
data_Cs2K5RbZrSnS8
_symmetry_space_group_name_H-M   'P 1'
_cell_length_a   8.15275283
_cell_length_b   10.09249200
_cell_length_c   15.36854600
_cell_angle_alpha   90.00000000
_cell_angle_beta   90.19211887
_cell_angle_gamma   90.00000000
_symmetry_Int_Tables_number   1
_chemical_formula_structural   Cs2K5RbZrSnS8
_chemical_formula_sum   'Cs4 K10 Rb2 Zr2 Sn2 S16'
_cell_volume   1264.54133404
_cell_formula_units_Z   2
loop_
 _symmetry_equiv_pos_site_id
 _symmetry_equiv_pos_as_xyz
  1  'x, y, z'
loop_
 _atom_site_type_symbol
 _atom_site_label
 _atom_site_symmetry_multiplicity
 _atom_site_fract_x
 _atom_site_fract_y
 _atom_site_fract_z
 _atom_site_occupancy
  Cs  Cs0  1  0.999926  0.999806  0.999842  1
  Cs  Cs1  1  0.499988  0.000238  0.500161  1
  Cs  Cs2  1  0.999926  0.500194  0.999842  1
  Cs  Cs3  1  0.499988  0.499762  0.500161  1
  K  K4  1  0.027320  0.250000  0.565108  1
  K  K5  1  0.532158  0.750000  0.931276  1
  K  K6  1  0.826002  0.054115  0.266905  1
  K  K7  1  0.329722  0.939726  0.230274  1
  K  K8  1  0.173889  0.553864  0.732987  1
  K  K9  1  0.670268  0.439747  0.769690  1
  K  K10  1  0.173889  0.946136  0.732987  1
  K  K11  1  0.670268  0.060253  0.769690  1
  K  K12  1  0.826002  0.445885  0.266905  1
  K  K13  1  0.329722  0.560274  0.230274  1
  Rb  Rb14  1  0.977915  0.750000  0.433155  1
  Rb  Rb15  1  0.474369  0.250000  0.070516  1
  Zr  Zr16  1  0.773637  0.750000  0.676551  1
  Zr  Zr17  1  0.226017  0.250000  0.324013  1
  Sn  Sn18  1  0.726325  0.750000  0.171460  1
  Sn  Sn19  1  0.273598  0.250000  0.828134  1
  S  S20  1  0.976097  0.250000  0.821711  1
  S  S21  1  0.524063  0.250000  0.318022  1
  S  S22  1  0.476064  0.750000  0.681943  1
  S  S23  1  0.024100  0.750000  0.178483  1
  S  S24  1  0.625122  0.556733  0.097347  1
  S  S25  1  0.130017  0.445377  0.397596  1
  S  S26  1  0.374172  0.054117  0.900678  1
  S  S27  1  0.869426  0.947748  0.604294  1
  S  S28  1  0.374172  0.445883  0.900678  1
  S  S29  1  0.869426  0.552252  0.604294  1
  S  S30  1  0.625122  0.943267  0.097347  1
  S  S31  1  0.130017  0.054623  0.397596  1
  S  S32  1  0.616725  0.750000  0.319849  1
  S  S33  1  0.111334  0.250000  0.177429  1
  S  S34  1  0.378986  0.250000  0.678897  1
  S  S35  1  0.884230  0.750000  0.823908  1
