# generated using pymatgen
data_LaY2Ga8Ag3
_symmetry_space_group_name_H-M   'P 1'
_cell_length_a   4.40888605
_cell_length_b   8.44617428
_cell_length_c   8.44617494
_cell_angle_alpha   68.90563383
_cell_angle_beta   74.87064557
_cell_angle_gamma   74.87065034
_symmetry_Int_Tables_number   1
_chemical_formula_structural   LaY2Ga8Ag3
_chemical_formula_sum   'La1 Y2 Ga8 Ag3'
_cell_volume   278.35708318
_cell_formula_units_Z   1
loop_
 _symmetry_equiv_pos_site_id
 _symmetry_equiv_pos_as_xyz
  1  'x, y, z'
loop_
 _atom_site_type_symbol
 _atom_site_label
 _atom_site_symmetry_multiplicity
 _atom_site_fract_x
 _atom_site_fract_y
 _atom_site_fract_z
 _atom_site_occupancy
  La  La0  1  0.000000  0.000000  0.000000  1
  Y  Y1  1  0.300088  0.699912  0.699912  1
  Y  Y2  1  0.699912  0.300088  0.300088  1
  Ga  Ga3  1  0.338147  0.294684  0.029022  1
  Ga  Ga4  1  0.661853  0.705316  0.970978  1
  Ga  Ga5  1  0.338147  0.029022  0.294684  1
  Ga  Ga6  1  0.661853  0.970978  0.705316  1
  Ga  Ga7  1  0.144674  0.572581  0.138072  1
  Ga  Ga8  1  0.855326  0.427419  0.861928  1
  Ga  Ga9  1  0.144674  0.138072  0.572581  1
  Ga  Ga10  1  0.855326  0.861928  0.427419  1
  Ag  Ag11  1  0.500000  0.306926  0.693074  1
  Ag  Ag12  1  0.500000  0.693074  0.306926  1
  Ag  Ag13  1  0.000000  0.500000  0.500000  1
