# generated using pymatgen
data_Hf18TiMn2Re7
_symmetry_space_group_name_H-M   'P 1'
_cell_length_a   8.57084100
_cell_length_b   8.57084072
_cell_length_c   8.51755100
_cell_angle_alpha   90.00000000
_cell_angle_beta   90.00000000
_cell_angle_gamma   119.99999723
_symmetry_Int_Tables_number   1
_chemical_formula_structural   Hf18TiMn2Re7
_chemical_formula_sum   'Hf18 Ti1 Mn2 Re7'
_cell_volume   541.86643356
_cell_formula_units_Z   1
loop_
 _symmetry_equiv_pos_site_id
 _symmetry_equiv_pos_as_xyz
  1  'x, y, z'
loop_
 _atom_site_type_symbol
 _atom_site_label
 _atom_site_symmetry_multiplicity
 _atom_site_fract_x
 _atom_site_fract_y
 _atom_site_fract_z
 _atom_site_occupancy
  Hf  Hf0  1  0.200418  0.799582  0.443211  1
  Hf  Hf1  1  0.200418  0.400836  0.443211  1
  Hf  Hf2  1  0.599164  0.799582  0.443211  1
  Hf  Hf3  1  0.799582  0.200418  0.556789  1
  Hf  Hf4  1  0.799582  0.599164  0.556789  1
  Hf  Hf5  1  0.400836  0.200418  0.556789  1
  Hf  Hf6  1  0.799295  0.200705  0.942166  1
  Hf  Hf7  1  0.799295  0.598589  0.942166  1
  Hf  Hf8  1  0.401411  0.200705  0.942166  1
  Hf  Hf9  1  0.200705  0.799295  0.057834  1
  Hf  Hf10  1  0.200705  0.401411  0.057834  1
  Hf  Hf11  1  0.598589  0.799295  0.057834  1
  Hf  Hf12  1  0.539657  0.460343  0.249770  1
  Hf  Hf13  1  0.539657  0.079314  0.249770  1
  Hf  Hf14  1  0.920686  0.460343  0.249770  1
  Hf  Hf15  1  0.460343  0.539657  0.750230  1
  Hf  Hf16  1  0.460343  0.920686  0.750230  1
  Hf  Hf17  1  0.079314  0.539657  0.750230  1
  Ti  Ti18  1  0.000000  0.000000  0.500000  1
  Mn  Mn19  1  0.333333  0.666667  0.249795  1
  Mn  Mn20  1  0.666667  0.333333  0.750205  1
  Re  Re21  1  0.888036  0.111964  0.250840  1
  Re  Re22  1  0.888036  0.776072  0.250840  1
  Re  Re23  1  0.223928  0.111964  0.250840  1
  Re  Re24  1  0.111964  0.888036  0.749160  1
  Re  Re25  1  0.111964  0.223928  0.749160  1
  Re  Re26  1  0.776072  0.888036  0.749160  1
  Re  Re27  1  0.000000  0.000000  0.000000  1
