# generated using pymatgen
data_ZrSc4(PaPt5)2
_symmetry_space_group_name_H-M   'P 1'
_cell_length_a   8.27016722
_cell_length_b   8.27016702
_cell_length_c   9.85248900
_cell_angle_alpha   90.00000000
_cell_angle_beta   90.00000000
_cell_angle_gamma   107.28778707
_symmetry_Int_Tables_number   1
_chemical_formula_structural   ZrSc4(PaPt5)2
_chemical_formula_sum   'Zr2 Sc8 Pa4 Pt20'
_cell_volume   643.42500062
_cell_formula_units_Z   2
loop_
 _symmetry_equiv_pos_site_id
 _symmetry_equiv_pos_as_xyz
  1  'x, y, z'
loop_
 _atom_site_type_symbol
 _atom_site_label
 _atom_site_symmetry_multiplicity
 _atom_site_fract_x
 _atom_site_fract_y
 _atom_site_fract_z
 _atom_site_occupancy
  Zr  Zr0  1  0.000000  0.000000  0.000000  1
  Zr  Zr1  1  0.500000  0.500000  0.500000  1
  Sc  Sc2  1  0.000000  0.500000  0.250000  1
  Sc  Sc3  1  0.000000  0.500000  0.750000  1
  Sc  Sc4  1  0.500000  0.000000  0.750000  1
  Sc  Sc5  1  0.500000  0.000000  0.250000  1
  Sc  Sc6  1  0.310203  0.310203  0.188863  1
  Sc  Sc7  1  0.689797  0.689797  0.811137  1
  Sc  Sc8  1  0.189797  0.189797  0.688863  1
  Sc  Sc9  1  0.810203  0.810203  0.311137  1
  Pa  Pa10  1  0.688398  0.311602  0.000000  1
  Pa  Pa11  1  0.311602  0.688398  0.000000  1
  Pa  Pa12  1  0.811602  0.188398  0.500000  1
  Pa  Pa13  1  0.188398  0.811602  0.500000  1
  Pt  Pt14  1  0.851443  0.141705  0.209309  1
  Pt  Pt15  1  0.148557  0.858295  0.790691  1
  Pt  Pt16  1  0.648557  0.358295  0.709309  1
  Pt  Pt17  1  0.641705  0.351443  0.290691  1
  Pt  Pt18  1  0.351443  0.641705  0.290691  1
  Pt  Pt19  1  0.358295  0.648557  0.709309  1
  Pt  Pt20  1  0.858295  0.148557  0.790691  1
  Pt  Pt21  1  0.141705  0.851443  0.209309  1
  Pt  Pt22  1  0.936229  0.645475  0.997344  1
  Pt  Pt23  1  0.063771  0.354525  0.002656  1
  Pt  Pt24  1  0.563771  0.854525  0.497344  1
  Pt  Pt25  1  0.145475  0.436229  0.502656  1
  Pt  Pt26  1  0.436229  0.145475  0.502656  1
  Pt  Pt27  1  0.854525  0.563771  0.497344  1
  Pt  Pt28  1  0.354525  0.063771  0.002656  1
  Pt  Pt29  1  0.645475  0.936229  0.997344  1
  Pt  Pt30  1  0.107997  0.107997  0.392371  1
  Pt  Pt31  1  0.892003  0.892003  0.607629  1
  Pt  Pt32  1  0.392003  0.392003  0.892371  1
  Pt  Pt33  1  0.607997  0.607997  0.107629  1
