# generated using pymatgen
data_Sc22Os6RuRh
_symmetry_space_group_name_H-M   'P 1'
_cell_length_a   9.48440061
_cell_length_b   9.48440028
_cell_length_c   9.46121200
_cell_angle_alpha   60.08085024
_cell_angle_beta   60.08085140
_cell_angle_gamma   60.08399255
_symmetry_Int_Tables_number   1
_chemical_formula_structural   Sc22Os6RuRh
_chemical_formula_sum   'Sc22 Os6 Ru1 Rh1'
_cell_volume   602.91597036
_cell_formula_units_Z   1
loop_
 _symmetry_equiv_pos_site_id
 _symmetry_equiv_pos_as_xyz
  1  'x, y, z'
loop_
 _atom_site_type_symbol
 _atom_site_label
 _atom_site_symmetry_multiplicity
 _atom_site_fract_x
 _atom_site_fract_y
 _atom_site_fract_z
 _atom_site_occupancy
  Sc  Sc0  1  0.843689  0.843689  0.843216  1
  Sc  Sc1  1  0.532596  0.154303  0.156550  1
  Sc  Sc2  1  0.156311  0.156311  0.530593  1
  Sc  Sc3  1  0.154303  0.532596  0.156550  1
  Sc  Sc4  1  0.843689  0.843689  0.469407  1
  Sc  Sc5  1  0.845697  0.467404  0.843450  1
  Sc  Sc6  1  0.467404  0.845697  0.843450  1
  Sc  Sc7  1  0.156311  0.156311  0.156784  1
  Sc  Sc8  1  0.196058  0.803942  0.200035  1
  Sc  Sc9  1  0.196058  0.803942  0.799965  1
  Sc  Sc10  1  0.803942  0.196058  0.200035  1
  Sc  Sc11  1  0.800895  0.800895  0.199105  1
  Sc  Sc12  1  0.199105  0.199105  0.800895  1
  Sc  Sc13  1  0.803942  0.196058  0.799965  1
  Sc  Sc14  1  0.381003  0.381003  0.387199  1
  Sc  Sc15  1  0.148804  0.617296  0.616950  1
  Sc  Sc16  1  0.617296  0.148804  0.616950  1
  Sc  Sc17  1  0.618997  0.618997  0.149206  1
  Sc  Sc18  1  0.382704  0.851196  0.383050  1
  Sc  Sc19  1  0.381003  0.381003  0.850794  1
  Sc  Sc20  1  0.851196  0.382704  0.383050  1
  Sc  Sc21  1  0.618997  0.618997  0.612801  1
  Os  Os22  1  0.000000  0.000000  0.500000  1
  Os  Os23  1  0.500000  0.000000  0.500000  1
  Os  Os24  1  0.000000  0.500000  0.500000  1
  Os  Os25  1  0.500000  0.000000  0.000000  1
  Os  Os26  1  0.000000  0.500000  0.000000  1
  Os  Os27  1  0.500000  0.500000  0.500000  1
  Ru  Ru28  1  0.000000  0.000000  0.000000  1
  Rh  Rh29  1  0.500000  0.500000  0.000000  1
