# generated using pymatgen
data_Mo3OsF20
_symmetry_space_group_name_H-M   'P 1'
_cell_length_a   8.88853138
_cell_length_b   8.88853158
_cell_length_c   5.51796271
_cell_angle_alpha   89.08670380
_cell_angle_beta   89.08669859
_cell_angle_gamma   111.30545155
_symmetry_Int_Tables_number   1
_chemical_formula_structural   Mo3OsF20
_chemical_formula_sum   'Mo3 Os1 F20'
_cell_volume   405.99558050
_cell_formula_units_Z   1
loop_
 _symmetry_equiv_pos_site_id
 _symmetry_equiv_pos_as_xyz
  1  'x, y, z'
loop_
 _atom_site_type_symbol
 _atom_site_label
 _atom_site_symmetry_multiplicity
 _atom_site_fract_x
 _atom_site_fract_y
 _atom_site_fract_z
 _atom_site_occupancy
  Mo  Mo0  1  0.202434  0.797566  0.000000  1
  Mo  Mo1  1  0.745629  0.745225  0.739529  1
  Mo  Mo2  1  0.254775  0.254371  0.260471  1
  Os  Os3  1  0.802627  0.197373  0.000000  1
  F  F4  1  0.860511  0.862800  0.471772  1
  F  F5  1  0.137200  0.139489  0.528228  1
  F  F6  1  0.672478  0.673337  0.053292  1
  F  F7  1  0.326663  0.327522  0.946708  1
  F  F8  1  0.542352  0.729088  0.627016  1
  F  F9  1  0.270912  0.457648  0.372984  1
  F  F10  1  0.456980  0.273415  0.376429  1
  F  F11  1  0.726585  0.543020  0.623571  1
  F  F12  1  0.783328  0.977763  0.879169  1
  F  F13  1  0.022237  0.216672  0.120831  1
  F  F14  1  0.225667  0.026337  0.128020  1
  F  F15  1  0.973663  0.774333  0.871980  1
  F  F16  1  0.904558  0.289185  0.701077  1
  F  F17  1  0.710815  0.095442  0.298923  1
  F  F18  1  0.090700  0.723043  0.291185  1
  F  F19  1  0.276957  0.909300  0.708815  1
  F  F20  1  0.599070  0.167885  0.880883  1
  F  F21  1  0.832115  0.400930  0.119117  1
  F  F22  1  0.407435  0.825691  0.118135  1
  F  F23  1  0.174309  0.592565  0.881865  1
