# generated using pymatgen
data_Ta6Co16P7
_symmetry_space_group_name_H-M   'P 1'
_cell_length_a   7.81530194
_cell_length_b   7.81530160
_cell_length_c   7.81530200
_cell_angle_alpha   59.99999831
_cell_angle_beta   59.99999974
_cell_angle_gamma   60.00000084
_symmetry_Int_Tables_number   1
_chemical_formula_structural   Ta6Co16P7
_chemical_formula_sum   'Ta6 Co16 P7'
_cell_volume   337.53768485
_cell_formula_units_Z   1
loop_
 _symmetry_equiv_pos_site_id
 _symmetry_equiv_pos_as_xyz
  1  'x, y, z'
loop_
 _atom_site_type_symbol
 _atom_site_label
 _atom_site_symmetry_multiplicity
 _atom_site_fract_x
 _atom_site_fract_y
 _atom_site_fract_z
 _atom_site_occupancy
  Ta  Ta0  1  0.798462  0.201538  0.798462  1
  Ta  Ta1  1  0.201539  0.201539  0.798462  1
  Ta  Ta2  1  0.798462  0.798462  0.201539  1
  Ta  Ta3  1  0.798462  0.201538  0.201538  1
  Ta  Ta4  1  0.201538  0.798462  0.798462  1
  Ta  Ta5  1  0.201538  0.798462  0.201539  1
  Co  Co6  1  0.495589  0.834803  0.834803  1
  Co  Co7  1  0.834803  0.495589  0.834803  1
  Co  Co8  1  0.834803  0.834803  0.495589  1
  Co  Co9  1  0.165197  0.504411  0.165197  1
  Co  Co10  1  0.165197  0.165197  0.504411  1
  Co  Co11  1  0.504411  0.165197  0.165197  1
  Co  Co12  1  0.834803  0.834803  0.834803  1
  Co  Co13  1  0.383147  0.383147  0.383147  1
  Co  Co14  1  0.149441  0.616853  0.616853  1
  Co  Co15  1  0.616853  0.149441  0.616853  1
  Co  Co16  1  0.616853  0.616853  0.149441  1
  Co  Co17  1  0.383147  0.850559  0.383147  1
  Co  Co18  1  0.383147  0.383147  0.850559  1
  Co  Co19  1  0.850559  0.383147  0.383147  1
  Co  Co20  1  0.616853  0.616853  0.616853  1
  Co  Co21  1  0.165197  0.165197  0.165197  1
  P  P22  1  0.500000  0.500000  0.500000  1
  P  P23  1  0.500000  0.500000  0.000000  1
  P  P24  1  0.000000  0.000000  0.500000  1
  P  P25  1  0.500000  0.000000  0.500000  1
  P  P26  1  0.000000  0.500000  0.500000  1
  P  P27  1  0.500000  0.000000  0.000000  1
  P  P28  1  0.000000  0.500000  0.000000  1
