# generated using pymatgen
data_Y4PBr6
_symmetry_space_group_name_H-M   'P 1'
_cell_length_a   4.01631900
_cell_length_b   13.14462100
_cell_length_c   13.87039700
_cell_angle_alpha   90.00000000
_cell_angle_beta   90.00000000
_cell_angle_gamma   90.00000000
_symmetry_Int_Tables_number   1
_chemical_formula_structural   Y4PBr6
_chemical_formula_sum   'Y8 P2 Br12'
_cell_volume   732.25974496
_cell_formula_units_Z   2
loop_
 _symmetry_equiv_pos_site_id
 _symmetry_equiv_pos_as_xyz
  1  'x, y, z'
loop_
 _atom_site_type_symbol
 _atom_site_label
 _atom_site_symmetry_multiplicity
 _atom_site_fract_x
 _atom_site_fract_y
 _atom_site_fract_z
 _atom_site_occupancy
  Y  Y0  1  0.500000  0.117220  0.342859  1
  Y  Y1  1  0.500000  0.882780  0.657141  1
  Y  Y2  1  0.500000  0.617220  0.157141  1
  Y  Y3  1  0.500000  0.382780  0.842859  1
  Y  Y4  1  0.000000  0.115032  0.576341  1
  Y  Y5  1  0.000000  0.884968  0.423659  1
  Y  Y6  1  0.000000  0.615032  0.923659  1
  Y  Y7  1  0.000000  0.384968  0.076341  1
  P  P8  1  0.500000  0.000000  0.500000  1
  P  P9  1  0.500000  0.500000  0.000000  1
  Br  Br10  1  0.500000  0.243140  0.162559  1
  Br  Br11  1  0.500000  0.756860  0.837441  1
  Br  Br12  1  0.500000  0.743140  0.337441  1
  Br  Br13  1  0.500000  0.256860  0.662559  1
  Br  Br14  1  0.000000  0.256604  0.412121  1
  Br  Br15  1  0.000000  0.743396  0.587879  1
  Br  Br16  1  0.000000  0.756604  0.087879  1
  Br  Br17  1  0.000000  0.243396  0.912121  1
  Br  Br18  1  0.000000  0.000554  0.242286  1
  Br  Br19  1  0.000000  0.999446  0.757714  1
  Br  Br20  1  0.000000  0.500554  0.257714  1
  Br  Br21  1  0.000000  0.499446  0.742286  1
