# generated using pymatgen
data_Nd12Os2RuPt
_symmetry_space_group_name_H-M   'P 1'
_cell_length_a   6.53198468
_cell_length_b   7.45700990
_cell_length_c   9.77451200
_cell_angle_alpha   90.00000000
_cell_angle_beta   90.00000000
_cell_angle_gamma   90.27074803
_symmetry_Int_Tables_number   1
_chemical_formula_structural   Nd12Os2RuPt
_chemical_formula_sum   'Nd12 Os2 Ru1 Pt1'
_cell_volume   476.10211662
_cell_formula_units_Z   1
loop_
 _symmetry_equiv_pos_site_id
 _symmetry_equiv_pos_as_xyz
  1  'x, y, z'
loop_
 _atom_site_type_symbol
 _atom_site_label
 _atom_site_symmetry_multiplicity
 _atom_site_fract_x
 _atom_site_fract_y
 _atom_site_fract_z
 _atom_site_occupancy
  Nd  Nd0  1  0.335108  0.672345  0.063208  1
  Nd  Nd1  1  0.171048  0.181925  0.436576  1
  Nd  Nd2  1  0.671582  0.323044  0.566601  1
  Nd  Nd3  1  0.826414  0.824647  0.930145  1
  Nd  Nd4  1  0.671582  0.323044  0.933399  1
  Nd  Nd5  1  0.826414  0.824647  0.569855  1
  Nd  Nd6  1  0.335108  0.672345  0.436792  1
  Nd  Nd7  1  0.171048  0.181925  0.063424  1
  Nd  Nd8  1  0.856994  0.532397  0.250000  1
  Nd  Nd9  1  0.634900  0.041996  0.250000  1
  Nd  Nd10  1  0.139932  0.462589  0.750000  1
  Nd  Nd11  1  0.355316  0.960739  0.750000  1
  Os  Os12  1  0.444295  0.384058  0.250000  1
  Os  Os13  1  0.551673  0.615396  0.750000  1
  Ru  Ru14  1  0.949280  0.114328  0.750000  1
  Pt  Pt15  1  0.059309  0.884579  0.250000  1
