# generated using pymatgen
data_Mg3FeCo4(SiO4)4
_symmetry_space_group_name_H-M   'P 1'
_cell_length_a   4.82023701
_cell_length_b   10.44550448
_cell_length_c   6.06140200
_cell_angle_alpha   90.00000000
_cell_angle_beta   90.00000000
_cell_angle_gamma   89.87218718
_symmetry_Int_Tables_number   1
_chemical_formula_structural   Mg3FeCo4(SiO4)4
_chemical_formula_sum   'Mg3 Fe1 Co4 Si4 O16'
_cell_volume   305.18966298
_cell_formula_units_Z   1
loop_
 _symmetry_equiv_pos_site_id
 _symmetry_equiv_pos_as_xyz
  1  'x, y, z'
loop_
 _atom_site_type_symbol
 _atom_site_label
 _atom_site_symmetry_multiplicity
 _atom_site_fract_x
 _atom_site_fract_y
 _atom_site_fract_z
 _atom_site_occupancy
  Mg  Mg0  1  0.508894  0.777282  0.250001  1
  Mg  Mg1  1  0.492168  0.223035  0.750000  1
  Mg  Mg2  1  0.008607  0.724193  0.750000  1
  Fe  Fe3  1  0.985557  0.276592  0.250001  1
  Co  Co4  1  0.000002  0.999129  0.999694  1
  Co  Co5  1  0.500201  0.501156  0.000050  1
  Co  Co6  1  0.000002  0.999129  0.500306  1
  Co  Co7  1  0.500201  0.501156  0.499950  1
  Si  Si8  1  0.424222  0.092925  0.250001  1
  Si  Si9  1  0.074691  0.596064  0.250001  1
  Si  Si10  1  0.927002  0.407144  0.750000  1
  Si  Si11  1  0.574328  0.905894  0.750000  1
  O  O12  1  0.282744  0.161766  0.031254  1
  O  O13  1  0.219933  0.665164  0.033454  1
  O  O14  1  0.764851  0.089308  0.250001  1
  O  O15  1  0.217478  0.450361  0.250001  1
  O  O16  1  0.733735  0.595142  0.250001  1
  O  O17  1  0.284692  0.946608  0.250001  1
  O  O18  1  0.282744  0.161766  0.468745  1
  O  O19  1  0.219933  0.665164  0.466545  1
  O  O20  1  0.778296  0.336328  0.536740  1
  O  O21  1  0.719854  0.835796  0.534154  1
  O  O22  1  0.713634  0.052272  0.750000  1
  O  O23  1  0.267452  0.405850  0.750000  1
  O  O24  1  0.787234  0.553427  0.750000  1
  O  O25  1  0.233397  0.905227  0.750000  1
  O  O26  1  0.778296  0.336328  0.963260  1
  O  O27  1  0.719854  0.835796  0.965846  1
