# generated using pymatgen
data_ZrPa6NbSb10
_symmetry_space_group_name_H-M   'P 1'
_cell_length_a   9.25773700
_cell_length_b   9.25773725
_cell_length_c   6.13814900
_cell_angle_alpha   90.00000000
_cell_angle_beta   90.00000000
_cell_angle_gamma   119.99999554
_symmetry_Int_Tables_number   1
_chemical_formula_structural   ZrPa6NbSb10
_chemical_formula_sum   'Zr1 Pa6 Nb1 Sb10'
_cell_volume   455.59376001
_cell_formula_units_Z   1
loop_
 _symmetry_equiv_pos_site_id
 _symmetry_equiv_pos_as_xyz
  1  'x, y, z'
loop_
 _atom_site_type_symbol
 _atom_site_label
 _atom_site_symmetry_multiplicity
 _atom_site_fract_x
 _atom_site_fract_y
 _atom_site_fract_z
 _atom_site_occupancy
  Zr  Zr0  1  0.000000  0.000000  0.000000  1
  Pa  Pa1  1  0.617378  0.000000  0.250336  1
  Pa  Pa2  1  0.382622  0.000000  0.749664  1
  Pa  Pa3  1  0.000000  0.617378  0.250336  1
  Pa  Pa4  1  0.000000  0.382622  0.749664  1
  Pa  Pa5  1  0.382622  0.382622  0.250336  1
  Pa  Pa6  1  0.617378  0.617378  0.749664  1
  Nb  Nb7  1  0.000000  0.000000  0.500000  1
  Sb  Sb8  1  0.271054  0.000000  0.254772  1
  Sb  Sb9  1  0.728946  0.000000  0.745228  1
  Sb  Sb10  1  0.000000  0.271054  0.254772  1
  Sb  Sb11  1  0.000000  0.728946  0.745228  1
  Sb  Sb12  1  0.728946  0.728946  0.254772  1
  Sb  Sb13  1  0.271054  0.271054  0.745228  1
  Sb  Sb14  1  0.333333  0.666667  0.000000  1
  Sb  Sb15  1  0.666667  0.333333  0.000000  1
  Sb  Sb16  1  0.666667  0.333333  0.500000  1
  Sb  Sb17  1  0.333333  0.666667  0.500000  1
