# generated using pymatgen
data_TcNiBr18
_symmetry_space_group_name_H-M   'P 1'
_cell_length_a   9.18986787
_cell_length_b   9.18987012
_cell_length_c   9.18987008
_cell_angle_alpha   91.64284453
_cell_angle_beta   91.64284242
_cell_angle_gamma   91.64284715
_symmetry_Int_Tables_number   1
_chemical_formula_structural   TcNiBr18
_chemical_formula_sum   'Tc1 Ni1 Br18'
_cell_volume   775.14269826
_cell_formula_units_Z   1
loop_
 _symmetry_equiv_pos_site_id
 _symmetry_equiv_pos_as_xyz
  1  'x, y, z'
loop_
 _atom_site_type_symbol
 _atom_site_label
 _atom_site_symmetry_multiplicity
 _atom_site_fract_x
 _atom_site_fract_y
 _atom_site_fract_z
 _atom_site_occupancy
  Tc  Tc0  1  0.500000  0.500000  0.500000  1
  Ni  Ni1  1  0.000000  0.000000  0.000000  1
  Br  Br2  1  0.728067  0.977367  0.032696  1
  Br  Br3  1  0.749767  0.127613  0.618954  1
  Br  Br4  1  0.032696  0.728067  0.977367  1
  Br  Br5  1  0.250233  0.872387  0.381046  1
  Br  Br6  1  0.127613  0.618954  0.749767  1
  Br  Br7  1  0.022633  0.967304  0.271933  1
  Br  Br8  1  0.618954  0.749767  0.127613  1
  Br  Br9  1  0.967304  0.271933  0.022633  1
  Br  Br10  1  0.872387  0.381046  0.250233  1
  Br  Br11  1  0.381046  0.250233  0.872387  1
  Br  Br12  1  0.977367  0.032696  0.728067  1
  Br  Br13  1  0.271933  0.022633  0.967304  1
  Br  Br14  1  0.773858  0.527879  0.486099  1
  Br  Br15  1  0.513901  0.226142  0.472121  1
  Br  Br16  1  0.472121  0.513901  0.226142  1
  Br  Br17  1  0.486099  0.773858  0.527879  1
  Br  Br18  1  0.527879  0.486099  0.773858  1
  Br  Br19  1  0.226142  0.472121  0.513901  1
