# generated using pymatgen
data_Pr5Gd2IrBr12
_symmetry_space_group_name_H-M   'P 1'
_cell_length_a   9.61876602
_cell_length_b   9.61443634
_cell_length_c   9.61928500
_cell_angle_alpha   106.78686680
_cell_angle_beta   106.84057811
_cell_angle_gamma   106.79669931
_symmetry_Int_Tables_number   1
_chemical_formula_structural   Pr5Gd2IrBr12
_chemical_formula_sum   'Pr5 Gd2 Ir1 Br12'
_cell_volume   744.69747097
_cell_formula_units_Z   1
loop_
 _symmetry_equiv_pos_site_id
 _symmetry_equiv_pos_as_xyz
  1  'x, y, z'
loop_
 _atom_site_type_symbol
 _atom_site_label
 _atom_site_symmetry_multiplicity
 _atom_site_fract_x
 _atom_site_fract_y
 _atom_site_fract_z
 _atom_site_occupancy
  Pr  Pr0  1  0.105635  0.025763  0.317507  1
  Pr  Pr1  1  0.315665  0.103579  0.025960  1
  Pr  Pr2  1  0.026691  0.319916  0.105833  1
  Pr  Pr3  1  0.894425  0.972256  0.681899  1
  Pr  Pr4  1  0.683872  0.893103  0.973079  1
  Gd  Gd5  1  0.974960  0.687920  0.897311  1
  Gd  Gd6  1  0.499445  0.499297  0.499428  1
  Ir  Ir7  1  0.999519  0.999625  0.999998  1
  Br  Br8  1  0.067490  0.680144  0.216369  1
  Br  Br9  1  0.221632  0.068479  0.681202  1
  Br  Br10  1  0.681347  0.221438  0.069381  1
  Br  Br11  1  0.931994  0.322974  0.779837  1
  Br  Br12  1  0.778452  0.931338  0.318758  1
  Br  Br13  1  0.315015  0.775773  0.930172  1
  Br  Br14  1  0.458845  0.169484  0.383434  1
  Br  Br15  1  0.383314  0.458660  0.169935  1
  Br  Br16  1  0.169659  0.383173  0.459046  1
  Br  Br17  1  0.540986  0.829538  0.616123  1
  Br  Br18  1  0.619952  0.541316  0.829577  1
  Br  Br19  1  0.831102  0.616221  0.545153  1
