# generated using pymatgen
data_Tm7Nb2Ru9
_symmetry_space_group_name_H-M   'P 1'
_cell_length_a   8.09595120
_cell_length_b   8.09128887
_cell_length_c   5.76701923
_cell_angle_alpha   89.98540679
_cell_angle_beta   90.02916961
_cell_angle_gamma   120.01906703
_symmetry_Int_Tables_number   1
_chemical_formula_structural   Tm7Nb2Ru9
_chemical_formula_sum   'Tm7 Nb2 Ru9'
_cell_volume   327.10267019
_cell_formula_units_Z   1
loop_
 _symmetry_equiv_pos_site_id
 _symmetry_equiv_pos_as_xyz
  1  'x, y, z'
loop_
 _atom_site_type_symbol
 _atom_site_label
 _atom_site_symmetry_multiplicity
 _atom_site_fract_x
 _atom_site_fract_y
 _atom_site_fract_z
 _atom_site_occupancy
  Tm  Tm0  1  0.666553  0.000000  0.225347  1
  Tm  Tm1  1  0.332853  0.332898  0.225036  1
  Tm  Tm2  1  0.999954  0.667102  0.225036  1
  Tm  Tm3  1  0.665650  0.332053  0.557950  1
  Tm  Tm4  1  0.333598  0.667947  0.557950  1
  Tm  Tm5  1  0.000806  0.000000  0.560538  1
  Tm  Tm6  1  0.333350  0.000000  0.892635  1
  Nb  Nb7  1  0.999884  0.333982  0.890577  1
  Nb  Nb8  1  0.665902  0.666018  0.890577  1
  Ru  Ru9  1  0.678844  0.345261  0.045782  1
  Ru  Ru10  1  0.333584  0.654739  0.045782  1
  Ru  Ru11  1  0.987713  0.000000  0.047359  1
  Ru  Ru12  1  0.332506  0.000000  0.391852  1
  Ru  Ru13  1  0.000159  0.333304  0.393922  1
  Ru  Ru14  1  0.666855  0.666696  0.393922  1
  Ru  Ru15  1  0.678572  0.000000  0.738366  1
  Ru  Ru16  1  0.334589  0.345959  0.737606  1
  Ru  Ru17  1  0.988630  0.654041  0.737606  1
