# generated using pymatgen
data_Hf7Nb3(Ge3C)2
_symmetry_space_group_name_H-M   'P 1'
_cell_length_a   7.88675500
_cell_length_b   7.88675596
_cell_length_c   5.53693400
_cell_angle_alpha   90.00000000
_cell_angle_beta   90.00000000
_cell_angle_gamma   120.00000018
_symmetry_Int_Tables_number   1
_chemical_formula_structural   Hf7Nb3(Ge3C)2
_chemical_formula_sum   'Hf7 Nb3 Ge6 C2'
_cell_volume   298.26117881
_cell_formula_units_Z   1
loop_
 _symmetry_equiv_pos_site_id
 _symmetry_equiv_pos_as_xyz
  1  'x, y, z'
loop_
 _atom_site_type_symbol
 _atom_site_label
 _atom_site_symmetry_multiplicity
 _atom_site_fract_x
 _atom_site_fract_y
 _atom_site_fract_z
 _atom_site_occupancy
  Hf  Hf0  1  0.666667  0.333333  0.000000  1
  Hf  Hf1  1  0.766655  0.999418  0.750463  1
  Hf  Hf2  1  0.766655  0.767237  0.249537  1
  Hf  Hf3  1  0.000582  0.233345  0.249537  1
  Hf  Hf4  1  0.000582  0.767237  0.750463  1
  Hf  Hf5  1  0.232763  0.233345  0.750463  1
  Hf  Hf6  1  0.232763  0.999418  0.249537  1
  Nb  Nb7  1  0.333333  0.666667  0.500000  1
  Nb  Nb8  1  0.666667  0.333333  0.500000  1
  Nb  Nb9  1  0.333333  0.666667  0.000000  1
  Ge  Ge10  1  0.404245  0.998404  0.746116  1
  Ge  Ge11  1  0.404245  0.405842  0.253884  1
  Ge  Ge12  1  0.001596  0.595755  0.253884  1
  Ge  Ge13  1  0.001596  0.405842  0.746116  1
  Ge  Ge14  1  0.594158  0.595755  0.746116  1
  Ge  Ge15  1  0.594158  0.998404  0.253884  1
  C  C16  1  0.000000  0.000000  0.500000  1
  C  C17  1  0.000000  0.000000  0.000000  1
