# generated using pymatgen
data_CoMo6Pt3N2
_symmetry_space_group_name_H-M   'P 1'
_cell_length_a   6.84371835
_cell_length_b   6.83259300
_cell_length_c   6.84371835
_cell_angle_alpha   89.99808800
_cell_angle_beta   90.17897723
_cell_angle_gamma   90.00191200
_symmetry_Int_Tables_number   1
_chemical_formula_structural   CoMo6Pt3N2
_chemical_formula_sum   'Co2 Mo12 Pt6 N4'
_cell_volume   320.01304950
_cell_formula_units_Z   2
loop_
 _symmetry_equiv_pos_site_id
 _symmetry_equiv_pos_as_xyz
  1  'x, y, z'
loop_
 _atom_site_type_symbol
 _atom_site_label
 _atom_site_symmetry_multiplicity
 _atom_site_fract_x
 _atom_site_fract_y
 _atom_site_fract_z
 _atom_site_occupancy
  Co  Co0  1  0.933166  0.561703  0.453445  1
  Co  Co1  1  0.703445  0.688297  0.683166  1
  Mo  Mo2  1  0.119450  0.212998  0.447703  1
  Mo  Mo3  1  0.373624  0.801966  0.956019  1
  Mo  Mo4  1  0.870806  0.697636  0.045504  1
  Mo  Mo5  1  0.206019  0.448034  0.123624  1
  Mo  Mo6  1  0.802252  0.946725  0.376260  1
  Mo  Mo7  1  0.038646  0.867067  0.699505  1
  Mo  Mo8  1  0.453033  0.125000  0.203033  1
  Mo  Mo9  1  0.295504  0.552364  0.620806  1
  Mo  Mo10  1  0.949505  0.382933  0.788646  1
  Mo  Mo11  1  0.556230  0.625000  0.306230  1
  Mo  Mo12  1  0.697703  0.037002  0.869450  1
  Mo  Mo13  1  0.626260  0.303275  0.552252  1
  Pt  Pt14  1  0.055972  0.057863  0.059293  1
  Pt  Pt15  1  0.309293  0.192137  0.805972  1
  Pt  Pt16  1  0.812554  0.320609  0.200356  1
  Pt  Pt17  1  0.180799  0.797707  0.315731  1
  Pt  Pt18  1  0.450356  0.929391  0.562554  1
  Pt  Pt19  1  0.565731  0.452293  0.930799  1
  N  N20  1  0.375816  0.375660  0.374303  1
  N  N21  1  0.624303  0.874340  0.125816  1
  N  N22  1  0.125913  0.625000  0.875913  1
  N  N23  1  0.873618  0.125000  0.623618  1
