# generated using pymatgen
data_Nd4ZnGa19Pt11
_symmetry_space_group_name_H-M   'P 1'
_cell_length_a   4.31318658
_cell_length_b   10.97210884
_cell_length_c   13.69455430
_cell_angle_alpha   81.29540591
_cell_angle_beta   80.68362568
_cell_angle_gamma   78.42101872
_symmetry_Int_Tables_number   1
_chemical_formula_structural   Nd4ZnGa19Pt11
_chemical_formula_sum   'Nd4 Zn1 Ga19 Pt11'
_cell_volume   621.77482667
_cell_formula_units_Z   1
loop_
 _symmetry_equiv_pos_site_id
 _symmetry_equiv_pos_as_xyz
  1  'x, y, z'
loop_
 _atom_site_type_symbol
 _atom_site_label
 _atom_site_symmetry_multiplicity
 _atom_site_fract_x
 _atom_site_fract_y
 _atom_site_fract_z
 _atom_site_occupancy
  Nd  Nd0  1  0.123274  0.090014  0.666013  1
  Nd  Nd1  1  0.876719  0.910055  0.334830  1
  Nd  Nd2  1  0.770836  0.630225  0.820636  1
  Nd  Nd3  1  0.229189  0.368740  0.178815  1
  Zn  Zn4  1  0.004900  0.075681  0.914795  1
  Ga  Ga5  1  0.994051  0.926981  0.084727  1
  Ga  Ga6  1  0.062101  0.677393  0.193860  1
  Ga  Ga7  1  0.937292  0.321104  0.807285  1
  Ga  Ga8  1  0.103926  0.341070  0.454807  1
  Ga  Ga9  1  0.895896  0.659172  0.545321  1
  Ga  Ga10  1  0.199187  0.606016  0.991875  1
  Ga  Ga11  1  0.801937  0.393163  0.008106  1
  Ga  Ga12  1  0.253758  0.784912  0.699660  1
  Ga  Ga13  1  0.744519  0.215956  0.301786  1
  Ga  Ga14  1  0.301378  0.898256  0.498647  1
  Ga  Ga15  1  0.699809  0.100938  0.501513  1
  Ga  Ga16  1  0.384565  0.524181  0.700084  1
  Ga  Ga17  1  0.615161  0.475313  0.300089  1
  Ga  Ga18  1  0.398764  0.196231  0.001626  1
  Ga  Ga19  1  0.602789  0.800971  0.996157  1
  Ga  Ga20  1  0.543722  0.287930  0.626196  1
  Ga  Ga21  1  0.457549  0.712832  0.372300  1
  Ga  Ga22  1  0.635882  0.937115  0.797291  1
  Ga  Ga23  1  0.361004  0.065153  0.205144  1
  Pt  Pt24  1  0.500905  0.499371  0.499836  1
  Pt  Pt25  1  0.030438  0.573955  0.370818  1
  Pt  Pt26  1  0.969438  0.426721  0.629740  1
  Pt  Pt27  1  0.140687  0.836409  0.887861  1
  Pt  Pt28  1  0.858534  0.162106  0.112287  1
  Pt  Pt29  1  0.243199  0.128004  0.391614  1
  Pt  Pt30  1  0.757000  0.871566  0.608776  1
  Pt  Pt31  1  0.348374  0.415437  0.894176  1
  Pt  Pt32  1  0.652946  0.584122  0.106486  1
  Pt  Pt33  1  0.503897  0.173905  0.815551  1
  Pt  Pt34  1  0.496372  0.829003  0.181293  1
