# generated using pymatgen
data_Ca2ReH7
_symmetry_space_group_name_H-M   'P 1'
_cell_length_a   5.37420432
_cell_length_b   5.21915384
_cell_length_c   7.44260387
_cell_angle_alpha   44.64908111
_cell_angle_beta   46.45085495
_cell_angle_gamma   60.66434558
_symmetry_Int_Tables_number   1
_chemical_formula_structural   Ca2ReH7
_chemical_formula_sum   'Ca2 Re1 H7'
_cell_volume   106.33010888
_cell_formula_units_Z   1
loop_
 _symmetry_equiv_pos_site_id
 _symmetry_equiv_pos_as_xyz
  1  'x, y, z'
loop_
 _atom_site_type_symbol
 _atom_site_label
 _atom_site_symmetry_multiplicity
 _atom_site_fract_x
 _atom_site_fract_y
 _atom_site_fract_z
 _atom_site_occupancy
  Ca  Ca0  1  0.286845  0.381640  0.899075  1
  Ca  Ca1  1  0.283051  0.380225  0.401570  1
  Re  Re2  1  0.785175  0.887784  0.146931  1
  H  H3  1  0.782261  0.273370  0.079974  1
  H  H4  1  0.787841  0.289329  0.832276  1
  H  H5  1  0.326810  0.884970  0.375718  1
  H  H6  1  0.783090  0.790696  0.966132  1
  H  H7  1  0.243588  0.886190  0.920215  1
  H  H8  1  0.785832  0.404484  0.384253  1
  H  H9  1  0.787094  0.774209  0.430140  1
