# generated using pymatgen
data_CeNdMnN3
_symmetry_space_group_name_H-M   'P 1'
_cell_length_a   3.51484772
_cell_length_b   3.82560008
_cell_length_c   6.75397417
_cell_angle_alpha   106.45193170
_cell_angle_beta   105.08227655
_cell_angle_gamma   90.00001003
_symmetry_Int_Tables_number   1
_chemical_formula_structural   CeNdMnN3
_chemical_formula_sum   'Ce1 Nd1 Mn1 N3'
_cell_volume   83.83141817
_cell_formula_units_Z   1
loop_
 _symmetry_equiv_pos_site_id
 _symmetry_equiv_pos_as_xyz
  1  'x, y, z'
loop_
 _atom_site_type_symbol
 _atom_site_label
 _atom_site_symmetry_multiplicity
 _atom_site_fract_x
 _atom_site_fract_y
 _atom_site_fract_z
 _atom_site_occupancy
  Ce  Ce0  1  0.353180  0.353180  0.706359  1
  Nd  Nd1  1  0.644491  0.644492  0.288985  1
  Mn  Mn2  1  0.001178  0.001178  0.002356  1
  N  N3  1  0.994671  0.494669  0.989339  1
  N  N4  1  0.164958  0.164958  0.329916  1
  N  N5  1  0.841521  0.841521  0.683044  1
