# generated using pymatgen
data_CeTm3CdFe
_symmetry_space_group_name_H-M   'P 1'
_cell_length_a   9.40577294
_cell_length_b   9.40577209
_cell_length_c   9.40577200
_cell_angle_alpha   59.99999328
_cell_angle_beta   59.99999627
_cell_angle_gamma   59.99999250
_symmetry_Int_Tables_number   1
_chemical_formula_structural   CeTm3CdFe
_chemical_formula_sum   'Ce4 Tm12 Cd4 Fe4'
_cell_volume   588.39413063
_cell_formula_units_Z   4
loop_
 _symmetry_equiv_pos_site_id
 _symmetry_equiv_pos_as_xyz
  1  'x, y, z'
loop_
 _atom_site_type_symbol
 _atom_site_label
 _atom_site_symmetry_multiplicity
 _atom_site_fract_x
 _atom_site_fract_y
 _atom_site_fract_z
 _atom_site_occupancy
  Ce  Ce0  1  0.341998  0.341998  0.974007  1
  Ce  Ce1  1  0.341998  0.974007  0.341998  1
  Ce  Ce2  1  0.974007  0.341998  0.341998  1
  Ce  Ce3  1  0.341998  0.341998  0.341998  1
  Tm  Tm4  1  0.562265  0.562265  0.937735  1
  Tm  Tm5  1  0.937735  0.562265  0.937735  1
  Tm  Tm6  1  0.562265  0.937735  0.937735  1
  Tm  Tm7  1  0.937735  0.937735  0.562265  1
  Tm  Tm8  1  0.562265  0.937735  0.562265  1
  Tm  Tm9  1  0.937735  0.562265  0.562265  1
  Tm  Tm10  1  0.187520  0.187520  0.812480  1
  Tm  Tm11  1  0.812480  0.187520  0.812480  1
  Tm  Tm12  1  0.187519  0.812481  0.812480  1
  Tm  Tm13  1  0.812480  0.812481  0.187520  1
  Tm  Tm14  1  0.187519  0.812480  0.187519  1
  Tm  Tm15  1  0.812480  0.187520  0.187520  1
  Cd  Cd16  1  0.580885  0.580885  0.257342  1
  Cd  Cd17  1  0.580885  0.257342  0.580885  1
  Cd  Cd18  1  0.257342  0.580885  0.580885  1
  Cd  Cd19  1  0.580885  0.580885  0.580885  1
  Fe  Fe20  1  0.146887  0.146887  0.559341  1
  Fe  Fe21  1  0.146887  0.559341  0.146887  1
  Fe  Fe22  1  0.559341  0.146887  0.146887  1
  Fe  Fe23  1  0.146887  0.146887  0.146887  1
