# generated using pymatgen
data_CaLa5PrFeI12
_symmetry_space_group_name_H-M   'P 1'
_cell_length_a   10.08903446
_cell_length_b   10.24656144
_cell_length_c   10.09096138
_cell_angle_alpha   107.23636780
_cell_angle_beta   106.94837879
_cell_angle_gamma   106.71320491
_symmetry_Int_Tables_number   1
_chemical_formula_structural   CaLa5PrFeI12
_chemical_formula_sum   'Ca1 La5 Pr1 Fe1 I12'
_cell_volume   869.56319291
_cell_formula_units_Z   1
loop_
 _symmetry_equiv_pos_site_id
 _symmetry_equiv_pos_as_xyz
  1  'x, y, z'
loop_
 _atom_site_type_symbol
 _atom_site_label
 _atom_site_symmetry_multiplicity
 _atom_site_fract_x
 _atom_site_fract_y
 _atom_site_fract_z
 _atom_site_occupancy
  Ca  Ca0  1  0.000383  0.000089  0.000472  1
  La  La1  1  0.793134  0.525136  0.596753  1
  La  La2  1  0.525345  0.596046  0.793924  1
  La  La3  1  0.206607  0.474241  0.403177  1
  La  La4  1  0.474215  0.402474  0.205783  1
  La  La5  1  0.602525  0.811279  0.526421  1
  Pr  Pr6  1  0.398179  0.192946  0.473469  1
  Fe  Fe7  1  0.499919  0.499770  0.499806  1
  I  I8  1  0.724594  0.182989  0.573161  1
  I  I9  1  0.962152  0.881951  0.660919  1
  I  I10  1  0.572774  0.723213  0.180292  1
  I  I11  1  0.114706  0.336732  0.037009  1
  I  I12  1  0.660184  0.959829  0.884484  1
  I  I13  1  0.885300  0.663107  0.962903  1
  I  I14  1  0.040339  0.118000  0.340368  1
  I  I15  1  0.819071  0.426129  0.273275  1
  I  I16  1  0.340243  0.040301  0.118006  1
  I  I17  1  0.272879  0.816888  0.426060  1
  I  I18  1  0.180854  0.573762  0.726756  1
  I  I19  1  0.426597  0.275118  0.816961  1
