# generated using pymatgen
data_YbDy6CoSn23Ir5
_symmetry_space_group_name_H-M   'P 1'
_cell_length_a   9.84906946
_cell_length_b   9.86348137
_cell_length_c   10.07686943
_cell_angle_alpha   89.99999797
_cell_angle_beta   89.91362067
_cell_angle_gamma   120.04841346
_symmetry_Int_Tables_number   1
_chemical_formula_structural   YbDy6CoSn23Ir5
_chemical_formula_sum   'Yb1 Dy6 Co1 Sn23 Ir5'
_cell_volume   847.36194816
_cell_formula_units_Z   1
loop_
 _symmetry_equiv_pos_site_id
 _symmetry_equiv_pos_as_xyz
  1  'x, y, z'
loop_
 _atom_site_type_symbol
 _atom_site_label
 _atom_site_symmetry_multiplicity
 _atom_site_fract_x
 _atom_site_fract_y
 _atom_site_fract_z
 _atom_site_occupancy
  Yb  Yb0  1  0.005500  0.002750  0.003784  1
  Dy  Dy1  1  0.481125  0.519707  0.306579  1
  Dy  Dy2  1  0.518982  0.480361  0.692742  1
  Dy  Dy3  1  0.481125  0.961418  0.306579  1
  Dy  Dy4  1  0.518982  0.038621  0.692742  1
  Dy  Dy5  1  0.038213  0.519107  0.306137  1
  Dy  Dy6  1  0.960682  0.480341  0.693767  1
  Co  Co7  1  0.659948  0.829975  0.799931  1
  Sn  Sn8  1  0.353301  0.999776  0.999356  1
  Sn  Sn9  1  0.650813  0.994292  0.994730  1
  Sn  Sn10  1  0.999941  0.351451  0.999845  1
  Sn  Sn11  1  0.999941  0.648490  0.999845  1
  Sn  Sn12  1  0.650813  0.656521  0.994730  1
  Sn  Sn13  1  0.353301  0.353524  0.999356  1
  Sn  Sn14  1  0.338416  0.669209  0.821456  1
  Sn  Sn15  1  0.666188  0.333093  0.174885  1
  Sn  Sn16  1  0.999964  0.999982  0.500760  1
  Sn  Sn17  1  0.779269  0.221678  0.458154  1
  Sn  Sn18  1  0.221378  0.777965  0.541727  1
  Sn  Sn19  1  0.779269  0.557591  0.458154  1
  Sn  Sn20  1  0.221378  0.443414  0.541727  1
  Sn  Sn21  1  0.444419  0.222209  0.457848  1
  Sn  Sn22  1  0.561276  0.780639  0.549159  1
  Sn  Sn23  1  0.333490  0.666745  0.120754  1
  Sn  Sn24  1  0.665318  0.332658  0.877751  1
  Sn  Sn25  1  0.116600  0.880968  0.282536  1
  Sn  Sn26  1  0.876782  0.110840  0.723416  1
  Sn  Sn27  1  0.116600  0.235632  0.282536  1
  Sn  Sn28  1  0.876782  0.765942  0.723416  1
  Sn  Sn29  1  0.762089  0.881044  0.283215  1
  Sn  Sn30  1  0.235492  0.117746  0.716415  1
  Ir  Ir31  1  0.827809  0.168019  0.198836  1
  Ir  Ir32  1  0.168901  0.829738  0.798996  1
  Ir  Ir33  1  0.827809  0.659789  0.198836  1
  Ir  Ir34  1  0.168901  0.339163  0.798996  1
  Ir  Ir35  1  0.339211  0.169605  0.200310  1
