# generated using pymatgen
data_Yb3Ho5Sc12Si15Pt
_symmetry_space_group_name_H-M   'P 1'
_cell_length_a   7.08645891
_cell_length_b   7.44321786
_cell_length_c   14.04178920
_cell_angle_alpha   89.92663196
_cell_angle_beta   89.86810192
_cell_angle_gamma   90.09557610
_symmetry_Int_Tables_number   1
_chemical_formula_structural   Yb3Ho5Sc12Si15Pt
_chemical_formula_sum   'Yb3 Ho5 Sc12 Si15 Pt1'
_cell_volume   740.64541670
_cell_formula_units_Z   1
loop_
 _symmetry_equiv_pos_site_id
 _symmetry_equiv_pos_as_xyz
  1  'x, y, z'
loop_
 _atom_site_type_symbol
 _atom_site_label
 _atom_site_symmetry_multiplicity
 _atom_site_fract_x
 _atom_site_fract_y
 _atom_site_fract_z
 _atom_site_occupancy
  Yb  Yb0  1  0.008704  0.174195  0.095820  1
  Yb  Yb1  1  0.991895  0.829711  0.905157  1
  Yb  Yb2  1  0.490140  0.676400  0.907063  1
  Ho  Ho3  1  0.988647  0.820922  0.592987  1
  Ho  Ho4  1  0.511721  0.324084  0.099244  1
  Ho  Ho5  1  0.013034  0.178120  0.405304  1
  Ho  Ho6  1  0.513776  0.322960  0.403892  1
  Ho  Ho7  1  0.487195  0.676170  0.592372  1
  Sc  Sc8  1  0.157272  0.507886  0.751009  1
  Sc  Sc9  1  0.841177  0.494195  0.250254  1
  Sc  Sc10  1  0.338879  0.007817  0.250246  1
  Sc  Sc11  1  0.664634  0.992052  0.749009  1
  Sc  Sc12  1  0.323163  0.172822  0.623651  1
  Sc  Sc13  1  0.673274  0.825222  0.374940  1
  Sc  Sc14  1  0.173044  0.677712  0.375478  1
  Sc  Sc15  1  0.674859  0.828074  0.126274  1
  Sc  Sc16  1  0.831024  0.320872  0.625238  1
  Sc  Sc17  1  0.321237  0.171577  0.872754  1
  Sc  Sc18  1  0.826724  0.324680  0.873902  1
  Sc  Sc19  1  0.173634  0.678155  0.126057  1
  Si  Si20  1  0.968974  0.882475  0.251806  1
  Si  Si21  1  0.471270  0.615765  0.250614  1
  Si  Si22  1  0.526256  0.387347  0.747185  1
  Si  Si23  1  0.286656  0.869715  0.743498  1
  Si  Si24  1  0.715506  0.127191  0.253517  1
  Si  Si25  1  0.218597  0.375145  0.252959  1
  Si  Si26  1  0.776088  0.620592  0.745620  1
  Si  Si27  1  0.158919  0.466057  0.537807  1
  Si  Si28  1  0.843524  0.534705  0.461004  1
  Si  Si29  1  0.345969  0.966282  0.459274  1
  Si  Si30  1  0.847545  0.534635  0.041927  1
  Si  Si31  1  0.659137  0.033056  0.538593  1
  Si  Si32  1  0.152500  0.463840  0.962295  1
  Si  Si33  1  0.648463  0.041007  0.961920  1
  Si  Si34  1  0.350981  0.971029  0.043394  1
  Pt  Pt35  1  0.025582  0.107532  0.747936  1
