# generated using pymatgen
data_Tm10Ga3Bi2Ru
_symmetry_space_group_name_H-M   'P 1'
_cell_length_a   8.59480051
_cell_length_b   8.59480041
_cell_length_c   8.70265130
_cell_angle_alpha   125.53905128
_cell_angle_beta   125.53905238
_cell_angle_gamma   79.79892257
_symmetry_Int_Tables_number   1
_chemical_formula_structural   Tm10Ga3Bi2Ru
_chemical_formula_sum   'Tm10 Ga3 Bi2 Ru1'
_cell_volume   412.93368312
_cell_formula_units_Z   1
loop_
 _symmetry_equiv_pos_site_id
 _symmetry_equiv_pos_as_xyz
  1  'x, y, z'
loop_
 _atom_site_type_symbol
 _atom_site_label
 _atom_site_symmetry_multiplicity
 _atom_site_fract_x
 _atom_site_fract_y
 _atom_site_fract_z
 _atom_site_occupancy
  Tm  Tm0  1  0.006168  0.003531  0.009700  1
  Tm  Tm1  1  0.496469  0.493832  0.990300  1
  Tm  Tm2  1  0.782331  0.297047  0.797972  1
  Tm  Tm3  1  0.202953  0.717669  0.202028  1
  Tm  Tm4  1  0.484358  0.999075  0.202028  1
  Tm  Tm5  1  0.305237  0.461518  0.500000  1
  Tm  Tm6  1  0.038482  0.194763  0.500000  1
  Tm  Tm7  1  0.500925  0.015642  0.797972  1
  Tm  Tm8  1  0.705921  0.515794  0.500000  1
  Tm  Tm9  1  0.984206  0.794079  0.500000  1
  Ga  Ga10  1  0.140053  0.644845  0.784900  1
  Ga  Ga11  1  0.855155  0.359947  0.215100  1
  Ga  Ga12  1  0.635876  0.864124  0.500000  1
  Bi  Bi13  1  0.244310  0.255690  0.000000  1
  Bi  Bi14  1  0.744310  0.755690  0.000000  1
  Ru  Ru15  1  0.373245  0.126755  0.500000  1
