# generated using pymatgen
data_PaTlSe5
_symmetry_space_group_name_H-M   'P 1'
_cell_length_a   4.08092100
_cell_length_b   9.63006738
_cell_length_c   12.52834235
_cell_angle_alpha   59.41894676
_cell_angle_beta   90.00000000
_cell_angle_gamma   90.00000000
_symmetry_Int_Tables_number   1
_chemical_formula_structural   PaTlSe5
_chemical_formula_sum   'Pa2 Tl2 Se10'
_cell_volume   423.87620296
_cell_formula_units_Z   2
loop_
 _symmetry_equiv_pos_site_id
 _symmetry_equiv_pos_as_xyz
  1  'x, y, z'
loop_
 _atom_site_type_symbol
 _atom_site_label
 _atom_site_symmetry_multiplicity
 _atom_site_fract_x
 _atom_site_fract_y
 _atom_site_fract_z
 _atom_site_occupancy
  Pa  Pa0  1  0.750000  0.281509  0.655702  1
  Pa  Pa1  1  0.250000  0.718491  0.344298  1
  Tl  Tl2  1  0.250000  0.414178  0.920557  1
  Tl  Tl3  1  0.750000  0.585822  0.079443  1
  Se  Se4  1  0.750000  0.492698  0.382846  1
  Se  Se5  1  0.250000  0.350528  0.163815  1
  Se  Se6  1  0.250000  0.507302  0.617154  1
  Se  Se7  1  0.750000  0.850735  0.436333  1
  Se  Se8  1  0.250000  0.149265  0.563667  1
  Se  Se9  1  0.250000  0.037640  0.783351  1
  Se  Se10  1  0.250000  0.787844  0.095700  1
  Se  Se11  1  0.750000  0.962360  0.216649  1
  Se  Se12  1  0.750000  0.212156  0.904300  1
  Se  Se13  1  0.750000  0.649472  0.836185  1
