# generated using pymatgen
data_Tm2Zn(Ni2P)6
_symmetry_space_group_name_H-M   'P 1'
_cell_length_a   9.09155900
_cell_length_b   9.09155920
_cell_length_c   3.64668900
_cell_angle_alpha   90.00000000
_cell_angle_beta   90.00000000
_cell_angle_gamma   119.99999660
_symmetry_Int_Tables_number   1
_chemical_formula_structural   Tm2Zn(Ni2P)6
_chemical_formula_sum   'Tm2 Zn1 Ni12 P6'
_cell_volume   261.03942624
_cell_formula_units_Z   1
loop_
 _symmetry_equiv_pos_site_id
 _symmetry_equiv_pos_as_xyz
  1  'x, y, z'
loop_
 _atom_site_type_symbol
 _atom_site_label
 _atom_site_symmetry_multiplicity
 _atom_site_fract_x
 _atom_site_fract_y
 _atom_site_fract_z
 _atom_site_occupancy
  Tm  Tm0  1  0.666667  0.333333  0.500000  1
  Tm  Tm1  1  0.333333  0.666667  0.000000  1
  Zn  Zn2  1  0.000000  0.000000  0.000000  1
  Ni  Ni3  1  0.438998  0.062727  0.000000  1
  Ni  Ni4  1  0.623729  0.561002  0.000000  1
  Ni  Ni5  1  0.937273  0.376271  0.000000  1
  Ni  Ni6  1  0.165626  0.296729  0.000000  1
  Ni  Ni7  1  0.131103  0.834374  0.000000  1
  Ni  Ni8  1  0.703271  0.868897  0.000000  1
  Ni  Ni9  1  0.384548  0.437331  0.500000  1
  Ni  Ni10  1  0.052783  0.615452  0.500000  1
  Ni  Ni11  1  0.562669  0.947217  0.500000  1
  Ni  Ni12  1  0.245945  0.108898  0.500000  1
  Ni  Ni13  1  0.862953  0.754055  0.500000  1
  Ni  Ni14  1  0.891102  0.137047  0.500000  1
  P  P15  1  0.404940  0.289962  0.000000  1
  P  P16  1  0.885023  0.595060  0.000000  1
  P  P17  1  0.710038  0.114977  0.000000  1
  P  P18  1  0.112223  0.404917  0.500000  1
  P  P19  1  0.292694  0.887777  0.500000  1
  P  P20  1  0.595083  0.707306  0.500000  1
