# generated using pymatgen
data_NaPu5S8
_symmetry_space_group_name_H-M   'P 1'
_cell_length_a   7.20956482
_cell_length_b   7.20956453
_cell_length_c   7.20956525
_cell_angle_alpha   109.47574190
_cell_angle_beta   109.47574679
_cell_angle_gamma   109.46216666
_symmetry_Int_Tables_number   1
_chemical_formula_structural   NaPu5S8
_chemical_formula_sum   'Na1 Pu5 S8'
_cell_volume   288.47308502
_cell_formula_units_Z   1
loop_
 _symmetry_equiv_pos_site_id
 _symmetry_equiv_pos_as_xyz
  1  'x, y, z'
loop_
 _atom_site_type_symbol
 _atom_site_label
 _atom_site_symmetry_multiplicity
 _atom_site_fract_x
 _atom_site_fract_y
 _atom_site_fract_z
 _atom_site_occupancy
  Na  Na0  1  0.750000  0.250000  0.500000  1
  Pu  Pu1  1  0.128388  0.007903  0.377541  1
  Pu  Pu2  1  0.500000  0.500000  0.000000  1
  Pu  Pu3  1  0.992097  0.369639  0.120485  1
  Pu  Pu4  1  0.630361  0.750846  0.622459  1
  Pu  Pu5  1  0.249154  0.871612  0.879515  1
  S  S6  1  0.872871  0.628465  0.903675  1
  S  S7  1  0.361897  0.758025  0.242810  1
  S  S8  1  0.880913  0.638103  0.396129  1
  S  S9  1  0.030804  0.127129  0.755594  1
  S  S10  1  0.515215  0.119087  0.757190  1
  S  S11  1  0.241975  0.484785  0.603871  1
  S  S12  1  0.371535  0.275210  0.244406  1
  S  S13  1  0.724790  0.969196  0.096325  1
