# generated using pymatgen
data_Y3TmCuPt3
_symmetry_space_group_name_H-M   'P 1'
_cell_length_a   4.52153500
_cell_length_b   5.57015642
_cell_length_c   7.02384658
_cell_angle_alpha   89.29868023
_cell_angle_beta   90.00000000
_cell_angle_gamma   90.00000000
_symmetry_Int_Tables_number   1
_chemical_formula_structural   Y3TmCuPt3
_chemical_formula_sum   'Y3 Tm1 Cu1 Pt3'
_cell_volume   176.88694018
_cell_formula_units_Z   1
loop_
 _symmetry_equiv_pos_site_id
 _symmetry_equiv_pos_as_xyz
  1  'x, y, z'
loop_
 _atom_site_type_symbol
 _atom_site_label
 _atom_site_symmetry_multiplicity
 _atom_site_fract_x
 _atom_site_fract_y
 _atom_site_fract_z
 _atom_site_occupancy
  Y  Y0  1  0.000000  0.640374  0.317490  1
  Y  Y1  1  0.000000  0.857212  0.819716  1
  Y  Y2  1  0.500000  0.364321  0.686590  1
  Tm  Tm3  1  0.500000  0.138070  0.175378  1
  Cu  Cu4  1  0.000000  0.136172  0.461958  1
  Pt  Pt5  1  0.000000  0.338471  0.959982  1
  Pt  Pt6  1  0.500000  0.870404  0.531223  1
  Pt  Pt7  1  0.500000  0.654977  0.047668  1
