# generated using pymatgen
data_Eu3In2AgPd3
_symmetry_space_group_name_H-M   'P 1'
_cell_length_a   7.76415900
_cell_length_b   7.66604825
_cell_length_c   4.15279700
_cell_angle_alpha   90.00000000
_cell_angle_beta   90.00000000
_cell_angle_gamma   120.42426377
_symmetry_Int_Tables_number   1
_chemical_formula_structural   Eu3In2AgPd3
_chemical_formula_sum   'Eu3 In2 Ag1 Pd3'
_cell_volume   213.13987269
_cell_formula_units_Z   1
loop_
 _symmetry_equiv_pos_site_id
 _symmetry_equiv_pos_as_xyz
  1  'x, y, z'
loop_
 _atom_site_type_symbol
 _atom_site_label
 _atom_site_symmetry_multiplicity
 _atom_site_fract_x
 _atom_site_fract_y
 _atom_site_fract_z
 _atom_site_occupancy
  Eu  Eu0  1  0.417239  0.000000  0.500000  1
  Eu  Eu1  1  0.989769  0.397218  0.500000  1
  Eu  Eu2  1  0.592552  0.602782  0.500000  1
  In  In3  1  0.996912  0.744850  0.000000  1
  In  In4  1  0.252062  0.255150  0.000000  1
  Ag  Ag5  1  0.750278  0.000000  0.000000  1
  Pd  Pd6  1  0.321832  0.661275  0.000000  1
  Pd  Pd7  1  0.660558  0.338725  0.000000  1
  Pd  Pd8  1  0.018797  0.000000  0.500000  1
