# generated using pymatgen
data_Tb4Sc3Pa(ReB6)4
_symmetry_space_group_name_H-M   'P 1'
_cell_length_a   3.63785200
_cell_length_b   9.05218982
_cell_length_c   11.45224811
_cell_angle_alpha   90.10895018
_cell_angle_beta   90.00000000
_cell_angle_gamma   90.00000000
_symmetry_Int_Tables_number   1
_chemical_formula_structural   Tb4Sc3Pa(ReB6)4
_chemical_formula_sum   'Tb4 Sc3 Pa1 Re4 B24'
_cell_volume   377.12788219
_cell_formula_units_Z   1
loop_
 _symmetry_equiv_pos_site_id
 _symmetry_equiv_pos_as_xyz
  1  'x, y, z'
loop_
 _atom_site_type_symbol
 _atom_site_label
 _atom_site_symmetry_multiplicity
 _atom_site_fract_x
 _atom_site_fract_y
 _atom_site_fract_z
 _atom_site_occupancy
  Tb  Tb0  1  0.000000  0.679276  0.588490  1
  Tb  Tb1  1  0.000000  0.820786  0.084505  1
  Tb  Tb2  1  0.000000  0.178531  0.913158  1
  Tb  Tb3  1  0.000000  0.943508  0.373337  1
  Sc  Sc4  1  0.000000  0.055014  0.631611  1
  Sc  Sc5  1  0.000000  0.444542  0.126056  1
  Sc  Sc6  1  0.000000  0.556575  0.870974  1
  Pa  Pa7  1  0.000000  0.323025  0.414371  1
  Re  Re8  1  0.000000  0.633049  0.318985  1
  Re  Re9  1  0.000000  0.360757  0.678919  1
  Re  Re10  1  0.000000  0.145327  0.181192  1
  Re  Re11  1  0.000000  0.860055  0.819432  1
  B  B12  1  0.500000  0.551866  0.431108  1
  B  B13  1  0.500000  0.444093  0.568530  1
  B  B14  1  0.500000  0.055670  0.067319  1
  B  B15  1  0.500000  0.946141  0.932229  1
  B  B16  1  0.500000  0.747268  0.417991  1
  B  B17  1  0.500000  0.248015  0.582558  1
  B  B18  1  0.500000  0.254235  0.080278  1
  B  B19  1  0.500000  0.746632  0.918457  1
  B  B20  1  0.500000  0.789670  0.264574  1
  B  B21  1  0.500000  0.206500  0.734800  1
  B  B22  1  0.500000  0.295150  0.233346  1
  B  B23  1  0.500000  0.706040  0.766343  1
  B  B24  1  0.500000  0.627066  0.182249  1
  B  B25  1  0.500000  0.372261  0.815958  1
  B  B26  1  0.500000  0.133214  0.314387  1
  B  B27  1  0.500000  0.871183  0.685324  1
  B  B28  1  0.500000  0.983614  0.211653  1
  B  B29  1  0.500000  0.018710  0.786173  1
  B  B30  1  0.500000  0.480757  0.284912  1
  B  B31  1  0.500000  0.518936  0.715170  1
  B  B32  1  0.500000  0.596184  0.025627  1
  B  B33  1  0.500000  0.403756  0.972370  1
  B  B34  1  0.500000  0.102797  0.475817  1
  B  B35  1  0.500000  0.899801  0.531797  1
