# generated using pymatgen
data_Na(P2Au)3
_symmetry_space_group_name_H-M   'P 1'
_cell_length_a   8.59772763
_cell_length_b   8.09335535
_cell_length_c   4.82155064
_cell_angle_alpha   78.24821287
_cell_angle_beta   91.10102886
_cell_angle_gamma   138.69002070
_symmetry_Int_Tables_number   1
_chemical_formula_structural   Na(P2Au)3
_chemical_formula_sum   'Na1 P6 Au3'
_cell_volume   212.13968283
_cell_formula_units_Z   1
loop_
 _symmetry_equiv_pos_site_id
 _symmetry_equiv_pos_as_xyz
  1  'x, y, z'
loop_
 _atom_site_type_symbol
 _atom_site_label
 _atom_site_symmetry_multiplicity
 _atom_site_fract_x
 _atom_site_fract_y
 _atom_site_fract_z
 _atom_site_occupancy
  Na  Na0  1  0.000000  0.500000  0.500000  1
  P  P1  1  0.671765  0.685988  0.539415  1
  P  P2  1  0.328235  0.314012  0.460585  1
  P  P3  1  0.236105  0.462756  0.155660  1
  P  P4  1  0.556552  0.788024  0.803543  1
  P  P5  1  0.443448  0.211976  0.196457  1
  P  P6  1  0.763895  0.537244  0.844340  1
  Au  Au7  1  0.102438  0.904057  0.994276  1
  Au  Au8  1  0.897562  0.095943  0.005724  1
  Au  Au9  1  0.500000  0.000000  0.500000  1
