# generated using pymatgen
data_Tc2Mo(SeS)2
_symmetry_space_group_name_H-M   'P 1'
_cell_length_a   6.53736681
_cell_length_b   6.60777608
_cell_length_c   6.64172372
_cell_angle_alpha   93.69243424
_cell_angle_beta   92.27587976
_cell_angle_gamma   94.17106222
_symmetry_Int_Tables_number   1
_chemical_formula_structural   Tc2Mo(SeS)2
_chemical_formula_sum   'Tc4 Mo2 Se4 S4'
_cell_volume   285.26743290
_cell_formula_units_Z   2
loop_
 _symmetry_equiv_pos_site_id
 _symmetry_equiv_pos_as_xyz
  1  'x, y, z'
loop_
 _atom_site_type_symbol
 _atom_site_label
 _atom_site_symmetry_multiplicity
 _atom_site_fract_x
 _atom_site_fract_y
 _atom_site_fract_z
 _atom_site_occupancy
  Tc  Tc0  1  0.588624  0.453968  0.764091  1
  Tc  Tc1  1  0.450556  0.765829  0.588113  1
  Tc  Tc2  1  0.770179  0.591814  0.447394  1
  Tc  Tc3  1  0.411528  0.551360  0.232818  1
  Mo  Mo4  1  0.547335  0.230710  0.410031  1
  Mo  Mo5  1  0.227737  0.412320  0.551671  1
  Se  Se6  1  0.739064  0.371922  0.119201  1
  Se  Se7  1  0.362341  0.122358  0.742128  1
  Se  Se8  1  0.789828  0.792737  0.782678  1
  Se  Se9  1  0.206464  0.210779  0.210786  1
  S  S10  1  0.864590  0.290496  0.613556  1
  S  S11  1  0.286428  0.617095  0.872170  1
  S  S12  1  0.619919  0.866595  0.287493  1
  S  S13  1  0.135409  0.722017  0.377871  1
