# generated using pymatgen
data_Tb2Yb3Pb4
_symmetry_space_group_name_H-M   'P 1'
_cell_length_a   7.96493800
_cell_length_b   8.57860500
_cell_length_c   16.28414900
_cell_angle_alpha   90.00000000
_cell_angle_beta   90.00000000
_cell_angle_gamma   90.00000000
_symmetry_Int_Tables_number   1
_chemical_formula_structural   Tb2Yb3Pb4
_chemical_formula_sum   'Tb8 Yb12 Pb16'
_cell_volume   1112.66426028
_cell_formula_units_Z   4
loop_
 _symmetry_equiv_pos_site_id
 _symmetry_equiv_pos_as_xyz
  1  'x, y, z'
loop_
 _atom_site_type_symbol
 _atom_site_label
 _atom_site_symmetry_multiplicity
 _atom_site_fract_x
 _atom_site_fract_y
 _atom_site_fract_z
 _atom_site_occupancy
  Tb  Tb0  1  0.671688  0.163811  0.621535  1
  Tb  Tb1  1  0.171688  0.336189  0.878465  1
  Tb  Tb2  1  0.328312  0.836189  0.121535  1
  Tb  Tb3  1  0.828312  0.663811  0.378465  1
  Tb  Tb4  1  0.328312  0.836189  0.378465  1
  Tb  Tb5  1  0.828312  0.663811  0.121535  1
  Tb  Tb6  1  0.671688  0.163811  0.878465  1
  Tb  Tb7  1  0.171688  0.336189  0.621535  1
  Yb  Yb8  1  0.501563  0.688548  0.592636  1
  Yb  Yb9  1  0.001563  0.811452  0.907364  1
  Yb  Yb10  1  0.498437  0.311452  0.092636  1
  Yb  Yb11  1  0.998437  0.188548  0.407364  1
  Yb  Yb12  1  0.498437  0.311452  0.407364  1
  Yb  Yb13  1  0.998437  0.188548  0.092636  1
  Yb  Yb14  1  0.501563  0.688548  0.907364  1
  Yb  Yb15  1  0.001563  0.811452  0.592636  1
  Yb  Yb16  1  0.833258  0.510547  0.750000  1
  Yb  Yb17  1  0.333258  0.989453  0.750000  1
  Yb  Yb18  1  0.166742  0.489453  0.250000  1
  Yb  Yb19  1  0.666742  0.010547  0.250000  1
  Pb  Pb20  1  0.678123  0.964654  0.458074  1
  Pb  Pb21  1  0.178123  0.535346  0.041926  1
  Pb  Pb22  1  0.321877  0.035346  0.958074  1
  Pb  Pb23  1  0.821877  0.464654  0.541926  1
  Pb  Pb24  1  0.321877  0.035346  0.541926  1
  Pb  Pb25  1  0.821877  0.464654  0.958074  1
  Pb  Pb26  1  0.678123  0.964654  0.041926  1
  Pb  Pb27  1  0.178123  0.535346  0.458074  1
  Pb  Pb28  1  0.472605  0.373236  0.750000  1
  Pb  Pb29  1  0.972605  0.126764  0.750000  1
  Pb  Pb30  1  0.527395  0.626764  0.250000  1
  Pb  Pb31  1  0.027395  0.873236  0.250000  1
  Pb  Pb32  1  0.708910  0.866161  0.750000  1
  Pb  Pb33  1  0.208910  0.633839  0.750000  1
  Pb  Pb34  1  0.291090  0.133839  0.250000  1
  Pb  Pb35  1  0.791090  0.366161  0.250000  1
