# generated using pymatgen
data_Bi2PtO6
_symmetry_space_group_name_H-M   'P 1'
_cell_length_a   9.28514700
_cell_length_b   9.28514746
_cell_length_c   5.21513700
_cell_angle_alpha   90.00000000
_cell_angle_beta   90.00000000
_cell_angle_gamma   119.99999480
_symmetry_Int_Tables_number   1
_chemical_formula_structural   Bi2PtO6
_chemical_formula_sum   'Bi6 Pt3 O18'
_cell_volume   389.38029088
_cell_formula_units_Z   3
loop_
 _symmetry_equiv_pos_site_id
 _symmetry_equiv_pos_as_xyz
  1  'x, y, z'
loop_
 _atom_site_type_symbol
 _atom_site_label
 _atom_site_symmetry_multiplicity
 _atom_site_fract_x
 _atom_site_fract_y
 _atom_site_fract_z
 _atom_site_occupancy
  Bi  Bi0  1  0.000000  0.373420  0.500000  1
  Bi  Bi1  1  0.293614  0.293614  0.000000  1
  Bi  Bi2  1  0.000000  0.706386  0.000000  1
  Bi  Bi3  1  0.626580  0.626580  0.500000  1
  Bi  Bi4  1  0.373420  0.000000  0.500000  1
  Bi  Bi5  1  0.706386  0.000000  0.000000  1
  Pt  Pt6  1  0.000000  0.000000  0.500000  1
  Pt  Pt7  1  0.333333  0.666667  0.002361  1
  Pt  Pt8  1  0.666667  0.333333  0.997639  1
  O  O9  1  0.086724  0.204396  0.718084  1
  O  O10  1  0.224963  0.457573  0.215706  1
  O  O11  1  0.130107  0.593099  0.786740  1
  O  O12  1  0.406901  0.537008  0.786740  1
  O  O13  1  0.232610  0.775037  0.215706  1
  O  O14  1  0.117671  0.913276  0.718084  1
  O  O15  1  0.542427  0.767390  0.215706  1
  O  O16  1  0.204396  0.086724  0.281916  1
  O  O17  1  0.462992  0.869893  0.786740  1
  O  O18  1  0.795604  0.882329  0.718084  1
  O  O19  1  0.457573  0.224963  0.784294  1
  O  O20  1  0.593099  0.130107  0.213260  1
  O  O21  1  0.537008  0.406901  0.213260  1
  O  O22  1  0.775037  0.232610  0.784294  1
  O  O23  1  0.913276  0.117671  0.281916  1
  O  O24  1  0.767390  0.542427  0.784294  1
  O  O25  1  0.869893  0.462992  0.213260  1
  O  O26  1  0.882329  0.795604  0.281916  1
