# generated using pymatgen
data_Sr8As5Cl
_symmetry_space_group_name_H-M   'P 1'
_cell_length_a   8.25178533
_cell_length_b   8.25178551
_cell_length_c   8.25178526
_cell_angle_alpha   109.44831230
_cell_angle_beta   109.44832085
_cell_angle_gamma   109.51704179
_symmetry_Int_Tables_number   1
_chemical_formula_structural   Sr8As5Cl
_chemical_formula_sum   'Sr8 As5 Cl1'
_cell_volume   432.53539517
_cell_formula_units_Z   1
loop_
 _symmetry_equiv_pos_site_id
 _symmetry_equiv_pos_as_xyz
  1  'x, y, z'
loop_
 _atom_site_type_symbol
 _atom_site_label
 _atom_site_symmetry_multiplicity
 _atom_site_fract_x
 _atom_site_fract_y
 _atom_site_fract_z
 _atom_site_occupancy
  Sr  Sr0  1  0.737318  0.359628  0.239729  1
  Sr  Sr1  1  0.983106  0.737963  0.105186  1
  Sr  Sr2  1  0.632777  0.877920  0.894814  1
  Sr  Sr3  1  0.119900  0.497590  0.760271  1
  Sr  Sr4  1  0.640372  0.880100  0.377691  1
  Sr  Sr5  1  0.502410  0.262682  0.622309  1
  Sr  Sr6  1  0.262037  0.367223  0.245142  1
  Sr  Sr7  1  0.122080  0.016894  0.754858  1
  As  As8  1  0.746789  0.632586  0.617309  1
  As  As9  1  0.367414  0.984724  0.114203  1
  As  As10  1  0.015276  0.129479  0.382691  1
  As  As11  1  0.500000  0.500000  0.000000  1
  As  As12  1  0.870521  0.253211  0.885797  1
  Cl  Cl13  1  0.250000  0.750000  0.500000  1
