# generated using pymatgen
data_Pr5Nd(SiPt5)2
_symmetry_space_group_name_H-M   'P 1'
_cell_length_a   8.44106858
_cell_length_b   8.44375952
_cell_length_c   8.44376021
_cell_angle_alpha   127.29389877
_cell_angle_beta   126.40396648
_cell_angle_gamma   78.50674913
_symmetry_Int_Tables_number   1
_chemical_formula_structural   Pr5Nd(SiPt5)2
_chemical_formula_sum   'Pr5 Nd1 Si2 Pt10'
_cell_volume   373.06499988
_cell_formula_units_Z   1
loop_
 _symmetry_equiv_pos_site_id
 _symmetry_equiv_pos_as_xyz
  1  'x, y, z'
loop_
 _atom_site_type_symbol
 _atom_site_label
 _atom_site_symmetry_multiplicity
 _atom_site_fract_x
 _atom_site_fract_y
 _atom_site_fract_z
 _atom_site_occupancy
  Pr  Pr0  1  0.827490  0.550076  0.277413  1
  Pr  Pr1  1  0.614087  0.249941  0.364145  1
  Pr  Pr2  1  0.172490  0.449945  0.722545  1
  Pr  Pr3  1  0.386026  0.750069  0.635957  1
  Pr  Pr4  1  0.227663  0.950020  0.277644  1
  Nd  Nd5  1  0.773182  0.050000  0.723182  1
  Si  Si6  1  0.214737  0.249899  0.964838  1
  Si  Si7  1  0.784984  0.750017  0.034967  1
  Pt  Pt8  1  0.170561  0.907324  0.862936  1
  Pt  Pt9  1  0.828902  0.092710  0.136317  1
  Pt  Pt10  1  0.456145  0.191946  0.862955  1
  Pt  Pt11  1  0.544361  0.406831  0.736182  1
  Pt  Pt12  1  0.828902  0.692585  0.736192  1
  Pt  Pt13  1  0.456145  0.593190  0.264199  1
  Pt  Pt14  1  0.544361  0.808179  0.137530  1
  Pt  Pt15  1  0.170561  0.307625  0.263237  1
  Pt  Pt16  1  0.999702  0.000087  0.500146  1
  Pt  Pt17  1  0.999702  0.499556  0.999615  1
