# generated using pymatgen
data_Er4HgPd(PtPb)2
_symmetry_space_group_name_H-M   'P 1'
_cell_length_a   8.12670982
_cell_length_b   8.12671090
_cell_length_c   3.54366200
_cell_angle_alpha   90.00000000
_cell_angle_beta   90.00000000
_cell_angle_gamma   90.98531600
_symmetry_Int_Tables_number   1
_chemical_formula_structural   Er4HgPd(PtPb)2
_chemical_formula_sum   'Er4 Hg1 Pd1 Pt2 Pb2'
_cell_volume   234.00095661
_cell_formula_units_Z   1
loop_
 _symmetry_equiv_pos_site_id
 _symmetry_equiv_pos_as_xyz
  1  'x, y, z'
loop_
 _atom_site_type_symbol
 _atom_site_label
 _atom_site_symmetry_multiplicity
 _atom_site_fract_x
 _atom_site_fract_y
 _atom_site_fract_z
 _atom_site_occupancy
  Er  Er0  1  0.691875  0.164593  0.500000  1
  Er  Er1  1  0.146729  0.353271  0.500000  1
  Er  Er2  1  0.834850  0.665150  0.500000  1
  Er  Er3  1  0.335407  0.808125  0.500000  1
  Hg  Hg4  1  0.373624  0.126376  0.000000  1
  Pd  Pd5  1  0.624784  0.875216  0.000000  1
  Pt  Pt6  1  0.122719  0.632834  0.000000  1
  Pt  Pt7  1  0.867166  0.377281  0.000000  1
  Pb  Pb8  1  0.997767  0.994922  0.000000  1
  Pb  Pb9  1  0.505078  0.502233  0.000000  1
