# generated using pymatgen
data_Hf7ScCr11Si16Mo
_symmetry_space_group_name_H-M   'P 1'
_cell_length_a   6.43181748
_cell_length_b   6.52219053
_cell_length_c   12.22547358
_cell_angle_alpha   90.03564318
_cell_angle_beta   90.01025162
_cell_angle_gamma   89.98265968
_symmetry_Int_Tables_number   1
_chemical_formula_structural   Hf7ScCr11Si16Mo
_chemical_formula_sum   'Hf7 Sc1 Cr11 Si16 Mo1'
_cell_volume   512.85285091
_cell_formula_units_Z   1
loop_
 _symmetry_equiv_pos_site_id
 _symmetry_equiv_pos_as_xyz
  1  'x, y, z'
loop_
 _atom_site_type_symbol
 _atom_site_label
 _atom_site_symmetry_multiplicity
 _atom_site_fract_x
 _atom_site_fract_y
 _atom_site_fract_z
 _atom_site_occupancy
  Hf  Hf0  1  0.008202  0.831675  0.903123  1
  Hf  Hf1  1  0.505176  0.666651  0.904179  1
  Hf  Hf2  1  0.007139  0.833562  0.595168  1
  Hf  Hf3  1  0.492774  0.333317  0.094258  1
  Hf  Hf4  1  0.990765  0.168040  0.408482  1
  Hf  Hf5  1  0.493668  0.331713  0.407599  1
  Hf  Hf6  1  0.508230  0.668319  0.594170  1
  Sc  Sc7  1  0.992199  0.166730  0.093828  1
  Cr  Cr8  1  0.171722  0.511456  0.748761  1
  Cr  Cr9  1  0.828473  0.490919  0.251894  1
  Cr  Cr10  1  0.329719  0.007885  0.251985  1
  Cr  Cr11  1  0.673475  0.990861  0.749313  1
  Cr  Cr12  1  0.331522  0.159822  0.622815  1
  Cr  Cr13  1  0.663708  0.844046  0.379041  1
  Cr  Cr14  1  0.174872  0.655398  0.378360  1
  Cr  Cr15  1  0.663939  0.836690  0.123182  1
  Cr  Cr16  1  0.832888  0.341476  0.622572  1
  Cr  Cr17  1  0.338981  0.159565  0.874579  1
  Cr  Cr18  1  0.824433  0.339863  0.874802  1
  Si  Si19  1  0.035888  0.142434  0.750459  1
  Si  Si20  1  0.961021  0.862021  0.255786  1
  Si  Si21  1  0.472267  0.636680  0.254058  1
  Si  Si22  1  0.534109  0.361231  0.747807  1
  Si  Si23  1  0.307297  0.872918  0.748918  1
  Si  Si24  1  0.693443  0.129949  0.249579  1
  Si  Si25  1  0.192587  0.362243  0.252144  1
  Si  Si26  1  0.805785  0.628204  0.749369  1
  Si  Si27  1  0.165769  0.453133  0.546504  1
  Si  Si28  1  0.837227  0.549837  0.454064  1
  Si  Si29  1  0.332491  0.953114  0.455402  1
  Si  Si30  1  0.829917  0.543204  0.042945  1
  Si  Si31  1  0.664180  0.048458  0.547074  1
  Si  Si32  1  0.161226  0.446682  0.948894  1
  Si  Si33  1  0.666970  0.045008  0.953956  1
  Si  Si34  1  0.338476  0.962984  0.042228  1
  Mo  Mo35  1  0.169463  0.663910  0.122701  1
