# generated using pymatgen
data_PrNd2Y(Mo2O7)2
_symmetry_space_group_name_H-M   'P 1'
_cell_length_a   7.50229903
_cell_length_b   7.51062559
_cell_length_c   7.49123700
_cell_angle_alpha   120.05163473
_cell_angle_beta   119.75183328
_cell_angle_gamma   90.11955180
_symmetry_Int_Tables_number   1
_chemical_formula_structural   PrNd2Y(Mo2O7)2
_chemical_formula_sum   'Pr1 Nd2 Y1 Mo4 O14'
_cell_volume   299.04805354
_cell_formula_units_Z   1
loop_
 _symmetry_equiv_pos_site_id
 _symmetry_equiv_pos_as_xyz
  1  'x, y, z'
loop_
 _atom_site_type_symbol
 _atom_site_label
 _atom_site_symmetry_multiplicity
 _atom_site_fract_x
 _atom_site_fract_y
 _atom_site_fract_z
 _atom_site_occupancy
  Pr  Pr0  1  0.375000  0.125000  0.750000  1
  Nd  Nd1  1  0.375000  0.625000  0.750000  1
  Nd  Nd2  1  0.875000  0.625000  0.250000  1
  Y  Y3  1  0.375000  0.625000  0.250000  1
  Mo  Mo4  1  0.875000  0.625000  0.750000  1
  Mo  Mo5  1  0.375000  0.125000  0.250000  1
  Mo  Mo6  1  0.875000  0.125000  0.250000  1
  Mo  Mo7  1  0.875000  0.125000  0.750000  1
  O  O8  1  0.783742  0.202397  0.998408  1
  O  O9  1  0.544289  0.465580  0.491653  1
  O  O10  1  0.208394  0.211078  0.002876  1
  O  O11  1  0.959320  0.459692  0.501085  1
  O  O12  1  0.796885  0.796191  0.581970  1
  O  O13  1  0.535601  0.032313  0.080543  1
  O  O14  1  0.252575  0.743634  0.490540  1
  O  O15  1  0.953115  0.453809  0.918030  1
  O  O16  1  0.966258  0.047603  0.501592  1
  O  O17  1  0.541606  0.038922  0.497124  1
  O  O18  1  0.214399  0.217687  0.419457  1
  O  O19  1  0.497425  0.506366  0.009460  1
  O  O20  1  0.790680  0.790308  0.998915  1
  O  O21  1  0.205711  0.784420  0.008347  1
