# generated using pymatgen
data_Rb3SmNb2O8
_symmetry_space_group_name_H-M   'P 1'
_cell_length_a   6.28361000
_cell_length_b   6.28361060
_cell_length_c   8.08578100
_cell_angle_alpha   90.00000000
_cell_angle_beta   90.00000000
_cell_angle_gamma   120.00000738
_symmetry_Int_Tables_number   1
_chemical_formula_structural   Rb3SmNb2O8
_chemical_formula_sum   'Rb3 Sm1 Nb2 O8'
_cell_volume   276.48467200
_cell_formula_units_Z   1
loop_
 _symmetry_equiv_pos_site_id
 _symmetry_equiv_pos_as_xyz
  1  'x, y, z'
loop_
 _atom_site_type_symbol
 _atom_site_label
 _atom_site_symmetry_multiplicity
 _atom_site_fract_x
 _atom_site_fract_y
 _atom_site_fract_z
 _atom_site_occupancy
  Rb  Rb0  1  0.333333  0.666667  0.689150  1
  Rb  Rb1  1  0.666667  0.333333  0.310850  1
  Rb  Rb2  1  0.000000  0.000000  0.000000  1
  Sm  Sm3  1  0.000000  0.000000  0.500000  1
  Nb  Nb4  1  0.333333  0.666667  0.242503  1
  Nb  Nb5  1  0.666667  0.333333  0.757497  1
  O  O6  1  0.333333  0.666667  0.017714  1
  O  O7  1  0.666667  0.333333  0.982286  1
  O  O8  1  0.170077  0.829923  0.324881  1
  O  O9  1  0.659844  0.829923  0.324881  1
  O  O10  1  0.170077  0.340156  0.324881  1
  O  O11  1  0.829923  0.170077  0.675119  1
  O  O12  1  0.340156  0.170077  0.675119  1
  O  O13  1  0.829923  0.659844  0.675119  1
