# generated using pymatgen
data_Sr2ErSi5PPd20
_symmetry_space_group_name_H-M   'P 1'
_cell_length_a   8.77376219
_cell_length_b   8.77676529
_cell_length_c   8.77676651
_cell_angle_alpha   59.97737150
_cell_angle_beta   60.01131524
_cell_angle_gamma   60.01132373
_symmetry_Int_Tables_number   1
_chemical_formula_structural   Sr2ErSi5PPd20
_chemical_formula_sum   'Sr2 Er1 Si5 P1 Pd20'
_cell_volume   477.90307313
_cell_formula_units_Z   1
loop_
 _symmetry_equiv_pos_site_id
 _symmetry_equiv_pos_as_xyz
  1  'x, y, z'
loop_
 _atom_site_type_symbol
 _atom_site_label
 _atom_site_symmetry_multiplicity
 _atom_site_fract_x
 _atom_site_fract_y
 _atom_site_fract_z
 _atom_site_occupancy
  Sr  Sr0  1  0.249893  0.250107  0.250107  1
  Sr  Sr1  1  0.749893  0.750107  0.750107  1
  Er  Er2  1  0.000422  0.999578  0.999578  1
  Si  Si3  1  0.267634  0.732366  0.732366  1
  Si  Si4  1  0.266922  0.733078  0.267763  1
  Si  Si5  1  0.732237  0.267763  0.733078  1
  Si  Si6  1  0.266922  0.267763  0.733078  1
  Si  Si7  1  0.732237  0.733078  0.267763  1
  P  P8  1  0.733320  0.266680  0.266680  1
  Pd  Pd9  1  0.343573  0.999833  0.999833  1
  Pd  Pd10  1  0.656761  0.999833  0.999833  1
  Pd  Pd11  1  0.000167  0.343239  0.656427  1
  Pd  Pd12  1  0.000167  0.656427  0.343239  1
  Pd  Pd13  1  0.998794  0.342783  0.001206  1
  Pd  Pd14  1  0.657217  0.001206  0.342783  1
  Pd  Pd15  1  0.000042  0.656934  0.999958  1
  Pd  Pd16  1  0.343066  0.999958  0.656934  1
  Pd  Pd17  1  0.998794  0.001206  0.342783  1
  Pd  Pd18  1  0.000042  0.999958  0.656934  1
  Pd  Pd19  1  0.657217  0.342783  0.001206  1
  Pd  Pd20  1  0.343066  0.656934  0.999958  1
  Pd  Pd21  1  0.387821  0.386073  0.386073  1
  Pd  Pd22  1  0.613730  0.613524  0.613524  1
  Pd  Pd23  1  0.386476  0.386270  0.840779  1
  Pd  Pd24  1  0.386476  0.840779  0.386270  1
  Pd  Pd25  1  0.613927  0.612179  0.159965  1
  Pd  Pd26  1  0.613927  0.159965  0.612179  1
  Pd  Pd27  1  0.840035  0.386073  0.386073  1
  Pd  Pd28  1  0.159221  0.613524  0.613524  1
