# generated using pymatgen
data_Nd3ZnHg3Au2
_symmetry_space_group_name_H-M   'P 1'
_cell_length_a   8.03343700
_cell_length_b   8.03343853
_cell_length_c   3.86144800
_cell_angle_alpha   90.00000000
_cell_angle_beta   90.00000000
_cell_angle_gamma   119.99999782
_symmetry_Int_Tables_number   1
_chemical_formula_structural   Nd3ZnHg3Au2
_chemical_formula_sum   'Nd3 Zn1 Hg3 Au2'
_cell_volume   215.81602994
_cell_formula_units_Z   1
loop_
 _symmetry_equiv_pos_site_id
 _symmetry_equiv_pos_as_xyz
  1  'x, y, z'
loop_
 _atom_site_type_symbol
 _atom_site_label
 _atom_site_symmetry_multiplicity
 _atom_site_fract_x
 _atom_site_fract_y
 _atom_site_fract_z
 _atom_site_occupancy
  Nd  Nd0  1  0.592889  0.000000  0.000000  1
  Nd  Nd1  1  0.000000  0.592889  0.000000  1
  Nd  Nd2  1  0.407111  0.407111  0.000000  1
  Zn  Zn3  1  0.000000  0.000000  0.000000  1
  Hg  Hg4  1  0.258100  0.000000  0.500000  1
  Hg  Hg5  1  0.000000  0.258100  0.500000  1
  Hg  Hg6  1  0.741900  0.741900  0.500000  1
  Au  Au7  1  0.333333  0.666667  0.500000  1
  Au  Au8  1  0.666667  0.333333  0.500000  1
