# generated using pymatgen
data_Tb2HfZnRh2
_symmetry_space_group_name_H-M   'P 1'
_cell_length_a   4.48819400
_cell_length_b   6.90086843
_cell_length_c   8.06242669
_cell_angle_alpha   91.44000523
_cell_angle_beta   90.00000000
_cell_angle_gamma   90.00000000
_symmetry_Int_Tables_number   1
_chemical_formula_structural   Tb2HfZnRh2
_chemical_formula_sum   'Tb4 Hf2 Zn2 Rh4'
_cell_volume   249.63413415
_cell_formula_units_Z   2
loop_
 _symmetry_equiv_pos_site_id
 _symmetry_equiv_pos_as_xyz
  1  'x, y, z'
loop_
 _atom_site_type_symbol
 _atom_site_label
 _atom_site_symmetry_multiplicity
 _atom_site_fract_x
 _atom_site_fract_y
 _atom_site_fract_z
 _atom_site_occupancy
  Tb  Tb0  1  0.250000  0.521276  0.206558  1
  Tb  Tb1  1  0.750000  0.478724  0.793442  1
  Tb  Tb2  1  0.250000  0.029039  0.335793  1
  Tb  Tb3  1  0.750000  0.970961  0.664207  1
  Hf  Hf4  1  0.250000  0.137957  0.922634  1
  Hf  Hf5  1  0.750000  0.862043  0.077366  1
  Zn  Zn6  1  0.250000  0.657440  0.571796  1
  Zn  Zn7  1  0.750000  0.342560  0.428204  1
  Rh  Rh8  1  0.750000  0.727811  0.383984  1
  Rh  Rh9  1  0.250000  0.272189  0.616016  1
  Rh  Rh10  1  0.750000  0.237887  0.091383  1
  Rh  Rh11  1  0.250000  0.762113  0.908617  1
