# generated using pymatgen
data_LiTc12Cl25
_symmetry_space_group_name_H-M   'P 1'
_cell_length_a   9.32612584
_cell_length_b   10.48795461
_cell_length_c   10.99373260
_cell_angle_alpha   84.75496217
_cell_angle_beta   76.14471605
_cell_angle_gamma   89.06197762
_symmetry_Int_Tables_number   1
_chemical_formula_structural   LiTc12Cl25
_chemical_formula_sum   'Li1 Tc12 Cl25'
_cell_volume   1039.64250913
_cell_formula_units_Z   1
loop_
 _symmetry_equiv_pos_site_id
 _symmetry_equiv_pos_as_xyz
  1  'x, y, z'
loop_
 _atom_site_type_symbol
 _atom_site_label
 _atom_site_symmetry_multiplicity
 _atom_site_fract_x
 _atom_site_fract_y
 _atom_site_fract_z
 _atom_site_occupancy
  Li  Li0  1  0.500000  0.000000  0.000000  1
  Tc  Tc1  1  0.820552  0.251116  0.114084  1
  Tc  Tc2  1  0.179448  0.748884  0.885916  1
  Tc  Tc3  1  0.742348  0.113430  0.276514  1
  Tc  Tc4  1  0.257652  0.886570  0.723486  1
  Tc  Tc5  1  0.070393  0.272464  0.191075  1
  Tc  Tc6  1  0.929607  0.727536  0.808925  1
  Tc  Tc7  1  0.846040  0.432470  0.262851  1
  Tc  Tc8  1  0.153960  0.567530  0.737149  1
  Tc  Tc9  1  0.764879  0.295898  0.428938  1
  Tc  Tc10  1  0.235121  0.704102  0.571062  1
  Tc  Tc11  1  0.988819  0.136613  0.357664  1
  Tc  Tc12  1  0.011181  0.863387  0.642336  1
  Cl  Cl13  1  0.932220  0.959712  0.258329  1
  Cl  Cl14  1  0.067780  0.040288  0.741671  1
  Cl  Cl15  1  0.970692  0.276167  0.518238  1
  Cl  Cl16  1  0.029308  0.723833  0.481762  1
  Cl  Cl17  1  0.648922  0.419090  0.161876  1
  Cl  Cl18  1  0.351078  0.580910  0.838124  1
  Cl  Cl19  1  0.091168  0.464121  0.282897  1
  Cl  Cl20  1  0.908832  0.535879  0.717103  1
  Cl  Cl21  1  0.000000  0.500000  0.000000  1
  Cl  Cl22  1  0.584544  0.966567  0.219465  1
  Cl  Cl23  1  0.415456  0.033433  0.780535  1
  Cl  Cl24  1  0.191501  0.026409  0.416881  1
  Cl  Cl25  1  0.808499  0.973591  0.583119  1
  Cl  Cl26  1  0.540579  0.218404  0.398651  1
  Cl  Cl27  1  0.459421  0.781596  0.601349  1
  Cl  Cl28  1  0.049069  0.158274  0.021677  1
  Cl  Cl29  1  0.950931  0.841726  0.978323  1
  Cl  Cl30  1  0.780529  0.640210  0.308835  1
  Cl  Cl31  1  0.219471  0.359790  0.691165  1
  Cl  Cl32  1  0.716855  0.196214  0.948537  1
  Cl  Cl33  1  0.283145  0.803786  0.051463  1
  Cl  Cl34  1  0.327006  0.259280  0.118851  1
  Cl  Cl35  1  0.672994  0.740720  0.881149  1
  Cl  Cl36  1  0.636892  0.399313  0.598216  1
  Cl  Cl37  1  0.363108  0.600687  0.401784  1
