# generated using pymatgen
data_LiCaNiH6Pd
_symmetry_space_group_name_H-M   'P 1'
_cell_length_a   4.97350357
_cell_length_b   4.97350143
_cell_length_c   4.97332200
_cell_angle_alpha   119.99880973
_cell_angle_beta   119.99874272
_cell_angle_gamma   59.99751552
_symmetry_Int_Tables_number   1
_chemical_formula_structural   LiCaNiH6Pd
_chemical_formula_sum   'Li1 Ca1 Ni1 H6 Pd1'
_cell_volume   86.98735785
_cell_formula_units_Z   1
loop_
 _symmetry_equiv_pos_site_id
 _symmetry_equiv_pos_as_xyz
  1  'x, y, z'
loop_
 _atom_site_type_symbol
 _atom_site_label
 _atom_site_symmetry_multiplicity
 _atom_site_fract_x
 _atom_site_fract_y
 _atom_site_fract_z
 _atom_site_occupancy
  Li  Li0  1  0.750002  0.750003  0.250000  1
  Ca  Ca1  1  0.250001  0.250000  0.750000  1
  Ni  Ni2  1  0.999999  0.000000  0.000001  1
  H  H3  1  0.763925  0.236075  0.236076  1
  H  H4  1  0.236075  0.763924  0.236076  1
  H  H5  1  0.236104  0.236104  0.236105  1
  H  H6  1  0.763896  0.763897  0.763897  1
  H  H7  1  0.763926  0.236076  0.763926  1
  H  H8  1  0.236076  0.763926  0.763926  1
  Pd  Pd9  1  0.500000  0.500000  0.500000  1
