# generated using pymatgen
data_Dy3V4P6Rh5
_symmetry_space_group_name_H-M   'P 1'
_cell_length_a   3.85446200
_cell_length_b   10.82710900
_cell_length_c   13.29158600
_cell_angle_alpha   90.00000000
_cell_angle_beta   90.00000000
_cell_angle_gamma   90.00000000
_symmetry_Int_Tables_number   1
_chemical_formula_structural   Dy3V4P6Rh5
_chemical_formula_sum   'Dy6 V8 P12 Rh10'
_cell_volume   554.69350803
_cell_formula_units_Z   2
loop_
 _symmetry_equiv_pos_site_id
 _symmetry_equiv_pos_as_xyz
  1  'x, y, z'
loop_
 _atom_site_type_symbol
 _atom_site_label
 _atom_site_symmetry_multiplicity
 _atom_site_fract_x
 _atom_site_fract_y
 _atom_site_fract_z
 _atom_site_occupancy
  Dy  Dy0  1  0.000000  0.500000  0.516827  1
  Dy  Dy1  1  0.500000  0.000000  0.483173  1
  Dy  Dy2  1  0.500000  0.818417  0.210982  1
  Dy  Dy3  1  0.500000  0.181583  0.210982  1
  Dy  Dy4  1  0.000000  0.681583  0.789018  1
  Dy  Dy5  1  0.000000  0.318417  0.789018  1
  V  V6  1  0.500000  0.500000  0.164143  1
  V  V7  1  0.000000  0.000000  0.835857  1
  V  V8  1  0.000000  0.500000  0.989734  1
  V  V9  1  0.500000  0.000000  0.010266  1
  V  V10  1  0.500000  0.332414  0.998974  1
  V  V11  1  0.500000  0.667586  0.998974  1
  V  V12  1  0.000000  0.167586  0.001026  1
  V  V13  1  0.000000  0.832414  0.001026  1
  P  P14  1  0.500000  0.500000  0.875941  1
  P  P15  1  0.000000  0.000000  0.124059  1
  P  P16  1  0.500000  0.500000  0.348548  1
  P  P17  1  0.000000  0.000000  0.651452  1
  P  P18  1  0.500000  0.314776  0.614620  1
  P  P19  1  0.500000  0.685224  0.614620  1
  P  P20  1  0.000000  0.185224  0.385380  1
  P  P21  1  0.000000  0.814776  0.385380  1
  P  P22  1  0.500000  0.844840  0.882431  1
  P  P23  1  0.500000  0.155160  0.882431  1
  P  P24  1  0.000000  0.655160  0.117569  1
  P  P25  1  0.000000  0.344840  0.117569  1
  Rh  Rh26  1  0.500000  0.500000  0.698680  1
  Rh  Rh27  1  0.000000  0.000000  0.301320  1
  Rh  Rh28  1  0.500000  0.295098  0.433655  1
  Rh  Rh29  1  0.500000  0.704902  0.433655  1
  Rh  Rh30  1  0.000000  0.204902  0.566345  1
  Rh  Rh31  1  0.000000  0.795098  0.566345  1
  Rh  Rh32  1  0.500000  0.874180  0.705889  1
  Rh  Rh33  1  0.500000  0.125820  0.705889  1
  Rh  Rh34  1  0.000000  0.625820  0.294111  1
  Rh  Rh35  1  0.000000  0.374180  0.294111  1
