# generated using pymatgen
data_CeCuSiRu
_symmetry_space_group_name_H-M   'P 1'
_cell_length_a   4.24366500
_cell_length_b   4.40036797
_cell_length_c   8.52634309
_cell_angle_alpha   68.81049146
_cell_angle_beta   90.00000000
_cell_angle_gamma   90.00000000
_symmetry_Int_Tables_number   1
_chemical_formula_structural   CeCuSiRu
_chemical_formula_sum   'Ce2 Cu2 Si2 Ru2'
_cell_volume   148.45351999
_cell_formula_units_Z   2
loop_
 _symmetry_equiv_pos_site_id
 _symmetry_equiv_pos_as_xyz
  1  'x, y, z'
loop_
 _atom_site_type_symbol
 _atom_site_label
 _atom_site_symmetry_multiplicity
 _atom_site_fract_x
 _atom_site_fract_y
 _atom_site_fract_z
 _atom_site_occupancy
  Ce  Ce0  1  0.250000  0.591322  0.792463  1
  Ce  Ce1  1  0.750000  0.408678  0.207537  1
  Cu  Cu2  1  0.250000  0.965723  0.084028  1
  Cu  Cu3  1  0.750000  0.034277  0.915972  1
  Si  Si4  1  0.250000  0.332666  0.507800  1
  Si  Si5  1  0.750000  0.667334  0.492200  1
  Ru  Ru6  1  0.250000  0.921945  0.390919  1
  Ru  Ru7  1  0.750000  0.078055  0.609081  1
