# generated using pymatgen
data_La6Nd2HoPt6
_symmetry_space_group_name_H-M   'P 1'
_cell_length_a   7.76993163
_cell_length_b   7.76993282
_cell_length_c   7.76993199
_cell_angle_alpha   71.76307231
_cell_angle_beta   71.76307422
_cell_angle_gamma   71.76307423
_symmetry_Int_Tables_number   1
_chemical_formula_structural   La6Nd2HoPt6
_chemical_formula_sum   'La6 Nd2 Ho1 Pt6'
_cell_volume   410.94906512
_cell_formula_units_Z   1
loop_
 _symmetry_equiv_pos_site_id
 _symmetry_equiv_pos_as_xyz
  1  'x, y, z'
loop_
 _atom_site_type_symbol
 _atom_site_label
 _atom_site_symmetry_multiplicity
 _atom_site_fract_x
 _atom_site_fract_y
 _atom_site_fract_z
 _atom_site_occupancy
  La  La0  1  0.327609  0.610156  0.837097  1
  La  La1  1  0.837097  0.327609  0.610156  1
  La  La2  1  0.610156  0.837097  0.327609  1
  La  La3  1  0.672391  0.389844  0.162903  1
  La  La4  1  0.162903  0.672391  0.389844  1
  La  La5  1  0.389844  0.162903  0.672391  1
  Nd  Nd6  1  0.801198  0.801198  0.801198  1
  Nd  Nd7  1  0.198802  0.198802  0.198802  1
  Ho  Ho8  1  0.000000  0.000000  0.000000  1
  Pt  Pt9  1  0.160926  0.960619  0.596342  1
  Pt  Pt10  1  0.596342  0.160926  0.960619  1
  Pt  Pt11  1  0.960619  0.596342  0.160926  1
  Pt  Pt12  1  0.839074  0.039381  0.403658  1
  Pt  Pt13  1  0.403658  0.839074  0.039381  1
  Pt  Pt14  1  0.039381  0.403658  0.839074  1
