# generated using pymatgen
data_DyEr2Ta3(B2Ru5)2
_symmetry_space_group_name_H-M   'P 1'
_cell_length_a   9.59921982
_cell_length_b   9.57037831
_cell_length_c   3.12230000
_cell_angle_alpha   90.00000000
_cell_angle_beta   90.00000000
_cell_angle_gamma   90.41543861
_symmetry_Int_Tables_number   1
_chemical_formula_structural   DyEr2Ta3(B2Ru5)2
_chemical_formula_sum   'Dy1 Er2 Ta3 B4 Ru10'
_cell_volume   286.83243220
_cell_formula_units_Z   1
loop_
 _symmetry_equiv_pos_site_id
 _symmetry_equiv_pos_as_xyz
  1  'x, y, z'
loop_
 _atom_site_type_symbol
 _atom_site_label
 _atom_site_symmetry_multiplicity
 _atom_site_fract_x
 _atom_site_fract_y
 _atom_site_fract_z
 _atom_site_occupancy
  Dy  Dy0  1  0.824141  0.674648  0.000000  1
  Er  Er1  1  0.175245  0.324100  0.000000  1
  Er  Er2  1  0.325382  0.825747  0.000000  1
  Ta  Ta3  1  0.675793  0.175636  0.000000  1
  Ta  Ta4  1  0.497780  0.503091  0.000000  1
  Ta  Ta5  1  0.003268  0.998148  0.000000  1
  B  B6  1  0.622966  0.881700  0.000000  1
  B  B7  1  0.380972  0.123988  0.000000  1
  B  B8  1  0.119598  0.618853  0.000000  1
  B  B9  1  0.876294  0.375344  0.000000  1
  Ru  Ru10  1  0.570393  0.722293  0.500000  1
  Ru  Ru11  1  0.440059  0.281059  0.500000  1
  Ru  Ru12  1  0.070182  0.780591  0.500000  1
  Ru  Ru13  1  0.916372  0.212865  0.500000  1
  Ru  Ru14  1  0.280583  0.569490  0.500000  1
  Ru  Ru15  1  0.713177  0.415280  0.500000  1
  Ru  Ru16  1  0.221902  0.071641  0.500000  1
  Ru  Ru17  1  0.780200  0.940708  0.500000  1
  Ru  Ru18  1  0.509070  0.009662  0.500000  1
  Ru  Ru19  1  0.996624  0.495155  0.500000  1
