# generated using pymatgen
data_YTm3(Al3Ir)6
_symmetry_space_group_name_H-M   'P 1'
_cell_length_a   7.53867601
_cell_length_b   7.54180858
_cell_length_c   9.45471600
_cell_angle_alpha   90.00000000
_cell_angle_beta   90.00000000
_cell_angle_gamma   119.51592932
_symmetry_Int_Tables_number   1
_chemical_formula_structural   YTm3(Al3Ir)6
_chemical_formula_sum   'Y1 Tm3 Al18 Ir6'
_cell_volume   467.78631596
_cell_formula_units_Z   1
loop_
 _symmetry_equiv_pos_site_id
 _symmetry_equiv_pos_as_xyz
  1  'x, y, z'
loop_
 _atom_site_type_symbol
 _atom_site_label
 _atom_site_symmetry_multiplicity
 _atom_site_fract_x
 _atom_site_fract_y
 _atom_site_fract_z
 _atom_site_occupancy
  Y  Y0  1  0.994714  0.670776  0.250000  1
  Tm  Tm1  1  0.005295  0.328952  0.750000  1
  Tm  Tm2  1  0.670975  0.994859  0.250000  1
  Tm  Tm3  1  0.328949  0.005366  0.750000  1
  Al  Al4  1  0.128701  0.129509  0.250000  1
  Al  Al5  1  0.871472  0.871643  0.750000  1
  Al  Al6  1  0.000627  0.334073  0.073308  1
  Al  Al7  1  0.999423  0.665099  0.924733  1
  Al  Al8  1  0.999423  0.665099  0.575267  1
  Al  Al9  1  0.335649  0.001390  0.426614  1
  Al  Al10  1  0.000627  0.334073  0.426692  1
  Al  Al11  1  0.665111  0.999424  0.574330  1
  Al  Al12  1  0.665111  0.999424  0.925670  1
  Al  Al13  1  0.335649  0.001390  0.073386  1
  Al  Al14  1  0.333243  0.333271  0.553224  1
  Al  Al15  1  0.666061  0.666786  0.448002  1
  Al  Al16  1  0.666061  0.666786  0.051998  1
  Al  Al17  1  0.333243  0.333271  0.946776  1
  Al  Al18  1  0.340274  0.548399  0.250000  1
  Al  Al19  1  0.660450  0.451361  0.750000  1
  Al  Al20  1  0.547268  0.338189  0.250000  1
  Al  Al21  1  0.451557  0.660706  0.750000  1
  Ir  Ir22  1  0.671955  0.327591  0.999709  1
  Ir  Ir23  1  0.327982  0.672152  0.999712  1
  Ir  Ir24  1  0.327982  0.672152  0.500288  1
  Ir  Ir25  1  0.671955  0.327591  0.500291  1
  Ir  Ir26  1  0.000120  0.000335  0.999661  1
  Ir  Ir27  1  0.000120  0.000335  0.500339  1
