# generated using pymatgen
data_Tb12Si12PdPt3
_symmetry_space_group_name_H-M   'P 1'
_cell_length_a   4.24347900
_cell_length_b   10.65069806
_cell_length_c   12.30635800
_cell_angle_alpha   90.00591211
_cell_angle_beta   90.00000000
_cell_angle_gamma   90.00000000
_symmetry_Int_Tables_number   1
_chemical_formula_structural   Tb12Si12PdPt3
_chemical_formula_sum   'Tb12 Si12 Pd1 Pt3'
_cell_volume   556.19831982
_cell_formula_units_Z   1
loop_
 _symmetry_equiv_pos_site_id
 _symmetry_equiv_pos_as_xyz
  1  'x, y, z'
loop_
 _atom_site_type_symbol
 _atom_site_label
 _atom_site_symmetry_multiplicity
 _atom_site_fract_x
 _atom_site_fract_y
 _atom_site_fract_z
 _atom_site_occupancy
  Tb  Tb0  1  0.250000  0.879315  0.020338  1
  Tb  Tb1  1  0.250000  0.621316  0.520580  1
  Tb  Tb2  1  0.750000  0.120302  0.980117  1
  Tb  Tb3  1  0.750000  0.379345  0.479075  1
  Tb  Tb4  1  0.250000  0.919586  0.602037  1
  Tb  Tb5  1  0.250000  0.580646  0.102367  1
  Tb  Tb6  1  0.750000  0.080255  0.397496  1
  Tb  Tb7  1  0.750000  0.419506  0.898487  1
  Tb  Tb8  1  0.250000  0.661101  0.801681  1
  Tb  Tb9  1  0.250000  0.839320  0.301624  1
  Tb  Tb10  1  0.750000  0.339793  0.197962  1
  Tb  Tb11  1  0.750000  0.159830  0.698103  1
  Si  Si12  1  0.250000  0.015589  0.822338  1
  Si  Si13  1  0.250000  0.484499  0.322547  1
  Si  Si14  1  0.750000  0.984169  0.177774  1
  Si  Si15  1  0.750000  0.517750  0.677415  1
  Si  Si16  1  0.250000  0.245323  0.844416  1
  Si  Si17  1  0.250000  0.254185  0.343061  1
  Si  Si18  1  0.750000  0.754307  0.156600  1
  Si  Si19  1  0.750000  0.746237  0.656644  1
  Si  Si20  1  0.250000  0.194053  0.539002  1
  Si  Si21  1  0.250000  0.303982  0.040499  1
  Si  Si22  1  0.750000  0.804818  0.459658  1
  Si  Si23  1  0.750000  0.695358  0.959860  1
  Pd  Pd24  1  0.250000  0.389100  0.682199  1
  Pt  Pt25  1  0.250000  0.110071  0.181932  1
  Pt  Pt26  1  0.750000  0.610382  0.318038  1
  Pt  Pt27  1  0.750000  0.889861  0.818148  1
