# generated using pymatgen
data_TbU2Al2GaIr3
_symmetry_space_group_name_H-M   'P 1'
_cell_length_a   7.08597090
_cell_length_b   7.08597213
_cell_length_c   3.95798900
_cell_angle_alpha   90.00000000
_cell_angle_beta   90.00000000
_cell_angle_gamma   120.49329798
_symmetry_Int_Tables_number   1
_chemical_formula_structural   TbU2Al2GaIr3
_chemical_formula_sum   'Tb1 U2 Al2 Ga1 Ir3'
_cell_volume   171.24728521
_cell_formula_units_Z   1
loop_
 _symmetry_equiv_pos_site_id
 _symmetry_equiv_pos_as_xyz
  1  'x, y, z'
loop_
 _atom_site_type_symbol
 _atom_site_label
 _atom_site_symmetry_multiplicity
 _atom_site_fract_x
 _atom_site_fract_y
 _atom_site_fract_z
 _atom_site_occupancy
  Tb  Tb0  1  0.417480  0.417480  0.500000  1
  U  U1  1  0.581567  0.001346  0.500000  1
  U  U2  1  0.001346  0.581567  0.500000  1
  Al  Al3  1  0.237022  0.009354  0.000000  1
  Al  Al4  1  0.009354  0.237022  0.000000  1
  Ga  Ga5  1  0.746999  0.746999  0.000000  1
  Ir  Ir6  1  0.692885  0.324692  0.000000  1
  Ir  Ir7  1  0.324692  0.692885  0.000000  1
  Ir  Ir8  1  0.988657  0.988657  0.500000  1
