# generated using pymatgen
data_DyTm5V2(Ni4P3)4
_symmetry_space_group_name_H-M   'P 1'
_cell_length_a   3.72707500
_cell_length_b   10.59591700
_cell_length_c   12.27955800
_cell_angle_alpha   90.00000000
_cell_angle_beta   90.00000000
_cell_angle_gamma   90.00000000
_symmetry_Int_Tables_number   1
_chemical_formula_structural   DyTm5V2(Ni4P3)4
_chemical_formula_sum   'Dy1 Tm5 V2 Ni16 P12'
_cell_volume   484.94157053
_cell_formula_units_Z   1
loop_
 _symmetry_equiv_pos_site_id
 _symmetry_equiv_pos_as_xyz
  1  'x, y, z'
loop_
 _atom_site_type_symbol
 _atom_site_label
 _atom_site_symmetry_multiplicity
 _atom_site_fract_x
 _atom_site_fract_y
 _atom_site_fract_z
 _atom_site_occupancy
  Dy  Dy0  1  0.500000  0.000000  0.477382  1
  Tm  Tm1  1  0.000000  0.500000  0.522750  1
  Tm  Tm2  1  0.500000  0.817554  0.206110  1
  Tm  Tm3  1  0.500000  0.182446  0.206110  1
  Tm  Tm4  1  0.000000  0.682102  0.793551  1
  Tm  Tm5  1  0.000000  0.317898  0.793551  1
  V  V6  1  0.500000  0.500000  0.152061  1
  V  V7  1  0.000000  0.000000  0.848479  1
  Ni  Ni8  1  0.500000  0.500000  0.700175  1
  Ni  Ni9  1  0.000000  0.000000  0.298824  1
  Ni  Ni10  1  0.000000  0.500000  0.984092  1
  Ni  Ni11  1  0.500000  0.000000  0.016247  1
  Ni  Ni12  1  0.500000  0.333491  0.988283  1
  Ni  Ni13  1  0.500000  0.666509  0.988283  1
  Ni  Ni14  1  0.000000  0.166740  0.011219  1
  Ni  Ni15  1  0.000000  0.833260  0.011219  1
  Ni  Ni16  1  0.500000  0.302428  0.428155  1
  Ni  Ni17  1  0.500000  0.697572  0.428155  1
  Ni  Ni18  1  0.000000  0.198466  0.572334  1
  Ni  Ni19  1  0.000000  0.801534  0.572334  1
  Ni  Ni20  1  0.500000  0.878851  0.710622  1
  Ni  Ni21  1  0.500000  0.121149  0.710622  1
  Ni  Ni22  1  0.000000  0.620769  0.289719  1
  Ni  Ni23  1  0.000000  0.379231  0.289719  1
  P  P24  1  0.500000  0.500000  0.876979  1
  P  P25  1  0.000000  0.000000  0.122581  1
  P  P26  1  0.500000  0.500000  0.346079  1
  P  P27  1  0.000000  0.000000  0.655342  1
  P  P28  1  0.500000  0.315188  0.614434  1
  P  P29  1  0.500000  0.684812  0.614434  1
  P  P30  1  0.000000  0.185635  0.385013  1
  P  P31  1  0.000000  0.814365  0.385013  1
  P  P32  1  0.500000  0.846073  0.892136  1
  P  P33  1  0.500000  0.153927  0.892136  1
  P  P34  1  0.000000  0.653927  0.107929  1
  P  P35  1  0.000000  0.346073  0.107929  1
