# generated using pymatgen
data_Y16Er3MgIr12
_symmetry_space_group_name_H-M   'P 1'
_cell_length_a   10.90249400
_cell_length_b   10.90249400
_cell_length_c   6.32611700
_cell_angle_alpha   90.00000000
_cell_angle_beta   90.00000000
_cell_angle_gamma   90.00000000
_symmetry_Int_Tables_number   1
_chemical_formula_structural   Y16Er3MgIr12
_chemical_formula_sum   'Y16 Er3 Mg1 Ir12'
_cell_volume   751.94994604
_cell_formula_units_Z   1
loop_
 _symmetry_equiv_pos_site_id
 _symmetry_equiv_pos_as_xyz
  1  'x, y, z'
loop_
 _atom_site_type_symbol
 _atom_site_label
 _atom_site_symmetry_multiplicity
 _atom_site_fract_x
 _atom_site_fract_y
 _atom_site_fract_z
 _atom_site_occupancy
  Y  Y0  1  0.284334  0.084817  0.378553  1
  Y  Y1  1  0.290081  0.911959  0.879123  1
  Y  Y2  1  0.709919  0.088041  0.879123  1
  Y  Y3  1  0.715666  0.915183  0.378553  1
  Y  Y4  1  0.588699  0.791402  0.879014  1
  Y  Y5  1  0.587721  0.208551  0.377340  1
  Y  Y6  1  0.412279  0.791449  0.377340  1
  Y  Y7  1  0.411301  0.208598  0.879014  1
  Y  Y8  1  0.208551  0.412279  0.622660  1
  Y  Y9  1  0.208598  0.588699  0.120986  1
  Y  Y10  1  0.791402  0.411301  0.120986  1
  Y  Y11  1  0.791449  0.587721  0.622660  1
  Y  Y12  1  0.911959  0.709919  0.120877  1
  Y  Y13  1  0.915183  0.284334  0.621447  1
  Y  Y14  1  0.084817  0.715666  0.621447  1
  Y  Y15  1  0.088041  0.290081  0.120877  1
  Er  Er16  1  0.000000  0.000000  0.000000  1
  Er  Er17  1  0.500000  0.500000  0.000000  1
  Er  Er18  1  0.500000  0.500000  0.500000  1
  Mg  Mg19  1  0.000000  0.000000  0.500000  1
  Ir  Ir20  1  0.847408  0.153124  0.247533  1
  Ir  Ir21  1  0.846876  0.847408  0.752467  1
  Ir  Ir22  1  0.153124  0.152592  0.752467  1
  Ir  Ir23  1  0.152592  0.846876  0.247533  1
  Ir  Ir24  1  0.653013  0.347471  0.748381  1
  Ir  Ir25  1  0.652529  0.653013  0.251619  1
  Ir  Ir26  1  0.347471  0.346987  0.251619  1
  Ir  Ir27  1  0.346987  0.652529  0.748381  1
  Ir  Ir28  1  0.500000  0.000000  0.124205  1
  Ir  Ir29  1  0.500000  0.000000  0.620785  1
  Ir  Ir30  1  0.000000  0.500000  0.875795  1
  Ir  Ir31  1  0.000000  0.500000  0.379215  1
