# generated using pymatgen
data_Sc2GaB2Ru4Pt
_symmetry_space_group_name_H-M   'P 1'
_cell_length_a   9.37347327
_cell_length_b   9.44529821
_cell_length_c   3.05703800
_cell_angle_alpha   90.00000000
_cell_angle_beta   90.00000000
_cell_angle_gamma   90.05888599
_symmetry_Int_Tables_number   1
_chemical_formula_structural   Sc2GaB2Ru4Pt
_chemical_formula_sum   'Sc4 Ga2 B4 Ru8 Pt2'
_cell_volume   270.65548170
_cell_formula_units_Z   2
loop_
 _symmetry_equiv_pos_site_id
 _symmetry_equiv_pos_as_xyz
  1  'x, y, z'
loop_
 _atom_site_type_symbol
 _atom_site_label
 _atom_site_symmetry_multiplicity
 _atom_site_fract_x
 _atom_site_fract_y
 _atom_site_fract_z
 _atom_site_occupancy
  Sc  Sc0  1  0.674703  0.182586  0.000000  1
  Sc  Sc1  1  0.325297  0.817414  0.000000  1
  Sc  Sc2  1  0.172655  0.333137  0.000000  1
  Sc  Sc3  1  0.827345  0.666863  0.000000  1
  Ga  Ga4  1  0.000000  0.000000  0.000000  1
  Ga  Ga5  1  0.500000  0.500000  0.000000  1
  B  B6  1  0.123212  0.625601  0.000000  1
  B  B7  1  0.876788  0.374399  0.000000  1
  B  B8  1  0.612376  0.868744  0.000000  1
  B  B9  1  0.387624  0.131256  0.000000  1
  Ru  Ru10  1  0.069992  0.786471  0.500000  1
  Ru  Ru11  1  0.715494  0.428433  0.500000  1
  Ru  Ru12  1  0.930008  0.213529  0.500000  1
  Ru  Ru13  1  0.284506  0.571567  0.500000  1
  Ru  Ru14  1  0.570927  0.714305  0.500000  1
  Ru  Ru15  1  0.429073  0.285695  0.500000  1
  Ru  Ru16  1  0.500000  0.000000  0.500000  1
  Ru  Ru17  1  0.000000  0.500000  0.500000  1
  Pt  Pt18  1  0.217249  0.073075  0.500000  1
  Pt  Pt19  1  0.782751  0.926925  0.500000  1
