# generated using pymatgen
data_Tm6Al19Fe8Si5
_symmetry_space_group_name_H-M   'P 1'
_cell_length_a   8.47415300
_cell_length_b   8.46340352
_cell_length_c   9.30382500
_cell_angle_alpha   90.00000000
_cell_angle_beta   90.00000000
_cell_angle_gamma   120.04202001
_symmetry_Int_Tables_number   1
_chemical_formula_structural   Tm6Al19Fe8Si5
_chemical_formula_sum   'Tm6 Al19 Fe8 Si5'
_cell_volume   577.62963679
_cell_formula_units_Z   1
loop_
 _symmetry_equiv_pos_site_id
 _symmetry_equiv_pos_as_xyz
  1  'x, y, z'
loop_
 _atom_site_type_symbol
 _atom_site_label
 _atom_site_symmetry_multiplicity
 _atom_site_fract_x
 _atom_site_fract_y
 _atom_site_fract_z
 _atom_site_occupancy
  Tm  Tm0  1  0.195478  0.390956  0.250000  1
  Tm  Tm1  1  0.804688  0.609375  0.750000  1
  Tm  Tm2  1  0.606388  0.806089  0.250000  1
  Tm  Tm3  1  0.391904  0.196663  0.750000  1
  Tm  Tm4  1  0.199701  0.806089  0.250000  1
  Tm  Tm5  1  0.804760  0.196663  0.750000  1
  Al  Al6  1  0.163411  0.326821  0.573839  1
  Al  Al7  1  0.836030  0.672060  0.425806  1
  Al  Al8  1  0.672481  0.836439  0.572733  1
  Al  Al9  1  0.836030  0.672060  0.074194  1
  Al  Al10  1  0.327754  0.164493  0.425739  1
  Al  Al11  1  0.163411  0.326821  0.926161  1
  Al  Al12  1  0.163958  0.836439  0.572733  1
  Al  Al13  1  0.327754  0.164493  0.074261  1
  Al  Al14  1  0.836739  0.164493  0.425739  1
  Al  Al15  1  0.672481  0.836439  0.927267  1
  Al  Al16  1  0.836739  0.164493  0.074261  1
  Al  Al17  1  0.163958  0.836439  0.927267  1
  Al  Al18  1  0.439366  0.878732  0.750000  1
  Al  Al19  1  0.876836  0.436024  0.250000  1
  Al  Al20  1  0.123212  0.562345  0.750000  1
  Al  Al21  1  0.559189  0.436024  0.250000  1
  Al  Al22  1  0.439133  0.562345  0.750000  1
  Al  Al23  1  0.999709  0.999417  0.250000  1
  Al  Al24  1  0.000309  0.000617  0.750000  1
  Fe  Fe25  1  0.500671  0.001342  0.007442  1
  Fe  Fe26  1  0.998460  0.498613  0.000222  1
  Fe  Fe27  1  0.500671  0.001342  0.492558  1
  Fe  Fe28  1  0.500152  0.498613  0.000222  1
  Fe  Fe29  1  0.998460  0.498613  0.499778  1
  Fe  Fe30  1  0.500152  0.498613  0.499778  1
  Fe  Fe31  1  0.999666  0.999331  0.999861  1
  Fe  Fe32  1  0.999666  0.999331  0.500139  1
  Si  Si33  1  0.332353  0.664707  0.029845  1
  Si  Si34  1  0.667615  0.335228  0.968436  1
  Si  Si35  1  0.667615  0.335228  0.531564  1
  Si  Si36  1  0.332353  0.664707  0.470155  1
  Si  Si37  1  0.560749  0.121498  0.250000  1
