# generated using pymatgen
data_Tb5Nd(Ir2Rh)6
_symmetry_space_group_name_H-M   'P 1'
_cell_length_a   5.32493701
_cell_length_b   5.32511803
_cell_length_c   17.51590200
_cell_angle_alpha   90.00000000
_cell_angle_beta   90.00000000
_cell_angle_gamma   119.99800917
_symmetry_Int_Tables_number   1
_chemical_formula_structural   Tb5Nd(Ir2Rh)6
_chemical_formula_sum   'Tb5 Nd1 Ir12 Rh6'
_cell_volume   430.14567851
_cell_formula_units_Z   1
loop_
 _symmetry_equiv_pos_site_id
 _symmetry_equiv_pos_as_xyz
  1  'x, y, z'
loop_
 _atom_site_type_symbol
 _atom_site_label
 _atom_site_symmetry_multiplicity
 _atom_site_fract_x
 _atom_site_fract_y
 _atom_site_fract_z
 _atom_site_occupancy
  Tb  Tb0  1  0.333339  0.666669  0.542021  1
  Tb  Tb1  1  0.666669  0.333340  0.041178  1
  Tb  Tb2  1  0.666669  0.333340  0.458822  1
  Tb  Tb3  1  0.333339  0.666669  0.957979  1
  Tb  Tb4  1  0.333330  0.666660  0.750000  1
  Nd  Nd5  1  0.666666  0.333329  0.250000  1
  Ir  Ir6  1  0.167638  0.335272  0.125542  1
  Ir  Ir7  1  0.832394  0.664781  0.626318  1
  Ir  Ir8  1  0.664716  0.832351  0.125538  1
  Ir  Ir9  1  0.167633  0.832355  0.125539  1
  Ir  Ir10  1  0.832392  0.167599  0.626319  1
  Ir  Ir11  1  0.335213  0.167603  0.626317  1
  Ir  Ir12  1  0.832394  0.664781  0.873682  1
  Ir  Ir13  1  0.832392  0.167599  0.873681  1
  Ir  Ir14  1  0.335213  0.167603  0.873683  1
  Ir  Ir15  1  0.664716  0.832351  0.374462  1
  Ir  Ir16  1  0.167633  0.832355  0.374461  1
  Ir  Ir17  1  0.167638  0.335272  0.374458  1
  Rh  Rh18  1  0.000003  0.000049  0.250000  1
  Rh  Rh19  1  0.000010  0.000015  0.750000  1
  Rh  Rh20  1  0.333321  0.666624  0.250000  1
  Rh  Rh21  1  0.666652  0.333314  0.750000  1
  Rh  Rh22  1  0.000017  0.000034  0.999653  1
  Rh  Rh23  1  0.000017  0.000034  0.500347  1
