# generated using pymatgen
data_NdGd2(ZnPd)3
_symmetry_space_group_name_H-M   'P 1'
_cell_length_a   7.43291755
_cell_length_b   7.41604066
_cell_length_c   3.89060100
_cell_angle_alpha   90.00000000
_cell_angle_beta   90.00000000
_cell_angle_gamma   119.93608930
_symmetry_Int_Tables_number   1
_chemical_formula_structural   NdGd2(ZnPd)3
_chemical_formula_sum   'Nd1 Gd2 Zn3 Pd3'
_cell_volume   185.84807703
_cell_formula_units_Z   1
loop_
 _symmetry_equiv_pos_site_id
 _symmetry_equiv_pos_as_xyz
  1  'x, y, z'
loop_
 _atom_site_type_symbol
 _atom_site_label
 _atom_site_symmetry_multiplicity
 _atom_site_fract_x
 _atom_site_fract_y
 _atom_site_fract_z
 _atom_site_occupancy
  Nd  Nd0  1  0.999992  0.406611  0.500000  1
  Gd  Gd1  1  0.596040  0.595596  0.500000  1
  Gd  Gd2  1  0.404154  0.999549  0.500000  1
  Zn  Zn3  1  0.000322  0.750602  0.000000  1
  Zn  Zn4  1  0.251400  0.249016  0.000000  1
  Zn  Zn5  1  0.748293  0.997921  0.000000  1
  Pd  Pd6  1  0.339597  0.671727  0.000000  1
  Pd  Pd7  1  0.660440  0.332866  0.000000  1
  Pd  Pd8  1  0.999761  0.996112  0.500000  1
