# generated using pymatgen
data_Y17Pa3Ir16
_symmetry_space_group_name_H-M   'P 1'
_cell_length_a   7.43078581
_cell_length_b   7.49614263
_cell_length_c   14.50723000
_cell_angle_alpha   90.09661987
_cell_angle_beta   90.06522394
_cell_angle_gamma   89.89749182
_symmetry_Int_Tables_number   1
_chemical_formula_structural   Y17Pa3Ir16
_chemical_formula_sum   'Y17 Pa3 Ir16'
_cell_volume   808.08210366
_cell_formula_units_Z   1
loop_
 _symmetry_equiv_pos_site_id
 _symmetry_equiv_pos_as_xyz
  1  'x, y, z'
loop_
 _atom_site_type_symbol
 _atom_site_label
 _atom_site_symmetry_multiplicity
 _atom_site_fract_x
 _atom_site_fract_y
 _atom_site_fract_z
 _atom_site_occupancy
  Y  Y0  1  0.838349  0.666646  0.378026  1
  Y  Y1  1  0.338800  0.833608  0.378704  1
  Y  Y2  1  0.840283  0.666113  0.119768  1
  Y  Y3  1  0.659766  0.165304  0.880569  1
  Y  Y4  1  0.160916  0.331846  0.620980  1
  Y  Y5  1  0.510357  0.680277  0.592477  1
  Y  Y6  1  0.009536  0.817385  0.905130  1
  Y  Y7  1  0.492283  0.319663  0.096916  1
  Y  Y8  1  0.990686  0.186619  0.405415  1
  Y  Y9  1  0.488494  0.319954  0.407839  1
  Y  Y10  1  0.984340  0.180363  0.093198  1
  Y  Y11  1  0.513143  0.680542  0.908437  1
  Y  Y12  1  0.010813  0.816611  0.590559  1
  Y  Y13  1  0.822912  0.511021  0.748988  1
  Y  Y14  1  0.324234  0.985420  0.750806  1
  Y  Y15  1  0.169056  0.491153  0.251085  1
  Y  Y16  1  0.679487  0.007874  0.252015  1
  Pa  Pa17  1  0.660307  0.160064  0.623812  1
  Pa  Pa18  1  0.160919  0.338409  0.877179  1
  Pa  Pa19  1  0.338267  0.837518  0.122905  1
  Ir  Ir20  1  0.691132  0.972102  0.467631  1
  Ir  Ir21  1  0.198667  0.542602  0.032623  1
  Ir  Ir22  1  0.299579  0.045883  0.966079  1
  Ir  Ir23  1  0.806643  0.446407  0.540776  1
  Ir  Ir24  1  0.337136  0.031002  0.546405  1
  Ir  Ir25  1  0.841874  0.465144  0.953900  1
  Ir  Ir26  1  0.652966  0.962494  0.045504  1
  Ir  Ir27  1  0.168711  0.530085  0.457040  1
  Ir  Ir28  1  0.460465  0.374404  0.749182  1
  Ir  Ir29  1  0.962746  0.124047  0.754373  1
  Ir  Ir30  1  0.533663  0.618616  0.243638  1
  Ir  Ir31  1  0.051350  0.887197  0.242001  1
  Ir  Ir32  1  0.702301  0.871986  0.744933  1
  Ir  Ir33  1  0.198803  0.627609  0.753834  1
  Ir  Ir34  1  0.310180  0.138075  0.248324  1
  Ir  Ir35  1  0.790835  0.365958  0.248944  1
