# generated using pymatgen
data_NdThZn21Pt
_symmetry_space_group_name_H-M   'P 1'
_cell_length_a   8.28755993
_cell_length_b   8.29923333
_cell_length_c   8.28756035
_cell_angle_alpha   100.05933854
_cell_angle_beta   99.69894391
_cell_angle_gamma   130.97208173
_symmetry_Int_Tables_number   1
_chemical_formula_structural   NdThZn21Pt
_chemical_formula_sum   'Nd1 Th1 Zn21 Pt1'
_cell_volume   391.86165942
_cell_formula_units_Z   1
loop_
 _symmetry_equiv_pos_site_id
 _symmetry_equiv_pos_as_xyz
  1  'x, y, z'
loop_
 _atom_site_type_symbol
 _atom_site_label
 _atom_site_symmetry_multiplicity
 _atom_site_fract_x
 _atom_site_fract_y
 _atom_site_fract_z
 _atom_site_occupancy
  Nd  Nd0  1  0.999522  0.002839  0.003316  1
  Th  Th1  1  0.251524  0.748145  0.496621  1
  Zn  Zn2  1  0.420549  0.092520  0.914438  1
  Zn  Zn3  1  0.180656  0.507300  0.083777  1
  Zn  Zn4  1  0.503255  0.498957  0.995703  1
  Zn  Zn5  1  0.747332  0.251206  0.503874  1
  Zn  Zn6  1  0.126095  0.375669  0.750528  1
  Zn  Zn7  1  0.625142  0.375669  0.249574  1
  Zn  Zn8  1  0.624203  0.874120  0.249917  1
  Zn  Zn9  1  0.178082  0.092520  0.671971  1
  Zn  Zn10  1  0.760070  0.931373  0.584601  1
  Zn  Zn11  1  0.345434  0.172784  0.415258  1
  Zn  Zn12  1  0.423524  0.507300  0.326643  1
  Zn  Zn13  1  0.903923  0.818996  0.329492  1
  Zn  Zn14  1  0.492675  0.577070  0.672483  1
  Zn  Zn15  1  0.069033  0.242867  0.416350  1
  Zn  Zn16  1  0.829388  0.656771  0.585967  1
  Zn  Zn17  1  0.070804  0.656771  0.827382  1
  Zn  Zn18  1  0.489503  0.818996  0.915073  1
  Zn  Zn19  1  0.904588  0.577070  0.084394  1
  Zn  Zn20  1  0.826516  0.242867  0.173835  1
  Zn  Zn21  1  0.346772  0.931373  0.171304  1
  Zn  Zn22  1  0.757527  0.172784  0.827349  1
  Pt  Pt23  1  0.623884  0.374033  0.750149  1
