# generated using pymatgen
data_Tb3DyCo6
_symmetry_space_group_name_H-M   'P 1'
_cell_length_a   5.38504402
_cell_length_b   5.38504410
_cell_length_c   6.98445400
_cell_angle_alpha   90.00133610
_cell_angle_beta   89.99864635
_cell_angle_gamma   120.39331004
_symmetry_Int_Tables_number   1
_chemical_formula_structural   Tb3DyCo6
_chemical_formula_sum   'Tb3 Dy1 Co6'
_cell_volume   174.70555587
_cell_formula_units_Z   1
loop_
 _symmetry_equiv_pos_site_id
 _symmetry_equiv_pos_as_xyz
  1  'x, y, z'
loop_
 _atom_site_type_symbol
 _atom_site_label
 _atom_site_symmetry_multiplicity
 _atom_site_fract_x
 _atom_site_fract_y
 _atom_site_fract_z
 _atom_site_occupancy
  Tb  Tb0  1  0.162903  0.837096  0.097670  1
  Tb  Tb1  1  0.662909  0.337090  0.402302  1
  Tb  Tb2  1  0.337096  0.662903  0.597704  1
  Dy  Dy3  1  0.837104  0.162895  0.902325  1
  Co  Co4  1  0.499998  0.500002  0.999990  1
  Co  Co5  1  0.164074  0.335901  0.249980  1
  Co  Co6  1  0.664100  0.835927  0.249980  1
  Co  Co7  1  0.999994  0.000006  0.500012  1
  Co  Co8  1  0.335916  0.164095  0.750020  1
  Co  Co9  1  0.835906  0.664085  0.750020  1
