# generated using pymatgen
data_Np2PdSe4
_symmetry_space_group_name_H-M   'P 1'
_cell_length_a   8.85259479
_cell_length_b   8.13233987
_cell_length_c   7.04442707
_cell_angle_alpha   70.95324986
_cell_angle_beta   60.26700067
_cell_angle_gamma   48.77975185
_symmetry_Int_Tables_number   1
_chemical_formula_structural   Np2PdSe4
_chemical_formula_sum   'Np4 Pd2 Se8'
_cell_volume   331.24357806
_cell_formula_units_Z   2
loop_
 _symmetry_equiv_pos_site_id
 _symmetry_equiv_pos_as_xyz
  1  'x, y, z'
loop_
 _atom_site_type_symbol
 _atom_site_label
 _atom_site_symmetry_multiplicity
 _atom_site_fract_x
 _atom_site_fract_y
 _atom_site_fract_z
 _atom_site_occupancy
  Np  Np0  1  0.418380  0.528944  0.182298  1
  Np  Np1  1  0.870378  0.182298  0.528944  1
  Np  Np2  1  0.067702  0.379622  0.831620  1
  Np  Np3  1  0.721056  0.831620  0.379622  1
  Pd  Pd4  1  0.248232  0.251768  0.251768  1
  Pd  Pd5  1  0.998232  0.001768  0.001768  1
  Se  Se6  1  0.698851  0.554803  0.241718  1
  Se  Se7  1  0.504628  0.241718  0.554803  1
  Se  Se8  1  0.008282  0.745372  0.551149  1
  Se  Se9  1  0.695197  0.551149  0.745372  1
  Se  Se10  1  0.139340  0.590839  0.017229  1
  Se  Se11  1  0.252592  0.017229  0.590839  1
  Se  Se12  1  0.659161  0.110660  0.997408  1
  Se  Se13  1  0.232771  0.997408  0.110660  1
