# generated using pymatgen
data_HoLu2(GaNi2)3
_symmetry_space_group_name_H-M   'P 1'
_cell_length_a   5.14790700
_cell_length_b   5.14790604
_cell_length_c   15.85292200
_cell_angle_alpha   90.00000000
_cell_angle_beta   90.00000000
_cell_angle_gamma   119.99998687
_symmetry_Int_Tables_number   1
_chemical_formula_structural   HoLu2(GaNi2)3
_chemical_formula_sum   'Ho2 Lu4 Ga6 Ni12'
_cell_volume   363.83235398
_cell_formula_units_Z   2
loop_
 _symmetry_equiv_pos_site_id
 _symmetry_equiv_pos_as_xyz
  1  'x, y, z'
loop_
 _atom_site_type_symbol
 _atom_site_label
 _atom_site_symmetry_multiplicity
 _atom_site_fract_x
 _atom_site_fract_y
 _atom_site_fract_z
 _atom_site_occupancy
  Ho  Ho0  1  0.333333  0.666667  0.750000  1
  Ho  Ho1  1  0.666667  0.333333  0.250000  1
  Lu  Lu2  1  0.333333  0.666667  0.542136  1
  Lu  Lu3  1  0.666667  0.333333  0.457864  1
  Lu  Lu4  1  0.666667  0.333333  0.042136  1
  Lu  Lu5  1  0.333333  0.666667  0.957864  1
  Ga  Ga6  1  0.000000  0.000000  0.250000  1
  Ga  Ga7  1  0.000000  0.000000  0.750000  1
  Ga  Ga8  1  0.333333  0.666667  0.250000  1
  Ga  Ga9  1  0.666667  0.333333  0.750000  1
  Ga  Ga10  1  0.000000  0.000000  0.000000  1
  Ga  Ga11  1  0.000000  0.000000  0.500000  1
  Ni  Ni12  1  0.168946  0.337890  0.124684  1
  Ni  Ni13  1  0.831054  0.662110  0.875316  1
  Ni  Ni14  1  0.662110  0.831054  0.124684  1
  Ni  Ni15  1  0.831054  0.662110  0.624684  1
  Ni  Ni16  1  0.337890  0.168946  0.875316  1
  Ni  Ni17  1  0.168946  0.337890  0.375316  1
  Ni  Ni18  1  0.168946  0.831054  0.124684  1
  Ni  Ni19  1  0.337890  0.168946  0.624684  1
  Ni  Ni20  1  0.831054  0.168946  0.875316  1
  Ni  Ni21  1  0.662110  0.831054  0.375316  1
  Ni  Ni22  1  0.831054  0.168946  0.624684  1
  Ni  Ni23  1  0.168946  0.831054  0.375316  1
