# generated using pymatgen
data_La2GaAs3Ir4
_symmetry_space_group_name_H-M   'P 1'
_cell_length_a   4.40051300
_cell_length_b   4.40051300
_cell_length_c   9.89704100
_cell_angle_alpha   90.00000000
_cell_angle_beta   90.00000000
_cell_angle_gamma   90.00000000
_symmetry_Int_Tables_number   1
_chemical_formula_structural   La2GaAs3Ir4
_chemical_formula_sum   'La2 Ga1 As3 Ir4'
_cell_volume   191.65139557
_cell_formula_units_Z   1
loop_
 _symmetry_equiv_pos_site_id
 _symmetry_equiv_pos_as_xyz
  1  'x, y, z'
loop_
 _atom_site_type_symbol
 _atom_site_label
 _atom_site_symmetry_multiplicity
 _atom_site_fract_x
 _atom_site_fract_y
 _atom_site_fract_z
 _atom_site_occupancy
  La  La0  1  0.000000  0.500000  0.243697  1
  La  La1  1  0.500000  0.000000  0.760147  1
  Ga  Ga2  1  0.000000  0.500000  0.631764  1
  As  As3  1  0.000000  0.000000  0.000996  1
  As  As4  1  0.500000  0.500000  0.000996  1
  As  As5  1  0.500000  0.000000  0.368442  1
  Ir  Ir6  1  0.000000  0.000000  0.493924  1
  Ir  Ir7  1  0.500000  0.500000  0.493924  1
  Ir  Ir8  1  0.000000  0.500000  0.886883  1
  Ir  Ir9  1  0.500000  0.000000  0.119224  1
