# generated using pymatgen
data_Dy2Tm2ReB12Os
_symmetry_space_group_name_H-M   'P 1'
_cell_length_a   3.64678600
_cell_length_b   9.12005778
_cell_length_c   11.51233016
_cell_angle_alpha   90.12137375
_cell_angle_beta   90.00000000
_cell_angle_gamma   90.00000000
_symmetry_Int_Tables_number   1
_chemical_formula_structural   Dy2Tm2ReB12Os
_chemical_formula_sum   'Dy4 Tm4 Re2 B24 Os2'
_cell_volume   382.88656735
_cell_formula_units_Z   2
loop_
 _symmetry_equiv_pos_site_id
 _symmetry_equiv_pos_as_xyz
  1  'x, y, z'
loop_
 _atom_site_type_symbol
 _atom_site_label
 _atom_site_symmetry_multiplicity
 _atom_site_fract_x
 _atom_site_fract_y
 _atom_site_fract_z
 _atom_site_occupancy
  Dy  Dy0  1  0.000000  0.320444  0.412484  1
  Dy  Dy1  1  0.000000  0.679556  0.587516  1
  Dy  Dy2  1  0.000000  0.824004  0.084915  1
  Dy  Dy3  1  0.000000  0.175996  0.915085  1
  Tm  Tm4  1  0.000000  0.943458  0.370895  1
  Tm  Tm5  1  0.000000  0.056542  0.629105  1
  Tm  Tm6  1  0.000000  0.442546  0.128673  1
  Tm  Tm7  1  0.000000  0.557454  0.871327  1
  Re  Re8  1  0.000000  0.138798  0.180196  1
  Re  Re9  1  0.000000  0.861202  0.819804  1
  B  B10  1  0.500000  0.553890  0.432802  1
  B  B11  1  0.500000  0.446110  0.567198  1
  B  B12  1  0.500000  0.053235  0.067143  1
  B  B13  1  0.500000  0.946765  0.932857  1
  B  B14  1  0.500000  0.749464  0.418584  1
  B  B15  1  0.500000  0.250536  0.581416  1
  B  B16  1  0.500000  0.249599  0.081192  1
  B  B17  1  0.500000  0.750401  0.918808  1
  B  B18  1  0.500000  0.791114  0.265941  1
  B  B19  1  0.500000  0.208886  0.734059  1
  B  B20  1  0.500000  0.292105  0.234614  1
  B  B21  1  0.500000  0.707895  0.765386  1
  B  B22  1  0.500000  0.630243  0.185658  1
  B  B23  1  0.500000  0.369757  0.814342  1
  B  B24  1  0.500000  0.130686  0.315261  1
  B  B25  1  0.500000  0.869314  0.684739  1
  B  B26  1  0.500000  0.982192  0.213048  1
  B  B27  1  0.500000  0.017808  0.786952  1
  B  B28  1  0.500000  0.482648  0.287548  1
  B  B29  1  0.500000  0.517352  0.712452  1
  B  B30  1  0.500000  0.601605  0.028333  1
  B  B31  1  0.500000  0.398395  0.971667  1
  B  B32  1  0.500000  0.102020  0.472009  1
  B  B33  1  0.500000  0.897980  0.527991  1
  Os  Os34  1  0.000000  0.637928  0.321127  1
  Os  Os35  1  0.000000  0.362072  0.678873  1
