# generated using pymatgen
data_Hf3AlGa2Ir2Rh
_symmetry_space_group_name_H-M   'P 1'
_cell_length_a   7.29831700
_cell_length_b   7.34011145
_cell_length_c   3.29617800
_cell_angle_alpha   90.00000000
_cell_angle_beta   90.00000000
_cell_angle_gamma   119.81182723
_symmetry_Int_Tables_number   1
_chemical_formula_structural   Hf3AlGa2Ir2Rh
_chemical_formula_sum   'Hf3 Al1 Ga2 Ir2 Rh1'
_cell_volume   153.20997267
_cell_formula_units_Z   1
loop_
 _symmetry_equiv_pos_site_id
 _symmetry_equiv_pos_as_xyz
  1  'x, y, z'
loop_
 _atom_site_type_symbol
 _atom_site_label
 _atom_site_symmetry_multiplicity
 _atom_site_fract_x
 _atom_site_fract_y
 _atom_site_fract_z
 _atom_site_occupancy
  Hf  Hf0  1  0.392016  0.000000  0.500000  1
  Hf  Hf1  1  0.001373  0.397462  0.500000  1
  Hf  Hf2  1  0.603911  0.602538  0.500000  1
  Al  Al3  1  0.732323  0.000000  0.000000  1
  Ga  Ga4  1  0.997867  0.729226  0.000000  1
  Ga  Ga5  1  0.268641  0.270774  0.000000  1
  Ir  Ir6  1  0.338682  0.670541  0.000000  1
  Ir  Ir7  1  0.668142  0.329459  0.000000  1
  Rh  Rh8  1  0.997045  0.000000  0.500000  1
