# generated using pymatgen
data_NdGaCoO5
_symmetry_space_group_name_H-M   'P 1'
_cell_length_a   5.78213100
_cell_length_b   7.51211600
_cell_length_c   8.57938600
_cell_angle_alpha   90.00000000
_cell_angle_beta   90.00000000
_cell_angle_gamma   90.00000000
_symmetry_Int_Tables_number   1
_chemical_formula_structural   NdGaCoO5
_chemical_formula_sum   'Nd4 Ga4 Co4 O20'
_cell_volume   372.65454317
_cell_formula_units_Z   4
loop_
 _symmetry_equiv_pos_site_id
 _symmetry_equiv_pos_as_xyz
  1  'x, y, z'
loop_
 _atom_site_type_symbol
 _atom_site_label
 _atom_site_symmetry_multiplicity
 _atom_site_fract_x
 _atom_site_fract_y
 _atom_site_fract_z
 _atom_site_occupancy
  Nd  Nd0  1  0.500000  0.362417  0.328926  1
  Nd  Nd1  1  0.500000  0.637583  0.671074  1
  Nd  Nd2  1  0.500000  0.137583  0.828926  1
  Nd  Nd3  1  0.500000  0.862417  0.171074  1
  Ga  Ga4  1  0.000000  0.111904  0.145376  1
  Ga  Ga5  1  0.000000  0.888096  0.854624  1
  Ga  Ga6  1  0.000000  0.388096  0.645376  1
  Ga  Ga7  1  0.000000  0.611904  0.354624  1
  Co  Co8  1  0.245826  0.000000  0.500000  1
  Co  Co9  1  0.754174  0.000000  0.500000  1
  Co  Co10  1  0.754174  0.500000  0.000000  1
  Co  Co11  1  0.245826  0.500000  0.000000  1
  O  O12  1  0.500000  0.347712  0.051939  1
  O  O13  1  0.500000  0.652288  0.948061  1
  O  O14  1  0.500000  0.152288  0.551939  1
  O  O15  1  0.500000  0.847712  0.448061  1
  O  O16  1  0.222722  0.000000  0.000000  1
  O  O17  1  0.777278  0.000000  0.000000  1
  O  O18  1  0.777278  0.500000  0.500000  1
  O  O19  1  0.222722  0.500000  0.500000  1
  O  O20  1  0.252244  0.100061  0.296526  1
  O  O21  1  0.747756  0.899939  0.703474  1
  O  O22  1  0.252244  0.899939  0.703474  1
  O  O23  1  0.747756  0.399939  0.796526  1
  O  O24  1  0.747756  0.100061  0.296526  1
  O  O25  1  0.252244  0.600061  0.203474  1
  O  O26  1  0.747756  0.600061  0.203474  1
  O  O27  1  0.252244  0.399939  0.796526  1
  O  O28  1  0.000000  0.352240  0.067089  1
  O  O29  1  0.000000  0.647760  0.932911  1
  O  O30  1  0.000000  0.147760  0.567089  1
  O  O31  1  0.000000  0.852240  0.432911  1
