# generated using pymatgen
data_Ho8Sc12Si15Hg
_symmetry_space_group_name_H-M   'P 1'
_cell_length_a   7.11825007
_cell_length_b   7.37853861
_cell_length_c   14.06000497
_cell_angle_alpha   89.91948834
_cell_angle_beta   89.53944110
_cell_angle_gamma   90.14284706
_symmetry_Int_Tables_number   1
_chemical_formula_structural   Ho8Sc12Si15Hg
_chemical_formula_sum   'Ho8 Sc12 Si15 Hg1'
_cell_volume   738.43665780
_cell_formula_units_Z   1
loop_
 _symmetry_equiv_pos_site_id
 _symmetry_equiv_pos_as_xyz
  1  'x, y, z'
loop_
 _atom_site_type_symbol
 _atom_site_label
 _atom_site_symmetry_multiplicity
 _atom_site_fract_x
 _atom_site_fract_y
 _atom_site_fract_z
 _atom_site_occupancy
  Ho  Ho0  1  0.012297  0.175668  0.097252  1
  Ho  Ho1  1  0.987338  0.825235  0.904260  1
  Ho  Ho2  1  0.487248  0.676842  0.903771  1
  Ho  Ho3  1  0.988671  0.831252  0.598341  1
  Ho  Ho4  1  0.512085  0.323660  0.096476  1
  Ho  Ho5  1  0.007725  0.171182  0.398307  1
  Ho  Ho6  1  0.511767  0.322045  0.399051  1
  Ho  Ho7  1  0.496347  0.681845  0.600342  1
  Sc  Sc8  1  0.162603  0.501719  0.754286  1
  Sc  Sc9  1  0.836900  0.498078  0.250005  1
  Sc  Sc10  1  0.337317  0.001296  0.248816  1
  Sc  Sc11  1  0.664918  0.996501  0.751610  1
  Sc  Sc12  1  0.342273  0.167976  0.628956  1
  Sc  Sc13  1  0.664231  0.824606  0.373034  1
  Sc  Sc14  1  0.166690  0.677955  0.370645  1
  Sc  Sc15  1  0.669394  0.823726  0.124278  1
  Sc  Sc16  1  0.825367  0.324992  0.626351  1
  Sc  Sc17  1  0.329021  0.175112  0.876105  1
  Sc  Sc18  1  0.830250  0.322852  0.876165  1
  Sc  Sc19  1  0.168854  0.676745  0.124922  1
  Si  Si20  1  0.035417  0.120204  0.751482  1
  Si  Si21  1  0.964262  0.884200  0.247887  1
  Si  Si22  1  0.466153  0.615026  0.247863  1
  Si  Si23  1  0.533648  0.386184  0.752195  1
  Si  Si24  1  0.284795  0.871703  0.751852  1
  Si  Si25  1  0.712781  0.128042  0.247737  1
  Si  Si26  1  0.213375  0.370902  0.248068  1
  Si  Si27  1  0.788754  0.628648  0.752700  1
  Si  Si28  1  0.832368  0.538296  0.459105  1
  Si  Si29  1  0.338487  0.962457  0.459998  1
  Si  Si30  1  0.843418  0.535214  0.038856  1
  Si  Si31  1  0.660483  0.037257  0.537602  1
  Si  Si32  1  0.156441  0.464213  0.962140  1
  Si  Si33  1  0.656313  0.034698  0.960515  1
  Si  Si34  1  0.342631  0.965081  0.039794  1
  Hg  Hg35  1  0.169379  0.458585  0.539236  1
