# generated using pymatgen
data_LiPr5NdIrBr12
_symmetry_space_group_name_H-M   'P 1'
_cell_length_a   9.62431726
_cell_length_b   9.74722736
_cell_length_c   9.63442382
_cell_angle_alpha   108.57899809
_cell_angle_beta   107.85011714
_cell_angle_gamma   107.98598577
_symmetry_Int_Tables_number   1
_chemical_formula_structural   LiPr5NdIrBr12
_chemical_formula_sum   'Li1 Pr5 Nd1 Ir1 Br12'
_cell_volume   728.03803183
_cell_formula_units_Z   1
loop_
 _symmetry_equiv_pos_site_id
 _symmetry_equiv_pos_as_xyz
  1  'x, y, z'
loop_
 _atom_site_type_symbol
 _atom_site_label
 _atom_site_symmetry_multiplicity
 _atom_site_fract_x
 _atom_site_fract_y
 _atom_site_fract_z
 _atom_site_occupancy
  Li  Li0  1  0.499975  0.500056  0.499943  1
  Pr  Pr1  1  0.320902  0.036277  0.117433  1
  Pr  Pr2  1  0.037197  0.117907  0.322754  1
  Pr  Pr3  1  0.963068  0.883003  0.677604  1
  Pr  Pr4  1  0.679227  0.963893  0.882565  1
  Pr  Pr5  1  0.877634  0.667211  0.962218  1
  Nd  Nd6  1  0.121816  0.331146  0.037741  1
  Ir  Ir7  1  0.000212  0.000407  0.000265  1
  Br  Br8  1  0.216198  0.687076  0.070885  1
  Br  Br9  1  0.463271  0.384247  0.178760  1
  Br  Br10  1  0.687040  0.071091  0.216275  1
  Br  Br11  1  0.929345  0.785749  0.313694  1
  Br  Br12  1  0.178731  0.463264  0.383306  1
  Br  Br13  1  0.387278  0.180831  0.467129  1
  Br  Br14  1  0.612755  0.819206  0.532932  1
  Br  Br15  1  0.821027  0.536533  0.614482  1
  Br  Br16  1  0.071212  0.215567  0.688608  1
  Br  Br17  1  0.312999  0.928920  0.783742  1
  Br  Br18  1  0.534297  0.615818  0.819926  1
  Br  Br19  1  0.785820  0.311801  0.929742  1
