# generated using pymatgen
data_Y12Er4Cd4Pd3Ru
_symmetry_space_group_name_H-M   'P 1'
_cell_length_a   9.70970454
_cell_length_b   9.70970539
_cell_length_c   9.70970521
_cell_angle_alpha   59.62338189
_cell_angle_beta   59.62338616
_cell_angle_gamma   59.62337722
_symmetry_Int_Tables_number   1
_chemical_formula_structural   Y12Er4Cd4Pd3Ru
_chemical_formula_sum   'Y12 Er4 Cd4 Pd3 Ru1'
_cell_volume   641.75615994
_cell_formula_units_Z   1
loop_
 _symmetry_equiv_pos_site_id
 _symmetry_equiv_pos_as_xyz
  1  'x, y, z'
loop_
 _atom_site_type_symbol
 _atom_site_label
 _atom_site_symmetry_multiplicity
 _atom_site_fract_x
 _atom_site_fract_y
 _atom_site_fract_z
 _atom_site_occupancy
  Y  Y0  1  0.815702  0.188915  0.188915  1
  Y  Y1  1  0.188939  0.809957  0.809957  1
  Y  Y2  1  0.188915  0.815702  0.188915  1
  Y  Y3  1  0.809957  0.188939  0.809957  1
  Y  Y4  1  0.188915  0.188915  0.815702  1
  Y  Y5  1  0.809957  0.809957  0.188939  1
  Y  Y6  1  0.935293  0.565343  0.565343  1
  Y  Y7  1  0.560525  0.936514  0.936514  1
  Y  Y8  1  0.565343  0.935293  0.565343  1
  Y  Y9  1  0.936514  0.560525  0.936514  1
  Y  Y10  1  0.565343  0.565343  0.935293  1
  Y  Y11  1  0.936514  0.936514  0.560525  1
  Er  Er12  1  0.352920  0.352920  0.352920  1
  Er  Er13  1  0.350084  0.350084  0.946023  1
  Er  Er14  1  0.350084  0.946023  0.350084  1
  Er  Er15  1  0.946023  0.350084  0.350084  1
  Cd  Cd16  1  0.580131  0.580131  0.580131  1
  Cd  Cd17  1  0.581331  0.581331  0.254084  1
  Cd  Cd18  1  0.581331  0.254084  0.581331  1
  Cd  Cd19  1  0.254084  0.581331  0.581331  1
  Pd  Pd20  1  0.146285  0.146285  0.563952  1
  Pd  Pd21  1  0.146285  0.563952  0.146285  1
  Pd  Pd22  1  0.563952  0.146285  0.146285  1
  Ru  Ru23  1  0.145570  0.145570  0.145570  1
