# generated using pymatgen
data_Dy5Ho2CoBr12
_symmetry_space_group_name_H-M   'P 1'
_cell_length_a   9.20817746
_cell_length_b   9.20448933
_cell_length_c   9.20711205
_cell_angle_alpha   106.70515836
_cell_angle_beta   106.71494696
_cell_angle_gamma   106.69840845
_symmetry_Int_Tables_number   1
_chemical_formula_structural   Dy5Ho2CoBr12
_chemical_formula_sum   'Dy5 Ho2 Co1 Br12'
_cell_volume   655.03327175
_cell_formula_units_Z   1
loop_
 _symmetry_equiv_pos_site_id
 _symmetry_equiv_pos_as_xyz
  1  'x, y, z'
loop_
 _atom_site_type_symbol
 _atom_site_label
 _atom_site_symmetry_multiplicity
 _atom_site_fract_x
 _atom_site_fract_y
 _atom_site_fract_z
 _atom_site_occupancy
  Dy  Dy0  1  0.300168  0.095900  0.020759  1
  Dy  Dy1  1  0.096119  0.020651  0.300166  1
  Dy  Dy2  1  0.020830  0.300362  0.096166  1
  Dy  Dy3  1  0.699763  0.903735  0.979131  1
  Dy  Dy4  1  0.903872  0.979018  0.699717  1
  Ho  Ho5  1  0.979318  0.700618  0.904309  1
  Ho  Ho6  1  0.500015  0.499975  0.500013  1
  Co  Co7  1  0.999976  0.999764  0.999917  1
  Br  Br8  1  0.221112  0.069916  0.677094  1
  Br  Br9  1  0.069788  0.677016  0.220667  1
  Br  Br10  1  0.677138  0.221100  0.069913  1
  Br  Br11  1  0.778894  0.930094  0.322896  1
  Br  Br12  1  0.930149  0.323201  0.778985  1
  Br  Br13  1  0.322616  0.778721  0.930047  1
  Br  Br14  1  0.386482  0.460640  0.167811  1
  Br  Br15  1  0.460650  0.167827  0.386498  1
  Br  Br16  1  0.167809  0.386484  0.460625  1
  Br  Br17  1  0.613688  0.539351  0.832169  1
  Br  Br18  1  0.539357  0.832165  0.613502  1
  Br  Br19  1  0.832260  0.613463  0.539614  1
