# generated using pymatgen
data_Tm2Lu2InPt11
_symmetry_space_group_name_H-M   'P 1'
_cell_length_a   4.15685300
_cell_length_b   5.80094450
_cell_length_c   11.58943926
_cell_angle_alpha   88.02820715
_cell_angle_beta   90.00000000
_cell_angle_gamma   90.00000000
_symmetry_Int_Tables_number   1
_chemical_formula_structural   Tm2Lu2InPt11
_chemical_formula_sum   'Tm2 Lu2 In1 Pt11'
_cell_volume   279.29848088
_cell_formula_units_Z   1
loop_
 _symmetry_equiv_pos_site_id
 _symmetry_equiv_pos_as_xyz
  1  'x, y, z'
loop_
 _atom_site_type_symbol
 _atom_site_label
 _atom_site_symmetry_multiplicity
 _atom_site_fract_x
 _atom_site_fract_y
 _atom_site_fract_z
 _atom_site_occupancy
  Tm  Tm0  1  0.500000  0.759038  0.376014  1
  Tm  Tm1  1  0.500000  0.714853  0.862440  1
  Lu  Lu2  1  0.500000  0.285490  0.137798  1
  Lu  Lu3  1  0.500000  0.240990  0.623907  1
  In  In4  1  0.000000  0.000304  0.000142  1
  Pt  Pt5  1  0.000000  0.020230  0.249429  1
  Pt  Pt6  1  0.000000  0.980832  0.750041  1
  Pt  Pt7  1  0.000000  0.499405  0.000321  1
  Pt  Pt8  1  0.000000  0.499518  0.500233  1
  Pt  Pt9  1  0.000000  0.521138  0.249821  1
  Pt  Pt10  1  0.000000  0.477877  0.749687  1
  Pt  Pt11  1  0.500000  0.258422  0.377435  1
  Pt  Pt12  1  0.500000  0.225907  0.879522  1
  Pt  Pt13  1  0.500000  0.773967  0.120475  1
  Pt  Pt14  1  0.500000  0.741583  0.622505  1
  Pt  Pt15  1  0.000000  0.000445  0.500233  1
