# generated using pymatgen
data_Ho16Cd4IrPdRu2
_symmetry_space_group_name_H-M   'P 1'
_cell_length_a   9.60041368
_cell_length_b   9.59500712
_cell_length_c   9.59500669
_cell_angle_alpha   59.94009613
_cell_angle_beta   59.92874154
_cell_angle_gamma   59.92873901
_symmetry_Int_Tables_number   1
_chemical_formula_structural   Ho16Cd4IrPdRu2
_chemical_formula_sum   'Ho16 Cd4 Ir1 Pd1 Ru2'
_cell_volume   624.02263192
_cell_formula_units_Z   1
loop_
 _symmetry_equiv_pos_site_id
 _symmetry_equiv_pos_as_xyz
  1  'x, y, z'
loop_
 _atom_site_type_symbol
 _atom_site_label
 _atom_site_symmetry_multiplicity
 _atom_site_fract_x
 _atom_site_fract_y
 _atom_site_fract_z
 _atom_site_occupancy
  Ho  Ho0  1  0.596690  0.597779  0.597779  1
  Ho  Ho1  1  0.602829  0.604033  0.199594  1
  Ho  Ho2  1  0.602829  0.199594  0.604033  1
  Ho  Ho3  1  0.199898  0.602818  0.602818  1
  Ho  Ho4  1  0.054400  0.440087  0.440087  1
  Ho  Ho5  1  0.437240  0.061349  0.061349  1
  Ho  Ho6  1  0.439715  0.053425  0.439268  1
  Ho  Ho7  1  0.061964  0.437862  0.059760  1
  Ho  Ho8  1  0.439715  0.439268  0.053425  1
  Ho  Ho9  1  0.061964  0.059760  0.437862  1
  Ho  Ho10  1  0.188923  0.811990  0.811990  1
  Ho  Ho11  1  0.815147  0.186922  0.186922  1
  Ho  Ho12  1  0.811348  0.188834  0.813268  1
  Ho  Ho13  1  0.187422  0.815658  0.187722  1
  Ho  Ho14  1  0.811348  0.813268  0.188834  1
  Ho  Ho15  1  0.187422  0.187722  0.815658  1
  Cd  Cd16  1  0.830862  0.831069  0.831069  1
  Cd  Cd17  1  0.830668  0.830781  0.506850  1
  Cd  Cd18  1  0.830668  0.506850  0.830781  1
  Cd  Cd19  1  0.506680  0.830714  0.830714  1
  Ir  Ir20  1  0.825309  0.391207  0.391207  1
  Pd  Pd21  1  0.393094  0.392219  0.392219  1
  Ru  Ru22  1  0.391933  0.391310  0.825484  1
  Ru  Ru23  1  0.391933  0.825484  0.391310  1
