# generated using pymatgen
data_MnAl8Ir4Ru3
_symmetry_space_group_name_H-M   'P 1'
_cell_length_a   6.07302200
_cell_length_b   4.22530000
_cell_length_c   8.51263600
_cell_angle_alpha   90.00000000
_cell_angle_beta   89.99974947
_cell_angle_gamma   90.00000000
_symmetry_Int_Tables_number   1
_chemical_formula_structural   MnAl8Ir4Ru3
_chemical_formula_sum   'Mn1 Al8 Ir4 Ru3'
_cell_volume   218.43713283
_cell_formula_units_Z   1
loop_
 _symmetry_equiv_pos_site_id
 _symmetry_equiv_pos_as_xyz
  1  'x, y, z'
loop_
 _atom_site_type_symbol
 _atom_site_label
 _atom_site_symmetry_multiplicity
 _atom_site_fract_x
 _atom_site_fract_y
 _atom_site_fract_z
 _atom_site_occupancy
  Mn  Mn0  1  0.250124  0.250001  0.125037  1
  Al  Al1  1  0.985836  0.749999  0.125008  1
  Al  Al2  1  0.514187  0.749999  0.125010  1
  Al  Al3  1  0.994061  0.250001  0.380585  1
  Al  Al4  1  0.505923  0.250001  0.380629  1
  Al  Al5  1  0.498903  0.749999  0.625000  1
  Al  Al6  1  0.001062  0.749999  0.625000  1
  Al  Al7  1  0.505957  0.250001  0.869345  1
  Al  Al8  1  0.994034  0.250001  0.869389  1
  Ir  Ir9  1  0.749971  0.250001  0.124998  1
  Ir  Ir10  1  0.249994  0.749999  0.363379  1
  Ir  Ir11  1  0.749988  0.250001  0.624992  1
  Ir  Ir12  1  0.249994  0.749999  0.886625  1
  Ru  Ru13  1  0.750001  0.749999  0.375311  1
  Ru  Ru14  1  0.249968  0.250001  0.624996  1
  Ru  Ru15  1  0.749995  0.749999  0.874693  1
