# generated using pymatgen
data_DyY(Ni3As2)2
_symmetry_space_group_name_H-M   'P 1'
_cell_length_a   3.90263000
_cell_length_b   10.85451200
_cell_length_c   12.73102900
_cell_angle_alpha   89.99897493
_cell_angle_beta   90.00000000
_cell_angle_gamma   90.00000000
_symmetry_Int_Tables_number   1
_chemical_formula_structural   DyY(Ni3As2)2
_chemical_formula_sum   'Dy3 Y3 Ni18 As12'
_cell_volume   539.30095481
_cell_formula_units_Z   3
loop_
 _symmetry_equiv_pos_site_id
 _symmetry_equiv_pos_as_xyz
  1  'x, y, z'
loop_
 _atom_site_type_symbol
 _atom_site_label
 _atom_site_symmetry_multiplicity
 _atom_site_fract_x
 _atom_site_fract_y
 _atom_site_fract_z
 _atom_site_occupancy
  Dy  Dy0  1  0.500000  0.816169  0.206182  1
  Dy  Dy1  1  0.500000  0.183828  0.206186  1
  Dy  Dy2  1  0.000000  0.683831  0.793816  1
  Y  Y3  1  0.000000  0.499998  0.523499  1
  Y  Y4  1  0.500000  0.000003  0.476506  1
  Y  Y5  1  0.000000  0.316168  0.793811  1
  Ni  Ni6  1  0.500000  0.500002  0.156459  1
  Ni  Ni7  1  0.000000  0.999999  0.843541  1
  Ni  Ni8  1  0.500000  0.500007  0.699543  1
  Ni  Ni9  1  0.000000  0.000000  0.300454  1
  Ni  Ni10  1  0.000000  0.500003  0.982757  1
  Ni  Ni11  1  0.500000  0.000000  0.017245  1
  Ni  Ni12  1  0.500000  0.333219  0.997562  1
  Ni  Ni13  1  0.500000  0.666780  0.997561  1
  Ni  Ni14  1  0.000000  0.166779  0.002444  1
  Ni  Ni15  1  0.000000  0.833218  0.002440  1
  Ni  Ni16  1  0.500000  0.303056  0.426395  1
  Ni  Ni17  1  0.500000  0.696943  0.426396  1
  Ni  Ni18  1  0.000000  0.196942  0.573599  1
  Ni  Ni19  1  0.000000  0.803057  0.573603  1
  Ni  Ni20  1  0.500000  0.879869  0.707404  1
  Ni  Ni21  1  0.500000  0.120126  0.707403  1
  Ni  Ni22  1  0.000000  0.620134  0.292596  1
  Ni  Ni23  1  0.000000  0.379867  0.292596  1
  As  As24  1  0.500000  0.500007  0.876713  1
  As  As25  1  0.000000  0.999999  0.123289  1
  As  As26  1  0.500000  0.500000  0.345012  1
  As  As27  1  0.000000  0.000000  0.654987  1
  As  As28  1  0.500000  0.314229  0.613567  1
  As  As29  1  0.500000  0.685771  0.613572  1
  As  As30  1  0.000000  0.185771  0.386430  1
  As  As31  1  0.000000  0.814229  0.386429  1
  As  As32  1  0.500000  0.847267  0.890591  1
  As  As33  1  0.500000  0.152726  0.890594  1
  As  As34  1  0.000000  0.652733  0.109409  1
  As  As35  1  0.000000  0.347268  0.109409  1
