# generated using pymatgen
data_KSrFeO3
_symmetry_space_group_name_H-M   'P 1'
_cell_length_a   6.37393932
_cell_length_b   6.37393999
_cell_length_c   12.39570900
_cell_angle_alpha   90.00000000
_cell_angle_beta   90.00000000
_cell_angle_gamma   125.63718209
_symmetry_Int_Tables_number   1
_chemical_formula_structural   KSrFeO3
_chemical_formula_sum   'K4 Sr4 Fe4 O12'
_cell_volume   409.28866959
_cell_formula_units_Z   4
loop_
 _symmetry_equiv_pos_site_id
 _symmetry_equiv_pos_as_xyz
  1  'x, y, z'
loop_
 _atom_site_type_symbol
 _atom_site_label
 _atom_site_symmetry_multiplicity
 _atom_site_fract_x
 _atom_site_fract_y
 _atom_site_fract_z
 _atom_site_occupancy
  K  K0  1  0.461276  0.538724  0.642574  1
  K  K1  1  0.538724  0.461276  0.357426  1
  K  K2  1  0.038724  0.961276  0.142574  1
  K  K3  1  0.961276  0.038724  0.857426  1
  Sr  Sr4  1  0.642533  0.357467  0.919062  1
  Sr  Sr5  1  0.857467  0.142533  0.419062  1
  Sr  Sr6  1  0.142533  0.857467  0.580938  1
  Sr  Sr7  1  0.357467  0.642533  0.080938  1
  Fe  Fe8  1  0.229937  0.770063  0.339441  1
  Fe  Fe9  1  0.729937  0.270063  0.160559  1
  Fe  Fe10  1  0.770063  0.229937  0.660559  1
  Fe  Fe11  1  0.270063  0.729937  0.839441  1
  O  O12  1  0.967070  0.532930  0.750000  1
  O  O13  1  0.532930  0.967070  0.250000  1
  O  O14  1  0.032930  0.467070  0.250000  1
  O  O15  1  0.467070  0.032930  0.750000  1
  O  O16  1  0.429544  0.570456  0.880175  1
  O  O17  1  0.570456  0.429544  0.119825  1
  O  O18  1  0.070456  0.929544  0.380175  1
  O  O19  1  0.674266  0.325734  0.537609  1
  O  O20  1  0.174266  0.825734  0.962391  1
  O  O21  1  0.825734  0.174266  0.037609  1
  O  O22  1  0.325734  0.674266  0.462391  1
  O  O23  1  0.929544  0.070456  0.619825  1
