# generated using pymatgen
data_Ho8Lu12Si15Sn
_symmetry_space_group_name_H-M   'P 1'
_cell_length_a   7.25939000
_cell_length_b   7.64798163
_cell_length_c   14.28834800
_cell_angle_alpha   90.00000000
_cell_angle_beta   90.00000000
_cell_angle_gamma   90.17489965
_symmetry_Int_Tables_number   1
_chemical_formula_structural   Ho8Lu12Si15Sn
_chemical_formula_sum   'Ho8 Lu12 Si15 Sn1'
_cell_volume   793.28083248
_cell_formula_units_Z   1
loop_
 _symmetry_equiv_pos_site_id
 _symmetry_equiv_pos_as_xyz
  1  'x, y, z'
loop_
 _atom_site_type_symbol
 _atom_site_label
 _atom_site_symmetry_multiplicity
 _atom_site_fract_x
 _atom_site_fract_y
 _atom_site_fract_z
 _atom_site_occupancy
  Ho  Ho0  1  0.019812  0.178685  0.097228  1
  Ho  Ho1  1  0.979503  0.812485  0.906152  1
  Ho  Ho2  1  0.480210  0.678488  0.905478  1
  Ho  Ho3  1  0.979503  0.812485  0.593848  1
  Ho  Ho4  1  0.518986  0.319448  0.098239  1
  Ho  Ho5  1  0.019812  0.178685  0.402772  1
  Ho  Ho6  1  0.518986  0.319448  0.401761  1
  Ho  Ho7  1  0.480210  0.678488  0.594522  1
  Lu  Lu8  1  0.152267  0.511923  0.750000  1
  Lu  Lu9  1  0.846654  0.490071  0.250000  1
  Lu  Lu10  1  0.344421  0.011413  0.250000  1
  Lu  Lu11  1  0.645817  0.985580  0.750000  1
  Lu  Lu12  1  0.336836  0.185338  0.620132  1
  Lu  Lu13  1  0.675214  0.819818  0.374919  1
  Lu  Lu14  1  0.179193  0.677148  0.375112  1
  Lu  Lu15  1  0.675214  0.819818  0.125081  1
  Lu  Lu16  1  0.808763  0.332792  0.618011  1
  Lu  Lu17  1  0.336836  0.185338  0.879868  1
  Lu  Lu18  1  0.808763  0.332792  0.881989  1
  Lu  Lu19  1  0.179193  0.677148  0.124888  1
  Si  Si20  1  0.974537  0.893562  0.250000  1
  Si  Si21  1  0.475436  0.604000  0.250000  1
  Si  Si22  1  0.523956  0.398079  0.750000  1
  Si  Si23  1  0.283515  0.861269  0.750000  1
  Si  Si24  1  0.724678  0.128654  0.250000  1
  Si  Si25  1  0.223458  0.369182  0.250000  1
  Si  Si26  1  0.773665  0.630938  0.750000  1
  Si  Si27  1  0.153058  0.468644  0.539151  1
  Si  Si28  1  0.847352  0.530354  0.456012  1
  Si  Si29  1  0.346632  0.967074  0.460265  1
  Si  Si30  1  0.847352  0.530354  0.043988  1
  Si  Si31  1  0.658183  0.030692  0.537438  1
  Si  Si32  1  0.153058  0.468644  0.960849  1
  Si  Si33  1  0.658183  0.030692  0.962562  1
  Si  Si34  1  0.346632  0.967074  0.039735  1
  Sn  Sn35  1  0.024115  0.113393  0.750000  1
