# generated using pymatgen
data_Ho11Sc(Si3Rh)4
_symmetry_space_group_name_H-M   'P 1'
_cell_length_a   4.18989100
_cell_length_b   10.68079917
_cell_length_c   12.26851201
_cell_angle_alpha   89.87346943
_cell_angle_beta   90.00000000
_cell_angle_gamma   90.00000000
_symmetry_Int_Tables_number   1
_chemical_formula_structural   Ho11Sc(Si3Rh)4
_chemical_formula_sum   'Ho11 Sc1 Si12 Rh4'
_cell_volume   549.03155750
_cell_formula_units_Z   1
loop_
 _symmetry_equiv_pos_site_id
 _symmetry_equiv_pos_as_xyz
  1  'x, y, z'
loop_
 _atom_site_type_symbol
 _atom_site_label
 _atom_site_symmetry_multiplicity
 _atom_site_fract_x
 _atom_site_fract_y
 _atom_site_fract_z
 _atom_site_occupancy
  Ho  Ho0  1  0.250000  0.880547  0.018730  1
  Ho  Ho1  1  0.250000  0.620049  0.519602  1
  Ho  Ho2  1  0.750000  0.120553  0.977320  1
  Ho  Ho3  1  0.750000  0.377012  0.482320  1
  Ho  Ho4  1  0.250000  0.922401  0.604156  1
  Ho  Ho5  1  0.250000  0.579367  0.103631  1
  Ho  Ho6  1  0.750000  0.079243  0.398510  1
  Ho  Ho7  1  0.750000  0.419497  0.895168  1
  Ho  Ho8  1  0.250000  0.660714  0.800746  1
  Ho  Ho9  1  0.250000  0.840436  0.301038  1
  Ho  Ho10  1  0.750000  0.338077  0.199085  1
  Sc  Sc11  1  0.750000  0.161671  0.701849  1
  Si  Si12  1  0.250000  0.017318  0.820288  1
  Si  Si13  1  0.250000  0.484611  0.322628  1
  Si  Si14  1  0.750000  0.986584  0.177269  1
  Si  Si15  1  0.750000  0.515098  0.677258  1
  Si  Si16  1  0.250000  0.245552  0.836556  1
  Si  Si17  1  0.250000  0.251926  0.344046  1
  Si  Si18  1  0.750000  0.753054  0.158106  1
  Si  Si19  1  0.750000  0.747304  0.657837  1
  Si  Si20  1  0.250000  0.197511  0.549795  1
  Si  Si21  1  0.250000  0.299882  0.039514  1
  Si  Si22  1  0.750000  0.800437  0.459001  1
  Si  Si23  1  0.750000  0.699766  0.958274  1
  Rh  Rh24  1  0.250000  0.389423  0.681802  1
  Rh  Rh25  1  0.250000  0.109643  0.182560  1
  Rh  Rh26  1  0.750000  0.609075  0.317891  1
  Rh  Rh27  1  0.750000  0.893251  0.815020  1
