# generated using pymatgen
data_Yb2Ce(RhPb)3
_symmetry_space_group_name_H-M   'P 1'
_cell_length_a   7.67072281
_cell_length_b   8.05035430
_cell_length_c   3.88830300
_cell_angle_alpha   90.00000000
_cell_angle_beta   90.00000000
_cell_angle_gamma   121.65110075
_symmetry_Int_Tables_number   1
_chemical_formula_structural   Yb2Ce(RhPb)3
_chemical_formula_sum   'Yb2 Ce1 Rh3 Pb3'
_cell_volume   204.39639683
_cell_formula_units_Z   1
loop_
 _symmetry_equiv_pos_site_id
 _symmetry_equiv_pos_as_xyz
  1  'x, y, z'
loop_
 _atom_site_type_symbol
 _atom_site_label
 _atom_site_symmetry_multiplicity
 _atom_site_fract_x
 _atom_site_fract_y
 _atom_site_fract_z
 _atom_site_occupancy
  Yb  Yb0  1  0.403353  0.398594  0.500000  1
  Yb  Yb1  1  0.596647  0.995241  0.500000  1
  Ce  Ce2  1  0.000000  0.587880  0.500000  1
  Rh  Rh3  1  0.000000  0.988198  0.500000  1
  Rh  Rh4  1  0.704989  0.368167  0.000000  1
  Rh  Rh5  1  0.295011  0.663179  0.000000  1
  Pb  Pb6  1  0.719584  0.734083  0.000000  1
  Pb  Pb7  1  0.280416  0.014498  0.000000  1
  Pb  Pb8  1  0.000000  0.250159  0.000000  1
