# generated using pymatgen
data_Ca2SmUO6
_symmetry_space_group_name_H-M   'P 1'
_cell_length_a   6.85275362
_cell_length_b   6.83536022
_cell_length_c   6.82231499
_cell_angle_alpha   91.65435744
_cell_angle_beta   91.35714485
_cell_angle_gamma   91.18572602
_symmetry_Int_Tables_number   1
_chemical_formula_structural   Ca2SmUO6
_chemical_formula_sum   'Ca4 Sm2 U2 O12'
_cell_volume   319.26844148
_cell_formula_units_Z   2
loop_
 _symmetry_equiv_pos_site_id
 _symmetry_equiv_pos_as_xyz
  1  'x, y, z'
loop_
 _atom_site_type_symbol
 _atom_site_label
 _atom_site_symmetry_multiplicity
 _atom_site_fract_x
 _atom_site_fract_y
 _atom_site_fract_z
 _atom_site_occupancy
  Ca  Ca0  1  0.552750  0.250781  0.059368  1
  Ca  Ca1  1  0.252230  0.059188  0.557493  1
  Ca  Ca2  1  0.063542  0.556498  0.249941  1
  Ca  Ca3  1  0.445799  0.750436  0.941077  1
  Sm  Sm4  1  0.937860  0.443341  0.749420  1
  Sm  Sm5  1  0.748250  0.938598  0.441507  1
  U  U6  1  0.002997  0.999545  0.001818  1
  U  U7  1  0.494730  0.498445  0.498277  1
  O  O8  1  0.294181  0.063277  0.924985  1
  O  O9  1  0.061128  0.921029  0.302653  1
  O  O10  1  0.924911  0.300432  0.060329  1
  O  O11  1  0.706835  0.935739  0.086463  1
  O  O12  1  0.929799  0.085739  0.696123  1
  O  O13  1  0.077231  0.696811  0.929955  1
  O  O14  1  0.193618  0.408022  0.539796  1
  O  O15  1  0.412307  0.541697  0.203554  1
  O  O16  1  0.467063  0.801726  0.589116  1
  O  O17  1  0.594226  0.457162  0.794987  1
  O  O18  1  0.800826  0.594605  0.465203  1
  O  O19  1  0.539715  0.196931  0.407932  1
