# generated using pymatgen
data_Ta3NbZn2(Co5B2)2
_symmetry_space_group_name_H-M   'P 1'
_cell_length_a   8.55468745
_cell_length_b   8.55468745
_cell_length_c   3.01979500
_cell_angle_alpha   90.00000000
_cell_angle_beta   90.00000000
_cell_angle_gamma   89.87068293
_symmetry_Int_Tables_number   1
_chemical_formula_structural   Ta3NbZn2(Co5B2)2
_chemical_formula_sum   'Ta3 Nb1 Zn2 Co10 B4'
_cell_volume   220.99612017
_cell_formula_units_Z   1
loop_
 _symmetry_equiv_pos_site_id
 _symmetry_equiv_pos_as_xyz
  1  'x, y, z'
loop_
 _atom_site_type_symbol
 _atom_site_label
 _atom_site_symmetry_multiplicity
 _atom_site_fract_x
 _atom_site_fract_y
 _atom_site_fract_z
 _atom_site_occupancy
  Ta  Ta0  1  0.177087  0.677087  0.000000  1
  Ta  Ta1  1  0.322683  0.176823  0.000000  1
  Ta  Ta2  1  0.676823  0.822683  0.000000  1
  Nb  Nb3  1  0.822703  0.322703  0.000000  1
  Zn  Zn4  1  0.500681  0.499886  0.000000  1
  Zn  Zn5  1  0.999886  0.000681  0.000000  1
  Co  Co6  1  0.499586  0.999586  0.500000  1
  Co  Co7  1  0.000155  0.500155  0.500000  1
  Co  Co8  1  0.722403  0.569979  0.500000  1
  Co  Co9  1  0.277885  0.431780  0.500000  1
  Co  Co10  1  0.222398  0.931674  0.500000  1
  Co  Co11  1  0.776726  0.066959  0.500000  1
  Co  Co12  1  0.431674  0.722398  0.500000  1
  Co  Co13  1  0.566959  0.276726  0.500000  1
  Co  Co14  1  0.069979  0.222403  0.500000  1
  Co  Co15  1  0.931780  0.777885  0.500000  1
  B  B16  1  0.619764  0.119764  0.000000  1
  B  B17  1  0.379306  0.879306  0.000000  1
  B  B18  1  0.121284  0.380239  0.000000  1
  B  B19  1  0.880239  0.621284  0.000000  1
