# generated using pymatgen
data_HoTm4ReOsC7
_symmetry_space_group_name_H-M   'P 1'
_cell_length_a   8.16380108
_cell_length_b   8.16380200
_cell_length_c   3.42821800
_cell_angle_alpha   90.00000000
_cell_angle_beta   90.00000000
_cell_angle_gamma   121.85395395
_symmetry_Int_Tables_number   1
_chemical_formula_structural   HoTm4ReOsC7
_chemical_formula_sum   'Ho1 Tm4 Re1 Os1 C7'
_cell_volume   194.07230698
_cell_formula_units_Z   1
loop_
 _symmetry_equiv_pos_site_id
 _symmetry_equiv_pos_as_xyz
  1  'x, y, z'
loop_
 _atom_site_type_symbol
 _atom_site_label
 _atom_site_symmetry_multiplicity
 _atom_site_fract_x
 _atom_site_fract_y
 _atom_site_fract_z
 _atom_site_occupancy
  Ho  Ho0  1  0.500767  0.499233  0.000000  1
  Tm  Tm1  1  0.076883  0.337705  0.500000  1
  Tm  Tm2  1  0.921584  0.661597  0.500000  1
  Tm  Tm3  1  0.662295  0.923117  0.500000  1
  Tm  Tm4  1  0.338403  0.078416  0.500000  1
  Re  Re5  1  0.284265  0.715735  0.000000  1
  Os  Os6  1  0.714063  0.285937  0.000000  1
  C  C7  1  0.630097  0.369903  0.500000  1
  C  C8  1  0.374841  0.625159  0.500000  1
  C  C9  1  0.999423  0.000577  0.000000  1
  C  C10  1  0.170755  0.171432  0.000000  1
  C  C11  1  0.828568  0.829245  0.000000  1
  C  C12  1  0.999226  0.501169  0.000000  1
  C  C13  1  0.498831  0.000774  0.000000  1
