# generated using pymatgen
data_NaEu3(Rh2O7)2
_symmetry_space_group_name_H-M   'P 1'
_cell_length_a   7.15239992
_cell_length_b   7.13534827
_cell_length_c   7.15240000
_cell_angle_alpha   59.92091602
_cell_angle_beta   59.99999961
_cell_angle_gamma   59.92092419
_symmetry_Int_Tables_number   1
_chemical_formula_structural   NaEu3(Rh2O7)2
_chemical_formula_sum   'Na1 Eu3 Rh4 O14'
_cell_volume   257.80041724
_cell_formula_units_Z   1
loop_
 _symmetry_equiv_pos_site_id
 _symmetry_equiv_pos_as_xyz
  1  'x, y, z'
loop_
 _atom_site_type_symbol
 _atom_site_label
 _atom_site_symmetry_multiplicity
 _atom_site_fract_x
 _atom_site_fract_y
 _atom_site_fract_z
 _atom_site_occupancy
  Na  Na0  1  0.125000  0.625000  0.125000  1
  Eu  Eu1  1  0.125000  0.125000  0.625000  1
  Eu  Eu2  1  0.625000  0.125000  0.125000  1
  Eu  Eu3  1  0.125000  0.125000  0.125000  1
  Rh  Rh4  1  0.625000  0.625000  0.625000  1
  Rh  Rh5  1  0.125000  0.625000  0.625000  1
  Rh  Rh6  1  0.625000  0.625000  0.125000  1
  Rh  Rh7  1  0.625000  0.125000  0.625000  1
  O  O8  1  0.296951  0.706904  0.699194  1
  O  O9  1  0.541925  0.958746  0.957404  1
  O  O10  1  0.699194  0.706904  0.296951  1
  O  O11  1  0.292596  0.291254  0.708075  1
  O  O12  1  0.999196  0.002412  0.999196  1
  O  O13  1  0.296951  0.706904  0.296951  1
  O  O14  1  0.708075  0.291254  0.708075  1
  O  O15  1  0.953049  0.543096  0.953049  1
  O  O16  1  0.550806  0.543096  0.953049  1
  O  O17  1  0.957404  0.958746  0.541925  1
  O  O18  1  0.250804  0.247588  0.250804  1
  O  O19  1  0.541925  0.958746  0.541925  1
  O  O20  1  0.708075  0.291254  0.292596  1
  O  O21  1  0.953049  0.543096  0.550806  1
