# generated using pymatgen
data_Pr4Nd4Be3Si12Au
_symmetry_space_group_name_H-M   'P 1'
_cell_length_a   8.07216003
_cell_length_b   8.07369999
_cell_length_c   8.64590102
_cell_angle_alpha   89.99284912
_cell_angle_beta   90.00677884
_cell_angle_gamma   119.99988386
_symmetry_Int_Tables_number   1
_chemical_formula_structural   Pr4Nd4Be3Si12Au
_chemical_formula_sum   'Pr4 Nd4 Be3 Si12 Au1'
_cell_volume   487.98195809
_cell_formula_units_Z   1
loop_
 _symmetry_equiv_pos_site_id
 _symmetry_equiv_pos_as_xyz
  1  'x, y, z'
loop_
 _atom_site_type_symbol
 _atom_site_label
 _atom_site_symmetry_multiplicity
 _atom_site_fract_x
 _atom_site_fract_y
 _atom_site_fract_z
 _atom_site_occupancy
  Pr  Pr0  1  0.497775  0.995576  0.746180  1
  Pr  Pr1  1  0.497962  0.995923  0.253797  1
  Pr  Pr2  1  0.000176  0.000317  0.748547  1
  Pr  Pr3  1  0.000164  0.000294  0.251447  1
  Nd  Nd4  1  0.497857  0.502071  0.746077  1
  Nd  Nd5  1  0.498028  0.501888  0.253888  1
  Nd  Nd6  1  0.004200  0.502075  0.746090  1
  Nd  Nd7  1  0.003862  0.501888  0.253883  1
  Be  Be8  1  0.333003  0.666033  0.000468  1
  Be  Be9  1  0.332950  0.665929  0.499563  1
  Be  Be10  1  0.666875  0.333760  0.500302  1
  Si  Si11  1  0.837775  0.162941  0.000000  1
  Si  Si12  1  0.172150  0.827125  0.000048  1
  Si  Si13  1  0.325224  0.162955  0.000003  1
  Si  Si14  1  0.171871  0.826890  0.499723  1
  Si  Si15  1  0.654967  0.827135  0.000036  1
  Si  Si16  1  0.828505  0.172631  0.500272  1
  Si  Si17  1  0.837386  0.674739  0.000009  1
  Si  Si18  1  0.655001  0.826881  0.499722  1
  Si  Si19  1  0.172732  0.345487  0.000051  1
  Si  Si20  1  0.344149  0.172644  0.500269  1
  Si  Si21  1  0.172805  0.345617  0.499708  1
  Si  Si22  1  0.827614  0.655219  0.500267  1
  Au  Au23  1  0.666971  0.333975  0.999649  1
