# generated using pymatgen
data_Hf2TaNbPb4O13
_symmetry_space_group_name_H-M   'P 1'
_cell_length_a   7.62220762
_cell_length_b   7.61719328
_cell_length_c   7.62220746
_cell_angle_alpha   120.01003501
_cell_angle_beta   119.98431181
_cell_angle_gamma   90.02383570
_symmetry_Int_Tables_number   1
_chemical_formula_structural   Hf2TaNbPb4O13
_chemical_formula_sum   'Hf2 Ta1 Nb1 Pb4 O13'
_cell_volume   312.88749156
_cell_formula_units_Z   1
loop_
 _symmetry_equiv_pos_site_id
 _symmetry_equiv_pos_as_xyz
  1  'x, y, z'
loop_
 _atom_site_type_symbol
 _atom_site_label
 _atom_site_symmetry_multiplicity
 _atom_site_fract_x
 _atom_site_fract_y
 _atom_site_fract_z
 _atom_site_occupancy
  Hf  Hf0  1  0.748903  0.999627  0.749534  1
  Hf  Hf1  1  0.250094  0.999627  0.250724  1
  Ta  Ta2  1  0.749224  0.498625  0.749404  1
  Nb  Nb3  1  0.749105  0.999854  0.250754  1
  Pb  Pb4  1  0.249166  0.499069  0.749936  1
  Pb  Pb5  1  0.749136  0.499067  0.249903  1
  Pb  Pb6  1  0.249319  0.497456  0.248135  1
  Pb  Pb7  1  0.249452  0.001458  0.752004  1
  O  O8  1  0.079936  0.080022  0.000084  1
  O  O9  1  0.686560  0.685150  0.998590  1
  O  O10  1  0.682712  0.076933  0.010802  1
  O  O11  1  0.064094  0.671653  0.988253  1
  O  O12  1  0.066132  0.076936  0.394222  1
  O  O13  1  0.683398  0.671653  0.607558  1
  O  O14  1  0.424842  0.924662  0.499819  1
  O  O15  1  0.811575  0.312761  0.501185  1
  O  O16  1  0.813949  0.925963  0.489072  1
  O  O17  1  0.438506  0.324947  0.511519  1
  O  O18  1  0.436890  0.925960  0.112008  1
  O  O19  1  0.813430  0.324946  0.886442  1
  O  O20  1  0.378578  0.378631  0.000052  1
