# generated using pymatgen
data_DyLu19(FeBi5)2
_symmetry_space_group_name_H-M   'P 1'
_cell_length_a   7.91141129
_cell_length_b   9.28695200
_cell_length_c   11.89251100
_cell_angle_alpha   90.00000000
_cell_angle_beta   89.95640214
_cell_angle_gamma   90.00000000
_symmetry_Int_Tables_number   1
_chemical_formula_structural   DyLu19(FeBi5)2
_chemical_formula_sum   'Dy1 Lu19 Fe2 Bi10'
_cell_volume   873.77698170
_cell_formula_units_Z   1
loop_
 _symmetry_equiv_pos_site_id
 _symmetry_equiv_pos_as_xyz
  1  'x, y, z'
loop_
 _atom_site_type_symbol
 _atom_site_label
 _atom_site_symmetry_multiplicity
 _atom_site_fract_x
 _atom_site_fract_y
 _atom_site_fract_z
 _atom_site_occupancy
  Dy  Dy0  1  0.909823  0.500000  0.218732  1
  Lu  Lu1  1  0.429428  0.174614  0.563300  1
  Lu  Lu2  1  0.571398  0.825219  0.063447  1
  Lu  Lu3  1  0.074807  0.732310  0.436707  1
  Lu  Lu4  1  0.925481  0.268807  0.936153  1
  Lu  Lu5  1  0.074807  0.267690  0.436707  1
  Lu  Lu6  1  0.925481  0.731193  0.936153  1
  Lu  Lu7  1  0.429428  0.825386  0.563300  1
  Lu  Lu8  1  0.571398  0.174781  0.063447  1
  Lu  Lu9  1  0.570484  0.500000  0.769661  1
  Lu  Lu10  1  0.428117  0.500000  0.270973  1
  Lu  Lu11  1  0.907329  0.000000  0.201661  1
  Lu  Lu12  1  0.092496  0.000000  0.701774  1
  Lu  Lu13  1  0.255026  0.500000  0.991989  1
  Lu  Lu14  1  0.744304  0.500000  0.493060  1
  Lu  Lu15  1  0.190170  0.000000  0.994160  1
  Lu  Lu16  1  0.809443  0.000000  0.494884  1
  Lu  Lu17  1  0.088434  0.500000  0.721172  1
  Lu  Lu18  1  0.364636  0.000000  0.311160  1
  Lu  Lu19  1  0.636311  0.000000  0.811139  1
  Fe  Fe20  1  0.173510  0.000000  0.489598  1
  Fe  Fe21  1  0.827561  0.000000  0.989341  1
  Bi  Bi22  1  0.813937  0.739900  0.670937  1
  Bi  Bi23  1  0.188681  0.259159  0.170678  1
  Bi  Bi24  1  0.677459  0.240743  0.326791  1
  Bi  Bi25  1  0.321546  0.758885  0.825755  1
  Bi  Bi26  1  0.677459  0.759257  0.326791  1
  Bi  Bi27  1  0.321546  0.241115  0.825755  1
  Bi  Bi28  1  0.813937  0.260100  0.670937  1
  Bi  Bi29  1  0.188681  0.740841  0.170678  1
  Bi  Bi30  1  0.347847  0.500000  0.528035  1
  Bi  Bi31  1  0.649033  0.500000  0.025124  1
