# generated using pymatgen
data_YbErNpO6
_symmetry_space_group_name_H-M   'P 1'
_cell_length_a   5.51592600
_cell_length_b   7.78212968
_cell_length_c   11.67767355
_cell_angle_alpha   74.18830185
_cell_angle_beta   90.00000000
_cell_angle_gamma   90.00000000
_symmetry_Int_Tables_number   1
_chemical_formula_structural   YbErNpO6
_chemical_formula_sum   'Yb4 Er4 Np4 O24'
_cell_volume   482.30481554
_cell_formula_units_Z   4
loop_
 _symmetry_equiv_pos_site_id
 _symmetry_equiv_pos_as_xyz
  1  'x, y, z'
loop_
 _atom_site_type_symbol
 _atom_site_label
 _atom_site_symmetry_multiplicity
 _atom_site_fract_x
 _atom_site_fract_y
 _atom_site_fract_z
 _atom_site_occupancy
  Yb  Yb0  1  0.692822  0.500000  0.250000  1
  Yb  Yb1  1  0.307178  0.500000  0.750000  1
  Yb  Yb2  1  0.743682  0.000000  0.250000  1
  Yb  Yb3  1  0.256318  0.000000  0.750000  1
  Er  Er4  1  0.185948  0.205712  0.419105  1
  Er  Er5  1  0.185948  0.794288  0.080895  1
  Er  Er6  1  0.814052  0.794288  0.580895  1
  Er  Er7  1  0.814052  0.205712  0.919105  1
  Np  Np8  1  0.253337  0.277525  0.114068  1
  Np  Np9  1  0.253337  0.722475  0.385932  1
  Np  Np10  1  0.746663  0.722475  0.885932  1
  Np  Np11  1  0.746663  0.277525  0.614068  1
  O  O12  1  0.444552  0.201820  0.270308  1
  O  O13  1  0.444552  0.798180  0.229692  1
  O  O14  1  0.555448  0.798180  0.729692  1
  O  O15  1  0.555448  0.201820  0.770308  1
  O  O16  1  0.044601  0.059200  0.100172  1
  O  O17  1  0.044601  0.940800  0.399828  1
  O  O18  1  0.955399  0.940800  0.899828  1
  O  O19  1  0.955399  0.059200  0.600172  1
  O  O20  1  0.980077  0.288038  0.230885  1
  O  O21  1  0.980077  0.711962  0.269115  1
  O  O22  1  0.019923  0.711962  0.769115  1
  O  O23  1  0.019923  0.288038  0.730885  1
  O  O24  1  0.879986  0.372323  0.448118  1
  O  O25  1  0.879986  0.627677  0.051882  1
  O  O26  1  0.120014  0.627677  0.551882  1
  O  O27  1  0.120014  0.372323  0.948118  1
  O  O28  1  0.620276  0.518426  0.611330  1
  O  O29  1  0.620276  0.481574  0.888670  1
  O  O30  1  0.379724  0.481574  0.388670  1
  O  O31  1  0.379724  0.518426  0.111330  1
  O  O32  1  0.461385  0.153909  0.562530  1
  O  O33  1  0.461385  0.846091  0.937470  1
  O  O34  1  0.538615  0.846091  0.437470  1
  O  O35  1  0.538615  0.153909  0.062530  1
