# generated using pymatgen
data_YbEu5(Ni7B2)2
_symmetry_space_group_name_H-M   'P 1'
_cell_length_a   5.08768200
_cell_length_b   5.08768262
_cell_length_c   14.34180300
_cell_angle_alpha   90.00000000
_cell_angle_beta   90.00000000
_cell_angle_gamma   120.00000896
_symmetry_Int_Tables_number   1
_chemical_formula_structural   YbEu5(Ni7B2)2
_chemical_formula_sum   'Yb1 Eu5 Ni14 B4'
_cell_volume   321.49506819
_cell_formula_units_Z   1
loop_
 _symmetry_equiv_pos_site_id
 _symmetry_equiv_pos_as_xyz
  1  'x, y, z'
loop_
 _atom_site_type_symbol
 _atom_site_label
 _atom_site_symmetry_multiplicity
 _atom_site_fract_x
 _atom_site_fract_y
 _atom_site_fract_z
 _atom_site_occupancy
  Yb  Yb0  1  0.333333  0.666667  0.250000  1
  Eu  Eu1  1  0.666667  0.333333  0.532021  1
  Eu  Eu2  1  0.333333  0.666667  0.463963  1
  Eu  Eu3  1  0.333333  0.666667  0.036037  1
  Eu  Eu4  1  0.666667  0.333333  0.750000  1
  Eu  Eu5  1  0.666667  0.333333  0.967979  1
  Ni  Ni6  1  0.165011  0.330022  0.651719  1
  Ni  Ni7  1  0.329953  0.164976  0.345576  1
  Ni  Ni8  1  0.329953  0.164976  0.154424  1
  Ni  Ni9  1  0.165011  0.834989  0.848281  1
  Ni  Ni10  1  0.835024  0.670047  0.345576  1
  Ni  Ni11  1  0.835024  0.164976  0.154424  1
  Ni  Ni12  1  0.669978  0.834989  0.651719  1
  Ni  Ni13  1  0.669978  0.834989  0.848281  1
  Ni  Ni14  1  0.165011  0.834989  0.651719  1
  Ni  Ni15  1  0.835024  0.670047  0.154424  1
  Ni  Ni16  1  0.000000  0.000000  0.000750  1
  Ni  Ni17  1  0.165011  0.330022  0.848281  1
  Ni  Ni18  1  0.835024  0.164976  0.345576  1
  Ni  Ni19  1  0.000000  0.000000  0.499250  1
  B  B20  1  0.666667  0.333333  0.250000  1
  B  B21  1  0.000000  0.000000  0.750000  1
  B  B22  1  0.333333  0.666667  0.750000  1
  B  B23  1  0.000000  0.000000  0.250000  1
