# generated using pymatgen
data_Ta6Al4CN
_symmetry_space_group_name_H-M   'P 1'
_cell_length_a   7.06918128
_cell_length_b   7.06918128
_cell_length_c   7.06887300
_cell_angle_alpha   90.00000000
_cell_angle_beta   90.00000000
_cell_angle_gamma   90.12613018
_symmetry_Int_Tables_number   1
_chemical_formula_structural   Ta6Al4CN
_chemical_formula_sum   'Ta12 Al8 C2 N2'
_cell_volume   353.25422480
_cell_formula_units_Z   2
loop_
 _symmetry_equiv_pos_site_id
 _symmetry_equiv_pos_as_xyz
  1  'x, y, z'
loop_
 _atom_site_type_symbol
 _atom_site_label
 _atom_site_symmetry_multiplicity
 _atom_site_fract_x
 _atom_site_fract_y
 _atom_site_fract_z
 _atom_site_occupancy
  Ta  Ta0  1  0.794476  0.955524  0.375000  1
  Ta  Ta1  1  0.705524  0.044476  0.875000  1
  Ta  Ta2  1  0.204665  0.454665  0.125000  1
  Ta  Ta3  1  0.295335  0.545335  0.625000  1
  Ta  Ta4  1  0.955035  0.373082  0.795071  1
  Ta  Ta5  1  0.045347  0.876787  0.704695  1
  Ta  Ta6  1  0.454653  0.123213  0.204695  1
  Ta  Ta7  1  0.544965  0.626918  0.295071  1
  Ta  Ta8  1  0.376918  0.794965  0.954929  1
  Ta  Ta9  1  0.873213  0.704653  0.045305  1
  Ta  Ta10  1  0.123082  0.205035  0.454929  1
  Ta  Ta11  1  0.626787  0.295347  0.545305  1
  Al  Al12  1  0.178944  0.820890  0.321023  1
  Al  Al13  1  0.321056  0.179110  0.821023  1
  Al  Al14  1  0.820451  0.320843  0.179480  1
  Al  Al15  1  0.679549  0.679157  0.679480  1
  Al  Al16  1  0.570890  0.428944  0.928977  1
  Al  Al17  1  0.429157  0.929549  0.570520  1
  Al  Al18  1  0.929110  0.571056  0.428977  1
  Al  Al19  1  0.070843  0.070451  0.070520  1
  C  C20  1  0.123482  0.626518  0.875000  1
  C  C21  1  0.376518  0.373482  0.375000  1
  N  N22  1  0.873345  0.123345  0.625000  1
  N  N23  1  0.626655  0.876655  0.125000  1
