# generated using pymatgen
data_BaCrAs2Ir
_symmetry_space_group_name_H-M   'P 1'
_cell_length_a   7.17811467
_cell_length_b   7.17811480
_cell_length_c   7.17811496
_cell_angle_alpha   146.93191291
_cell_angle_beta   146.93191576
_cell_angle_gamma   47.46460917
_symmetry_Int_Tables_number   1
_chemical_formula_structural   BaCrAs2Ir
_chemical_formula_sum   'Ba1 Cr1 As2 Ir1'
_cell_volume   109.68394548
_cell_formula_units_Z   1
loop_
 _symmetry_equiv_pos_site_id
 _symmetry_equiv_pos_as_xyz
  1  'x, y, z'
loop_
 _atom_site_type_symbol
 _atom_site_label
 _atom_site_symmetry_multiplicity
 _atom_site_fract_x
 _atom_site_fract_y
 _atom_site_fract_z
 _atom_site_occupancy
  Ba  Ba0  1  0.000000  0.000000  0.000000  1
  Cr  Cr1  1  0.250000  0.750000  0.500000  1
  As  As2  1  0.356750  0.356750  0.000000  1
  As  As3  1  0.643250  0.643250  0.000000  1
  Ir  Ir4  1  0.750000  0.250000  0.500000  1
