# generated using pymatgen
data_TbY15(In3Os)2
_symmetry_space_group_name_H-M   'P 1'
_cell_length_a   10.42621942
_cell_length_b   10.42623034
_cell_length_c   7.14852302
_cell_angle_alpha   90.10523178
_cell_angle_beta   89.89488821
_cell_angle_gamma   119.94901050
_symmetry_Int_Tables_number   1
_chemical_formula_structural   TbY15(In3Os)2
_chemical_formula_sum   'Tb1 Y15 In6 Os2'
_cell_volume   673.32240199
_cell_formula_units_Z   1
loop_
 _symmetry_equiv_pos_site_id
 _symmetry_equiv_pos_as_xyz
  1  'x, y, z'
loop_
 _atom_site_type_symbol
 _atom_site_label
 _atom_site_symmetry_multiplicity
 _atom_site_fract_x
 _atom_site_fract_y
 _atom_site_fract_z
 _atom_site_occupancy
  Tb  Tb0  1  0.465939  0.534061  0.480953  1
  Y  Y1  1  0.067304  0.533754  0.480169  1
  Y  Y2  1  0.466245  0.932695  0.480169  1
  Y  Y3  1  0.533811  0.466190  0.980314  1
  Y  Y4  1  0.932388  0.466236  0.980198  1
  Y  Y5  1  0.533765  0.067613  0.980198  1
  Y  Y6  1  0.822932  0.177068  0.275521  1
  Y  Y7  1  0.354065  0.177057  0.275518  1
  Y  Y8  1  0.822943  0.645934  0.275519  1
  Y  Y9  1  0.177119  0.822880  0.775548  1
  Y  Y10  1  0.646176  0.822984  0.775475  1
  Y  Y11  1  0.177017  0.353825  0.775475  1
  Y  Y12  1  0.333261  0.666738  0.104321  1
  Y  Y13  1  0.666693  0.333307  0.604336  1
  Y  Y14  1  0.000040  0.999959  0.496774  1
  Y  Y15  1  0.000020  0.999980  0.996678  1
  In  In16  1  0.162775  0.837225  0.232629  1
  In  In17  1  0.674497  0.837326  0.232610  1
  In  In18  1  0.162674  0.325503  0.232611  1
  In  In19  1  0.837215  0.162785  0.732703  1
  In  In20  1  0.325539  0.162709  0.732623  1
  In  In21  1  0.837291  0.674461  0.732622  1
  Os  Os22  1  0.333607  0.666395  0.705569  1
  Os  Os23  1  0.666684  0.333318  0.206026  1
