# generated using pymatgen
data_Hf12Cu9Sn3N4
_symmetry_space_group_name_H-M   'P 1'
_cell_length_a   8.57385318
_cell_length_b   8.44526472
_cell_length_c   8.44526400
_cell_angle_alpha   59.99999499
_cell_angle_beta   60.49488867
_cell_angle_gamma   60.49487812
_symmetry_Int_Tables_number   1
_chemical_formula_structural   Hf12Cu9Sn3N4
_chemical_formula_sum   'Hf12 Cu9 Sn3 N4'
_cell_volume   435.60808999
_cell_formula_units_Z   1
loop_
 _symmetry_equiv_pos_site_id
 _symmetry_equiv_pos_as_xyz
  1  'x, y, z'
loop_
 _atom_site_type_symbol
 _atom_site_label
 _atom_site_symmetry_multiplicity
 _atom_site_fract_x
 _atom_site_fract_y
 _atom_site_fract_z
 _atom_site_occupancy
  Hf  Hf0  1  0.818360  0.184142  0.184142  1
  Hf  Hf1  1  0.186072  0.811061  0.191805  1
  Hf  Hf2  1  0.818360  0.813355  0.184142  1
  Hf  Hf3  1  0.186072  0.811061  0.811061  1
  Hf  Hf4  1  0.818360  0.184142  0.813355  1
  Hf  Hf5  1  0.186072  0.191805  0.811061  1
  Hf  Hf6  1  0.431640  0.065858  0.065858  1
  Hf  Hf7  1  0.063928  0.438939  0.058195  1
  Hf  Hf8  1  0.431640  0.436645  0.065858  1
  Hf  Hf9  1  0.063928  0.438939  0.438939  1
  Hf  Hf10  1  0.431640  0.065858  0.436645  1
  Hf  Hf11  1  0.063928  0.058195  0.438939  1
  Cu  Cu12  1  0.399240  0.422428  0.755903  1
  Cu  Cu13  1  0.399240  0.422428  0.422428  1
  Cu  Cu14  1  0.767104  0.410965  0.410965  1
  Cu  Cu15  1  0.399240  0.755903  0.422428  1
  Cu  Cu16  1  0.850760  0.827572  0.494097  1
  Cu  Cu17  1  0.850760  0.827572  0.827572  1
  Cu  Cu18  1  0.482896  0.839035  0.839035  1
  Cu  Cu19  1  0.850760  0.494097  0.827572  1
  Cu  Cu20  1  0.125000  0.625000  0.625000  1
  Sn  Sn21  1  0.625000  0.625000  0.125000  1
  Sn  Sn22  1  0.625000  0.625000  0.625000  1
  Sn  Sn23  1  0.625000  0.125000  0.625000  1
  N  N24  1  0.125000  0.125000  0.625000  1
  N  N25  1  0.125000  0.125000  0.125000  1
  N  N26  1  0.625000  0.125000  0.125000  1
  N  N27  1  0.125000  0.625000  0.125000  1
