# generated using pymatgen
data_BSb16
_symmetry_space_group_name_H-M   'P 1'
_cell_length_a   7.48477845
_cell_length_b   7.48477736
_cell_length_c   12.59633600
_cell_angle_alpha   57.72657070
_cell_angle_beta   57.72657599
_cell_angle_gamma   66.52135032
_symmetry_Int_Tables_number   1
_chemical_formula_structural   BSb16
_chemical_formula_sum   'B1 Sb16'
_cell_volume   498.09910760
_cell_formula_units_Z   1
loop_
 _symmetry_equiv_pos_site_id
 _symmetry_equiv_pos_as_xyz
  1  'x, y, z'
loop_
 _atom_site_type_symbol
 _atom_site_label
 _atom_site_symmetry_multiplicity
 _atom_site_fract_x
 _atom_site_fract_y
 _atom_site_fract_z
 _atom_site_occupancy
  B  B0  1  0.832489  0.832489  0.484741  1
  Sb  Sb1  1  0.865751  0.865751  0.858166  1
  Sb  Sb2  1  0.349127  0.349127  0.869664  1
  Sb  Sb3  1  0.658502  0.153865  0.138320  1
  Sb  Sb4  1  0.153865  0.658502  0.138320  1
  Sb  Sb5  1  0.061890  0.061890  0.311681  1
  Sb  Sb6  1  0.484961  0.484961  0.365586  1
  Sb  Sb7  1  0.545289  0.997753  0.621466  1
  Sb  Sb8  1  0.997753  0.545289  0.621466  1
  Sb  Sb9  1  0.214013  0.214013  0.413256  1
  Sb  Sb10  1  0.736779  0.736779  0.375474  1
  Sb  Sb11  1  0.241505  0.744748  0.644185  1
  Sb  Sb12  1  0.744748  0.241505  0.644185  1
  Sb  Sb13  1  0.051814  0.051814  0.919787  1
  Sb  Sb14  1  0.576237  0.576237  0.877615  1
  Sb  Sb15  1  0.414339  0.882232  0.125244  1
  Sb  Sb16  1  0.882232  0.414339  0.125244  1
