# generated using pymatgen
data_Li3Nd3AlSn4
_symmetry_space_group_name_H-M   'P 1'
_cell_length_a   8.89603606
_cell_length_b   8.77852328
_cell_length_c   8.77852440
_cell_angle_alpha   148.84218491
_cell_angle_beta   130.93943230
_cell_angle_gamma   59.14202135
_symmetry_Int_Tables_number   1
_chemical_formula_structural   Li3Nd3AlSn4
_chemical_formula_sum   'Li3 Nd3 Al1 Sn4'
_cell_volume   265.92928676
_cell_formula_units_Z   1
loop_
 _symmetry_equiv_pos_site_id
 _symmetry_equiv_pos_as_xyz
  1  'x, y, z'
loop_
 _atom_site_type_symbol
 _atom_site_label
 _atom_site_symmetry_multiplicity
 _atom_site_fract_x
 _atom_site_fract_y
 _atom_site_fract_z
 _atom_site_occupancy
  Li  Li0  1  0.856675  0.670454  0.186221  1
  Li  Li1  1  0.486961  0.672469  0.814490  1
  Li  Li2  1  0.519399  0.330506  0.188893  1
  Nd  Nd3  1  0.505633  0.000481  0.505152  1
  Nd  Nd4  1  0.113987  0.124423  0.989565  1
  Nd  Nd5  1  0.878808  0.873993  0.004816  1
  Al  Al6  1  0.134713  0.327215  0.807498  1
  Sn  Sn7  1  0.800732  0.498612  0.302121  1
  Sn  Sn8  1  0.204486  0.502465  0.702021  1
  Sn  Sn9  1  0.714393  0.214720  0.499673  1
  Sn  Sn10  1  0.284212  0.784662  0.499551  1
