# generated using pymatgen
data_BaNa2CdBi2
_symmetry_space_group_name_H-M   'P 1'
_cell_length_a   5.03665200
_cell_length_b   8.61878800
_cell_length_c   9.45101900
_cell_angle_alpha   90.00000000
_cell_angle_beta   90.00000000
_cell_angle_gamma   90.00000000
_symmetry_Int_Tables_number   1
_chemical_formula_structural   BaNa2CdBi2
_chemical_formula_sum   'Ba2 Na4 Cd2 Bi4'
_cell_volume   410.26718310
_cell_formula_units_Z   2
loop_
 _symmetry_equiv_pos_site_id
 _symmetry_equiv_pos_as_xyz
  1  'x, y, z'
loop_
 _atom_site_type_symbol
 _atom_site_label
 _atom_site_symmetry_multiplicity
 _atom_site_fract_x
 _atom_site_fract_y
 _atom_site_fract_z
 _atom_site_occupancy
  Ba  Ba0  1  0.000000  0.996228  0.056860  1
  Ba  Ba1  1  0.000000  0.496228  0.943140  1
  Na  Na2  1  0.500000  0.023323  0.421804  1
  Na  Na3  1  0.000000  0.355146  0.337994  1
  Na  Na4  1  0.500000  0.523323  0.578196  1
  Na  Na5  1  0.000000  0.855146  0.662006  1
  Cd  Cd6  1  0.500000  0.155791  0.815883  1
  Cd  Cd7  1  0.500000  0.655791  0.184117  1
  Bi  Bi8  1  0.000000  0.232370  0.653939  1
  Bi  Bi9  1  0.500000  0.282743  0.135057  1
  Bi  Bi10  1  0.000000  0.732370  0.346061  1
  Bi  Bi11  1  0.500000  0.782743  0.864943  1
