# generated using pymatgen
data_RbMnF5
_symmetry_space_group_name_H-M   'P 1'
_cell_length_a   5.44418300
_cell_length_b   7.86637500
_cell_length_c   10.99031200
_cell_angle_alpha   90.00000000
_cell_angle_beta   90.00000000
_cell_angle_gamma   90.00000000
_symmetry_Int_Tables_number   1
_chemical_formula_structural   RbMnF5
_chemical_formula_sum   'Rb4 Mn4 F20'
_cell_volume   470.67093737
_cell_formula_units_Z   4
loop_
 _symmetry_equiv_pos_site_id
 _symmetry_equiv_pos_as_xyz
  1  'x, y, z'
loop_
 _atom_site_type_symbol
 _atom_site_label
 _atom_site_symmetry_multiplicity
 _atom_site_fract_x
 _atom_site_fract_y
 _atom_site_fract_z
 _atom_site_occupancy
  Rb  Rb0  1  0.500000  0.891310  0.970293  1
  Rb  Rb1  1  0.500000  0.108690  0.470293  1
  Rb  Rb2  1  0.000000  0.351653  0.114677  1
  Rb  Rb3  1  0.000000  0.648347  0.614677  1
  Mn  Mn4  1  0.000000  0.870709  0.242843  1
  Mn  Mn5  1  0.500000  0.573871  0.339181  1
  Mn  Mn6  1  0.500000  0.426129  0.839181  1
  Mn  Mn7  1  0.000000  0.129291  0.742843  1
  F  F8  1  0.263721  0.541156  0.917794  1
  F  F9  1  0.750053  0.692415  0.243584  1
  F  F10  1  0.236050  0.030212  0.233442  1
  F  F11  1  0.750053  0.307585  0.743584  1
  F  F12  1  0.500000  0.257710  0.952241  1
  F  F13  1  0.763950  0.969788  0.733442  1
  F  F14  1  0.500000  0.582930  0.716923  1
  F  F15  1  0.236050  0.969788  0.733442  1
  F  F16  1  0.000000  0.844105  0.078245  1
  F  F17  1  0.763950  0.030212  0.233442  1
  F  F18  1  0.500000  0.417070  0.216923  1
  F  F19  1  0.736279  0.458844  0.417794  1
  F  F20  1  0.249947  0.692415  0.243584  1
  F  F21  1  0.000000  0.876283  0.407464  1
  F  F22  1  0.000000  0.155895  0.578245  1
  F  F23  1  0.249947  0.307585  0.743584  1
  F  F24  1  0.000000  0.123717  0.907464  1
  F  F25  1  0.263721  0.458844  0.417794  1
  F  F26  1  0.500000  0.742290  0.452241  1
  F  F27  1  0.736279  0.541156  0.917794  1
