# generated using pymatgen
data_Lu3Fe5(Ni2P3)2
_symmetry_space_group_name_H-M   'P 1'
_cell_length_a   3.70879800
_cell_length_b   10.56558700
_cell_length_c   12.04176300
_cell_angle_alpha   90.00000000
_cell_angle_beta   90.00000000
_cell_angle_gamma   90.00000000
_symmetry_Int_Tables_number   1
_chemical_formula_structural   Lu3Fe5(Ni2P3)2
_chemical_formula_sum   'Lu6 Fe10 Ni8 P12'
_cell_volume   471.86404459
_cell_formula_units_Z   2
loop_
 _symmetry_equiv_pos_site_id
 _symmetry_equiv_pos_as_xyz
  1  'x, y, z'
loop_
 _atom_site_type_symbol
 _atom_site_label
 _atom_site_symmetry_multiplicity
 _atom_site_fract_x
 _atom_site_fract_y
 _atom_site_fract_z
 _atom_site_occupancy
  Lu  Lu0  1  0.000000  0.500000  0.522346  1
  Lu  Lu1  1  0.500000  0.000000  0.477289  1
  Lu  Lu2  1  0.500000  0.820055  0.202772  1
  Lu  Lu3  1  0.500000  0.179945  0.202772  1
  Lu  Lu4  1  0.000000  0.679699  0.796255  1
  Lu  Lu5  1  0.000000  0.320301  0.796255  1
  Fe  Fe6  1  0.500000  0.500000  0.156381  1
  Fe  Fe7  1  0.000000  0.000000  0.845541  1
  Fe  Fe8  1  0.000000  0.500000  0.989459  1
  Fe  Fe9  1  0.500000  0.000000  0.010968  1
  Fe  Fe10  1  0.500000  0.333768  0.996228  1
  Fe  Fe11  1  0.500000  0.666232  0.996228  1
  Fe  Fe12  1  0.000000  0.167309  0.003869  1
  Fe  Fe13  1  0.000000  0.832691  0.003869  1
  Fe  Fe14  1  0.500000  0.298005  0.429218  1
  Fe  Fe15  1  0.500000  0.701995  0.429218  1
  Ni  Ni16  1  0.500000  0.500000  0.704592  1
  Ni  Ni17  1  0.000000  0.000000  0.297018  1
  Ni  Ni18  1  0.000000  0.200338  0.570454  1
  Ni  Ni19  1  0.000000  0.799662  0.570454  1
  Ni  Ni20  1  0.500000  0.878008  0.711311  1
  Ni  Ni21  1  0.500000  0.121992  0.711311  1
  Ni  Ni22  1  0.000000  0.621599  0.288236  1
  Ni  Ni23  1  0.000000  0.378401  0.288236  1
  P  P24  1  0.500000  0.500000  0.886239  1
  P  P25  1  0.000000  0.000000  0.113099  1
  P  P26  1  0.500000  0.500000  0.348578  1
  P  P27  1  0.000000  0.000000  0.654299  1
  P  P28  1  0.500000  0.316819  0.615321  1
  P  P29  1  0.500000  0.683181  0.615321  1
  P  P30  1  0.000000  0.188956  0.382586  1
  P  P31  1  0.000000  0.811044  0.382586  1
  P  P32  1  0.500000  0.841807  0.897157  1
  P  P33  1  0.500000  0.158193  0.897157  1
  P  P34  1  0.000000  0.657028  0.103689  1
  P  P35  1  0.000000  0.342972  0.103689  1
