# generated using pymatgen
data_Y4Cu3Ni
_symmetry_space_group_name_H-M   'P 1'
_cell_length_a   4.44292500
_cell_length_b   5.39415618
_cell_length_c   7.12525449
_cell_angle_alpha   89.83627005
_cell_angle_beta   90.00000000
_cell_angle_gamma   90.00000000
_symmetry_Int_Tables_number   1
_chemical_formula_structural   Y4Cu3Ni
_chemical_formula_sum   'Y4 Cu3 Ni1'
_cell_volume   170.76195030
_cell_formula_units_Z   1
loop_
 _symmetry_equiv_pos_site_id
 _symmetry_equiv_pos_as_xyz
  1  'x, y, z'
loop_
 _atom_site_type_symbol
 _atom_site_label
 _atom_site_symmetry_multiplicity
 _atom_site_fract_x
 _atom_site_fract_y
 _atom_site_fract_z
 _atom_site_occupancy
  Y  Y0  1  0.000000  0.632319  0.323257  1
  Y  Y1  1  0.000000  0.871850  0.814283  1
  Y  Y2  1  0.500000  0.360753  0.675042  1
  Y  Y3  1  0.500000  0.136015  0.189532  1
  Cu  Cu4  1  0.000000  0.381096  0.965173  1
  Cu  Cu5  1  0.500000  0.871570  0.535082  1
  Cu  Cu6  1  0.500000  0.625241  0.030847  1
  Ni  Ni7  1  0.000000  0.121155  0.466785  1
