# generated using pymatgen
data_ZnCd3P6PtN12
_symmetry_space_group_name_H-M   'P 1'
_cell_length_a   7.37297853
_cell_length_b   7.37209924
_cell_length_c   7.37210101
_cell_angle_alpha   109.46880506
_cell_angle_beta   109.47363352
_cell_angle_gamma   109.47363872
_symmetry_Int_Tables_number   1
_chemical_formula_structural   ZnCd3P6PtN12
_chemical_formula_sum   'Zn1 Cd3 P6 Pt1 N12'
_cell_volume   308.45412368
_cell_formula_units_Z   1
loop_
 _symmetry_equiv_pos_site_id
 _symmetry_equiv_pos_as_xyz
  1  'x, y, z'
loop_
 _atom_site_type_symbol
 _atom_site_label
 _atom_site_symmetry_multiplicity
 _atom_site_fract_x
 _atom_site_fract_y
 _atom_site_fract_z
 _atom_site_occupancy
  Zn  Zn0  1  0.582374  0.000000  0.000000  1
  Cd  Cd1  1  0.009751  0.000000  0.679268  1
  Cd  Cd2  1  0.009751  0.679268  0.000000  1
  Cd  Cd3  1  0.330484  0.320732  0.320732  1
  P  P4  1  0.257382  0.747818  0.499730  1
  P  P5  1  0.757652  0.248088  0.500270  1
  P  P6  1  0.757652  0.500270  0.248088  1
  P  P7  1  0.257382  0.499730  0.747818  1
  P  P8  1  0.509564  0.751912  0.252182  1
  P  P9  1  0.509564  0.252182  0.751912  1
  Pt  Pt10  1  0.931953  0.000000  0.000000  1
  N  N11  1  0.711617  0.278218  0.278218  1
  N  N12  1  0.293799  0.716964  0.286721  1
  N  N13  1  0.299714  0.573245  0.573245  1
  N  N14  1  0.576835  0.569757  0.283036  1
  N  N15  1  0.433399  0.721782  0.000000  1
  N  N16  1  0.007078  0.713279  0.430243  1
  N  N17  1  0.576835  0.283036  0.569757  1
  N  N18  1  0.726469  0.000000  0.426755  1
  N  N19  1  0.433399  0.000000  0.721782  1
  N  N20  1  0.726469  0.426755  0.000000  1
  N  N21  1  0.293799  0.286721  0.716964  1
  N  N22  1  0.007078  0.430243  0.713279  1
