# generated using pymatgen
data_LaGa2Cu3
_symmetry_space_group_name_H-M   'P 1'
_cell_length_a   9.20262900
_cell_length_b   9.20262919
_cell_length_c   4.17382700
_cell_angle_alpha   90.00000000
_cell_angle_beta   90.00000000
_cell_angle_gamma   119.99999573
_symmetry_Int_Tables_number   1
_chemical_formula_structural   LaGa2Cu3
_chemical_formula_sum   'La3 Ga6 Cu9'
_cell_volume   306.11804515
_cell_formula_units_Z   3
loop_
 _symmetry_equiv_pos_site_id
 _symmetry_equiv_pos_as_xyz
  1  'x, y, z'
loop_
 _atom_site_type_symbol
 _atom_site_label
 _atom_site_symmetry_multiplicity
 _atom_site_fract_x
 _atom_site_fract_y
 _atom_site_fract_z
 _atom_site_occupancy
  La  La0  1  0.333333  0.666667  0.000000  1
  La  La1  1  0.000000  0.000000  0.000000  1
  La  La2  1  0.666667  0.333333  0.000000  1
  Ga  Ga3  1  0.172644  0.827356  0.500000  1
  Ga  Ga4  1  0.172644  0.345287  0.500000  1
  Ga  Ga5  1  0.654713  0.827356  0.500000  1
  Ga  Ga6  1  0.827356  0.172644  0.500000  1
  Ga  Ga7  1  0.345287  0.172644  0.500000  1
  Ga  Ga8  1  0.827356  0.654713  0.500000  1
  Cu  Cu9  1  0.339377  0.000000  0.000000  1
  Cu  Cu10  1  0.000000  0.339377  0.000000  1
  Cu  Cu11  1  0.660623  0.660623  0.000000  1
  Cu  Cu12  1  0.000000  0.660623  0.000000  1
  Cu  Cu13  1  0.339377  0.339377  0.000000  1
  Cu  Cu14  1  0.660623  0.000000  0.000000  1
  Cu  Cu15  1  0.500000  0.500000  0.500000  1
  Cu  Cu16  1  0.500000  0.000000  0.500000  1
  Cu  Cu17  1  0.000000  0.500000  0.500000  1
