# generated using pymatgen
data_Tb2TaNbN4
_symmetry_space_group_name_H-M   'P 1'
_cell_length_a   3.27204200
_cell_length_b   5.70217487
_cell_length_c   11.01448545
_cell_angle_alpha   90.24244705
_cell_angle_beta   90.00000000
_cell_angle_gamma   90.00000000
_symmetry_Int_Tables_number   1
_chemical_formula_structural   Tb2TaNbN4
_chemical_formula_sum   'Tb4 Ta2 Nb2 N8'
_cell_volume   205.50373839
_cell_formula_units_Z   2
loop_
 _symmetry_equiv_pos_site_id
 _symmetry_equiv_pos_as_xyz
  1  'x, y, z'
loop_
 _atom_site_type_symbol
 _atom_site_label
 _atom_site_symmetry_multiplicity
 _atom_site_fract_x
 _atom_site_fract_y
 _atom_site_fract_z
 _atom_site_occupancy
  Tb  Tb0  1  0.250000  0.590451  0.861755  1
  Tb  Tb1  1  0.750000  0.409549  0.138245  1
  Tb  Tb2  1  0.750000  0.913782  0.364261  1
  Tb  Tb3  1  0.250000  0.086218  0.635739  1
  Ta  Ta4  1  0.250000  0.914632  0.113086  1
  Ta  Ta5  1  0.750000  0.085368  0.886914  1
  Nb  Nb6  1  0.750000  0.582662  0.609036  1
  Nb  Nb7  1  0.250000  0.417338  0.390964  1
  N  N8  1  0.250000  0.661758  0.242185  1
  N  N9  1  0.750000  0.338242  0.757815  1
  N  N10  1  0.750000  0.840498  0.746833  1
  N  N11  1  0.250000  0.159502  0.253167  1
  N  N12  1  0.250000  0.747347  0.504467  1
  N  N13  1  0.750000  0.252653  0.495533  1
  N  N14  1  0.750000  0.760768  0.006939  1
  N  N15  1  0.250000  0.239232  0.993061  1
