# generated using pymatgen
data_Ho8Lu2Co3Ru
_symmetry_space_group_name_H-M   'P 1'
_cell_length_a   6.24718310
_cell_length_b   6.96664165
_cell_length_c   8.46219698
_cell_angle_alpha   96.42286614
_cell_angle_beta   112.02103005
_cell_angle_gamma   89.89909729
_symmetry_Int_Tables_number   1
_chemical_formula_structural   Ho8Lu2Co3Ru
_chemical_formula_sum   'Ho8 Lu2 Co3 Ru1'
_cell_volume   338.95670173
_cell_formula_units_Z   1
loop_
 _symmetry_equiv_pos_site_id
 _symmetry_equiv_pos_as_xyz
  1  'x, y, z'
loop_
 _atom_site_type_symbol
 _atom_site_label
 _atom_site_symmetry_multiplicity
 _atom_site_fract_x
 _atom_site_fract_y
 _atom_site_fract_z
 _atom_site_occupancy
  Ho  Ho0  1  0.518949  0.086812  0.815755  1
  Ho  Ho1  1  0.472791  0.913220  0.188272  1
  Ho  Ho2  1  0.702772  0.419968  0.187281  1
  Ho  Ho3  1  0.295681  0.586893  0.812529  1
  Ho  Ho4  1  0.291282  0.316569  0.432594  1
  Ho  Ho5  1  0.713946  0.686183  0.569899  1
  Ho  Ho6  1  0.858043  0.185899  0.567952  1
  Ho  Ho7  1  0.146948  0.809526  0.434010  1
  Lu  Lu8  1  0.072244  0.253505  0.997893  1
  Lu  Lu9  1  0.927874  0.744674  0.997394  1
  Co  Co10  1  0.320189  0.573358  0.219653  1
  Co  Co11  1  0.678617  0.426836  0.778480  1
  Co  Co12  1  0.102425  0.926441  0.782760  1
  Ru  Ru13  1  0.898239  0.070116  0.215528  1
