# generated using pymatgen
data_NdTh3(AlRu)4
_symmetry_space_group_name_H-M   'P 1'
_cell_length_a   4.08420100
_cell_length_b   7.33728341
_cell_length_c   16.33731411
_cell_angle_alpha   90.24248943
_cell_angle_beta   90.00000000
_cell_angle_gamma   90.00000000
_symmetry_Int_Tables_number   1
_chemical_formula_structural   NdTh3(AlRu)4
_chemical_formula_sum   'Nd2 Th6 Al8 Ru8'
_cell_volume   489.57493116
_cell_formula_units_Z   2
loop_
 _symmetry_equiv_pos_site_id
 _symmetry_equiv_pos_as_xyz
  1  'x, y, z'
loop_
 _atom_site_type_symbol
 _atom_site_label
 _atom_site_symmetry_multiplicity
 _atom_site_fract_x
 _atom_site_fract_y
 _atom_site_fract_z
 _atom_site_occupancy
  Nd  Nd0  1  0.750000  0.959822  0.217925  1
  Nd  Nd1  1  0.250000  0.163091  0.561345  1
  Th  Th2  1  0.750000  0.827940  0.439092  1
  Th  Th3  1  0.750000  0.460445  0.281930  1
  Th  Th4  1  0.750000  0.333155  0.062038  1
  Th  Th5  1  0.250000  0.671572  0.938449  1
  Th  Th6  1  0.250000  0.044119  0.780718  1
  Th  Th7  1  0.250000  0.539278  0.718916  1
  Al  Al8  1  0.750000  0.492272  0.561804  1
  Al  Al9  1  0.750000  0.364965  0.851843  1
  Al  Al10  1  0.750000  0.006387  0.937763  1
  Al  Al11  1  0.750000  0.864103  0.648538  1
  Al  Al12  1  0.250000  0.488326  0.437862  1
  Al  Al13  1  0.250000  0.998968  0.064110  1
  Al  Al14  1  0.250000  0.637347  0.148754  1
  Al  Al15  1  0.250000  0.128491  0.346381  1
  Ru  Ru16  1  0.750000  0.754168  0.814120  1
  Ru  Ru17  1  0.250000  0.241535  0.937437  1
  Ru  Ru18  1  0.750000  0.261252  0.428481  1
  Ru  Ru19  1  0.250000  0.747281  0.323003  1
  Ru  Ru20  1  0.750000  0.762059  0.060871  1
  Ru  Ru21  1  0.750000  0.251528  0.691691  1
  Ru  Ru22  1  0.250000  0.274814  0.181529  1
  Ru  Ru23  1  0.250000  0.727085  0.565399  1
