# generated using pymatgen
data_Er16Tl3CdIr4
_symmetry_space_group_name_H-M   'P 1'
_cell_length_a   9.57873563
_cell_length_b   9.58101652
_cell_length_c   9.58101600
_cell_angle_alpha   60.00000180
_cell_angle_beta   59.99212453
_cell_angle_gamma   59.99212700
_symmetry_Int_Tables_number   1
_chemical_formula_structural   Er16Tl3CdIr4
_chemical_formula_sum   'Er16 Tl3 Cd1 Ir4'
_cell_volume   621.67678509
_cell_formula_units_Z   1
loop_
 _symmetry_equiv_pos_site_id
 _symmetry_equiv_pos_as_xyz
  1  'x, y, z'
loop_
 _atom_site_type_symbol
 _atom_site_label
 _atom_site_symmetry_multiplicity
 _atom_site_fract_x
 _atom_site_fract_y
 _atom_site_fract_z
 _atom_site_occupancy
  Er  Er0  1  0.599296  0.599807  0.599807  1
  Er  Er1  1  0.599296  0.599807  0.201090  1
  Er  Er2  1  0.599296  0.201090  0.599807  1
  Er  Er3  1  0.201478  0.599507  0.599507  1
  Er  Er4  1  0.059943  0.439730  0.439730  1
  Er  Er5  1  0.438320  0.061044  0.061044  1
  Er  Er6  1  0.438320  0.061044  0.439592  1
  Er  Er7  1  0.059943  0.439730  0.060598  1
  Er  Er8  1  0.438320  0.439592  0.061044  1
  Er  Er9  1  0.059943  0.060598  0.439730  1
  Er  Er10  1  0.190308  0.811652  0.811652  1
  Er  Er11  1  0.811463  0.189293  0.189293  1
  Er  Er12  1  0.811463  0.189293  0.809951  1
  Er  Er13  1  0.190308  0.811652  0.186388  1
  Er  Er14  1  0.811463  0.809951  0.189293  1
  Er  Er15  1  0.190308  0.186388  0.811652  1
  Tl  Tl16  1  0.833883  0.836263  0.836263  1
  Tl  Tl17  1  0.833883  0.836263  0.493589  1
  Tl  Tl18  1  0.833883  0.493589  0.836263  1
  Cd  Cd19  1  0.500128  0.833290  0.833290  1
  Ir  Ir20  1  0.391703  0.391647  0.391647  1
  Ir  Ir21  1  0.391703  0.391647  0.825002  1
  Ir  Ir22  1  0.391703  0.825002  0.391647  1
  Ir  Ir23  1  0.823644  0.392118  0.392118  1
