# generated using pymatgen
data_NaHo(AlS2)4
_symmetry_space_group_name_H-M   'P 1'
_cell_length_a   11.64428407
_cell_length_b   11.64428378
_cell_length_c   11.61192600
_cell_angle_alpha   105.35590929
_cell_angle_beta   105.35590889
_cell_angle_gamma   118.15402501
_symmetry_Int_Tables_number   1
_chemical_formula_structural   NaHo(AlS2)4
_chemical_formula_sum   'Na4 Ho4 Al16 S32'
_cell_volume   1189.65899380
_cell_formula_units_Z   4
loop_
 _symmetry_equiv_pos_site_id
 _symmetry_equiv_pos_as_xyz
  1  'x, y, z'
loop_
 _atom_site_type_symbol
 _atom_site_label
 _atom_site_symmetry_multiplicity
 _atom_site_fract_x
 _atom_site_fract_y
 _atom_site_fract_z
 _atom_site_occupancy
  Na  Na0  1  0.378614  0.621386  0.750000  1
  Na  Na1  1  0.128614  0.871386  0.250000  1
  Na  Na2  1  0.621386  0.378614  0.250000  1
  Na  Na3  1  0.871386  0.128614  0.750000  1
  Ho  Ho4  1  0.375000  0.625000  0.250000  1
  Ho  Ho5  1  0.625000  0.375000  0.750000  1
  Ho  Ho6  1  0.875000  0.125000  0.250000  1
  Ho  Ho7  1  0.125000  0.875000  0.750000  1
  Al  Al8  1  0.360633  0.362189  0.391927  1
  Al  Al9  1  0.970262  0.468706  0.108073  1
  Al  Al10  1  0.637811  0.639367  0.108073  1
  Al  Al11  1  0.531294  0.029738  0.391927  1
  Al  Al12  1  0.639367  0.637811  0.608073  1
  Al  Al13  1  0.029738  0.531294  0.891927  1
  Al  Al14  1  0.362189  0.360633  0.891927  1
  Al  Al15  1  0.468706  0.970262  0.608073  1
  Al  Al16  1  0.868378  0.862966  0.978193  1
  Al  Al17  1  0.884773  0.390185  0.521807  1
  Al  Al18  1  0.137034  0.131622  0.521807  1
  Al  Al19  1  0.609815  0.115227  0.978193  1
  Al  Al20  1  0.131622  0.137034  0.021807  1
  Al  Al21  1  0.115227  0.609815  0.478193  1
  Al  Al22  1  0.862966  0.868378  0.478193  1
  Al  Al23  1  0.390185  0.884773  0.021807  1
  S  S24  1  0.904543  0.576863  0.993539  1
  S  S25  1  0.588996  0.416676  0.993539  1
  S  S26  1  0.423137  0.095457  0.506461  1
  S  S27  1  0.583324  0.411004  0.506461  1
  S  S28  1  0.095457  0.423137  0.006461  1
  S  S29  1  0.416676  0.588996  0.493539  1
  S  S30  1  0.576863  0.904543  0.493539  1
  S  S31  1  0.411004  0.583324  0.006461  1
  S  S32  1  0.075214  0.403892  0.491164  1
  S  S33  1  0.912728  0.084049  0.008836  1
  S  S34  1  0.596108  0.924786  0.008836  1
  S  S35  1  0.915951  0.087272  0.491164  1
  S  S36  1  0.924786  0.596108  0.508836  1
  S  S37  1  0.087272  0.915951  0.991164  1
  S  S38  1  0.403892  0.075214  0.991164  1
  S  S39  1  0.084049  0.912728  0.508836  1
  S  S40  1  0.845959  0.849255  0.163852  1
  S  S41  1  0.685402  0.182107  0.336148  1
  S  S42  1  0.150745  0.154041  0.336148  1
  S  S43  1  0.817893  0.314598  0.163852  1
  S  S44  1  0.662243  0.650925  0.812309  1
  S  S45  1  0.838616  0.349934  0.687691  1
  S  S46  1  0.349075  0.337757  0.687691  1
  S  S47  1  0.650066  0.161384  0.812309  1
  S  S48  1  0.337757  0.349075  0.187691  1
  S  S49  1  0.161384  0.650066  0.312309  1
  S  S50  1  0.650925  0.662243  0.312309  1
  S  S51  1  0.349934  0.838616  0.187691  1
  S  S52  1  0.182107  0.685402  0.836148  1
  S  S53  1  0.849255  0.845959  0.663852  1
  S  S54  1  0.314598  0.817893  0.663852  1
  S  S55  1  0.154041  0.150745  0.836148  1
