# generated using pymatgen
data_Hf8FeNiIr2N
_symmetry_space_group_name_H-M   'P 1'
_cell_length_a   8.60457304
_cell_length_b   8.60457481
_cell_length_c   8.60457442
_cell_angle_alpha   120.21115994
_cell_angle_beta   119.74946802
_cell_angle_gamma   90.03456526
_symmetry_Int_Tables_number   1
_chemical_formula_structural   Hf8FeNiIr2N
_chemical_formula_sum   'Hf16 Fe2 Ni2 Ir4 N2'
_cell_volume   450.60235079
_cell_formula_units_Z   2
loop_
 _symmetry_equiv_pos_site_id
 _symmetry_equiv_pos_as_xyz
  1  'x, y, z'
loop_
 _atom_site_type_symbol
 _atom_site_label
 _atom_site_symmetry_multiplicity
 _atom_site_fract_x
 _atom_site_fract_y
 _atom_site_fract_z
 _atom_site_occupancy
  Hf  Hf0  1  0.937883  0.187883  0.750000  1
  Hf  Hf1  1  0.317762  0.567762  0.750000  1
  Hf  Hf2  1  0.941102  0.571595  0.761322  1
  Hf  Hf3  1  0.310273  0.179781  0.738678  1
  Hf  Hf4  1  0.941102  0.179781  0.369508  1
  Hf  Hf5  1  0.310273  0.571595  0.130492  1
  Hf  Hf6  1  0.058713  0.808713  0.250000  1
  Hf  Hf7  1  0.688785  0.438785  0.250000  1
  Hf  Hf8  1  0.060922  0.437578  0.246822  1
  Hf  Hf9  1  0.690756  0.814100  0.253178  1
  Hf  Hf10  1  0.060922  0.814100  0.623344  1
  Hf  Hf11  1  0.690756  0.437578  0.876656  1
  Hf  Hf12  1  0.484775  0.013574  0.028799  1
  Hf  Hf13  1  0.484775  0.455975  0.471201  1
  Hf  Hf14  1  0.483845  0.014144  0.469702  1
  Hf  Hf15  1  0.044443  0.014144  0.030298  1
  Fe  Fe16  1  0.273147  0.230714  0.457566  1
  Fe  Fe17  1  0.273147  0.815581  0.042434  1
  Ni  Ni18  1  0.274013  0.227979  0.046034  1
  Ni  Ni19  1  0.681943  0.227979  0.453966  1
  Ir  Ir20  1  0.707404  0.784920  0.577517  1
  Ir  Ir21  1  0.707404  0.129888  0.922483  1
  Ir  Ir22  1  0.705140  0.789892  0.915248  1
  Ir  Ir23  1  0.374645  0.789892  0.584752  1
  N  N24  1  0.998036  0.497607  0.999572  1
  N  N25  1  0.998036  0.998463  0.500428  1
