# generated using pymatgen
data_NdDyTh3Si3C
_symmetry_space_group_name_H-M   'P 1'
_cell_length_a   8.81067200
_cell_length_b   8.81067219
_cell_length_c   6.41999900
_cell_angle_alpha   90.00000000
_cell_angle_beta   90.00000000
_cell_angle_gamma   119.99999927
_symmetry_Int_Tables_number   1
_chemical_formula_structural   NdDyTh3Si3C
_chemical_formula_sum   'Nd2 Dy2 Th6 Si6 C2'
_cell_volume   431.60222258
_cell_formula_units_Z   2
loop_
 _symmetry_equiv_pos_site_id
 _symmetry_equiv_pos_as_xyz
  1  'x, y, z'
loop_
 _atom_site_type_symbol
 _atom_site_label
 _atom_site_symmetry_multiplicity
 _atom_site_fract_x
 _atom_site_fract_y
 _atom_site_fract_z
 _atom_site_occupancy
  Nd  Nd0  1  0.666667  0.333333  0.000000  1
  Nd  Nd1  1  0.333333  0.666667  0.000000  1
  Dy  Dy2  1  0.333333  0.666667  0.500000  1
  Dy  Dy3  1  0.666667  0.333333  0.500000  1
  Th  Th4  1  0.768654  0.768654  0.748956  1
  Th  Th5  1  0.231346  0.000000  0.748956  1
  Th  Th6  1  0.000000  0.231346  0.748956  1
  Th  Th7  1  0.231346  0.231346  0.251044  1
  Th  Th8  1  0.768654  0.000000  0.251044  1
  Th  Th9  1  0.000000  0.768654  0.251044  1
  Si  Si10  1  0.399921  0.399921  0.737955  1
  Si  Si11  1  0.600079  0.000000  0.737955  1
  Si  Si12  1  0.000000  0.600079  0.737955  1
  Si  Si13  1  0.600079  0.600079  0.262045  1
  Si  Si14  1  0.399921  0.000000  0.262045  1
  Si  Si15  1  0.000000  0.399921  0.262045  1
  C  C16  1  0.000000  0.000000  0.000000  1
  C  C17  1  0.000000  0.000000  0.500000  1
