# generated using pymatgen
data_HoFeP3Rh4
_symmetry_space_group_name_H-M   'P 1'
_cell_length_a   3.85386000
_cell_length_b   10.74445100
_cell_length_c   12.42916900
_cell_angle_alpha   90.00000000
_cell_angle_beta   90.00000000
_cell_angle_gamma   90.00000000
_symmetry_Int_Tables_number   1
_chemical_formula_structural   HoFeP3Rh4
_chemical_formula_sum   'Ho4 Fe4 P12 Rh16'
_cell_volume   514.66218172
_cell_formula_units_Z   4
loop_
 _symmetry_equiv_pos_site_id
 _symmetry_equiv_pos_as_xyz
  1  'x, y, z'
loop_
 _atom_site_type_symbol
 _atom_site_label
 _atom_site_symmetry_multiplicity
 _atom_site_fract_x
 _atom_site_fract_y
 _atom_site_fract_z
 _atom_site_occupancy
  Ho  Ho0  1  0.250000  0.582543  0.709173  1
  Ho  Ho1  1  0.250000  0.917457  0.209173  1
  Ho  Ho2  1  0.750000  0.417457  0.290827  1
  Ho  Ho3  1  0.750000  0.082543  0.790827  1
  Fe  Fe4  1  0.250000  0.461793  0.933383  1
  Fe  Fe5  1  0.250000  0.038207  0.433383  1
  Fe  Fe6  1  0.750000  0.538207  0.066617  1
  Fe  Fe7  1  0.750000  0.961793  0.566617  1
  P  P8  1  0.250000  0.429842  0.106048  1
  P  P9  1  0.250000  0.070158  0.606048  1
  P  P10  1  0.750000  0.570158  0.893952  1
  P  P11  1  0.750000  0.929842  0.393952  1
  P  P12  1  0.250000  0.270572  0.870339  1
  P  P13  1  0.250000  0.229428  0.370339  1
  P  P14  1  0.750000  0.729428  0.129661  1
  P  P15  1  0.750000  0.770572  0.629661  1
  P  P16  1  0.250000  0.600779  0.388516  1
  P  P17  1  0.250000  0.899221  0.888516  1
  P  P18  1  0.750000  0.399221  0.611484  1
  P  P19  1  0.750000  0.100779  0.111484  1
  Rh  Rh20  1  0.250000  0.715610  0.989183  1
  Rh  Rh21  1  0.250000  0.784390  0.489183  1
  Rh  Rh22  1  0.750000  0.284390  0.010817  1
  Rh  Rh23  1  0.750000  0.215610  0.510817  1
  Rh  Rh24  1  0.250000  0.408267  0.479373  1
  Rh  Rh25  1  0.250000  0.091733  0.979373  1
  Rh  Rh26  1  0.750000  0.591733  0.520627  1
  Rh  Rh27  1  0.750000  0.908267  0.020627  1
  Rh  Rh28  1  0.250000  0.230875  0.176219  1
  Rh  Rh29  1  0.250000  0.269125  0.676219  1
  Rh  Rh30  1  0.750000  0.769125  0.823781  1
  Rh  Rh31  1  0.750000  0.730875  0.323781  1
  Rh  Rh32  1  0.250000  0.882405  0.700363  1
  Rh  Rh33  1  0.250000  0.617595  0.200363  1
  Rh  Rh34  1  0.750000  0.117595  0.299637  1
  Rh  Rh35  1  0.750000  0.382405  0.799637  1
