# generated using pymatgen
data_KRb3CaBr6
_symmetry_space_group_name_H-M   'P 1'
_cell_length_a   9.50318522
_cell_length_b   9.50318500
_cell_length_c   9.50318564
_cell_angle_alpha   90.68605900
_cell_angle_beta   90.68606035
_cell_angle_gamma   90.68605605
_symmetry_Int_Tables_number   1
_chemical_formula_structural   KRb3CaBr6
_chemical_formula_sum   'K2 Rb6 Ca2 Br12'
_cell_volume   858.05164518
_cell_formula_units_Z   2
loop_
 _symmetry_equiv_pos_site_id
 _symmetry_equiv_pos_as_xyz
  1  'x, y, z'
loop_
 _atom_site_type_symbol
 _atom_site_label
 _atom_site_symmetry_multiplicity
 _atom_site_fract_x
 _atom_site_fract_y
 _atom_site_fract_z
 _atom_site_occupancy
  K  K0  1  0.247986  0.247986  0.247986  1
  K  K1  1  0.747986  0.747986  0.747986  1
  Rb  Rb2  1  0.746848  0.372325  0.123387  1
  Rb  Rb3  1  0.623387  0.872325  0.246847  1
  Rb  Rb4  1  0.123388  0.746847  0.372326  1
  Rb  Rb5  1  0.872326  0.246847  0.623388  1
  Rb  Rb6  1  0.372326  0.123388  0.746847  1
  Rb  Rb7  1  0.246847  0.623387  0.872325  1
  Ca  Ca8  1  0.497990  0.497990  0.497990  1
  Ca  Ca9  1  0.997991  0.997990  0.997991  1
  Br  Br10  1  0.921734  0.706235  0.051112  1
  Br  Br11  1  0.289149  0.944200  0.075334  1
  Br  Br12  1  0.421735  0.551111  0.206235  1
  Br  Br13  1  0.944200  0.075334  0.289148  1
  Br  Br14  1  0.551111  0.206235  0.421735  1
  Br  Br15  1  0.789148  0.575334  0.444200  1
  Br  Br16  1  0.206235  0.421735  0.551111  1
  Br  Br17  1  0.444200  0.789148  0.575334  1
  Br  Br18  1  0.051112  0.921735  0.706234  1
  Br  Br19  1  0.575334  0.444200  0.789149  1
  Br  Br20  1  0.706235  0.051111  0.921735  1
  Br  Br21  1  0.075335  0.289148  0.944200  1
