# generated using pymatgen
data_HoTh3CdHgPd4
_symmetry_space_group_name_H-M   'P 1'
_cell_length_a   7.89080290
_cell_length_b   7.89101445
_cell_length_c   3.80742000
_cell_angle_alpha   90.00000000
_cell_angle_beta   90.00000000
_cell_angle_gamma   90.55915604
_symmetry_Int_Tables_number   1
_chemical_formula_structural   HoTh3CdHgPd4
_chemical_formula_sum   'Ho1 Th3 Cd1 Hg1 Pd4'
_cell_volume   237.06319846
_cell_formula_units_Z   1
loop_
 _symmetry_equiv_pos_site_id
 _symmetry_equiv_pos_as_xyz
  1  'x, y, z'
loop_
 _atom_site_type_symbol
 _atom_site_label
 _atom_site_symmetry_multiplicity
 _atom_site_fract_x
 _atom_site_fract_y
 _atom_site_fract_z
 _atom_site_occupancy
  Ho  Ho0  1  0.825752  0.675012  0.500000  1
  Th  Th1  1  0.677041  0.171533  0.500000  1
  Th  Th2  1  0.327445  0.823791  0.500000  1
  Th  Th3  1  0.170837  0.328702  0.500000  1
  Cd  Cd4  1  0.505463  0.502104  0.000000  1
  Hg  Hg5  1  0.997788  0.994583  0.000000  1
  Pd  Pd6  1  0.128327  0.627045  0.000000  1
  Pd  Pd7  1  0.871653  0.372911  0.000000  1
  Pd  Pd8  1  0.624490  0.874296  0.000000  1
  Pd  Pd9  1  0.371203  0.130024  0.000000  1
