# generated using pymatgen
data_LaTb2Rh9
_symmetry_space_group_name_H-M   'P 1'
_cell_length_a   5.31686405
_cell_length_b   5.31707257
_cell_length_c   17.56600000
_cell_angle_alpha   90.00000000
_cell_angle_beta   90.00000000
_cell_angle_gamma   120.00681429
_symmetry_Int_Tables_number   1
_chemical_formula_structural   LaTb2Rh9
_chemical_formula_sum   'La2 Tb4 Rh18'
_cell_volume   430.03304381
_cell_formula_units_Z   2
loop_
 _symmetry_equiv_pos_site_id
 _symmetry_equiv_pos_as_xyz
  1  'x, y, z'
loop_
 _atom_site_type_symbol
 _atom_site_label
 _atom_site_symmetry_multiplicity
 _atom_site_fract_x
 _atom_site_fract_y
 _atom_site_fract_z
 _atom_site_occupancy
  La  La0  1  0.333311  0.666683  0.750000  1
  La  La1  1  0.666689  0.333317  0.250000  1
  Tb  Tb2  1  0.333334  0.666673  0.541421  1
  Tb  Tb3  1  0.666666  0.333327  0.041421  1
  Tb  Tb4  1  0.666666  0.333327  0.458579  1
  Tb  Tb5  1  0.333334  0.666673  0.958579  1
  Rh  Rh6  1  0.167170  0.334286  0.124702  1
  Rh  Rh7  1  0.832830  0.665714  0.624702  1
  Rh  Rh8  1  0.665703  0.832816  0.124683  1
  Rh  Rh9  1  0.167177  0.832830  0.124730  1
  Rh  Rh10  1  0.832823  0.167170  0.624730  1
  Rh  Rh11  1  0.334297  0.167184  0.624683  1
  Rh  Rh12  1  0.832830  0.665714  0.875298  1
  Rh  Rh13  1  0.832823  0.167170  0.875270  1
  Rh  Rh14  1  0.334297  0.167184  0.875317  1
  Rh  Rh15  1  0.665703  0.832816  0.375317  1
  Rh  Rh16  1  0.167177  0.832830  0.375270  1
  Rh  Rh17  1  0.167170  0.334286  0.375298  1
  Rh  Rh18  1  0.999758  0.000046  0.250000  1
  Rh  Rh19  1  0.000242  0.999954  0.750000  1
  Rh  Rh20  1  0.333562  0.666611  0.250000  1
  Rh  Rh21  1  0.666438  0.333389  0.750000  1
  Rh  Rh22  1  0.000000  0.000000  0.000000  1
  Rh  Rh23  1  0.000000  0.000000  0.500000  1
