# generated using pymatgen
data_Li3Y12Th4MgCo4
_symmetry_space_group_name_H-M   'P 1'
_cell_length_a   9.60842365
_cell_length_b   9.61789198
_cell_length_c   9.61789300
_cell_angle_alpha   59.99999992
_cell_angle_beta   59.96739716
_cell_angle_gamma   59.96739524
_symmetry_Int_Tables_number   1
_chemical_formula_structural   Li3Y12Th4MgCo4
_chemical_formula_sum   'Li3 Y12 Th4 Mg1 Co4'
_cell_volume   628.17808711
_cell_formula_units_Z   1
loop_
 _symmetry_equiv_pos_site_id
 _symmetry_equiv_pos_as_xyz
  1  'x, y, z'
loop_
 _atom_site_type_symbol
 _atom_site_label
 _atom_site_symmetry_multiplicity
 _atom_site_fract_x
 _atom_site_fract_y
 _atom_site_fract_z
 _atom_site_occupancy
  Li  Li0  1  0.578894  0.578738  0.578738  1
  Li  Li1  1  0.578894  0.578738  0.263628  1
  Li  Li2  1  0.578894  0.263628  0.578738  1
  Y  Y3  1  0.814436  0.185611  0.185611  1
  Y  Y4  1  0.185796  0.813672  0.813672  1
  Y  Y5  1  0.185796  0.813672  0.186859  1
  Y  Y6  1  0.814436  0.185611  0.814343  1
  Y  Y7  1  0.185796  0.186859  0.813672  1
  Y  Y8  1  0.814436  0.814343  0.185611  1
  Y  Y9  1  0.934920  0.564225  0.564225  1
  Y  Y10  1  0.564270  0.935892  0.935892  1
  Y  Y11  1  0.564270  0.935892  0.563945  1
  Y  Y12  1  0.934920  0.564225  0.936630  1
  Y  Y13  1  0.564270  0.563945  0.935892  1
  Y  Y14  1  0.934920  0.936630  0.564225  1
  Th  Th15  1  0.344728  0.344351  0.344351  1
  Th  Th16  1  0.344728  0.344351  0.966570  1
  Th  Th17  1  0.344728  0.966570  0.344351  1
  Th  Th18  1  0.966905  0.344365  0.344365  1
  Mg  Mg19  1  0.263563  0.578812  0.578812  1
  Co  Co20  1  0.145811  0.145881  0.145881  1
  Co  Co21  1  0.145811  0.145881  0.562426  1
  Co  Co22  1  0.145811  0.562426  0.145881  1
  Co  Co23  1  0.562966  0.145678  0.145678  1
