# generated using pymatgen
data_Dy9Lu(InSb2)2
_symmetry_space_group_name_H-M   'P 1'
_cell_length_a   6.47091144
_cell_length_b   8.94351416
_cell_length_c   8.95772522
_cell_angle_alpha   119.95485966
_cell_angle_beta   90.00315459
_cell_angle_gamma   90.03500596
_symmetry_Int_Tables_number   1
_chemical_formula_structural   Dy9Lu(InSb2)2
_chemical_formula_sum   'Dy9 Lu1 In2 Sb4'
_cell_volume   449.15813462
_cell_formula_units_Z   1
loop_
 _symmetry_equiv_pos_site_id
 _symmetry_equiv_pos_as_xyz
  1  'x, y, z'
loop_
 _atom_site_type_symbol
 _atom_site_label
 _atom_site_symmetry_multiplicity
 _atom_site_fract_x
 _atom_site_fract_y
 _atom_site_fract_z
 _atom_site_occupancy
  Dy  Dy0  1  0.497936  0.664045  0.331150  1
  Dy  Dy1  1  0.001505  0.663495  0.330807  1
  Dy  Dy2  1  0.000955  0.335848  0.667581  1
  Dy  Dy3  1  0.749823  0.241123  0.005027  1
  Dy  Dy4  1  0.749771  0.758131  0.763064  1
  Dy  Dy5  1  0.749760  0.000452  0.239978  1
  Dy  Dy6  1  0.250611  0.759734  0.998151  1
  Dy  Dy7  1  0.250639  0.240960  0.238512  1
  Dy  Dy8  1  0.250088  0.999229  0.757062  1
  Lu  Lu9  1  0.500050  0.336689  0.667749  1
  In  In10  1  0.748218  0.604009  0.999585  1
  In  In11  1  0.747995  0.394036  0.396252  1
  Sb  Sb12  1  0.748448  0.001467  0.609375  1
  Sb  Sb13  1  0.251687  0.392371  0.996510  1
  Sb  Sb14  1  0.251490  0.607110  0.607370  1
  Sb  Sb15  1  0.251029  0.001300  0.391828  1
