# generated using pymatgen
data_Er5Tm3Ti5Si16Mo7
_symmetry_space_group_name_H-M   'P 1'
_cell_length_a   6.90836311
_cell_length_b   6.89975092
_cell_length_c   12.76713802
_cell_angle_alpha   89.88303870
_cell_angle_beta   90.01232570
_cell_angle_gamma   90.02862980
_symmetry_Int_Tables_number   1
_chemical_formula_structural   Er5Tm3Ti5Si16Mo7
_chemical_formula_sum   'Er5 Tm3 Ti5 Si16 Mo7'
_cell_volume   608.55684720
_cell_formula_units_Z   1
loop_
 _symmetry_equiv_pos_site_id
 _symmetry_equiv_pos_as_xyz
  1  'x, y, z'
loop_
 _atom_site_type_symbol
 _atom_site_label
 _atom_site_symmetry_multiplicity
 _atom_site_fract_x
 _atom_site_fract_y
 _atom_site_fract_z
 _atom_site_occupancy
  Er  Er0  1  0.839744  0.497411  0.280774  1
  Er  Er1  1  0.159887  0.501417  0.782604  1
  Er  Er2  1  0.659443  0.998289  0.968521  1
  Er  Er3  1  0.002057  0.339847  0.531703  1
  Er  Er4  1  0.997016  0.661269  0.030989  1
  Tm  Tm5  1  0.341111  0.002367  0.467353  1
  Tm  Tm6  1  0.498524  0.840801  0.718901  1
  Tm  Tm7  1  0.500960  0.159811  0.218858  1
  Ti  Ti8  1  0.330028  0.330666  0.999516  1
  Ti  Ti9  1  0.168908  0.829709  0.250054  1
  Ti  Ti10  1  0.828656  0.171161  0.750365  1
  Ti  Ti11  1  0.669616  0.667222  0.499254  1
  Ti  Ti12  1  0.994646  0.841183  0.625954  1
  Si  Si13  1  0.203175  0.129587  0.683076  1
  Si  Si14  1  0.371069  0.702330  0.933235  1
  Si  Si15  1  0.630767  0.298557  0.433189  1
  Si  Si16  1  0.699959  0.370168  0.067092  1
  Si  Si17  1  0.300194  0.629800  0.566153  1
  Si  Si18  1  0.797912  0.870805  0.183050  1
  Si  Si19  1  0.127961  0.201006  0.317083  1
  Si  Si20  1  0.871876  0.799240  0.816638  1
  Si  Si21  1  0.289934  0.959553  0.063024  1
  Si  Si22  1  0.540167  0.789653  0.312787  1
  Si  Si23  1  0.458930  0.210210  0.812643  1
  Si  Si24  1  0.790324  0.542350  0.687559  1
  Si  Si25  1  0.209644  0.458941  0.186801  1
  Si  Si26  1  0.709957  0.041634  0.563341  1
  Si  Si27  1  0.958648  0.290587  0.937356  1
  Si  Si28  1  0.043056  0.709609  0.437227  1
  Mo  Mo29  1  0.160207  0.008513  0.875158  1
  Mo  Mo30  1  0.492740  0.658625  0.124150  1
  Mo  Mo31  1  0.507109  0.341137  0.623262  1
  Mo  Mo32  1  0.657667  0.492360  0.877787  1
  Mo  Mo33  1  0.342376  0.503852  0.374796  1
  Mo  Mo34  1  0.839810  0.991304  0.373161  1
  Mo  Mo35  1  0.005925  0.159030  0.126587  1
