# generated using pymatgen
data_K6MgTe4
_symmetry_space_group_name_H-M   'P 1'
_cell_length_a   11.09704500
_cell_length_b   11.09704536
_cell_length_c   8.54169900
_cell_angle_alpha   90.00000000
_cell_angle_beta   90.00000000
_cell_angle_gamma   120.00000192
_symmetry_Int_Tables_number   1
_chemical_formula_structural   K6MgTe4
_chemical_formula_sum   'K12 Mg2 Te8'
_cell_volume   910.93962711
_cell_formula_units_Z   2
loop_
 _symmetry_equiv_pos_site_id
 _symmetry_equiv_pos_as_xyz
  1  'x, y, z'
loop_
 _atom_site_type_symbol
 _atom_site_label
 _atom_site_symmetry_multiplicity
 _atom_site_fract_x
 _atom_site_fract_y
 _atom_site_fract_z
 _atom_site_occupancy
  K  K0  1  0.148009  0.851991  0.544825  1
  K  K1  1  0.296018  0.148009  0.044825  1
  K  K2  1  0.851991  0.703982  0.044825  1
  K  K3  1  0.148009  0.296018  0.544825  1
  K  K4  1  0.703982  0.851991  0.544825  1
  K  K5  1  0.851991  0.148009  0.044825  1
  K  K6  1  0.526472  0.473528  0.364832  1
  K  K7  1  0.052943  0.526472  0.864832  1
  K  K8  1  0.473528  0.947057  0.864832  1
  K  K9  1  0.526472  0.052943  0.364832  1
  K  K10  1  0.947057  0.473528  0.364832  1
  K  K11  1  0.473528  0.526472  0.864832  1
  Mg  Mg12  1  0.333333  0.666667  0.248832  1
  Mg  Mg13  1  0.666667  0.333333  0.748832  1
  Te  Te14  1  0.333333  0.666667  0.583860  1
  Te  Te15  1  0.666667  0.333333  0.083860  1
  Te  Te16  1  0.191886  0.808114  0.146611  1
  Te  Te17  1  0.383772  0.191886  0.646611  1
  Te  Te18  1  0.808114  0.616228  0.646611  1
  Te  Te19  1  0.191886  0.383772  0.146611  1
  Te  Te20  1  0.616228  0.808114  0.146611  1
  Te  Te21  1  0.808114  0.191886  0.646611  1
