# generated using pymatgen
data_Ho20FeCo3Sb8
_symmetry_space_group_name_H-M   'P 1'
_cell_length_a   7.84122132
_cell_length_b   8.74489900
_cell_length_c   12.13030869
_cell_angle_alpha   90.00000000
_cell_angle_beta   90.12032937
_cell_angle_gamma   90.00000000
_symmetry_Int_Tables_number   1
_chemical_formula_structural   Ho20FeCo3Sb8
_chemical_formula_sum   'Ho20 Fe1 Co3 Sb8'
_cell_volume   831.78178419
_cell_formula_units_Z   1
loop_
 _symmetry_equiv_pos_site_id
 _symmetry_equiv_pos_as_xyz
  1  'x, y, z'
loop_
 _atom_site_type_symbol
 _atom_site_label
 _atom_site_symmetry_multiplicity
 _atom_site_fract_x
 _atom_site_fract_y
 _atom_site_fract_z
 _atom_site_occupancy
  Ho  Ho0  1  0.158301  0.750000  0.205687  1
  Ho  Ho1  1  0.655170  0.250000  0.296280  1
  Ho  Ho2  1  0.844686  0.250000  0.797741  1
  Ho  Ho3  1  0.344414  0.750000  0.702828  1
  Ho  Ho4  1  0.453645  0.750000  0.997527  1
  Ho  Ho5  1  0.949932  0.250000  0.502913  1
  Ho  Ho6  1  0.545528  0.250000  0.002079  1
  Ho  Ho7  1  0.046659  0.750000  0.496937  1
  Ho  Ho8  1  0.622288  0.750000  0.305882  1
  Ho  Ho9  1  0.123261  0.250000  0.191946  1
  Ho  Ho10  1  0.377677  0.250000  0.692874  1
  Ho  Ho11  1  0.877544  0.750000  0.807273  1
  Ho  Ho12  1  0.821879  0.963783  0.065500  1
  Ho  Ho13  1  0.324775  0.032345  0.436648  1
  Ho  Ho14  1  0.177451  0.464386  0.934905  1
  Ho  Ho15  1  0.678612  0.539398  0.565027  1
  Ho  Ho16  1  0.177451  0.035614  0.934905  1
  Ho  Ho17  1  0.678612  0.960602  0.565027  1
  Ho  Ho18  1  0.821879  0.536217  0.065500  1
  Ho  Ho19  1  0.324775  0.467655  0.436648  1
  Fe  Fe20  1  0.427132  0.750000  0.487357  1
  Co  Co21  1  0.934501  0.250000  0.009768  1
  Co  Co22  1  0.567815  0.250000  0.509586  1
  Co  Co23  1  0.066674  0.750000  0.991289  1
  Sb  Sb24  1  0.929550  0.992863  0.326714  1
  Sb  Sb25  1  0.429325  0.008570  0.172279  1
  Sb  Sb26  1  0.069952  0.491469  0.672812  1
  Sb  Sb27  1  0.570843  0.507970  0.827131  1
  Sb  Sb28  1  0.069952  0.008531  0.672812  1
  Sb  Sb29  1  0.570843  0.992030  0.827131  1
  Sb  Sb30  1  0.929550  0.507137  0.326714  1
  Sb  Sb31  1  0.429325  0.491430  0.172279  1
