# generated using pymatgen
data_Ho7Tm12LuBi12
_symmetry_space_group_name_H-M   'P 1'
_cell_length_a   8.19386816
_cell_length_b   9.45834000
_cell_length_c   11.97133100
_cell_angle_alpha   90.00000000
_cell_angle_beta   89.96956856
_cell_angle_gamma   90.00000000
_symmetry_Int_Tables_number   1
_chemical_formula_structural   Ho7Tm12LuBi12
_chemical_formula_sum   'Ho7 Tm12 Lu1 Bi12'
_cell_volume   927.78270162
_cell_formula_units_Z   1
loop_
 _symmetry_equiv_pos_site_id
 _symmetry_equiv_pos_as_xyz
  1  'x, y, z'
loop_
 _atom_site_type_symbol
 _atom_site_label
 _atom_site_symmetry_multiplicity
 _atom_site_fract_x
 _atom_site_fract_y
 _atom_site_fract_z
 _atom_site_occupancy
  Ho  Ho0  1  0.186488  0.750000  0.718044  1
  Ho  Ho1  1  0.686908  0.750000  0.781758  1
  Ho  Ho2  1  0.813732  0.250000  0.281996  1
  Ho  Ho3  1  0.313018  0.250000  0.218039  1
  Ho  Ho4  1  0.354056  0.750000  0.216745  1
  Ho  Ho5  1  0.854118  0.750000  0.283317  1
  Ho  Ho6  1  0.645662  0.250000  0.783237  1
  Tm  Tm7  1  0.024366  0.750000  0.988707  1
  Tm  Tm8  1  0.524195  0.750000  0.510884  1
  Tm  Tm9  1  0.976042  0.250000  0.010773  1
  Tm  Tm10  1  0.475833  0.250000  0.488722  1
  Tm  Tm11  1  0.307339  0.434317  0.940262  1
  Tm  Tm12  1  0.807486  0.065372  0.559490  1
  Tm  Tm13  1  0.692534  0.934727  0.059461  1
  Tm  Tm14  1  0.192583  0.565460  0.440462  1
  Tm  Tm15  1  0.692534  0.565273  0.059461  1
  Tm  Tm16  1  0.192583  0.934540  0.440462  1
  Tm  Tm17  1  0.307339  0.065683  0.940262  1
  Tm  Tm18  1  0.807486  0.434628  0.559490  1
  Lu  Lu19  1  0.145745  0.250000  0.717384  1
  Bi  Bi20  1  0.433008  0.004251  0.673021  1
  Bi  Bi21  1  0.933832  0.495457  0.826633  1
  Bi  Bi22  1  0.566521  0.503929  0.327055  1
  Bi  Bi23  1  0.066519  0.996106  0.173113  1
  Bi  Bi24  1  0.566521  0.996071  0.327055  1
  Bi  Bi25  1  0.066519  0.503894  0.173113  1
  Bi  Bi26  1  0.433008  0.495749  0.673021  1
  Bi  Bi27  1  0.933832  0.004543  0.826633  1
  Bi  Bi28  1  0.405404  0.750000  0.957338  1
  Bi  Bi29  1  0.905280  0.750000  0.542702  1
  Bi  Bi30  1  0.594549  0.250000  0.042787  1
  Bi  Bi31  1  0.094959  0.250000  0.458573  1
