# generated using pymatgen
data_Y3HoTi4Al4O20
_symmetry_space_group_name_H-M   'P 1'
_cell_length_a   5.70909600
_cell_length_b   7.42637029
_cell_length_c   8.47971333
_cell_angle_alpha   89.96801595
_cell_angle_beta   90.00000000
_cell_angle_gamma   90.00000000
_symmetry_Int_Tables_number   1
_chemical_formula_structural   Y3HoTi4Al4O20
_chemical_formula_sum   'Y3 Ho1 Ti4 Al4 O20'
_cell_volume   359.52165034
_cell_formula_units_Z   1
loop_
 _symmetry_equiv_pos_site_id
 _symmetry_equiv_pos_as_xyz
  1  'x, y, z'
loop_
 _atom_site_type_symbol
 _atom_site_label
 _atom_site_symmetry_multiplicity
 _atom_site_fract_x
 _atom_site_fract_y
 _atom_site_fract_z
 _atom_site_occupancy
  Y  Y0  1  0.000000  0.641268  0.670160  1
  Y  Y1  1  0.000000  0.858242  0.170452  1
  Y  Y2  1  0.000000  0.141685  0.829496  1
  Ho  Ho3  1  0.000000  0.357529  0.329562  1
  Ti  Ti4  1  0.500000  0.124025  0.146290  1
  Ti  Ti5  1  0.500000  0.876312  0.854081  1
  Ti  Ti6  1  0.500000  0.623301  0.353845  1
  Ti  Ti7  1  0.500000  0.376272  0.645689  1
  Al  Al8  1  0.242836  0.499837  0.000308  1
  Al  Al9  1  0.757038  0.000374  0.499888  1
  Al  Al10  1  0.757164  0.499837  0.000308  1
  Al  Al11  1  0.242962  0.000374  0.499888  1
  O  O12  1  0.000000  0.340085  0.059084  1
  O  O13  1  0.000000  0.659788  0.942210  1
  O  O14  1  0.000000  0.840335  0.442130  1
  O  O15  1  0.000000  0.160606  0.557249  1
  O  O16  1  0.500000  0.349893  0.071187  1
  O  O17  1  0.500000  0.650041  0.928802  1
  O  O18  1  0.500000  0.850031  0.428294  1
  O  O19  1  0.500000  0.149997  0.571385  1
  O  O20  1  0.250401  0.109148  0.294179  1
  O  O21  1  0.251094  0.892615  0.705892  1
  O  O22  1  0.749209  0.606902  0.206253  1
  O  O23  1  0.748819  0.392531  0.794102  1
  O  O24  1  0.748906  0.892615  0.705892  1
  O  O25  1  0.749599  0.109148  0.294179  1
  O  O26  1  0.251181  0.392531  0.794102  1
  O  O27  1  0.250791  0.606902  0.206253  1
  O  O28  1  0.277531  0.000010  0.000204  1
  O  O29  1  0.723196  0.498878  0.499217  1
  O  O30  1  0.722469  0.000010  0.000204  1
  O  O31  1  0.276804  0.498878  0.499217  1
