# generated using pymatgen
data_Tm4LuPa(Al3Os)8
_symmetry_space_group_name_H-M   'P 1'
_cell_length_a   8.78064410
_cell_length_b   8.80381294
_cell_length_c   9.53319100
_cell_angle_alpha   90.00000000
_cell_angle_beta   90.00000000
_cell_angle_gamma   119.99239961
_symmetry_Int_Tables_number   1
_chemical_formula_structural   Tm4LuPa(Al3Os)8
_chemical_formula_sum   'Tm4 Lu1 Pa1 Al24 Os8'
_cell_volume   638.26254988
_cell_formula_units_Z   1
loop_
 _symmetry_equiv_pos_site_id
 _symmetry_equiv_pos_as_xyz
  1  'x, y, z'
loop_
 _atom_site_type_symbol
 _atom_site_label
 _atom_site_symmetry_multiplicity
 _atom_site_fract_x
 _atom_site_fract_y
 _atom_site_fract_z
 _atom_site_occupancy
  Tm  Tm0  1  0.807521  0.615438  0.750000  1
  Tm  Tm1  1  0.389367  0.192591  0.750000  1
  Tm  Tm2  1  0.192655  0.801050  0.250000  1
  Tm  Tm3  1  0.802443  0.191995  0.750000  1
  Lu  Lu4  1  0.606951  0.800768  0.250000  1
  Pa  Pa5  1  0.197472  0.394137  0.250000  1
  Al  Al6  1  0.336678  0.672948  0.019856  1
  Al  Al7  1  0.668110  0.336135  0.978161  1
  Al  Al8  1  0.668110  0.336135  0.521839  1
  Al  Al9  1  0.336678  0.672948  0.480144  1
  Al  Al10  1  0.162520  0.325603  0.578421  1
  Al  Al11  1  0.837102  0.673599  0.424926  1
  Al  Al12  1  0.673606  0.836161  0.575419  1
  Al  Al13  1  0.837102  0.673599  0.075074  1
  Al  Al14  1  0.326276  0.161724  0.423730  1
  Al  Al15  1  0.162520  0.325603  0.921579  1
  Al  Al16  1  0.162293  0.835983  0.576051  1
  Al  Al17  1  0.326276  0.161724  0.076270  1
  Al  Al18  1  0.835904  0.161818  0.423589  1
  Al  Al19  1  0.673606  0.836161  0.924581  1
  Al  Al20  1  0.835904  0.161818  0.076411  1
  Al  Al21  1  0.162293  0.835983  0.923949  1
  Al  Al22  1  0.560225  0.119858  0.250000  1
  Al  Al23  1  0.437287  0.875427  0.750000  1
  Al  Al24  1  0.872102  0.437026  0.250000  1
  Al  Al25  1  0.119909  0.559638  0.750000  1
  Al  Al26  1  0.565029  0.437559  0.250000  1
  Al  Al27  1  0.439556  0.559477  0.750000  1
  Al  Al28  1  0.999401  0.999914  0.250000  1
  Al  Al29  1  0.000402  0.001209  0.750000  1
  Os  Os30  1  0.502159  0.003481  0.997827  1
  Os  Os31  1  0.003619  0.500351  0.004903  1
  Os  Os32  1  0.502159  0.003481  0.502173  1
  Os  Os33  1  0.497016  0.500291  0.004792  1
  Os  Os34  1  0.003619  0.500351  0.495097  1
  Os  Os35  1  0.497016  0.500291  0.495208  1
  Os  Os36  1  0.999558  0.998862  0.999627  1
  Os  Os37  1  0.999558  0.998862  0.500373  1
