# generated using pymatgen
data_Sr3TcN3
_symmetry_space_group_name_H-M   'P 1'
_cell_length_a   7.86823248
_cell_length_b   7.86296799
_cell_length_c   5.34230400
_cell_angle_alpha   90.00000000
_cell_angle_beta   90.00000000
_cell_angle_gamma   120.01346289
_symmetry_Int_Tables_number   1
_chemical_formula_structural   Sr3TcN3
_chemical_formula_sum   'Sr6 Tc2 N6'
_cell_volume   286.19628234
_cell_formula_units_Z   2
loop_
 _symmetry_equiv_pos_site_id
 _symmetry_equiv_pos_as_xyz
  1  'x, y, z'
loop_
 _atom_site_type_symbol
 _atom_site_label
 _atom_site_symmetry_multiplicity
 _atom_site_fract_x
 _atom_site_fract_y
 _atom_site_fract_z
 _atom_site_occupancy
  Sr  Sr0  1  0.907389  0.642290  0.250000  1
  Sr  Sr1  1  0.734910  0.092589  0.250000  1
  Sr  Sr2  1  0.357601  0.265046  0.250000  1
  Sr  Sr3  1  0.092611  0.357710  0.750000  1
  Sr  Sr4  1  0.265090  0.907411  0.750000  1
  Sr  Sr5  1  0.642399  0.734954  0.750000  1
  Tc  Tc6  1  0.666643  0.333329  0.750000  1
  Tc  Tc7  1  0.333357  0.666671  0.250000  1
  N  N8  1  0.889251  0.581528  0.750000  1
  N  N9  1  0.692325  0.110724  0.750000  1
  N  N10  1  0.418193  0.307648  0.750000  1
  N  N11  1  0.110749  0.418472  0.250000  1
  N  N12  1  0.307675  0.889276  0.250000  1
  N  N13  1  0.581807  0.692352  0.250000  1
