# generated using pymatgen
data_TaMn3(CuPd3)3
_symmetry_space_group_name_H-M   'P 1'
_cell_length_a   6.74387373
_cell_length_b   6.74387381
_cell_length_c   6.75574763
_cell_angle_alpha   107.42684873
_cell_angle_beta   107.42685195
_cell_angle_gamma   113.57626082
_symmetry_Int_Tables_number   1
_chemical_formula_structural   TaMn3(CuPd3)3
_chemical_formula_sum   'Ta1 Mn3 Cu3 Pd9'
_cell_volume   235.78122113
_cell_formula_units_Z   1
loop_
 _symmetry_equiv_pos_site_id
 _symmetry_equiv_pos_as_xyz
  1  'x, y, z'
loop_
 _atom_site_type_symbol
 _atom_site_label
 _atom_site_symmetry_multiplicity
 _atom_site_fract_x
 _atom_site_fract_y
 _atom_site_fract_z
 _atom_site_occupancy
  Ta  Ta0  1  0.243359  0.243359  0.486720  1
  Mn  Mn1  1  0.754127  0.754127  0.508253  1
  Mn  Mn2  1  0.244773  0.755174  0.999947  1
  Mn  Mn3  1  0.755174  0.244773  0.999947  1
  Cu  Cu4  1  0.500367  0.999321  0.499688  1
  Cu  Cu5  1  0.999321  0.500367  0.499688  1
  Cu  Cu6  1  0.500565  0.500565  0.001131  1
  Pd  Pd7  1  0.509793  0.257662  0.253180  1
  Pd  Pd8  1  0.486889  0.737871  0.747093  1
  Pd  Pd9  1  0.009222  0.260203  0.747093  1
  Pd  Pd10  1  0.260203  0.009222  0.747093  1
  Pd  Pd11  1  0.995519  0.743388  0.253180  1
  Pd  Pd12  1  0.743388  0.995519  0.253180  1
  Pd  Pd13  1  0.257662  0.509793  0.253180  1
  Pd  Pd14  1  0.737871  0.486889  0.747093  1
  Pd  Pd15  1  0.001765  0.001765  0.003531  1
