# generated using pymatgen
data_YbPr(DySe2)4
_symmetry_space_group_name_H-M   'P 1'
_cell_length_a   4.06113500
_cell_length_b   13.54850900
_cell_length_c   13.82163000
_cell_angle_alpha   90.00000000
_cell_angle_beta   90.00000000
_cell_angle_gamma   90.00000000
_symmetry_Int_Tables_number   1
_chemical_formula_structural   YbPr(DySe2)4
_chemical_formula_sum   'Yb2 Pr2 Dy8 Se16'
_cell_volume   760.49820542
_cell_formula_units_Z   2
loop_
 _symmetry_equiv_pos_site_id
 _symmetry_equiv_pos_as_xyz
  1  'x, y, z'
loop_
 _atom_site_type_symbol
 _atom_site_label
 _atom_site_symmetry_multiplicity
 _atom_site_fract_x
 _atom_site_fract_y
 _atom_site_fract_z
 _atom_site_occupancy
  Yb  Yb0  1  0.750000  0.631433  0.410960  1
  Yb  Yb1  1  0.750000  0.131433  0.089040  1
  Pr  Pr2  1  0.250000  0.370820  0.587475  1
  Pr  Pr3  1  0.250000  0.870820  0.912525  1
  Dy  Dy4  1  0.250000  0.107591  0.420770  1
  Dy  Dy5  1  0.250000  0.607591  0.079230  1
  Dy  Dy6  1  0.750000  0.891526  0.574811  1
  Dy  Dy7  1  0.750000  0.391526  0.925189  1
  Dy  Dy8  1  0.250000  0.148452  0.799926  1
  Dy  Dy9  1  0.250000  0.648452  0.700074  1
  Dy  Dy10  1  0.750000  0.850125  0.200076  1
  Dy  Dy11  1  0.750000  0.350125  0.299924  1
  Se  Se12  1  0.250000  0.212971  0.238431  1
  Se  Se13  1  0.250000  0.712971  0.261569  1
  Se  Se14  1  0.750000  0.787590  0.761893  1
  Se  Se15  1  0.750000  0.287590  0.738107  1
  Se  Se16  1  0.250000  0.253715  0.979560  1
  Se  Se17  1  0.250000  0.753715  0.520440  1
  Se  Se18  1  0.750000  0.743577  0.020602  1
  Se  Se19  1  0.750000  0.243577  0.479398  1
  Se  Se20  1  0.250000  0.470099  0.387176  1
  Se  Se21  1  0.250000  0.970099  0.112824  1
  Se  Se22  1  0.750000  0.533246  0.612763  1
  Se  Se23  1  0.750000  0.033246  0.887237  1
  Se  Se24  1  0.250000  0.033091  0.620850  1
  Se  Se25  1  0.250000  0.533091  0.879150  1
  Se  Se26  1  0.750000  0.965763  0.377524  1
  Se  Se27  1  0.750000  0.465763  0.122476  1
