# generated using pymatgen
data_BaGa4SnBr16
_symmetry_space_group_name_H-M   'P 1'
_cell_length_a   8.28508465
_cell_length_b   7.77950200
_cell_length_c   14.57119400
_cell_angle_alpha   89.73101567
_cell_angle_beta   92.31685094
_cell_angle_gamma   90.28204481
_symmetry_Int_Tables_number   1
_chemical_formula_structural   BaGa4SnBr16
_chemical_formula_sum   'Ba1 Ga4 Sn1 Br16'
_cell_volume   938.38070602
_cell_formula_units_Z   1
loop_
 _symmetry_equiv_pos_site_id
 _symmetry_equiv_pos_as_xyz
  1  'x, y, z'
loop_
 _atom_site_type_symbol
 _atom_site_label
 _atom_site_symmetry_multiplicity
 _atom_site_fract_x
 _atom_site_fract_y
 _atom_site_fract_z
 _atom_site_occupancy
  Ba  Ba0  1  0.800293  0.132151  0.830531  1
  Ga  Ga1  1  0.955680  0.214789  0.569359  1
  Ga  Ga2  1  0.052486  0.176319  0.082817  1
  Ga  Ga3  1  0.564504  0.666660  0.782227  1
  Ga  Ga4  1  0.419149  0.648355  0.281259  1
  Sn  Sn5  1  0.240440  0.086334  0.318289  1
  Br  Br6  1  0.434939  0.629840  0.641098  1
  Br  Br7  1  0.539757  0.610186  0.143762  1
  Br  Br8  1  0.849233  0.713529  0.772848  1
  Br  Br9  1  0.139880  0.732358  0.260680  1
  Br  Br10  1  0.954010  0.466663  0.485599  1
  Br  Br11  1  0.014011  0.400622  0.975949  1
  Br  Br12  1  0.931661  0.925514  0.019750  1
  Br  Br13  1  0.065656  0.977948  0.486454  1
  Br  Br14  1  0.690754  0.128842  0.609474  1
  Br  Br15  1  0.332377  0.130104  0.117396  1
  Br  Br16  1  0.528853  0.422578  0.880522  1
  Br  Br17  1  0.434132  0.408888  0.383155  1
  Br  Br18  1  0.465090  0.910146  0.861845  1
  Br  Br19  1  0.538623  0.884676  0.366336  1
  Br  Br20  1  0.935058  0.238457  0.225170  1
  Br  Br21  1  0.113413  0.229839  0.709884  1
