# generated using pymatgen
data_BaLi2La4O8
_symmetry_space_group_name_H-M   'P 1'
_cell_length_a   7.23816612
_cell_length_b   7.23816732
_cell_length_c   10.07271514
_cell_angle_alpha   61.94619256
_cell_angle_beta   61.94618678
_cell_angle_gamma   29.96864939
_symmetry_Int_Tables_number   1
_chemical_formula_structural   BaLi2La4O8
_chemical_formula_sum   'Ba1 Li2 La4 O8'
_cell_volume   230.25874624
_cell_formula_units_Z   1
loop_
 _symmetry_equiv_pos_site_id
 _symmetry_equiv_pos_as_xyz
  1  'x, y, z'
loop_
 _atom_site_type_symbol
 _atom_site_label
 _atom_site_symmetry_multiplicity
 _atom_site_fract_x
 _atom_site_fract_y
 _atom_site_fract_z
 _atom_site_occupancy
  Ba  Ba0  1  0.500000  0.500000  0.000000  1
  Li  Li1  1  0.187725  0.187725  0.741178  1
  Li  Li2  1  0.812275  0.812275  0.258822  1
  La  La3  1  0.610393  0.610393  0.563362  1
  La  La4  1  0.389607  0.389607  0.436638  1
  La  La5  1  0.165248  0.165248  0.187486  1
  La  La6  1  0.834752  0.834752  0.812514  1
  O  O7  1  0.046249  0.046249  0.750024  1
  O  O8  1  0.953751  0.953751  0.249976  1
  O  O9  1  0.238662  0.238662  0.376036  1
  O  O10  1  0.761338  0.761338  0.623964  1
  O  O11  1  0.813631  0.813631  0.067048  1
  O  O12  1  0.186369  0.186369  0.932952  1
  O  O13  1  0.582719  0.582719  0.342523  1
  O  O14  1  0.417281  0.417281  0.657477  1
