# generated using pymatgen
data_Lu8B24Ir2RhW
_symmetry_space_group_name_H-M   'P 1'
_cell_length_a   3.59448900
_cell_length_b   9.08749919
_cell_length_c   11.42826616
_cell_angle_alpha   89.85245515
_cell_angle_beta   90.00000000
_cell_angle_gamma   90.00000000
_symmetry_Int_Tables_number   1
_chemical_formula_structural   Lu8B24Ir2RhW
_chemical_formula_sum   'Lu8 B24 Ir2 Rh1 W1'
_cell_volume   373.30211508
_cell_formula_units_Z   1
loop_
 _symmetry_equiv_pos_site_id
 _symmetry_equiv_pos_as_xyz
  1  'x, y, z'
loop_
 _atom_site_type_symbol
 _atom_site_label
 _atom_site_symmetry_multiplicity
 _atom_site_fract_x
 _atom_site_fract_y
 _atom_site_fract_z
 _atom_site_occupancy
  Lu  Lu0  1  0.500000  0.319994  0.416817  1
  Lu  Lu1  1  0.500000  0.677159  0.586394  1
  Lu  Lu2  1  0.500000  0.184565  0.909748  1
  Lu  Lu3  1  0.500000  0.820098  0.085826  1
  Lu  Lu4  1  0.500000  0.444831  0.128446  1
  Lu  Lu5  1  0.500000  0.554530  0.875105  1
  Lu  Lu6  1  0.500000  0.055477  0.624447  1
  Lu  Lu7  1  0.500000  0.942004  0.372840  1
  B  B8  1  0.000000  0.103668  0.468950  1
  B  B9  1  0.000000  0.891424  0.528534  1
  B  B10  1  0.000000  0.394278  0.973291  1
  B  B11  1  0.000000  0.607592  0.030607  1
  B  B12  1  0.000000  0.130164  0.316279  1
  B  B13  1  0.000000  0.867935  0.683488  1
  B  B14  1  0.000000  0.368939  0.818020  1
  B  B15  1  0.000000  0.632707  0.183595  1
  B  B16  1  0.000000  0.054256  0.064962  1
  B  B17  1  0.000000  0.947696  0.934527  1
  B  B18  1  0.000000  0.448983  0.563674  1
  B  B19  1  0.000000  0.552966  0.433129  1
  B  B20  1  0.000000  0.480490  0.287892  1
  B  B21  1  0.000000  0.522136  0.714248  1
  B  B22  1  0.000000  0.018599  0.787057  1
  B  B23  1  0.000000  0.980733  0.212204  1
  B  B24  1  0.000000  0.251398  0.079080  1
  B  B25  1  0.000000  0.750167  0.922008  1
  B  B26  1  0.000000  0.248155  0.577136  1
  B  B27  1  0.000000  0.749075  0.420507  1
  B  B28  1  0.000000  0.292511  0.236207  1
  B  B29  1  0.000000  0.707904  0.766269  1
  B  B30  1  0.000000  0.204004  0.736213  1
  B  B31  1  0.000000  0.794128  0.263195  1
  Ir  Ir32  1  0.500000  0.137697  0.177694  1
  Ir  Ir33  1  0.500000  0.862457  0.822204  1
  Rh  Rh34  1  0.500000  0.638895  0.320343  1
  W  W35  1  0.500000  0.362380  0.679065  1
