# generated using pymatgen
data_Hf4CoNiAs2
_symmetry_space_group_name_H-M   'P 1'
_cell_length_a   3.68854000
_cell_length_b   5.29514299
_cell_length_c   7.52563078
_cell_angle_alpha   70.40091443
_cell_angle_beta   90.00000000
_cell_angle_gamma   90.00000000
_symmetry_Int_Tables_number   1
_chemical_formula_structural   Hf4CoNiAs2
_chemical_formula_sum   'Hf4 Co1 Ni1 As2'
_cell_volume   138.46976484
_cell_formula_units_Z   1
loop_
 _symmetry_equiv_pos_site_id
 _symmetry_equiv_pos_as_xyz
  1  'x, y, z'
loop_
 _atom_site_type_symbol
 _atom_site_label
 _atom_site_symmetry_multiplicity
 _atom_site_fract_x
 _atom_site_fract_y
 _atom_site_fract_z
 _atom_site_occupancy
  Hf  Hf0  1  0.750000  0.765558  0.441191  1
  Hf  Hf1  1  0.250000  0.233993  0.568414  1
  Hf  Hf2  1  0.750000  0.301895  0.913050  1
  Hf  Hf3  1  0.250000  0.701861  0.081017  1
  Co  Co4  1  0.250000  0.631773  0.700828  1
  Ni  Ni5  1  0.750000  0.364681  0.295545  1
  As  As6  1  0.750000  0.866695  0.791647  1
  As  As7  1  0.250000  0.133544  0.208308  1
