# generated using pymatgen
data_Ho4PaPt9
_symmetry_space_group_name_H-M   'P 1'
_cell_length_a   9.82481000
_cell_length_b   9.82481000
_cell_length_c   5.74784100
_cell_angle_alpha   90.00000000
_cell_angle_beta   90.00000000
_cell_angle_gamma   90.00000000
_symmetry_Int_Tables_number   1
_chemical_formula_structural   Ho4PaPt9
_chemical_formula_sum   'Ho8 Pa2 Pt18'
_cell_volume   554.82122477
_cell_formula_units_Z   2
loop_
 _symmetry_equiv_pos_site_id
 _symmetry_equiv_pos_as_xyz
  1  'x, y, z'
loop_
 _atom_site_type_symbol
 _atom_site_label
 _atom_site_symmetry_multiplicity
 _atom_site_fract_x
 _atom_site_fract_y
 _atom_site_fract_z
 _atom_site_occupancy
  Ho  Ho0  1  0.454190  0.808239  0.000000  1
  Ho  Ho1  1  0.545810  0.191761  0.000000  1
  Ho  Ho2  1  0.191761  0.545810  0.000000  1
  Ho  Ho3  1  0.808239  0.454190  0.000000  1
  Ho  Ho4  1  0.308239  0.045810  0.500000  1
  Ho  Ho5  1  0.691761  0.954190  0.500000  1
  Ho  Ho6  1  0.954190  0.691761  0.500000  1
  Ho  Ho7  1  0.045810  0.308239  0.500000  1
  Pa  Pa8  1  0.500000  0.500000  0.500000  1
  Pa  Pa9  1  0.000000  0.000000  0.000000  1
  Pt  Pt10  1  0.192732  0.807268  0.249116  1
  Pt  Pt11  1  0.807268  0.192732  0.750884  1
  Pt  Pt12  1  0.807268  0.192732  0.249116  1
  Pt  Pt13  1  0.192732  0.807268  0.750884  1
  Pt  Pt14  1  0.440974  0.776665  0.500000  1
  Pt  Pt15  1  0.559026  0.223335  0.500000  1
  Pt  Pt16  1  0.223335  0.559026  0.500000  1
  Pt  Pt17  1  0.776665  0.440974  0.500000  1
  Pt  Pt18  1  0.307268  0.307268  0.250884  1
  Pt  Pt19  1  0.692732  0.692732  0.749116  1
  Pt  Pt20  1  0.692732  0.692732  0.250884  1
  Pt  Pt21  1  0.307268  0.307268  0.749116  1
  Pt  Pt22  1  0.276665  0.059026  0.000000  1
  Pt  Pt23  1  0.723335  0.940974  0.000000  1
  Pt  Pt24  1  0.940974  0.723335  0.000000  1
  Pt  Pt25  1  0.059026  0.276665  0.000000  1
  Pt  Pt26  1  0.000000  0.000000  0.500000  1
  Pt  Pt27  1  0.500000  0.500000  0.000000  1
