# generated using pymatgen
data_Te13Os
_symmetry_space_group_name_H-M   'P 1'
_cell_length_a   10.27626106
_cell_length_b   10.74913941
_cell_length_c   9.54135166
_cell_angle_alpha   102.70278540
_cell_angle_beta   111.59483168
_cell_angle_gamma   88.74869865
_symmetry_Int_Tables_number   1
_chemical_formula_structural   Te13Os
_chemical_formula_sum   'Te26 Os2'
_cell_volume   953.95328691
_cell_formula_units_Z   2
loop_
 _symmetry_equiv_pos_site_id
 _symmetry_equiv_pos_as_xyz
  1  'x, y, z'
loop_
 _atom_site_type_symbol
 _atom_site_label
 _atom_site_symmetry_multiplicity
 _atom_site_fract_x
 _atom_site_fract_y
 _atom_site_fract_z
 _atom_site_occupancy
  Te  Te0  1  0.459117  0.700358  0.047207  1
  Te  Te1  1  0.540883  0.299642  0.952793  1
  Te  Te2  1  0.609890  0.855134  0.359123  1
  Te  Te3  1  0.390110  0.144866  0.640877  1
  Te  Te4  1  0.722704  0.726755  0.970904  1
  Te  Te5  1  0.277296  0.273245  0.029096  1
  Te  Te6  1  0.816882  0.962776  0.270305  1
  Te  Te7  1  0.183118  0.037224  0.729695  1
  Te  Te8  1  0.440366  0.061909  0.147561  1
  Te  Te9  1  0.559634  0.938091  0.852439  1
  Te  Te10  1  0.244830  0.686014  0.645751  1
  Te  Te11  1  0.755170  0.313986  0.354249  1
  Te  Te12  1  0.102730  0.827852  0.954555  1
  Te  Te13  1  0.897270  0.172148  0.045445  1
  Te  Te14  1  0.114027  0.025356  0.239873  1
  Te  Te15  1  0.885973  0.974644  0.760127  1
  Te  Te16  1  0.297246  0.838204  0.423794  1
  Te  Te17  1  0.702754  0.161796  0.576206  1
  Te  Te18  1  0.523070  0.568056  0.681940  1
  Te  Te19  1  0.476930  0.431944  0.318060  1
  Te  Te20  1  0.099310  0.490283  0.742456  1
  Te  Te21  1  0.900690  0.509717  0.257544  1
  Te  Te22  1  0.901891  0.685285  0.517673  1
  Te  Te23  1  0.098109  0.314715  0.482327  1
  Te  Te24  1  0.236612  0.632417  0.169831  1
  Te  Te25  1  0.763388  0.367583  0.830169  1
  Os  Os26  1  0.324805  0.873610  0.894592  1
  Os  Os27  1  0.675195  0.126390  0.105408  1
