# generated using pymatgen
data_Sm2Y3Pb4
_symmetry_space_group_name_H-M   'P 1'
_cell_length_a   8.25184800
_cell_length_b   8.35353125
_cell_length_c   15.78585100
_cell_angle_alpha   90.00000000
_cell_angle_beta   90.00000000
_cell_angle_gamma   90.07007023
_symmetry_Int_Tables_number   1
_chemical_formula_structural   Sm2Y3Pb4
_chemical_formula_sum   'Sm8 Y12 Pb16'
_cell_volume   1088.15057418
_cell_formula_units_Z   4
loop_
 _symmetry_equiv_pos_site_id
 _symmetry_equiv_pos_as_xyz
  1  'x, y, z'
loop_
 _atom_site_type_symbol
 _atom_site_label
 _atom_site_symmetry_multiplicity
 _atom_site_fract_x
 _atom_site_fract_y
 _atom_site_fract_z
 _atom_site_occupancy
  Sm  Sm0  1  0.469789  0.677202  0.598650  1
  Sm  Sm1  1  0.969769  0.822853  0.901524  1
  Sm  Sm2  1  0.530397  0.322484  0.098832  1
  Sm  Sm3  1  0.030106  0.176923  0.401210  1
  Sm  Sm4  1  0.530397  0.322484  0.401168  1
  Sm  Sm5  1  0.030106  0.176923  0.098790  1
  Sm  Sm6  1  0.469789  0.677202  0.901350  1
  Sm  Sm7  1  0.969769  0.822853  0.598476  1
  Y  Y8  1  0.628154  0.158303  0.621274  1
  Y  Y9  1  0.128129  0.341666  0.878485  1
  Y  Y10  1  0.372131  0.841952  0.121786  1
  Y  Y11  1  0.871657  0.658276  0.378241  1
  Y  Y12  1  0.372131  0.841952  0.378214  1
  Y  Y13  1  0.871657  0.658276  0.121759  1
  Y  Y14  1  0.628154  0.158303  0.878726  1
  Y  Y15  1  0.128129  0.341666  0.621515  1
  Y  Y16  1  0.794597  0.495752  0.750000  1
  Y  Y17  1  0.294600  0.004271  0.750000  1
  Y  Y18  1  0.205226  0.504294  0.250000  1
  Y  Y19  1  0.705281  0.995282  0.250000  1
  Pb  Pb20  1  0.713011  0.963467  0.456581  1
  Pb  Pb21  1  0.212948  0.536927  0.043137  1
  Pb  Pb22  1  0.287068  0.036942  0.957182  1
  Pb  Pb23  1  0.787176  0.463310  0.542855  1
  Pb  Pb24  1  0.287068  0.036942  0.542818  1
  Pb  Pb25  1  0.787176  0.463310  0.957145  1
  Pb  Pb26  1  0.713011  0.963467  0.043419  1
  Pb  Pb27  1  0.212948  0.536927  0.456863  1
  Pb  Pb28  1  0.431890  0.373822  0.750000  1
  Pb  Pb29  1  0.931712  0.125979  0.750000  1
  Pb  Pb30  1  0.568310  0.626555  0.250000  1
  Pb  Pb31  1  0.067633  0.874338  0.250000  1
  Pb  Pb32  1  0.658294  0.848318  0.750000  1
  Pb  Pb33  1  0.158101  0.652008  0.750000  1
  Pb  Pb34  1  0.342171  0.151716  0.250000  1
  Pb  Pb35  1  0.841513  0.347060  0.250000  1
