# generated using pymatgen
data_Ti8Al14AsRu7
_symmetry_space_group_name_H-M   'P 1'
_cell_length_a   8.65009315
_cell_length_b   8.65009316
_cell_length_c   8.65009345
_cell_angle_alpha   120.10413397
_cell_angle_beta   119.99302020
_cell_angle_gamma   89.91590659
_symmetry_Int_Tables_number   1
_chemical_formula_structural   Ti8Al14AsRu7
_chemical_formula_sum   'Ti8 Al14 As1 Ru7'
_cell_volume   457.32755478
_cell_formula_units_Z   1
loop_
 _symmetry_equiv_pos_site_id
 _symmetry_equiv_pos_as_xyz
  1  'x, y, z'
loop_
 _atom_site_type_symbol
 _atom_site_label
 _atom_site_symmetry_multiplicity
 _atom_site_fract_x
 _atom_site_fract_y
 _atom_site_fract_z
 _atom_site_occupancy
  Ti  Ti0  1  0.795184  0.290424  0.078773  1
  Ti  Ti1  1  0.211650  0.290424  0.495240  1
  Ti  Ti2  1  0.207672  0.707672  0.500000  1
  Ti  Ti3  1  0.211650  0.716410  0.921227  1
  Ti  Ti4  1  0.795184  0.716410  0.504760  1
  Ti  Ti5  1  0.785229  0.285229  0.500000  1
  Ti  Ti6  1  0.378925  0.118945  0.740019  1
  Ti  Ti7  1  0.378925  0.638907  0.259981  1
  Al  Al8  1  0.159684  0.340251  0.180566  1
  Al  Al9  1  0.159684  0.979120  0.819434  1
  Al  Al10  1  0.157852  0.341839  0.816013  1
  Al  Al11  1  0.525825  0.341839  0.183987  1
  Al  Al12  1  0.842051  0.658253  0.816204  1
  Al  Al13  1  0.842051  0.025847  0.183796  1
  Al  Al14  1  0.839845  0.658737  0.181109  1
  Al  Al15  1  0.477628  0.658737  0.818891  1
  Al  Al16  1  0.380536  0.120259  0.260278  1
  Al  Al17  1  0.859982  0.120259  0.739722  1
  Al  Al18  1  0.619332  0.877698  0.258365  1
  Al  Al19  1  0.619332  0.360967  0.741635  1
  Al  Al20  1  0.619827  0.879119  0.740708  1
  Al  Al21  1  0.138410  0.879119  0.259292  1
  As  As22  1  0.996946  0.496946  0.500000  1
  Ru  Ru23  1  0.000000  0.999797  0.500384  1
  Ru  Ru24  1  0.499413  0.999797  0.999797  1
  Ru  Ru25  1  0.498743  0.498743  0.000000  1
  Ru  Ru26  1  0.499413  0.499616  0.499616  1
  Ru  Ru27  1  0.000000  0.499616  0.000203  1
  Ru  Ru28  1  0.000354  0.000354  0.000000  1
  Ru  Ru29  1  0.498667  0.998667  0.500000  1
