# generated using pymatgen
data_Er10In8Pd3Au
_symmetry_space_group_name_H-M   'P 1'
_cell_length_a   3.60319600
_cell_length_b   8.12830130
_cell_length_c   18.21610517
_cell_angle_alpha   89.99512355
_cell_angle_beta   90.00000000
_cell_angle_gamma   90.00000000
_symmetry_Int_Tables_number   1
_chemical_formula_structural   Er10In8Pd3Au
_chemical_formula_sum   'Er10 In8 Pd3 Au1'
_cell_volume   533.51078620
_cell_formula_units_Z   1
loop_
 _symmetry_equiv_pos_site_id
 _symmetry_equiv_pos_as_xyz
  1  'x, y, z'
loop_
 _atom_site_type_symbol
 _atom_site_label
 _atom_site_symmetry_multiplicity
 _atom_site_fract_x
 _atom_site_fract_y
 _atom_site_fract_z
 _atom_site_occupancy
  Er  Er0  1  0.000000  0.117142  0.416799  1
  Er  Er1  1  0.000000  0.882114  0.583963  1
  Er  Er2  1  0.000000  0.382204  0.915499  1
  Er  Er3  1  0.000000  0.621739  0.080383  1
  Er  Er4  1  0.000000  0.235683  0.220343  1
  Er  Er5  1  0.000000  0.757179  0.780345  1
  Er  Er6  1  0.000000  0.256909  0.719296  1
  Er  Er7  1  0.000000  0.747647  0.282505  1
  Er  Er8  1  0.000000  0.998788  0.999821  1
  Er  Er9  1  0.000000  0.500156  0.500762  1
  In  In10  1  0.500000  0.420498  0.352732  1
  In  In11  1  0.500000  0.577053  0.649285  1
  In  In12  1  0.500000  0.077054  0.850656  1
  In  In13  1  0.500000  0.925343  0.148813  1
  In  In14  1  0.500000  0.290465  0.065513  1
  In  In15  1  0.500000  0.707794  0.932503  1
  In  In16  1  0.500000  0.207618  0.567137  1
  In  In17  1  0.500000  0.792530  0.433251  1
  Pd  Pd18  1  0.500000  0.025223  0.303418  1
  Pd  Pd19  1  0.500000  0.974768  0.696474  1
  Pd  Pd20  1  0.500000  0.474750  0.803470  1
  Au  Au21  1  0.500000  0.527341  0.197031  1
