# generated using pymatgen
data_Y3Ho13(InRu)4
_symmetry_space_group_name_H-M   'P 1'
_cell_length_a   9.62049733
_cell_length_b   9.63093657
_cell_length_c   9.63147624
_cell_angle_alpha   59.63702331
_cell_angle_beta   60.03398457
_cell_angle_gamma   59.72402711
_symmetry_Int_Tables_number   1
_chemical_formula_structural   Y3Ho13(InRu)4
_chemical_formula_sum   'Y3 Ho13 In4 Ru4'
_cell_volume   628.11565811
_cell_formula_units_Z   1
loop_
 _symmetry_equiv_pos_site_id
 _symmetry_equiv_pos_as_xyz
  1  'x, y, z'
loop_
 _atom_site_type_symbol
 _atom_site_label
 _atom_site_symmetry_multiplicity
 _atom_site_fract_x
 _atom_site_fract_y
 _atom_site_fract_z
 _atom_site_occupancy
  Y  Y0  1  0.807773  0.187794  0.807870  1
  Y  Y1  1  0.938560  0.559753  0.559922  1
  Y  Y2  1  0.557050  0.941576  0.557873  1
  Ho  Ho3  1  0.808010  0.192497  0.191059  1
  Ho  Ho4  1  0.190720  0.809737  0.190107  1
  Ho  Ho5  1  0.347887  0.956331  0.346849  1
  Ho  Ho6  1  0.943311  0.941339  0.556543  1
  Ho  Ho7  1  0.557077  0.940231  0.942448  1
  Ho  Ho8  1  0.189441  0.807604  0.807529  1
  Ho  Ho9  1  0.349100  0.347047  0.957627  1
  Ho  Ho10  1  0.557583  0.558325  0.940985  1
  Ho  Ho11  1  0.347041  0.353241  0.348078  1
  Ho  Ho12  1  0.191273  0.192110  0.808206  1
  Ho  Ho13  1  0.807868  0.807834  0.188757  1
  Ho  Ho14  1  0.942529  0.557303  0.942790  1
  Ho  Ho15  1  0.958105  0.347769  0.348878  1
  In  In16  1  0.583342  0.580389  0.583079  1
  In  In17  1  0.583377  0.251943  0.583407  1
  In  In18  1  0.582241  0.582244  0.252166  1
  In  In19  1  0.252323  0.582209  0.582217  1
  Ru  Ru20  1  0.146795  0.138906  0.579758  1
  Ru  Ru21  1  0.579328  0.140787  0.146382  1
  Ru  Ru22  1  0.140676  0.583503  0.138641  1
  Ru  Ru23  1  0.138595  0.139530  0.138830  1
