# generated using pymatgen
data_Tb5Yb12Dy3Si16
_symmetry_space_group_name_H-M   'P 1'
_cell_length_a   7.44120804
_cell_length_b   7.80954302
_cell_length_c   15.15585704
_cell_angle_alpha   90.00038383
_cell_angle_beta   89.99213374
_cell_angle_gamma   90.00816007
_symmetry_Int_Tables_number   1
_chemical_formula_structural   Tb5Yb12Dy3Si16
_chemical_formula_sum   'Tb5 Yb12 Dy3 Si16'
_cell_volume   880.74372870
_cell_formula_units_Z   1
loop_
 _symmetry_equiv_pos_site_id
 _symmetry_equiv_pos_as_xyz
  1  'x, y, z'
loop_
 _atom_site_type_symbol
 _atom_site_label
 _atom_site_symmetry_multiplicity
 _atom_site_fract_x
 _atom_site_fract_y
 _atom_site_fract_z
 _atom_site_occupancy
  Tb  Tb0  1  0.313795  0.177076  0.121026  1
  Tb  Tb1  1  0.813803  0.322954  0.378958  1
  Tb  Tb2  1  0.186191  0.677096  0.878943  1
  Tb  Tb3  1  0.686212  0.822895  0.621072  1
  Tb  Tb4  1  0.313758  0.177045  0.378963  1
  Yb  Yb5  1  0.970551  0.815502  0.403123  1
  Yb  Yb6  1  0.470581  0.684476  0.096876  1
  Yb  Yb7  1  0.529436  0.315531  0.596894  1
  Yb  Yb8  1  0.029423  0.184476  0.903118  1
  Yb  Yb9  1  0.029498  0.184492  0.596889  1
  Yb  Yb10  1  0.529515  0.315521  0.903120  1
  Yb  Yb11  1  0.470515  0.684469  0.403120  1
  Yb  Yb12  1  0.970476  0.815511  0.096872  1
  Yb  Yb13  1  0.354807  0.019246  0.749992  1
  Yb  Yb14  1  0.854806  0.480745  0.750006  1
  Yb  Yb15  1  0.145180  0.519286  0.249993  1
  Yb  Yb16  1  0.645232  0.980731  0.249978  1
  Dy  Dy17  1  0.813796  0.323073  0.121049  1
  Dy  Dy18  1  0.186218  0.676938  0.621058  1
  Dy  Dy19  1  0.686213  0.823062  0.878939  1
  Si  Si20  1  0.859029  0.533088  0.538561  1
  Si  Si21  1  0.359034  0.966932  0.961438  1
  Si  Si22  1  0.641117  0.032988  0.461484  1
  Si  Si23  1  0.140964  0.466929  0.038560  1
  Si  Si24  1  0.141197  0.467079  0.461567  1
  Si  Si25  1  0.641346  0.033027  0.038495  1
  Si  Si26  1  0.358700  0.966863  0.538573  1
  Si  Si27  1  0.858651  0.533032  0.961508  1
  Si  Si28  1  0.978517  0.885499  0.750034  1
  Si  Si29  1  0.478507  0.614493  0.749967  1
  Si  Si30  1  0.521606  0.385617  0.249931  1
  Si  Si31  1  0.021383  0.114442  0.249966  1
  Si  Si32  1  0.249357  0.393867  0.749948  1
  Si  Si33  1  0.749360  0.106130  0.750054  1
  Si  Si34  1  0.250577  0.893764  0.249989  1
  Si  Si35  1  0.750649  0.606125  0.249935  1
