# generated using pymatgen
data_SmDy5(AuO7)2
_symmetry_space_group_name_H-M   'P 1'
_cell_length_a   6.50885099
_cell_length_b   6.50885074
_cell_length_c   7.47230552
_cell_angle_alpha   90.05570308
_cell_angle_beta   89.94429955
_cell_angle_gamma   108.81189696
_symmetry_Int_Tables_number   1
_chemical_formula_structural   SmDy5(AuO7)2
_chemical_formula_sum   'Sm1 Dy5 Au2 O14'
_cell_volume   299.65487121
_cell_formula_units_Z   1
loop_
 _symmetry_equiv_pos_site_id
 _symmetry_equiv_pos_as_xyz
  1  'x, y, z'
loop_
 _atom_site_type_symbol
 _atom_site_label
 _atom_site_symmetry_multiplicity
 _atom_site_fract_x
 _atom_site_fract_y
 _atom_site_fract_z
 _atom_site_occupancy
  Sm  Sm0  1  0.500000  0.500000  0.000000  1
  Dy  Dy1  1  0.500000  0.500000  0.500000  1
  Dy  Dy2  1  0.528530  0.998047  0.748392  1
  Dy  Dy3  1  0.998047  0.528530  0.251608  1
  Dy  Dy4  1  0.471470  0.001953  0.251608  1
  Dy  Dy5  1  0.001953  0.471470  0.748392  1
  Au  Au6  1  0.000000  0.000000  0.500000  1
  Au  Au7  1  0.000000  0.000000  0.000000  1
  O  O8  1  0.670794  0.918054  0.475639  1
  O  O9  1  0.918054  0.670794  0.524361  1
  O  O10  1  0.670531  0.921309  0.023871  1
  O  O11  1  0.921309  0.670531  0.976129  1
  O  O12  1  0.329206  0.081946  0.524361  1
  O  O13  1  0.081946  0.329206  0.475639  1
  O  O14  1  0.329469  0.078691  0.976129  1
  O  O15  1  0.078691  0.329469  0.023871  1
  O  O16  1  0.920499  0.079501  0.749909  1
  O  O17  1  0.079501  0.920499  0.250091  1
  O  O18  1  0.366286  0.633714  0.744916  1
  O  O19  1  0.633714  0.366286  0.255084  1
  O  O20  1  0.640263  0.359737  0.744848  1
  O  O21  1  0.359737  0.640263  0.255152  1
