# generated using pymatgen
data_Tb4Ga18IrPtRh4
_symmetry_space_group_name_H-M   'P 1'
_cell_length_a   7.62023883
_cell_length_b   7.62023763
_cell_length_c   9.56760000
_cell_angle_alpha   90.08212142
_cell_angle_beta   90.08211389
_cell_angle_gamma   120.06842629
_symmetry_Int_Tables_number   1
_chemical_formula_structural   Tb4Ga18IrPtRh4
_chemical_formula_sum   'Tb4 Ga18 Ir1 Pt1 Rh4'
_cell_volume   480.80512508
_cell_formula_units_Z   1
loop_
 _symmetry_equiv_pos_site_id
 _symmetry_equiv_pos_as_xyz
  1  'x, y, z'
loop_
 _atom_site_type_symbol
 _atom_site_label
 _atom_site_symmetry_multiplicity
 _atom_site_fract_x
 _atom_site_fract_y
 _atom_site_fract_z
 _atom_site_occupancy
  Tb  Tb0  1  0.996720  0.668528  0.249900  1
  Tb  Tb1  1  0.003127  0.331381  0.750068  1
  Tb  Tb2  1  0.668619  0.996873  0.249932  1
  Tb  Tb3  1  0.331472  0.003280  0.750100  1
  Ga  Ga4  1  0.128255  0.128474  0.252968  1
  Ga  Ga5  1  0.871526  0.871745  0.747032  1
  Ga  Ga6  1  0.000352  0.337674  0.080746  1
  Ga  Ga7  1  0.001063  0.662913  0.919160  1
  Ga  Ga8  1  0.000753  0.666022  0.578880  1
  Ga  Ga9  1  0.333978  0.999247  0.421120  1
  Ga  Ga10  1  0.999489  0.334135  0.421379  1
  Ga  Ga11  1  0.665865  0.000511  0.578621  1
  Ga  Ga12  1  0.662326  0.999648  0.919254  1
  Ga  Ga13  1  0.337087  0.998937  0.080840  1
  Ga  Ga14  1  0.333207  0.333278  0.563823  1
  Ga  Ga15  1  0.666722  0.666793  0.436177  1
  Ga  Ga16  1  0.662722  0.663167  0.065239  1
  Ga  Ga17  1  0.336833  0.337278  0.934761  1
  Ga  Ga18  1  0.337725  0.547590  0.250245  1
  Ga  Ga19  1  0.662097  0.452721  0.749153  1
  Ga  Ga20  1  0.547279  0.337903  0.250847  1
  Ga  Ga21  1  0.452410  0.662275  0.749755  1
  Ir  Ir22  1  0.671656  0.328344  0.000000  1
  Pt  Pt23  1  0.999858  0.000142  0.000000  1
  Rh  Rh24  1  0.328683  0.671317  0.000000  1
  Rh  Rh25  1  0.328734  0.671266  0.500000  1
  Rh  Rh26  1  0.671348  0.328652  0.500000  1
  Rh  Rh27  1  0.000094  0.999906  0.500000  1
