# generated using pymatgen
data_LiTb6Dy10In3Rh4
_symmetry_space_group_name_H-M   'P 1'
_cell_length_a   9.67510247
_cell_length_b   9.67425812
_cell_length_c   9.67697030
_cell_angle_alpha   59.92849202
_cell_angle_beta   59.94402660
_cell_angle_gamma   59.94792762
_symmetry_Int_Tables_number   1
_chemical_formula_structural   LiTb6Dy10In3Rh4
_chemical_formula_sum   'Li1 Tb6 Dy10 In3 Rh4'
_cell_volume   639.59885293
_cell_formula_units_Z   1
loop_
 _symmetry_equiv_pos_site_id
 _symmetry_equiv_pos_as_xyz
  1  'x, y, z'
loop_
 _atom_site_type_symbol
 _atom_site_label
 _atom_site_symmetry_multiplicity
 _atom_site_fract_x
 _atom_site_fract_y
 _atom_site_fract_z
 _atom_site_occupancy
  Li  Li0  1  0.427540  0.427460  0.427557  1
  Tb  Tb1  1  0.438178  0.061797  0.061706  1
  Tb  Tb2  1  0.436473  0.063398  0.436538  1
  Tb  Tb3  1  0.061748  0.438083  0.061772  1
  Tb  Tb4  1  0.650400  0.650141  0.047842  1
  Tb  Tb5  1  0.187185  0.813546  0.187290  1
  Tb  Tb6  1  0.063378  0.436334  0.436610  1
  Dy  Dy7  1  0.808691  0.808917  0.190896  1
  Dy  Dy8  1  0.808799  0.190986  0.808800  1
  Dy  Dy9  1  0.187160  0.187354  0.813518  1
  Dy  Dy10  1  0.650476  0.047524  0.650283  1
  Dy  Dy11  1  0.061457  0.061576  0.438458  1
  Dy  Dy12  1  0.436772  0.436566  0.063071  1
  Dy  Dy13  1  0.650443  0.650396  0.650463  1
  Dy  Dy14  1  0.813490  0.187302  0.187207  1
  Dy  Dy15  1  0.190975  0.808819  0.808599  1
  Dy  Dy16  1  0.047466  0.650415  0.650486  1
  In  In17  1  0.417967  0.417978  0.745071  1
  In  In18  1  0.417765  0.745140  0.418159  1
  In  In19  1  0.745150  0.417726  0.418092  1
  Rh  Rh20  1  0.857731  0.425848  0.857467  1
  Rh  Rh21  1  0.857234  0.857209  0.856650  1
  Rh  Rh22  1  0.857473  0.857740  0.426243  1
  Rh  Rh23  1  0.426051  0.857746  0.857222  1
