# generated using pymatgen
data_NaP4RuO13
_symmetry_space_group_name_H-M   'P 1'
_cell_length_a   5.11983168
_cell_length_b   8.02150733
_cell_length_c   15.41957810
_cell_angle_alpha   84.15363773
_cell_angle_beta   87.77088476
_cell_angle_gamma   80.49681388
_symmetry_Int_Tables_number   1
_chemical_formula_structural   NaP4RuO13
_chemical_formula_sum   'Na2 P8 Ru2 O26'
_cell_volume   621.16646108
_cell_formula_units_Z   2
loop_
 _symmetry_equiv_pos_site_id
 _symmetry_equiv_pos_as_xyz
  1  'x, y, z'
loop_
 _atom_site_type_symbol
 _atom_site_label
 _atom_site_symmetry_multiplicity
 _atom_site_fract_x
 _atom_site_fract_y
 _atom_site_fract_z
 _atom_site_occupancy
  Na  Na0  1  0.498926  0.498944  0.501625  1
  Na  Na1  1  0.971755  0.596330  0.007446  1
  P  P2  1  0.119174  0.779076  0.640350  1
  P  P3  1  0.294737  0.673593  0.294388  1
  P  P4  1  0.357071  0.584153  0.802551  1
  P  P5  1  0.629295  0.415956  0.192940  1
  P  P6  1  0.695917  0.323332  0.707477  1
  P  P7  1  0.870712  0.221866  0.354843  1
  P  P8  1  0.976200  0.892494  0.162753  1
  P  P9  1  0.014003  0.098898  0.838787  1
  Ru  Ru10  1  0.423575  0.058275  0.258665  1
  Ru  Ru11  1  0.567415  0.938834  0.738469  1
  O  O12  1  0.136018  0.034530  0.183850  1
  O  O13  1  0.020434  0.752201  0.248859  1
  O  O14  1  0.058255  0.812109  0.081900  1
  O  O15  1  0.169852  0.146411  0.350358  1
  O  O16  1  0.267868  0.546824  0.368628  1
  O  O17  1  0.162930  0.632094  0.722261  1
  O  O18  1  0.314520  0.027003  0.830567  1
  O  O19  1  0.204451  0.709519  0.556909  1
  O  O20  1  0.424591  0.291652  0.204222  1
  O  O21  1  0.215827  0.574014  0.887281  1
  O  O22  1  0.469652  0.597936  0.213591  1
  O  O23  1  0.423308  0.827268  0.315263  1
  O  O24  1  0.276304  0.920314  0.664622  1
  O  O25  1  0.712432  0.079653  0.331963  1
  O  O26  1  0.569302  0.170802  0.684018  1
  O  O27  1  0.511431  0.398912  0.786446  1
  O  O28  1  0.763543  0.436450  0.107428  1
  O  O29  1  0.785242  0.293614  0.437563  1
  O  O30  1  0.676767  0.966093  0.167748  1
  O  O31  1  0.568741  0.703729  0.790909  1
  O  O32  1  0.830792  0.364861  0.271276  1
  O  O33  1  0.727686  0.450178  0.633506  1
  O  O34  1  0.929247  0.165919  0.922484  1
  O  O35  1  0.819332  0.852678  0.645152  1
  O  O36  1  0.965953  0.245687  0.755157  1
  O  O37  1  0.857854  0.957032  0.812525  1
