# generated using pymatgen
data_Lu10In4SnBi
_symmetry_space_group_name_H-M   'P 1'
_cell_length_a   8.81504342
_cell_length_b   8.83754621
_cell_length_c   6.47977900
_cell_angle_alpha   90.00000000
_cell_angle_beta   90.00000000
_cell_angle_gamma   119.81195568
_symmetry_Int_Tables_number   1
_chemical_formula_structural   Lu10In4SnBi
_chemical_formula_sum   'Lu10 In4 Sn1 Bi1'
_cell_volume   437.99261877
_cell_formula_units_Z   1
loop_
 _symmetry_equiv_pos_site_id
 _symmetry_equiv_pos_as_xyz
  1  'x, y, z'
loop_
 _atom_site_type_symbol
 _atom_site_label
 _atom_site_symmetry_multiplicity
 _atom_site_fract_x
 _atom_site_fract_y
 _atom_site_fract_z
 _atom_site_occupancy
  Lu  Lu0  1  0.673526  0.334069  0.005329  1
  Lu  Lu1  1  0.334612  0.672300  0.004991  1
  Lu  Lu2  1  0.334612  0.672300  0.495009  1
  Lu  Lu3  1  0.673526  0.334069  0.494671  1
  Lu  Lu4  1  0.767687  0.770773  0.750000  1
  Lu  Lu5  1  0.232014  0.993070  0.750000  1
  Lu  Lu6  1  0.990593  0.231717  0.750000  1
  Lu  Lu7  1  0.232823  0.232062  0.250000  1
  Lu  Lu8  1  0.763419  0.999827  0.250000  1
  Lu  Lu9  1  0.000017  0.762465  0.250000  1
  In  In10  1  0.594477  0.999102  0.750000  1
  In  In11  1  0.601083  0.599281  0.250000  1
  In  In12  1  0.401202  0.003253  0.250000  1
  In  In13  1  0.004808  0.399120  0.250000  1
  Sn  Sn14  1  0.999548  0.600858  0.750000  1
  Bi  Bi15  1  0.396055  0.395734  0.750000  1
