# generated using pymatgen
data_PdPt(SeO3)4
_symmetry_space_group_name_H-M   'P 1'
_cell_length_a   8.14752900
_cell_length_b   8.08050460
_cell_length_c   7.96729856
_cell_angle_alpha   91.08421405
_cell_angle_beta   90.00000000
_cell_angle_gamma   90.00000000
_symmetry_Int_Tables_number   1
_chemical_formula_structural   PdPt(SeO3)4
_chemical_formula_sum   'Pd2 Pt2 Se8 O24'
_cell_volume   524.44231635
_cell_formula_units_Z   2
loop_
 _symmetry_equiv_pos_site_id
 _symmetry_equiv_pos_as_xyz
  1  'x, y, z'
loop_
 _atom_site_type_symbol
 _atom_site_label
 _atom_site_symmetry_multiplicity
 _atom_site_fract_x
 _atom_site_fract_y
 _atom_site_fract_z
 _atom_site_occupancy
  Pd  Pd0  1  0.000000  0.000000  0.500000  1
  Pd  Pd1  1  0.500000  0.000000  0.000000  1
  Pt  Pt2  1  0.000000  0.500000  0.000000  1
  Pt  Pt3  1  0.500000  0.500000  0.500000  1
  Se  Se4  1  0.335236  0.676092  0.180367  1
  Se  Se5  1  0.835236  0.323908  0.319633  1
  Se  Se6  1  0.681838  0.829390  0.665428  1
  Se  Se7  1  0.181838  0.170610  0.834572  1
  Se  Se8  1  0.664764  0.323908  0.819633  1
  Se  Se9  1  0.164764  0.676092  0.680367  1
  Se  Se10  1  0.318162  0.170610  0.334572  1
  Se  Se11  1  0.818162  0.829390  0.165428  1
  O  O12  1  0.239497  0.569461  0.013641  1
  O  O13  1  0.739497  0.430539  0.486359  1
  O  O14  1  0.754990  0.992611  0.542961  1
  O  O15  1  0.254990  0.007389  0.957039  1
  O  O16  1  0.514124  0.935913  0.751829  1
  O  O17  1  0.453064  0.506676  0.249747  1
  O  O18  1  0.953064  0.493324  0.250253  1
  O  O19  1  0.014124  0.064087  0.748171  1
  O  O20  1  0.993994  0.243436  0.441460  1
  O  O21  1  0.573445  0.738938  0.495671  1
  O  O22  1  0.493994  0.756564  0.058540  1
  O  O23  1  0.073445  0.261062  0.004329  1
  O  O24  1  0.760503  0.430539  0.986359  1
  O  O25  1  0.260503  0.569461  0.513641  1
  O  O26  1  0.245010  0.007389  0.457039  1
  O  O27  1  0.745010  0.992611  0.042961  1
  O  O28  1  0.485876  0.064087  0.248171  1
  O  O29  1  0.546936  0.493324  0.750253  1
  O  O30  1  0.046936  0.506676  0.749747  1
  O  O31  1  0.985876  0.935913  0.251829  1
  O  O32  1  0.006006  0.756564  0.558540  1
  O  O33  1  0.426555  0.261062  0.504329  1
  O  O34  1  0.506006  0.243436  0.941460  1
  O  O35  1  0.926555  0.738938  0.995671  1
