# generated using pymatgen
data_Th2InHgOs
_symmetry_space_group_name_H-M   'P 1'
_cell_length_a   8.05076900
_cell_length_b   8.18202700
_cell_length_c   3.93556600
_cell_angle_alpha   90.00000000
_cell_angle_beta   90.00000000
_cell_angle_gamma   90.00000000
_symmetry_Int_Tables_number   1
_chemical_formula_structural   Th2InHgOs
_chemical_formula_sum   'Th4 In2 Hg2 Os2'
_cell_volume   259.24206604
_cell_formula_units_Z   2
loop_
 _symmetry_equiv_pos_site_id
 _symmetry_equiv_pos_as_xyz
  1  'x, y, z'
loop_
 _atom_site_type_symbol
 _atom_site_label
 _atom_site_symmetry_multiplicity
 _atom_site_fract_x
 _atom_site_fract_y
 _atom_site_fract_z
 _atom_site_occupancy
  Th  Th0  1  0.171418  0.300599  0.500000  1
  Th  Th1  1  0.671418  0.199401  0.500000  1
  Th  Th2  1  0.824955  0.632110  0.500000  1
  Th  Th3  1  0.324955  0.867890  0.500000  1
  In  In4  1  0.997636  0.011375  0.000000  1
  In  In5  1  0.497636  0.488625  0.000000  1
  Hg  Hg6  1  0.141964  0.623629  0.000000  1
  Hg  Hg7  1  0.641964  0.876371  0.000000  1
  Os  Os8  1  0.364027  0.122165  0.000000  1
  Os  Os9  1  0.864027  0.377835  0.000000  1
