# generated using pymatgen
data_Sm11Y(SiBr3)4
_symmetry_space_group_name_H-M   'P 1'
_cell_length_a   10.30781741
_cell_length_b   10.28563957
_cell_length_c   10.27371409
_cell_angle_alpha   109.44407511
_cell_angle_beta   109.52657565
_cell_angle_gamma   109.53468552
_symmetry_Int_Tables_number   1
_chemical_formula_structural   Sm11Y(SiBr3)4
_chemical_formula_sum   'Sm11 Y1 Si4 Br12'
_cell_volume   837.55054484
_cell_formula_units_Z   1
loop_
 _symmetry_equiv_pos_site_id
 _symmetry_equiv_pos_as_xyz
  1  'x, y, z'
loop_
 _atom_site_type_symbol
 _atom_site_label
 _atom_site_symmetry_multiplicity
 _atom_site_fract_x
 _atom_site_fract_y
 _atom_site_fract_z
 _atom_site_occupancy
  Sm  Sm0  1  0.262295  0.012295  0.024593  1
  Sm  Sm1  1  0.025141  0.263967  0.012246  1
  Sm  Sm2  1  0.487108  0.748286  0.012250  1
  Sm  Sm3  1  0.750219  0.237420  0.263400  1
  Sm  Sm4  1  0.013181  0.025987  0.263408  1
  Sm  Sm5  1  0.013404  0.488492  0.751189  1
  Sm  Sm6  1  0.237787  0.262701  0.751196  1
  Sm  Sm7  1  0.262106  0.748687  0.236571  1
  Sm  Sm8  1  0.237373  0.475379  0.488432  1
  Sm  Sm9  1  0.474471  0.487887  0.236578  1
  Sm  Sm10  1  0.751058  0.013046  0.488437  1
  Y  Y11  1  0.484786  0.234782  0.469568  1
  Si  Si12  1  0.000246  0.250243  0.500483  1
  Si  Si13  1  0.250067  0.500066  0.000136  1
  Si  Si14  1  0.499966  0.000793  0.250965  1
  Si  Si15  1  0.250997  0.250173  0.250969  1
  Br  Br16  1  0.755527  0.745632  0.250755  1
  Br  Br17  1  0.505065  0.249700  0.995976  1
  Br  Br18  1  0.256890  0.001516  0.506355  1
  Br  Br19  1  0.509049  0.499451  0.750644  1
  Br  Br20  1  0.995484  0.990758  0.745762  1
  Br  Br21  1  0.745548  0.995551  0.991101  1
  Br  Br22  1  0.504756  0.754755  0.509511  1
  Br  Br23  1  0.749474  0.504843  0.506350  1
  Br  Br24  1  0.995228  0.505123  0.250753  1
  Br  Br25  1  0.990906  0.746274  0.995973  1
  Br  Br26  1  0.250274  0.755005  0.745759  1
  Br  Br27  1  0.741594  0.251189  0.750639  1
