# generated using pymatgen
data_K3Sb2Br9
_symmetry_space_group_name_H-M   'P 1'
_cell_length_a   7.92587757
_cell_length_b   7.92587654
_cell_length_c   19.83428848
_cell_angle_alpha   86.45328120
_cell_angle_beta   86.45328100
_cell_angle_gamma   119.19992470
_symmetry_Int_Tables_number   1
_chemical_formula_structural   K3Sb2Br9
_chemical_formula_sum   'K6 Sb4 Br18'
_cell_volume   1079.48681656
_cell_formula_units_Z   2
loop_
 _symmetry_equiv_pos_site_id
 _symmetry_equiv_pos_as_xyz
  1  'x, y, z'
loop_
 _atom_site_type_symbol
 _atom_site_label
 _atom_site_symmetry_multiplicity
 _atom_site_fract_x
 _atom_site_fract_y
 _atom_site_fract_z
 _atom_site_occupancy
  K  K0  1  0.963929  0.036071  0.250000  1
  K  K1  1  0.688597  0.316761  0.572975  1
  K  K2  1  0.036071  0.963929  0.750000  1
  K  K3  1  0.316761  0.688597  0.072975  1
  K  K4  1  0.311403  0.683239  0.427025  1
  K  K5  1  0.683239  0.311403  0.927025  1
  Sb  Sb6  1  0.622655  0.290091  0.155553  1
  Sb  Sb7  1  0.377345  0.709909  0.844447  1
  Sb  Sb8  1  0.290091  0.622655  0.655553  1
  Sb  Sb9  1  0.709909  0.377345  0.344447  1
  Br  Br10  1  0.583186  0.749874  0.558247  1
  Br  Br11  1  0.416814  0.250126  0.441753  1
  Br  Br12  1  0.519740  0.998736  0.285686  1
  Br  Br13  1  0.247844  0.906079  0.920611  1
  Br  Br14  1  0.906079  0.247844  0.420611  1
  Br  Br15  1  0.749874  0.583186  0.058247  1
  Br  Br16  1  0.752156  0.093921  0.079389  1
  Br  Br17  1  0.263722  0.093509  0.112639  1
  Br  Br18  1  0.480260  0.001264  0.714314  1
  Br  Br19  1  0.001264  0.480260  0.214314  1
  Br  Br20  1  0.093921  0.752156  0.579389  1
  Br  Br21  1  0.998736  0.519740  0.785686  1
  Br  Br22  1  0.500966  0.499034  0.250000  1
  Br  Br23  1  0.906491  0.736278  0.387361  1
  Br  Br24  1  0.093509  0.263722  0.612639  1
  Br  Br25  1  0.736278  0.906491  0.887361  1
  Br  Br26  1  0.499034  0.500966  0.750000  1
  Br  Br27  1  0.250126  0.416814  0.941753  1
