# generated using pymatgen
data_Gd3Er5(BeSi3)4
_symmetry_space_group_name_H-M   'P 1'
_cell_length_a   7.82204000
_cell_length_b   7.82204196
_cell_length_c   7.98678500
_cell_angle_alpha   90.00000000
_cell_angle_beta   90.00000000
_cell_angle_gamma   120.00148033
_symmetry_Int_Tables_number   1
_chemical_formula_structural   Gd3Er5(BeSi3)4
_chemical_formula_sum   'Gd3 Er5 Be4 Si12'
_cell_volume   423.19090047
_cell_formula_units_Z   1
loop_
 _symmetry_equiv_pos_site_id
 _symmetry_equiv_pos_as_xyz
  1  'x, y, z'
loop_
 _atom_site_type_symbol
 _atom_site_label
 _atom_site_symmetry_multiplicity
 _atom_site_fract_x
 _atom_site_fract_y
 _atom_site_fract_z
 _atom_site_occupancy
  Gd  Gd0  1  0.999935  0.000065  0.250000  1
  Gd  Gd1  1  0.999833  0.000167  0.750000  1
  Gd  Gd2  1  0.499380  0.500620  0.250000  1
  Er  Er3  1  0.499484  0.998907  0.250000  1
  Er  Er4  1  0.001093  0.500516  0.250000  1
  Er  Er5  1  0.500600  0.499400  0.750000  1
  Er  Er6  1  0.998783  0.499396  0.750000  1
  Er  Er7  1  0.500604  0.001217  0.750000  1
  Be  Be8  1  0.666866  0.333134  0.497121  1
  Be  Be9  1  0.666866  0.333134  0.002879  1
  Be  Be10  1  0.333213  0.666787  0.994866  1
  Be  Be11  1  0.333213  0.666787  0.505134  1
  Si  Si12  1  0.826981  0.173019  0.500336  1
  Si  Si13  1  0.827569  0.654270  0.500471  1
  Si  Si14  1  0.345730  0.172431  0.500471  1
  Si  Si15  1  0.826981  0.173019  0.999664  1
  Si  Si16  1  0.827569  0.654270  0.999529  1
  Si  Si17  1  0.345730  0.172431  0.999529  1
  Si  Si18  1  0.172999  0.827001  0.999256  1
  Si  Si19  1  0.654267  0.827481  0.999094  1
  Si  Si20  1  0.172519  0.345733  0.999094  1
  Si  Si21  1  0.172999  0.827001  0.500744  1
  Si  Si22  1  0.654267  0.827481  0.500906  1
  Si  Si23  1  0.172519  0.345733  0.500906  1
