# generated using pymatgen
data_Ba6Tm2OsO12
_symmetry_space_group_name_H-M   'P 1'
_cell_length_a   9.41673902
_cell_length_b   9.41673691
_cell_length_c   7.46510400
_cell_angle_alpha   67.89612481
_cell_angle_beta   67.89613005
_cell_angle_gamma   36.94873695
_symmetry_Int_Tables_number   1
_chemical_formula_structural   Ba6Tm2OsO12
_chemical_formula_sum   'Ba6 Tm2 Os1 O12'
_cell_volume   365.25431946
_cell_formula_units_Z   1
loop_
 _symmetry_equiv_pos_site_id
 _symmetry_equiv_pos_as_xyz
  1  'x, y, z'
loop_
 _atom_site_type_symbol
 _atom_site_label
 _atom_site_symmetry_multiplicity
 _atom_site_fract_x
 _atom_site_fract_y
 _atom_site_fract_z
 _atom_site_occupancy
  Ba  Ba0  1  0.876902  0.876902  0.711314  1
  Ba  Ba1  1  0.219022  0.219022  0.707057  1
  Ba  Ba2  1  0.548707  0.548707  0.702889  1
  Ba  Ba3  1  0.451293  0.451293  0.297111  1
  Ba  Ba4  1  0.780978  0.780978  0.292943  1
  Ba  Ba5  1  0.123098  0.123098  0.288686  1
  Tm  Tm6  1  0.665289  0.665289  0.998474  1
  Tm  Tm7  1  0.334711  0.334711  0.001526  1
  Os  Os8  1  0.000000  0.000000  0.000000  1
  O  O9  1  0.952071  0.952071  0.290688  1
  O  O10  1  0.282617  0.282617  0.328230  1
  O  O11  1  0.606664  0.606664  0.327894  1
  O  O12  1  0.393336  0.393336  0.672106  1
  O  O13  1  0.717383  0.717383  0.671770  1
  O  O14  1  0.047929  0.047929  0.709312  1
  O  O15  1  0.500000  0.000000  0.000000  1
  O  O16  1  0.845999  0.306291  0.001014  1
  O  O17  1  0.154001  0.693709  0.998986  1
  O  O18  1  0.000000  0.500000  0.000000  1
  O  O19  1  0.306291  0.845999  0.001014  1
  O  O20  1  0.693709  0.154001  0.998986  1
