# generated using pymatgen
data_Sc4Mn5Re3
_symmetry_space_group_name_H-M   'P 1'
_cell_length_a   5.15188500
_cell_length_b   5.04461610
_cell_length_c   8.27493400
_cell_angle_alpha   90.00000000
_cell_angle_beta   90.00000000
_cell_angle_gamma   120.70593072
_symmetry_Int_Tables_number   1
_chemical_formula_structural   Sc4Mn5Re3
_chemical_formula_sum   'Sc4 Mn5 Re3'
_cell_volume   184.90811380
_cell_formula_units_Z   1
loop_
 _symmetry_equiv_pos_site_id
 _symmetry_equiv_pos_as_xyz
  1  'x, y, z'
loop_
 _atom_site_type_symbol
 _atom_site_label
 _atom_site_symmetry_multiplicity
 _atom_site_fract_x
 _atom_site_fract_y
 _atom_site_fract_z
 _atom_site_occupancy
  Sc  Sc0  1  0.332557  0.665116  0.437010  1
  Sc  Sc1  1  0.666021  0.332041  0.936174  1
  Sc  Sc2  1  0.666021  0.332041  0.563826  1
  Sc  Sc3  1  0.332557  0.665116  0.062990  1
  Mn  Mn4  1  0.654358  0.824047  0.750000  1
  Mn  Mn5  1  0.338228  0.167455  0.250000  1
  Mn  Mn6  1  0.829227  0.167455  0.250000  1
  Mn  Mn7  1  0.183118  0.366236  0.750000  1
  Mn  Mn8  1  0.169689  0.824047  0.750000  1
  Re  Re9  1  0.823748  0.647496  0.250000  1
  Re  Re10  1  0.002238  0.004476  0.510170  1
  Re  Re11  1  0.002238  0.004476  0.989830  1
