# generated using pymatgen
data_Li4Ac2PrSn4
_symmetry_space_group_name_H-M   'P 1'
_cell_length_a   9.12840467
_cell_length_b   9.12840581
_cell_length_c   9.12840493
_cell_angle_alpha   148.81582471
_cell_angle_beta   133.00968735
_cell_angle_gamma   57.47759637
_symmetry_Int_Tables_number   1
_chemical_formula_structural   Li4Ac2PrSn4
_chemical_formula_sum   'Li4 Ac2 Pr1 Sn4'
_cell_volume   285.87667942
_cell_formula_units_Z   1
loop_
 _symmetry_equiv_pos_site_id
 _symmetry_equiv_pos_as_xyz
  1  'x, y, z'
loop_
 _atom_site_type_symbol
 _atom_site_label
 _atom_site_symmetry_multiplicity
 _atom_site_fract_x
 _atom_site_fract_y
 _atom_site_fract_z
 _atom_site_occupancy
  Li  Li0  1  0.641688  0.329355  0.312333  1
  Li  Li1  1  0.358312  0.670645  0.687667  1
  Li  Li2  1  0.017021  0.329355  0.687667  1
  Li  Li3  1  0.982979  0.670645  0.312333  1
  Ac  Ac4  1  0.367662  0.867662  0.500000  1
  Ac  Ac5  1  0.632338  0.132338  0.500000  1
  Pr  Pr6  1  0.000000  0.000000  0.000000  1
  Sn  Sn7  1  0.210124  0.210124  0.000000  1
  Sn  Sn8  1  0.789876  0.789876  0.000000  1
  Sn  Sn9  1  0.701701  0.500000  0.201701  1
  Sn  Sn10  1  0.298299  0.500000  0.798299  1
