# generated using pymatgen
data_NdBiHRh
_symmetry_space_group_name_H-M   'P 1'
_cell_length_a   4.69594200
_cell_length_b   7.39874800
_cell_length_c   8.56212700
_cell_angle_alpha   90.00000000
_cell_angle_beta   90.00000000
_cell_angle_gamma   90.00000000
_symmetry_Int_Tables_number   1
_chemical_formula_structural   NdBiHRh
_chemical_formula_sum   'Nd4 Bi4 H4 Rh4'
_cell_volume   297.48332376
_cell_formula_units_Z   4
loop_
 _symmetry_equiv_pos_site_id
 _symmetry_equiv_pos_as_xyz
  1  'x, y, z'
loop_
 _atom_site_type_symbol
 _atom_site_label
 _atom_site_symmetry_multiplicity
 _atom_site_fract_x
 _atom_site_fract_y
 _atom_site_fract_z
 _atom_site_occupancy
  Nd  Nd0  1  0.750000  0.015035  0.694317  1
  Nd  Nd1  1  0.250000  0.984965  0.305683  1
  Nd  Nd2  1  0.250000  0.484965  0.194317  1
  Nd  Nd3  1  0.750000  0.515035  0.805683  1
  Bi  Bi4  1  0.750000  0.666148  0.415787  1
  Bi  Bi5  1  0.250000  0.333852  0.584213  1
  Bi  Bi6  1  0.250000  0.833852  0.915787  1
  Bi  Bi7  1  0.750000  0.166148  0.084213  1
  H  H8  1  0.250000  0.450958  0.918091  1
  H  H9  1  0.750000  0.549042  0.081909  1
  H  H10  1  0.750000  0.049042  0.418091  1
  H  H11  1  0.250000  0.950958  0.581909  1
  Rh  Rh12  1  0.750000  0.775865  0.092339  1
  Rh  Rh13  1  0.250000  0.224135  0.907661  1
  Rh  Rh14  1  0.250000  0.724135  0.592339  1
  Rh  Rh15  1  0.750000  0.275865  0.407661  1
