# generated using pymatgen
data_Ac4La5DyPb8
_symmetry_space_group_name_H-M   'P 1'
_cell_length_a   8.71226600
_cell_length_b   8.74024200
_cell_length_c   16.63479800
_cell_angle_alpha   90.00000000
_cell_angle_beta   90.00000000
_cell_angle_gamma   90.00000000
_symmetry_Int_Tables_number   1
_chemical_formula_structural   Ac4La5DyPb8
_chemical_formula_sum   'Ac8 La10 Dy2 Pb16'
_cell_volume   1266.69517346
_cell_formula_units_Z   2
loop_
 _symmetry_equiv_pos_site_id
 _symmetry_equiv_pos_as_xyz
  1  'x, y, z'
loop_
 _atom_site_type_symbol
 _atom_site_label
 _atom_site_symmetry_multiplicity
 _atom_site_fract_x
 _atom_site_fract_y
 _atom_site_fract_z
 _atom_site_occupancy
  Ac  Ac0  1  0.523786  0.323369  0.902761  1
  Ac  Ac1  1  0.023786  0.176631  0.597239  1
  Ac  Ac2  1  0.476270  0.677156  0.401630  1
  Ac  Ac3  1  0.976270  0.822844  0.098370  1
  Ac  Ac4  1  0.476270  0.677156  0.098370  1
  Ac  Ac5  1  0.976270  0.822844  0.401630  1
  Ac  Ac6  1  0.523786  0.323369  0.597239  1
  Ac  Ac7  1  0.023786  0.176631  0.902761  1
  La  La8  1  0.367814  0.845080  0.880936  1
  La  La9  1  0.867814  0.654920  0.619064  1
  La  La10  1  0.632214  0.154947  0.379456  1
  La  La11  1  0.132214  0.345053  0.120544  1
  La  La12  1  0.632214  0.154947  0.120544  1
  La  La13  1  0.132214  0.345053  0.379456  1
  La  La14  1  0.367814  0.845080  0.619064  1
  La  La15  1  0.867814  0.654920  0.880936  1
  La  La16  1  0.206020  0.501357  0.750000  1
  La  La17  1  0.706020  0.998643  0.750000  1
  Dy  Dy18  1  0.793090  0.497828  0.250000  1
  Dy  Dy19  1  0.293090  0.002172  0.250000  1
  Pb  Pb20  1  0.294976  0.040508  0.047212  1
  Pb  Pb21  1  0.794976  0.459492  0.452788  1
  Pb  Pb22  1  0.704732  0.958524  0.544689  1
  Pb  Pb23  1  0.204732  0.541476  0.955311  1
  Pb  Pb24  1  0.704732  0.958524  0.955311  1
  Pb  Pb25  1  0.204732  0.541476  0.544689  1
  Pb  Pb26  1  0.294976  0.040508  0.452788  1
  Pb  Pb27  1  0.794976  0.459492  0.047212  1
  Pb  Pb28  1  0.566990  0.627605  0.750000  1
  Pb  Pb29  1  0.066990  0.872395  0.750000  1
  Pb  Pb30  1  0.436965  0.369166  0.250000  1
  Pb  Pb31  1  0.936965  0.130834  0.250000  1
  Pb  Pb32  1  0.333352  0.144260  0.750000  1
  Pb  Pb33  1  0.833352  0.355740  0.750000  1
  Pb  Pb34  1  0.663995  0.850569  0.250000  1
  Pb  Pb35  1  0.163995  0.649431  0.250000  1
