# generated using pymatgen
data_Li2Er(Rh2Pb)3
_symmetry_space_group_name_H-M   'P 1'
_cell_length_a   4.61105884
_cell_length_b   6.40229500
_cell_length_c   13.79876949
_cell_angle_alpha   90.00000000
_cell_angle_beta   90.06896147
_cell_angle_gamma   90.00000000
_symmetry_Int_Tables_number   1
_chemical_formula_structural   Li2Er(Rh2Pb)3
_chemical_formula_sum   'Li4 Er2 Rh12 Pb6'
_cell_volume   407.35813202
_cell_formula_units_Z   2
loop_
 _symmetry_equiv_pos_site_id
 _symmetry_equiv_pos_as_xyz
  1  'x, y, z'
loop_
 _atom_site_type_symbol
 _atom_site_label
 _atom_site_symmetry_multiplicity
 _atom_site_fract_x
 _atom_site_fract_y
 _atom_site_fract_z
 _atom_site_occupancy
  Li  Li0  1  0.999843  0.000000  0.337215  1
  Li  Li1  1  0.500012  0.500000  0.501010  1
  Li  Li2  1  0.000143  0.000000  0.665609  1
  Li  Li3  1  0.500134  0.500000  0.829347  1
  Er  Er4  1  0.999996  0.000000  0.997253  1
  Er  Er5  1  0.499851  0.500000  0.169540  1
  Rh  Rh6  1  0.499995  0.252438  0.994035  1
  Rh  Rh7  1  0.499995  0.747561  0.994035  1
  Rh  Rh8  1  0.999830  0.247529  0.172667  1
  Rh  Rh9  1  0.999830  0.752470  0.172667  1
  Rh  Rh10  1  0.499886  0.246851  0.339376  1
  Rh  Rh11  1  0.499886  0.753149  0.339376  1
  Rh  Rh12  1  0.999992  0.242159  0.501551  1
  Rh  Rh13  1  0.999992  0.757840  0.501551  1
  Rh  Rh14  1  0.500172  0.257845  0.665029  1
  Rh  Rh15  1  0.500172  0.742155  0.665029  1
  Rh  Rh16  1  0.000121  0.253207  0.827367  1
  Rh  Rh17  1  0.000121  0.746792  0.827367  1
  Pb  Pb18  1  0.999968  0.500000  0.993190  1
  Pb  Pb19  1  0.499944  0.000000  0.173432  1
  Pb  Pb20  1  0.999793  0.500000  0.345064  1
  Pb  Pb21  1  0.500023  0.000000  0.505691  1
  Pb  Pb22  1  0.000193  0.500000  0.660955  1
  Pb  Pb23  1  0.500111  0.000000  0.821649  1
