# generated using pymatgen
data_Ti6SeI9N
_symmetry_space_group_name_H-M   'P 1'
_cell_length_a   10.62966672
_cell_length_b   10.76216173
_cell_length_c   12.70776919
_cell_angle_alpha   106.32537909
_cell_angle_beta   106.39956313
_cell_angle_gamma   112.59503196
_symmetry_Int_Tables_number   1
_chemical_formula_structural   Ti6SeI9N
_chemical_formula_sum   'Ti12 Se2 I18 N2'
_cell_volume   1156.31695563
_cell_formula_units_Z   2
loop_
 _symmetry_equiv_pos_site_id
 _symmetry_equiv_pos_as_xyz
  1  'x, y, z'
loop_
 _atom_site_type_symbol
 _atom_site_label
 _atom_site_symmetry_multiplicity
 _atom_site_fract_x
 _atom_site_fract_y
 _atom_site_fract_z
 _atom_site_occupancy
  Ti  Ti0  1  0.192033  0.124129  0.171712  1
  Ti  Ti1  1  0.807967  0.875871  0.828288  1
  Ti  Ti2  1  0.925794  0.808779  0.033253  1
  Ti  Ti3  1  0.074206  0.191221  0.966747  1
  Ti  Ti4  1  0.881093  0.066561  0.084637  1
  Ti  Ti5  1  0.118907  0.933439  0.915363  1
  Ti  Ti6  1  0.191853  0.120302  0.480984  1
  Ti  Ti7  1  0.808147  0.879698  0.519016  1
  Ti  Ti8  1  0.878257  0.068316  0.393835  1
  Ti  Ti9  1  0.121743  0.931684  0.606165  1
  Ti  Ti10  1  0.929765  0.810160  0.345717  1
  Ti  Ti11  1  0.070235  0.189840  0.654283  1
  Se  Se12  1  0.000103  0.998705  0.251813  1
  Se  Se13  1  0.999897  0.001295  0.748187  1
  I  I14  1  0.626105  0.763829  0.942880  1
  I  I15  1  0.373895  0.236171  0.057120  1
  I  I16  1  0.571850  0.734754  0.585631  1
  I  I17  1  0.428150  0.265246  0.414369  1
  I  I18  1  0.137384  0.369445  0.531448  1
  I  I19  1  0.862616  0.630555  0.468552  1
  I  I20  1  0.843964  0.576680  0.112366  1
  I  I21  1  0.156036  0.423320  0.887634  1
  I  I22  1  0.233242  0.868324  0.109792  1
  I  I23  1  0.766758  0.131676  0.890208  1
  I  I24  1  0.729295  0.151755  0.221290  1
  I  I25  1  0.270705  0.848245  0.778710  1
  I  I26  1  0.136780  0.369073  0.208487  1
  I  I27  1  0.863220  0.630927  0.791513  1
  I  I28  1  0.237446  0.864937  0.436539  1
  I  I29  1  0.762554  0.135063  0.563461  1
  I  I30  1  0.624374  0.762876  0.266691  1
  I  I31  1  0.375626  0.237124  0.733309  1
  N  N32  1  0.000000  0.000000  0.500000  1
  N  N33  1  0.000000  0.000000  0.000000  1
