# generated using pymatgen
data_La19YSi15Se
_symmetry_space_group_name_H-M   'P 1'
_cell_length_a   8.13220428
_cell_length_b   8.08880777
_cell_length_c   15.71177400
_cell_angle_alpha   89.78468011
_cell_angle_beta   89.21190319
_cell_angle_gamma   89.94262223
_symmetry_Int_Tables_number   1
_chemical_formula_structural   La19YSi15Se
_chemical_formula_sum   'La19 Y1 Si15 Se1'
_cell_volume   1033.41240397
_cell_formula_units_Z   1
loop_
 _symmetry_equiv_pos_site_id
 _symmetry_equiv_pos_as_xyz
  1  'x, y, z'
loop_
 _atom_site_type_symbol
 _atom_site_label
 _atom_site_symmetry_multiplicity
 _atom_site_fract_x
 _atom_site_fract_y
 _atom_site_fract_z
 _atom_site_occupancy
  La  La0  1  0.188520  0.808100  0.249239  1
  La  La1  1  0.800025  0.190618  0.751995  1
  La  La2  1  0.687508  0.689811  0.497391  1
  La  La3  1  0.381368  0.006175  0.443291  1
  La  La4  1  0.492145  0.876866  0.698632  1
  La  La5  1  0.508662  0.120763  0.195367  1
  La  La6  1  0.877720  0.487151  0.300725  1
  La  La7  1  0.123069  0.509323  0.804374  1
  La  La8  1  0.629054  0.986643  0.950494  1
  La  La9  1  0.999477  0.381000  0.548650  1
  La  La10  1  0.991311  0.621188  0.053213  1
  La  La11  1  0.137513  0.987346  0.873588  1
  La  La12  1  0.518172  0.629329  0.125692  1
  La  La13  1  0.477300  0.370514  0.631261  1
  La  La14  1  0.633148  0.521608  0.876398  1
  La  La15  1  0.370434  0.477966  0.373289  1
  La  La16  1  0.870423  0.019535  0.376120  1
  La  La17  1  0.981950  0.128671  0.124137  1
  La  La18  1  0.015671  0.867753  0.621941  1
  Y  Y19  1  0.314091  0.310753  0.999745  1
  Si  Si20  1  0.329025  0.694616  0.953651  1
  Si  Si21  1  0.662888  0.304039  0.456120  1
  Si  Si22  1  0.698418  0.333117  0.047792  1
  Si  Si23  1  0.302686  0.666841  0.547349  1
  Si  Si24  1  0.803269  0.830749  0.203721  1
  Si  Si25  1  0.168853  0.194796  0.294309  1
  Si  Si26  1  0.839743  0.804082  0.795726  1
  Si  Si27  1  0.289116  0.925801  0.057107  1
  Si  Si28  1  0.578165  0.787200  0.307828  1
  Si  Si29  1  0.449195  0.213042  0.828876  1
  Si  Si30  1  0.789879  0.579848  0.690027  1
  Si  Si31  1  0.212631  0.418914  0.186840  1
  Si  Si32  1  0.701715  0.077123  0.560590  1
  Si  Si33  1  0.930896  0.291697  0.941778  1
  Si  Si34  1  0.078035  0.709427  0.441002  1
  Se  Se35  1  0.167922  0.177596  0.691740  1
