# generated using pymatgen
data_Nb3CrCo2C
_symmetry_space_group_name_H-M   'P 1'
_cell_length_a   8.06553274
_cell_length_b   8.06556541
_cell_length_c   8.06573501
_cell_angle_alpha   59.99891449
_cell_angle_beta   60.00163774
_cell_angle_gamma   60.00089679
_symmetry_Int_Tables_number   1
_chemical_formula_structural   Nb3CrCo2C
_chemical_formula_sum   'Nb12 Cr4 Co8 C4'
_cell_volume   371.02364082
_cell_formula_units_Z   4
loop_
 _symmetry_equiv_pos_site_id
 _symmetry_equiv_pos_as_xyz
  1  'x, y, z'
loop_
 _atom_site_type_symbol
 _atom_site_label
 _atom_site_symmetry_multiplicity
 _atom_site_fract_x
 _atom_site_fract_y
 _atom_site_fract_z
 _atom_site_occupancy
  Nb  Nb0  1  0.803573  0.803575  0.196417  1
  Nb  Nb1  1  0.196427  0.196420  0.803576  1
  Nb  Nb2  1  0.803590  0.196414  0.803579  1
  Nb  Nb3  1  0.196426  0.803590  0.196405  1
  Nb  Nb4  1  0.196429  0.803572  0.803570  1
  Nb  Nb5  1  0.803600  0.196403  0.196400  1
  Nb  Nb6  1  0.446407  0.446411  0.053596  1
  Nb  Nb7  1  0.053599  0.053585  0.446411  1
  Nb  Nb8  1  0.446396  0.053586  0.446407  1
  Nb  Nb9  1  0.053592  0.446397  0.053613  1
  Nb  Nb10  1  0.053582  0.446416  0.446413  1
  Nb  Nb11  1  0.446394  0.053596  0.053619  1
  Cr  Cr12  1  0.125097  0.624980  0.624958  1
  Cr  Cr13  1  0.624975  0.125072  0.624995  1
  Cr  Cr14  1  0.624959  0.624994  0.125075  1
  Cr  Cr15  1  0.624972  0.624965  0.624968  1
  Co  Co16  1  0.726788  0.424408  0.424383  1
  Co  Co17  1  0.424402  0.726803  0.424391  1
  Co  Co18  1  0.424411  0.424420  0.726759  1
  Co  Co19  1  0.424418  0.424405  0.424380  1
  Co  Co20  1  0.523181  0.825605  0.825627  1
  Co  Co21  1  0.825600  0.523182  0.825617  1
  Co  Co22  1  0.825596  0.825596  0.523205  1
  Co  Co23  1  0.825587  0.825607  0.825634  1
  C  C24  1  0.625004  0.124996  0.124998  1
  C  C25  1  0.124996  0.625005  0.125002  1
  C  C26  1  0.124998  0.125001  0.625000  1
  C  C27  1  0.125001  0.124995  0.125001  1
