# generated using pymatgen
data_LiHo8GePd23
_symmetry_space_group_name_H-M   'P 1'
_cell_length_a   8.27245500
_cell_length_b   8.34866500
_cell_length_c   8.38061300
_cell_angle_alpha   90.00000000
_cell_angle_beta   90.00000000
_cell_angle_gamma   90.00000000
_symmetry_Int_Tables_number   1
_chemical_formula_structural   LiHo8GePd23
_chemical_formula_sum   'Li1 Ho8 Ge1 Pd23'
_cell_volume   578.79828348
_cell_formula_units_Z   1
loop_
 _symmetry_equiv_pos_site_id
 _symmetry_equiv_pos_as_xyz
  1  'x, y, z'
loop_
 _atom_site_type_symbol
 _atom_site_label
 _atom_site_symmetry_multiplicity
 _atom_site_fract_x
 _atom_site_fract_y
 _atom_site_fract_z
 _atom_site_occupancy
  Li  Li0  1  0.264474  0.500000  0.000000  1
  Ho  Ho1  1  0.253250  0.248235  0.260399  1
  Ho  Ho2  1  0.746421  0.745803  0.747611  1
  Ho  Ho3  1  0.746421  0.745803  0.252389  1
  Ho  Ho4  1  0.746421  0.254197  0.747611  1
  Ho  Ho5  1  0.253250  0.248235  0.739601  1
  Ho  Ho6  1  0.253250  0.751765  0.260399  1
  Ho  Ho7  1  0.253250  0.751765  0.739601  1
  Ho  Ho8  1  0.746421  0.254197  0.252389  1
  Ge  Ge9  1  0.997759  0.000000  0.000000  1
  Pd  Pd10  1  0.741459  0.500000  0.000000  1
  Pd  Pd11  1  0.998715  0.258707  0.500000  1
  Pd  Pd12  1  0.494033  0.263385  0.000000  1
  Pd  Pd13  1  0.998715  0.741293  0.500000  1
  Pd  Pd14  1  0.494033  0.736615  0.000000  1
  Pd  Pd15  1  0.500572  0.000000  0.259928  1
  Pd  Pd16  1  0.258408  0.000000  0.500000  1
  Pd  Pd17  1  0.500572  0.000000  0.740072  1
  Pd  Pd18  1  0.740749  0.000000  0.500000  1
  Pd  Pd19  1  0.002713  0.500000  0.260029  1
  Pd  Pd20  1  0.002713  0.500000  0.739971  1
  Pd  Pd21  1  0.252905  0.500000  0.500000  1
  Pd  Pd22  1  0.747157  0.500000  0.500000  1
  Pd  Pd23  1  0.501204  0.253176  0.500000  1
  Pd  Pd24  1  0.501204  0.746824  0.500000  1
  Pd  Pd25  1  0.495847  0.500000  0.251736  1
  Pd  Pd26  1  0.495847  0.500000  0.748264  1
  Pd  Pd27  1  0.288687  0.000000  0.000000  1
  Pd  Pd28  1  0.707409  0.000000  0.000000  1
  Pd  Pd29  1  0.009627  0.292192  0.000000  1
  Pd  Pd30  1  0.009627  0.707808  0.000000  1
  Pd  Pd31  1  0.998443  0.000000  0.286823  1
  Pd  Pd32  1  0.998443  0.000000  0.713177  1
