# generated using pymatgen
data_Nd8CdInTc2
_symmetry_space_group_name_H-M   'P 1'
_cell_length_a   9.94552302
_cell_length_b   9.94552337
_cell_length_c   9.98128500
_cell_angle_alpha   59.88097872
_cell_angle_beta   59.88097755
_cell_angle_gamma   59.78590913
_symmetry_Int_Tables_number   1
_chemical_formula_structural   Nd8CdInTc2
_chemical_formula_sum   'Nd16 Cd2 In2 Tc4'
_cell_volume   695.72561509
_cell_formula_units_Z   2
loop_
 _symmetry_equiv_pos_site_id
 _symmetry_equiv_pos_as_xyz
  1  'x, y, z'
loop_
 _atom_site_type_symbol
 _atom_site_label
 _atom_site_symmetry_multiplicity
 _atom_site_fract_x
 _atom_site_fract_y
 _atom_site_fract_z
 _atom_site_occupancy
  Nd  Nd0  1  0.595633  0.595633  0.595659  1
  Nd  Nd1  1  0.595633  0.595633  0.213076  1
  Nd  Nd2  1  0.596620  0.212313  0.595534  1
  Nd  Nd3  1  0.212313  0.596620  0.595534  1
  Nd  Nd4  1  0.057479  0.443407  0.441045  1
  Nd  Nd5  1  0.443407  0.057479  0.058070  1
  Nd  Nd6  1  0.443407  0.057479  0.441045  1
  Nd  Nd7  1  0.057479  0.443407  0.058070  1
  Nd  Nd8  1  0.441497  0.441497  0.058503  1
  Nd  Nd9  1  0.057403  0.057403  0.442597  1
  Nd  Nd10  1  0.192667  0.807925  0.807061  1
  Nd  Nd11  1  0.807925  0.192667  0.192347  1
  Nd  Nd12  1  0.807925  0.192667  0.807061  1
  Nd  Nd13  1  0.192667  0.807925  0.192347  1
  Nd  Nd14  1  0.808872  0.808872  0.191128  1
  Nd  Nd15  1  0.194133  0.194133  0.805867  1
  Cd  Cd16  1  0.827490  0.513069  0.829721  1
  Cd  Cd17  1  0.513069  0.827490  0.829721  1
  In  In18  1  0.828961  0.828961  0.831205  1
  In  In19  1  0.828961  0.828961  0.510873  1
  Tc  Tc20  1  0.383071  0.383071  0.385442  1
  Tc  Tc21  1  0.383071  0.383071  0.848416  1
  Tc  Tc22  1  0.383427  0.846891  0.384841  1
  Tc  Tc23  1  0.846891  0.383427  0.384841  1
