# generated using pymatgen
data_Ho3Er(CoSn)4
_symmetry_space_group_name_H-M   'P 1'
_cell_length_a   4.58058300
_cell_length_b   7.23282007
_cell_length_c   7.33039818
_cell_angle_alpha   90.13591984
_cell_angle_beta   90.00000000
_cell_angle_gamma   90.00000000
_symmetry_Int_Tables_number   1
_chemical_formula_structural   Ho3Er(CoSn)4
_chemical_formula_sum   'Ho3 Er1 Co4 Sn4'
_cell_volume   242.85931274
_cell_formula_units_Z   1
loop_
 _symmetry_equiv_pos_site_id
 _symmetry_equiv_pos_as_xyz
  1  'x, y, z'
loop_
 _atom_site_type_symbol
 _atom_site_label
 _atom_site_symmetry_multiplicity
 _atom_site_fract_x
 _atom_site_fract_y
 _atom_site_fract_z
 _atom_site_occupancy
  Ho  Ho0  1  0.250000  0.477007  0.700609  1
  Ho  Ho1  1  0.250000  0.977380  0.799104  1
  Ho  Ho2  1  0.750000  0.022949  0.201163  1
  Er  Er3  1  0.750000  0.523573  0.298267  1
  Co  Co4  1  0.750000  0.839107  0.560958  1
  Co  Co5  1  0.250000  0.159903  0.438650  1
  Co  Co6  1  0.750000  0.340078  0.940041  1
  Co  Co7  1  0.250000  0.659770  0.060884  1
  Sn  Sn8  1  0.750000  0.702047  0.893232  1
  Sn  Sn9  1  0.250000  0.796963  0.393625  1
  Sn  Sn10  1  0.250000  0.298288  0.107498  1
  Sn  Sn11  1  0.750000  0.202934  0.605969  1
