# generated using pymatgen
data_PrTh5SBr15
_symmetry_space_group_name_H-M   'P 1'
_cell_length_a   10.05133266
_cell_length_b   10.05133271
_cell_length_c   10.05133339
_cell_angle_alpha   109.48718079
_cell_angle_beta   109.43930926
_cell_angle_gamma   109.48718069
_symmetry_Int_Tables_number   1
_chemical_formula_structural   PrTh5SBr15
_chemical_formula_sum   'Pr1 Th5 S1 Br15'
_cell_volume   781.71592537
_cell_formula_units_Z   1
loop_
 _symmetry_equiv_pos_site_id
 _symmetry_equiv_pos_as_xyz
  1  'x, y, z'
loop_
 _atom_site_type_symbol
 _atom_site_label
 _atom_site_symmetry_multiplicity
 _atom_site_fract_x
 _atom_site_fract_y
 _atom_site_fract_z
 _atom_site_occupancy
  Pr  Pr0  1  0.238587  0.000000  0.238587  1
  Th  Th1  1  0.238591  0.238008  0.000583  1
  Th  Th2  1  0.760120  0.000000  0.760120  1
  Th  Th3  1  0.000583  0.238008  0.238591  1
  Th  Th4  1  0.000583  0.761992  0.762575  1
  Th  Th5  1  0.762575  0.761992  0.000583  1
  S  S6  1  0.000589  0.000000  0.000589  1
  Br  Br7  1  0.993668  0.744859  0.248808  1
  Br  Br8  1  0.248808  0.744859  0.993668  1
  Br  Br9  1  0.497584  0.748614  0.748970  1
  Br  Br10  1  0.000356  0.251386  0.748970  1
  Br  Br11  1  0.748893  0.000000  0.250688  1
  Br  Br12  1  0.250688  0.501795  0.250688  1
  Br  Br13  1  0.748970  0.251386  0.000356  1
  Br  Br14  1  0.499821  0.500000  0.999821  1
  Br  Br15  1  0.248808  0.255141  0.503949  1
  Br  Br16  1  0.748893  0.498205  0.748893  1
  Br  Br17  1  0.748970  0.748614  0.497584  1
  Br  Br18  1  0.503949  0.255141  0.248808  1
  Br  Br19  1  0.250688  0.000000  0.748893  1
  Br  Br20  1  0.999821  0.500000  0.499821  1
  Br  Br21  1  0.508456  0.000000  0.508456  1
