# generated using pymatgen
data_V2CdPbO7
_symmetry_space_group_name_H-M   'P 1'
_cell_length_a   6.03741708
_cell_length_b   6.03741816
_cell_length_c   5.05276103
_cell_angle_alpha   83.18119435
_cell_angle_beta   83.18119272
_cell_angle_gamma   103.44502869
_symmetry_Int_Tables_number   1
_chemical_formula_structural   V2CdPbO7
_chemical_formula_sum   'V2 Cd1 Pb1 O7'
_cell_volume   175.80671144
_cell_formula_units_Z   1
loop_
 _symmetry_equiv_pos_site_id
 _symmetry_equiv_pos_as_xyz
  1  'x, y, z'
loop_
 _atom_site_type_symbol
 _atom_site_label
 _atom_site_symmetry_multiplicity
 _atom_site_fract_x
 _atom_site_fract_y
 _atom_site_fract_z
 _atom_site_occupancy
  V  V0  1  0.782371  0.777666  0.916030  1
  V  V1  1  0.222334  0.217629  0.083970  1
  Cd  Cd2  1  0.688440  0.311560  0.500000  1
  Pb  Pb3  1  0.298209  0.701791  0.500000  1
  O  O4  1  0.411280  0.125016  0.274351  1
  O  O5  1  0.874984  0.588720  0.725649  1
  O  O6  1  0.633445  0.938050  0.733833  1
  O  O7  1  0.061950  0.366555  0.266167  1
  O  O8  1  0.039960  0.960040  0.000000  1
  O  O9  1  0.371770  0.384743  0.785063  1
  O  O10  1  0.615257  0.628230  0.214937  1
