# generated using pymatgen
data_Dy2Lu8HgBi5
_symmetry_space_group_name_H-M   'P 1'
_cell_length_a   8.11317400
_cell_length_b   9.35305300
_cell_length_c   11.88044700
_cell_angle_alpha   90.00000000
_cell_angle_beta   90.00000000
_cell_angle_gamma   90.00000000
_symmetry_Int_Tables_number   1
_chemical_formula_structural   Dy2Lu8HgBi5
_chemical_formula_sum   'Dy4 Lu16 Hg2 Bi10'
_cell_volume   901.52332315
_cell_formula_units_Z   2
loop_
 _symmetry_equiv_pos_site_id
 _symmetry_equiv_pos_as_xyz
  1  'x, y, z'
loop_
 _atom_site_type_symbol
 _atom_site_label
 _atom_site_symmetry_multiplicity
 _atom_site_fract_x
 _atom_site_fract_y
 _atom_site_fract_z
 _atom_site_occupancy
  Dy  Dy0  1  0.311913  0.250000  0.217388  1
  Dy  Dy1  1  0.811913  0.250000  0.282612  1
  Dy  Dy2  1  0.683430  0.750000  0.784379  1
  Dy  Dy3  1  0.183430  0.750000  0.715621  1
  Lu  Lu4  1  0.353660  0.750000  0.210528  1
  Lu  Lu5  1  0.853660  0.750000  0.289472  1
  Lu  Lu6  1  0.650423  0.250000  0.782083  1
  Lu  Lu7  1  0.150423  0.250000  0.717917  1
  Lu  Lu8  1  0.686826  0.570906  0.058686  1
  Lu  Lu9  1  0.186826  0.929094  0.441314  1
  Lu  Lu10  1  0.307216  0.055760  0.940257  1
  Lu  Lu11  1  0.807216  0.444240  0.559743  1
  Lu  Lu12  1  0.307216  0.444240  0.940257  1
  Lu  Lu13  1  0.807216  0.055760  0.559743  1
  Lu  Lu14  1  0.686826  0.929094  0.058686  1
  Lu  Lu15  1  0.186826  0.570906  0.441314  1
  Lu  Lu16  1  0.479401  0.250000  0.489675  1
  Lu  Lu17  1  0.979401  0.250000  0.010325  1
  Lu  Lu18  1  0.532103  0.750000  0.509204  1
  Lu  Lu19  1  0.032103  0.750000  0.990796  1
  Hg  Hg20  1  0.404441  0.750000  0.960644  1
  Hg  Hg21  1  0.904441  0.750000  0.539356  1
  Bi  Bi22  1  0.597114  0.250000  0.040822  1
  Bi  Bi23  1  0.097114  0.250000  0.459178  1
  Bi  Bi24  1  0.561728  0.995604  0.325094  1
  Bi  Bi25  1  0.061728  0.504396  0.174906  1
  Bi  Bi26  1  0.437988  0.495771  0.675118  1
  Bi  Bi27  1  0.937988  0.004229  0.824882  1
  Bi  Bi28  1  0.437988  0.004229  0.675118  1
  Bi  Bi29  1  0.937988  0.495771  0.824882  1
  Bi  Bi30  1  0.561728  0.504396  0.325094  1
  Bi  Bi31  1  0.061728  0.995604  0.174906  1
