# generated using pymatgen
data_Er2Si3P3Pd20Pb
_symmetry_space_group_name_H-M   'P 1'
_cell_length_a   8.72039171
_cell_length_b   8.68578430
_cell_length_c   8.68578500
_cell_angle_alpha   59.99999353
_cell_angle_beta   60.13118593
_cell_angle_gamma   60.13119062
_symmetry_Int_Tables_number   1
_chemical_formula_structural   Er2Si3P3Pd20Pb
_chemical_formula_sum   'Er2 Si3 P3 Pd20 Pb1'
_cell_volume   466.11965509
_cell_formula_units_Z   1
loop_
 _symmetry_equiv_pos_site_id
 _symmetry_equiv_pos_as_xyz
  1  'x, y, z'
loop_
 _atom_site_type_symbol
 _atom_site_label
 _atom_site_symmetry_multiplicity
 _atom_site_fract_x
 _atom_site_fract_y
 _atom_site_fract_z
 _atom_site_occupancy
  Er  Er0  1  0.996732  0.001089  0.001089  1
  Er  Er1  1  0.252748  0.249084  0.249084  1
  Si  Si2  1  0.734874  0.266763  0.266763  1
  Si  Si3  1  0.734874  0.731600  0.266763  1
  Si  Si4  1  0.734874  0.266763  0.731600  1
  P  P5  1  0.266364  0.735847  0.261941  1
  P  P6  1  0.266364  0.735847  0.735847  1
  P  P7  1  0.266364  0.261941  0.735847  1
  Pd  Pd8  1  0.340315  0.004964  0.004964  1
  Pd  Pd9  1  0.003474  0.653267  0.342499  1
  Pd  Pd10  1  0.340315  0.004964  0.649756  1
  Pd  Pd11  1  0.003474  0.653267  0.000760  1
  Pd  Pd12  1  0.650697  0.340465  0.004419  1
  Pd  Pd13  1  0.615067  0.616735  0.151461  1
  Pd  Pd14  1  0.383262  0.846601  0.385069  1
  Pd  Pd15  1  0.155765  0.614744  0.614744  1
  Pd  Pd16  1  0.650697  0.004419  0.340465  1
  Pd  Pd17  1  0.003474  0.342499  0.653267  1
  Pd  Pd18  1  0.650697  0.004419  0.004419  1
  Pd  Pd19  1  0.003474  0.000760  0.342499  1
  Pd  Pd20  1  0.615067  0.151461  0.616735  1
  Pd  Pd21  1  0.340315  0.649756  0.004964  1
  Pd  Pd22  1  0.383262  0.385069  0.385069  1
  Pd  Pd23  1  0.615067  0.616735  0.616735  1
  Pd  Pd24  1  0.383262  0.385069  0.846601  1
  Pd  Pd25  1  0.003474  0.000760  0.653267  1
  Pd  Pd26  1  0.850604  0.383132  0.383132  1
  Pd  Pd27  1  0.003474  0.342499  0.000760  1
  Pb  Pb28  1  0.751567  0.749478  0.749478  1
