# generated using pymatgen
data_Ce3DyLu(SiB4)2
_symmetry_space_group_name_H-M   'P 1'
_cell_length_a   7.28964846
_cell_length_b   7.28964778
_cell_length_c   8.19493400
_cell_angle_alpha   90.00000000
_cell_angle_beta   90.00000000
_cell_angle_gamma   90.05781733
_symmetry_Int_Tables_number   1
_chemical_formula_structural   Ce3DyLu(SiB4)2
_chemical_formula_sum   'Ce6 Dy2 Lu2 Si4 B16'
_cell_volume   435.47012782
_cell_formula_units_Z   2
loop_
 _symmetry_equiv_pos_site_id
 _symmetry_equiv_pos_as_xyz
  1  'x, y, z'
loop_
 _atom_site_type_symbol
 _atom_site_label
 _atom_site_symmetry_multiplicity
 _atom_site_fract_x
 _atom_site_fract_y
 _atom_site_fract_z
 _atom_site_occupancy
  Ce  Ce0  1  0.682277  0.182603  0.228645  1
  Ce  Ce1  1  0.317397  0.817723  0.771355  1
  Ce  Ce2  1  0.317397  0.817723  0.228645  1
  Ce  Ce3  1  0.818445  0.681555  0.228528  1
  Ce  Ce4  1  0.818445  0.681555  0.771472  1
  Ce  Ce5  1  0.682277  0.182603  0.771355  1
  Dy  Dy6  1  0.181108  0.318892  0.779383  1
  Dy  Dy7  1  0.181108  0.318892  0.220617  1
  Lu  Lu8  1  0.001888  0.001185  0.500000  1
  Lu  Lu9  1  0.498815  0.498112  0.500000  1
  Si  Si10  1  0.117706  0.614130  0.500000  1
  Si  Si11  1  0.885870  0.382294  0.500000  1
  Si  Si12  1  0.381328  0.118672  0.500000  1
  Si  Si13  1  0.614749  0.885251  0.500000  1
  B  B14  1  0.173469  0.039375  0.000000  1
  B  B15  1  0.827973  0.962120  0.000000  1
  B  B16  1  0.960779  0.173045  0.000000  1
  B  B17  1  0.326955  0.539221  0.000000  1
  B  B18  1  0.040026  0.828013  0.000000  1
  B  B19  1  0.671987  0.459974  0.000000  1
  B  B20  1  0.537880  0.672027  0.000000  1
  B  B21  1  0.460625  0.326531  0.000000  1
  B  B22  1  0.091577  0.590927  0.000000  1
  B  B23  1  0.909073  0.408423  0.000000  1
  B  B24  1  0.409417  0.090583  0.000000  1
  B  B25  1  0.590819  0.909181  0.000000  1
  B  B26  1  0.000688  0.000383  0.160675  1
  B  B27  1  0.000688  0.000383  0.839325  1
  B  B28  1  0.499617  0.499312  0.839325  1
  B  B29  1  0.499617  0.499312  0.160675  1
