# generated using pymatgen
data_ScU2Ga3IrRu2
_symmetry_space_group_name_H-M   'P 1'
_cell_length_a   6.81116900
_cell_length_b   7.06283561
_cell_length_c   3.88303300
_cell_angle_alpha   90.00000000
_cell_angle_beta   90.00000000
_cell_angle_gamma   118.82810912
_symmetry_Int_Tables_number   1
_chemical_formula_structural   ScU2Ga3IrRu2
_chemical_formula_sum   'Sc1 U2 Ga3 Ir1 Ru2'
_cell_volume   163.64802077
_cell_formula_units_Z   1
loop_
 _symmetry_equiv_pos_site_id
 _symmetry_equiv_pos_as_xyz
  1  'x, y, z'
loop_
 _atom_site_type_symbol
 _atom_site_label
 _atom_site_symmetry_multiplicity
 _atom_site_fract_x
 _atom_site_fract_y
 _atom_site_fract_z
 _atom_site_occupancy
  Sc  Sc0  1  0.407928  0.000000  0.500000  1
  U  U1  1  0.996776  0.416971  0.500000  1
  U  U2  1  0.579806  0.583029  0.500000  1
  Ga  Ga3  1  0.728174  0.000000  0.000000  1
  Ga  Ga4  1  0.022425  0.772343  0.000000  1
  Ga  Ga5  1  0.250082  0.227657  0.000000  1
  Ir  Ir6  1  0.985533  0.000000  0.500000  1
  Ru  Ru7  1  0.329513  0.629751  0.000000  1
  Ru  Ru8  1  0.699763  0.370249  0.000000  1
