# generated using pymatgen
data_Nd12Si(PBr4)3
_symmetry_space_group_name_H-M   'P 1'
_cell_length_a   10.32441178
_cell_length_b   10.32441259
_cell_length_c   10.32441174
_cell_angle_alpha   109.36538237
_cell_angle_beta   109.36538572
_cell_angle_gamma   109.36538435
_symmetry_Int_Tables_number   1
_chemical_formula_structural   Nd12Si(PBr4)3
_chemical_formula_sum   'Nd12 Si1 P3 Br12'
_cell_volume   850.48033691
_cell_formula_units_Z   1
loop_
 _symmetry_equiv_pos_site_id
 _symmetry_equiv_pos_as_xyz
  1  'x, y, z'
loop_
 _atom_site_type_symbol
 _atom_site_label
 _atom_site_symmetry_multiplicity
 _atom_site_fract_x
 _atom_site_fract_y
 _atom_site_fract_z
 _atom_site_occupancy
  Nd  Nd0  1  0.474620  0.489982  0.236107  1
  Nd  Nd1  1  0.750000  0.235084  0.264916  1
  Nd  Nd2  1  0.750000  0.014998  0.485002  1
  Nd  Nd3  1  0.236107  0.474620  0.489982  1
  Nd  Nd4  1  0.264916  0.750000  0.235084  1
  Nd  Nd5  1  0.025380  0.263893  0.010018  1
  Nd  Nd6  1  0.010018  0.025380  0.263893  1
  Nd  Nd7  1  0.485002  0.750000  0.014998  1
  Nd  Nd8  1  0.489982  0.236107  0.474620  1
  Nd  Nd9  1  0.014998  0.485002  0.750000  1
  Nd  Nd10  1  0.263893  0.010018  0.025380  1
  Nd  Nd11  1  0.235084  0.264916  0.750000  1
  Si  Si12  1  0.250000  0.250000  0.250000  1
  P  P13  1  0.500235  0.999765  0.250000  1
  P  P14  1  0.999765  0.250000  0.500235  1
  P  P15  1  0.250000  0.500235  0.999765  1
  Br  Br16  1  0.250000  0.754932  0.745068  1
  Br  Br17  1  0.509722  0.505505  0.755885  1
  Br  Br18  1  0.990278  0.744115  0.994495  1
  Br  Br19  1  0.745068  0.250000  0.754932  1
  Br  Br20  1  0.994495  0.990278  0.744115  1
  Br  Br21  1  0.250000  0.994854  0.505146  1
  Br  Br22  1  0.755885  0.509722  0.505505  1
  Br  Br23  1  0.505146  0.250000  0.994854  1
  Br  Br24  1  0.754932  0.745068  0.250000  1
  Br  Br25  1  0.744115  0.994495  0.990278  1
  Br  Br26  1  0.994854  0.505146  0.250000  1
  Br  Br27  1  0.505505  0.755885  0.509722  1
