# generated using pymatgen
data_HoSc(OsO4)2
_symmetry_space_group_name_H-M   'P 1'
_cell_length_a   5.24493150
_cell_length_b   7.33082522
_cell_length_c   7.60552303
_cell_angle_alpha   79.61957652
_cell_angle_beta   86.05752817
_cell_angle_gamma   90.24205041
_symmetry_Int_Tables_number   1
_chemical_formula_structural   HoSc(OsO4)2
_chemical_formula_sum   'Ho2 Sc2 Os4 O16'
_cell_volume   286.92191397
_cell_formula_units_Z   2
loop_
 _symmetry_equiv_pos_site_id
 _symmetry_equiv_pos_as_xyz
  1  'x, y, z'
loop_
 _atom_site_type_symbol
 _atom_site_label
 _atom_site_symmetry_multiplicity
 _atom_site_fract_x
 _atom_site_fract_y
 _atom_site_fract_z
 _atom_site_occupancy
  Ho  Ho0  1  0.753438  0.377079  0.386510  1
  Ho  Ho1  1  0.246562  0.622921  0.613490  1
  Sc  Sc2  1  0.705031  0.875710  0.330048  1
  Sc  Sc3  1  0.294969  0.124290  0.669952  1
  Os  Os4  1  0.783716  0.300527  0.839351  1
  Os  Os5  1  0.216284  0.699473  0.160649  1
  Os  Os6  1  0.248431  0.200608  0.169533  1
  Os  Os7  1  0.751569  0.799392  0.830467  1
  O  O8  1  0.904113  0.806707  0.060412  1
  O  O9  1  0.095887  0.193293  0.939588  1
  O  O10  1  0.368628  0.942214  0.186727  1
  O  O11  1  0.631372  0.057786  0.813273  1
  O  O12  1  0.099461  0.445199  0.173186  1
  O  O13  1  0.900539  0.554801  0.826814  1
  O  O14  1  0.556359  0.288859  0.040372  1
  O  O15  1  0.443641  0.711141  0.959628  1
  O  O16  1  0.006922  0.317783  0.610658  1
  O  O17  1  0.993078  0.682217  0.389342  1
  O  O18  1  0.417218  0.182437  0.402662  1
  O  O19  1  0.582782  0.817563  0.597338  1
  O  O20  1  0.486389  0.614063  0.330403  1
  O  O21  1  0.513611  0.385937  0.669597  1
  O  O22  1  0.925972  0.111645  0.295171  1
  O  O23  1  0.074028  0.888355  0.704829  1
