# generated using pymatgen
data_PrTh2(GaIr2)3
_symmetry_space_group_name_H-M   'P 1'
_cell_length_a   5.60499200
_cell_length_b   5.60499347
_cell_length_c   15.88335800
_cell_angle_alpha   90.00000000
_cell_angle_beta   90.00000000
_cell_angle_gamma   120.00001495
_symmetry_Int_Tables_number   1
_chemical_formula_structural   PrTh2(GaIr2)3
_chemical_formula_sum   'Pr2 Th4 Ga6 Ir12'
_cell_volume   432.13853854
_cell_formula_units_Z   2
loop_
 _symmetry_equiv_pos_site_id
 _symmetry_equiv_pos_as_xyz
  1  'x, y, z'
loop_
 _atom_site_type_symbol
 _atom_site_label
 _atom_site_symmetry_multiplicity
 _atom_site_fract_x
 _atom_site_fract_y
 _atom_site_fract_z
 _atom_site_occupancy
  Pr  Pr0  1  0.333333  0.666667  0.750000  1
  Pr  Pr1  1  0.666667  0.333333  0.250000  1
  Th  Th2  1  0.333333  0.666667  0.544959  1
  Th  Th3  1  0.666667  0.333333  0.455041  1
  Th  Th4  1  0.666667  0.333333  0.044959  1
  Th  Th5  1  0.333333  0.666667  0.955041  1
  Ga  Ga6  1  0.000000  0.000000  0.250000  1
  Ga  Ga7  1  0.000000  0.000000  0.750000  1
  Ga  Ga8  1  0.333333  0.666667  0.250000  1
  Ga  Ga9  1  0.666667  0.333333  0.750000  1
  Ga  Ga10  1  0.000000  0.000000  0.000000  1
  Ga  Ga11  1  0.000000  0.000000  0.500000  1
  Ir  Ir12  1  0.168624  0.337249  0.125227  1
  Ir  Ir13  1  0.831376  0.662751  0.874773  1
  Ir  Ir14  1  0.662751  0.831376  0.125227  1
  Ir  Ir15  1  0.831376  0.662751  0.625227  1
  Ir  Ir16  1  0.337249  0.168624  0.874773  1
  Ir  Ir17  1  0.168624  0.337249  0.374773  1
  Ir  Ir18  1  0.168624  0.831376  0.125227  1
  Ir  Ir19  1  0.337249  0.168624  0.625227  1
  Ir  Ir20  1  0.831376  0.168624  0.874773  1
  Ir  Ir21  1  0.662751  0.831376  0.374773  1
  Ir  Ir22  1  0.831376  0.168624  0.625227  1
  Ir  Ir23  1  0.168624  0.831376  0.374773  1
