# generated using pymatgen
data_Sr8Fe2PtN8
_symmetry_space_group_name_H-M   'P 1'
_cell_length_a   9.87408065
_cell_length_b   9.87408079
_cell_length_c   7.45038677
_cell_angle_alpha   75.23542992
_cell_angle_beta   104.76457032
_cell_angle_gamma   148.60936752
_symmetry_Int_Tables_number   1
_chemical_formula_structural   Sr8Fe2PtN8
_chemical_formula_sum   'Sr8 Fe2 Pt1 N8'
_cell_volume   364.85925497
_cell_formula_units_Z   1
loop_
 _symmetry_equiv_pos_site_id
 _symmetry_equiv_pos_as_xyz
  1  'x, y, z'
loop_
 _atom_site_type_symbol
 _atom_site_label
 _atom_site_symmetry_multiplicity
 _atom_site_fract_x
 _atom_site_fract_y
 _atom_site_fract_z
 _atom_site_occupancy
  Sr  Sr0  1  0.335268  0.664727  0.531066  1
  Sr  Sr1  1  0.664728  0.335268  0.468933  1
  Sr  Sr2  1  0.408631  0.591364  0.026633  1
  Sr  Sr3  1  0.591364  0.408631  0.973369  1
  Sr  Sr4  1  0.030789  0.969207  0.264796  1
  Sr  Sr5  1  0.969206  0.030789  0.735205  1
  Sr  Sr6  1  0.797716  0.202279  0.189586  1
  Sr  Sr7  1  0.202279  0.797716  0.810414  1
  Fe  Fe8  1  0.187573  0.812422  0.209084  1
  Fe  Fe9  1  0.812423  0.187572  0.790918  1
  Pt  Pt10  1  0.499998  0.499997  0.500001  1
  N  N11  1  0.111312  0.888683  0.016700  1
  N  N12  1  0.888685  0.111310  0.983301  1
  N  N13  1  0.177727  0.822269  0.433634  1
  N  N14  1  0.822269  0.177726  0.566366  1
  N  N15  1  0.273607  0.726388  0.171384  1
  N  N16  1  0.726388  0.273607  0.828616  1
  N  N17  1  0.531883  0.468112  0.253731  1
  N  N18  1  0.468112  0.531883  0.746271  1
