# generated using pymatgen
data_Sm4Sn2SbAs3Rh7
_symmetry_space_group_name_H-M   'P 1'
_cell_length_a   7.52268530
_cell_length_b   7.57782192
_cell_length_c   7.51383416
_cell_angle_alpha   109.61996669
_cell_angle_beta   109.32195277
_cell_angle_gamma   109.66742285
_symmetry_Int_Tables_number   1
_chemical_formula_structural   Sm4Sn2SbAs3Rh7
_chemical_formula_sum   'Sm4 Sn2 Sb1 As3 Rh7'
_cell_volume   328.92757038
_cell_formula_units_Z   1
loop_
 _symmetry_equiv_pos_site_id
 _symmetry_equiv_pos_as_xyz
  1  'x, y, z'
loop_
 _atom_site_type_symbol
 _atom_site_label
 _atom_site_symmetry_multiplicity
 _atom_site_fract_x
 _atom_site_fract_y
 _atom_site_fract_z
 _atom_site_occupancy
  Sm  Sm0  1  0.473317  0.988230  0.000000  1
  Sm  Sm1  1  0.000932  0.550624  0.000000  1
  Sm  Sm2  1  0.999637  0.989935  0.479230  1
  Sm  Sm3  1  0.520407  0.510705  0.520770  1
  Sn  Sn4  1  0.996625  0.310426  0.294347  1
  Sn  Sn5  1  0.702278  0.016079  0.705653  1
  Sb  Sb6  1  0.299225  0.315373  0.000000  1
  As  As7  1  0.659017  0.670798  0.000000  1
  As  As8  1  0.997778  0.662156  0.651881  1
  As  As9  1  0.345896  0.010274  0.348119  1
  Rh  Rh10  1  0.003649  0.961633  0.000000  1
  Rh  Rh11  1  0.501412  0.754506  0.255593  1
  Rh  Rh12  1  0.744737  0.499614  0.243881  1
  Rh  Rh13  1  0.254508  0.752805  0.500606  1
  Rh  Rh14  1  0.245821  0.498914  0.744407  1
  Rh  Rh15  1  0.500856  0.255733  0.756119  1
  Rh  Rh16  1  0.753902  0.252199  0.499394  1
