# generated using pymatgen
data_DyHo2Ni8Ir
_symmetry_space_group_name_H-M   'P 1'
_cell_length_a   4.95644496
_cell_length_b   4.95644443
_cell_length_c   8.76324435
_cell_angle_alpha   73.57276906
_cell_angle_beta   73.57276145
_cell_angle_gamma   60.00001760
_symmetry_Int_Tables_number   1
_chemical_formula_structural   DyHo2Ni8Ir
_chemical_formula_sum   'Dy1 Ho2 Ni8 Ir1'
_cell_volume   176.21838946
_cell_formula_units_Z   1
loop_
 _symmetry_equiv_pos_site_id
 _symmetry_equiv_pos_as_xyz
  1  'x, y, z'
loop_
 _atom_site_type_symbol
 _atom_site_label
 _atom_site_symmetry_multiplicity
 _atom_site_fract_x
 _atom_site_fract_y
 _atom_site_fract_z
 _atom_site_occupancy
  Dy  Dy0  1  0.000000  0.000000  0.000000  1
  Ho  Ho1  1  0.138244  0.138244  0.585268  1
  Ho  Ho2  1  0.861756  0.861756  0.414732  1
  Ni  Ni3  1  0.077709  0.581496  0.759300  1
  Ni  Ni4  1  0.581496  0.581496  0.759300  1
  Ni  Ni5  1  0.581496  0.077709  0.759300  1
  Ni  Ni6  1  0.922291  0.418504  0.240700  1
  Ni  Ni7  1  0.418504  0.418504  0.240700  1
  Ni  Ni8  1  0.418504  0.922291  0.240700  1
  Ni  Ni9  1  0.333236  0.333236  0.000289  1
  Ni  Ni10  1  0.666764  0.666764  0.999711  1
  Ir  Ir11  1  0.500000  0.500000  0.500000  1
