# generated using pymatgen
data_Sr3LaAl18OsPd5
_symmetry_space_group_name_H-M   'P 1'
_cell_length_a   7.75629196
_cell_length_b   7.74664287
_cell_length_c   9.75117909
_cell_angle_alpha   90.05727095
_cell_angle_beta   90.10330562
_cell_angle_gamma   119.37054033
_symmetry_Int_Tables_number   1
_chemical_formula_structural   Sr3LaAl18OsPd5
_chemical_formula_sum   'Sr3 La1 Al18 Os1 Pd5'
_cell_volume   510.59151651
_cell_formula_units_Z   1
loop_
 _symmetry_equiv_pos_site_id
 _symmetry_equiv_pos_as_xyz
  1  'x, y, z'
loop_
 _atom_site_type_symbol
 _atom_site_label
 _atom_site_symmetry_multiplicity
 _atom_site_fract_x
 _atom_site_fract_y
 _atom_site_fract_z
 _atom_site_occupancy
  Sr  Sr0  1  0.994345  0.670666  0.248769  1
  Sr  Sr1  1  0.004664  0.329814  0.749881  1
  Sr  Sr2  1  0.671184  0.994585  0.250088  1
  La  La3  1  0.330407  0.002426  0.752046  1
  Al  Al4  1  0.134528  0.137037  0.248883  1
  Al  Al5  1  0.866569  0.865612  0.750782  1
  Al  Al6  1  0.995927  0.334058  0.071148  1
  Al  Al7  1  0.990988  0.657189  0.926362  1
  Al  Al8  1  0.994373  0.665014  0.575706  1
  Al  Al9  1  0.334843  0.006665  0.424282  1
  Al  Al10  1  0.006377  0.335905  0.426316  1
  Al  Al11  1  0.665319  0.994909  0.574949  1
  Al  Al12  1  0.667420  0.003080  0.928081  1
  Al  Al13  1  0.341845  0.009212  0.074069  1
  Al  Al14  1  0.335869  0.335705  0.550136  1
  Al  Al15  1  0.662516  0.662741  0.453479  1
  Al  Al16  1  0.665488  0.660400  0.040087  1
  Al  Al17  1  0.337570  0.333622  0.957231  1
  Al  Al18  1  0.338322  0.541098  0.249074  1
  Al  Al19  1  0.657377  0.454276  0.754588  1
  Al  Al20  1  0.544692  0.340864  0.244449  1
  Al  Al21  1  0.460996  0.664763  0.750919  1
  Os  Os22  1  0.668114  0.328558  0.998505  1
  Pd  Pd23  1  0.328988  0.671082  0.998778  1
  Pd  Pd24  1  0.328997  0.671306  0.501142  1
  Pd  Pd25  1  0.670106  0.329083  0.500642  1
  Pd  Pd26  1  0.001139  0.000163  0.998733  1
  Pd  Pd27  1  0.001037  0.000165  0.500876  1
