# generated using pymatgen
data_Y3(ThTc)2
_symmetry_space_group_name_H-M   'P 1'
_cell_length_a   6.47190896
_cell_length_b   7.37887244
_cell_length_c   8.77903120
_cell_angle_alpha   96.23062314
_cell_angle_beta   111.62933892
_cell_angle_gamma   89.99998961
_symmetry_Int_Tables_number   1
_chemical_formula_structural   Y3(ThTc)2
_chemical_formula_sum   'Y6 Th4 Tc4'
_cell_volume   387.06078562
_cell_formula_units_Z   2
loop_
 _symmetry_equiv_pos_site_id
 _symmetry_equiv_pos_as_xyz
  1  'x, y, z'
loop_
 _atom_site_type_symbol
 _atom_site_label
 _atom_site_symmetry_multiplicity
 _atom_site_fract_x
 _atom_site_fract_y
 _atom_site_fract_z
 _atom_site_occupancy
  Y  Y0  1  0.640670  0.815547  0.427579  1
  Y  Y1  1  0.213091  0.684453  0.572421  1
  Y  Y2  1  0.359330  0.184453  0.572421  1
  Y  Y3  1  0.786909  0.315547  0.427579  1
  Y  Y4  1  0.425085  0.750000  0.000000  1
  Y  Y5  1  0.574915  0.250000  0.000000  1
  Th  Th6  1  0.989081  0.908179  0.192453  1
  Th  Th7  1  0.796627  0.591821  0.807547  1
  Th  Th8  1  0.010919  0.091821  0.807547  1
  Th  Th9  1  0.203373  0.408179  0.192453  1
  Tc  Tc10  1  0.853169  0.586337  0.215356  1
  Tc  Tc11  1  0.637814  0.913663  0.784644  1
  Tc  Tc12  1  0.146831  0.413663  0.784644  1
  Tc  Tc13  1  0.362186  0.086337  0.215356  1
