# generated using pymatgen
data_Tb12CuNi4Sn
_symmetry_space_group_name_H-M   'P 1'
_cell_length_a   8.36884744
_cell_length_b   8.36884820
_cell_length_c   8.36884799
_cell_angle_alpha   106.55449502
_cell_angle_beta   109.40267634
_cell_angle_gamma   112.51142341
_symmetry_Int_Tables_number   1
_chemical_formula_structural   Tb12CuNi4Sn
_chemical_formula_sum   'Tb12 Cu1 Ni4 Sn1'
_cell_volume   449.98479928
_cell_formula_units_Z   1
loop_
 _symmetry_equiv_pos_site_id
 _symmetry_equiv_pos_as_xyz
  1  'x, y, z'
loop_
 _atom_site_type_symbol
 _atom_site_label
 _atom_site_symmetry_multiplicity
 _atom_site_fract_x
 _atom_site_fract_y
 _atom_site_fract_z
 _atom_site_occupancy
  Tb  Tb0  1  0.692711  0.277896  0.970606  1
  Tb  Tb1  1  0.307289  0.722104  0.029394  1
  Tb  Tb2  1  0.692711  0.722104  0.414815  1
  Tb  Tb3  1  0.307289  0.277896  0.585185  1
  Tb  Tb4  1  0.809433  0.132867  0.323433  1
  Tb  Tb5  1  0.809433  0.486000  0.676567  1
  Tb  Tb6  1  0.190567  0.867133  0.676567  1
  Tb  Tb7  1  0.190567  0.514000  0.323433  1
  Tb  Tb8  1  0.611401  0.790901  0.820499  1
  Tb  Tb9  1  0.970403  0.790901  0.179501  1
  Tb  Tb10  1  0.029597  0.209099  0.820499  1
  Tb  Tb11  1  0.388599  0.209099  0.179501  1
  Cu  Cu12  1  0.500000  0.500000  0.000000  1
  Ni  Ni13  1  0.853656  0.500000  0.353656  1
  Ni  Ni14  1  0.146344  0.500000  0.646344  1
  Ni  Ni15  1  0.000000  0.124094  0.124094  1
  Ni  Ni16  1  0.000000  0.875906  0.875906  1
  Sn  Sn17  1  0.500000  0.000000  0.500000  1
