# generated using pymatgen
data_La3Pa(InRh2)2
_symmetry_space_group_name_H-M   'P 1'
_cell_length_a   7.85337796
_cell_length_b   7.85337796
_cell_length_c   3.79424900
_cell_angle_alpha   90.00000000
_cell_angle_beta   90.00000000
_cell_angle_gamma   88.21295142
_symmetry_Int_Tables_number   1
_chemical_formula_structural   La3Pa(InRh2)2
_chemical_formula_sum   'La3 Pa1 In2 Rh4'
_cell_volume   233.89856098
_cell_formula_units_Z   1
loop_
 _symmetry_equiv_pos_site_id
 _symmetry_equiv_pos_as_xyz
  1  'x, y, z'
loop_
 _atom_site_type_symbol
 _atom_site_label
 _atom_site_symmetry_multiplicity
 _atom_site_fract_x
 _atom_site_fract_y
 _atom_site_fract_z
 _atom_site_occupancy
  La  La0  1  0.669553  0.167374  0.500000  1
  La  La1  1  0.826013  0.673987  0.500000  1
  La  La2  1  0.332626  0.830447  0.500000  1
  Pa  Pa3  1  0.162770  0.337230  0.500000  1
  In  In4  1  0.003208  0.002459  0.000000  1
  In  In5  1  0.497541  0.496792  0.000000  1
  Rh  Rh6  1  0.145288  0.607015  0.000000  1
  Rh  Rh7  1  0.629381  0.870619  0.000000  1
  Rh  Rh8  1  0.340635  0.159365  0.000000  1
  Rh  Rh9  1  0.892985  0.354712  0.000000  1
