# generated using pymatgen
data_YCu4
_symmetry_space_group_name_H-M   'P 1'
_cell_length_a   5.05295246
_cell_length_b   5.05295163
_cell_length_c   10.60986682
_cell_angle_alpha   95.02267493
_cell_angle_beta   95.02267456
_cell_angle_gamma   119.84444475
_symmetry_Int_Tables_number   1
_chemical_formula_structural   YCu4
_chemical_formula_sum   'Y3 Cu12'
_cell_volume   231.35546931
_cell_formula_units_Z   3
loop_
 _symmetry_equiv_pos_site_id
 _symmetry_equiv_pos_as_xyz
  1  'x, y, z'
loop_
 _atom_site_type_symbol
 _atom_site_label
 _atom_site_symmetry_multiplicity
 _atom_site_fract_x
 _atom_site_fract_y
 _atom_site_fract_z
 _atom_site_occupancy
  Y  Y0  1  0.000000  0.000000  0.000000  1
  Y  Y1  1  0.134892  0.134892  0.357629  1
  Y  Y2  1  0.865108  0.865108  0.642371  1
  Cu  Cu3  1  0.662392  0.337609  0.000000  1
  Cu  Cu4  1  0.337609  0.662392  0.000000  1
  Cu  Cu5  1  0.569348  0.066806  0.195821  1
  Cu  Cu6  1  0.066806  0.569348  0.195821  1
  Cu  Cu7  1  0.570620  0.570620  0.202539  1
  Cu  Cu8  1  0.810441  0.473757  0.405644  1
  Cu  Cu9  1  0.473757  0.810441  0.405644  1
  Cu  Cu10  1  0.526245  0.189560  0.594356  1
  Cu  Cu11  1  0.189560  0.526245  0.594356  1
  Cu  Cu12  1  0.429379  0.429379  0.797461  1
  Cu  Cu13  1  0.933193  0.430651  0.804180  1
  Cu  Cu14  1  0.430651  0.933193  0.804180  1
