# generated using pymatgen
data_TbYb3(Al3Pt)6
_symmetry_space_group_name_H-M   'P 1'
_cell_length_a   7.63221417
_cell_length_b   7.62598845
_cell_length_c   9.45300200
_cell_angle_alpha   90.00000000
_cell_angle_beta   90.00000000
_cell_angle_gamma   119.66389785
_symmetry_Int_Tables_number   1
_chemical_formula_structural   TbYb3(Al3Pt)6
_chemical_formula_sum   'Tb1 Yb3 Al18 Pt6'
_cell_volume   478.08816876
_cell_formula_units_Z   1
loop_
 _symmetry_equiv_pos_site_id
 _symmetry_equiv_pos_as_xyz
  1  'x, y, z'
loop_
 _atom_site_type_symbol
 _atom_site_label
 _atom_site_symmetry_multiplicity
 _atom_site_fract_x
 _atom_site_fract_y
 _atom_site_fract_z
 _atom_site_occupancy
  Tb  Tb0  1  0.330208  0.002892  0.750000  1
  Yb  Yb1  1  0.994867  0.669533  0.250000  1
  Yb  Yb2  1  0.003611  0.330040  0.750000  1
  Yb  Yb3  1  0.671953  0.997140  0.250000  1
  Al  Al4  1  0.131551  0.131730  0.250000  1
  Al  Al5  1  0.871341  0.869549  0.750000  1
  Al  Al6  1  0.000080  0.334870  0.075973  1
  Al  Al7  1  0.999337  0.664228  0.922820  1
  Al  Al8  1  0.999337  0.664228  0.577180  1
  Al  Al9  1  0.334574  0.999210  0.422798  1
  Al  Al10  1  0.000080  0.334870  0.424027  1
  Al  Al11  1  0.666554  0.000702  0.576780  1
  Al  Al12  1  0.666554  0.000702  0.923220  1
  Al  Al13  1  0.334574  0.999210  0.077202  1
  Al  Al14  1  0.331915  0.332225  0.558439  1
  Al  Al15  1  0.667159  0.667298  0.444028  1
  Al  Al16  1  0.667159  0.667298  0.055972  1
  Al  Al17  1  0.331915  0.332225  0.941561  1
  Al  Al18  1  0.340522  0.547289  0.250000  1
  Al  Al19  1  0.656768  0.452296  0.750000  1
  Al  Al20  1  0.545266  0.340881  0.250000  1
  Al  Al21  1  0.454992  0.662342  0.750000  1
  Pt  Pt22  1  0.671712  0.327796  0.999891  1
  Pt  Pt23  1  0.327863  0.671827  0.999307  1
  Pt  Pt24  1  0.327863  0.671827  0.500693  1
  Pt  Pt25  1  0.671712  0.327796  0.500109  1
  Pt  Pt26  1  0.000268  0.999997  0.999732  1
  Pt  Pt27  1  0.000268  0.999997  0.500268  1
