# generated using pymatgen
data_Ca2VGaF10
_symmetry_space_group_name_H-M   'P 1'
_cell_length_a   5.59518876
_cell_length_b   5.62390149
_cell_length_c   7.73460745
_cell_angle_alpha   69.45882487
_cell_angle_beta   69.96786932
_cell_angle_gamma   71.56073828
_symmetry_Int_Tables_number   1
_chemical_formula_structural   Ca2VGaF10
_chemical_formula_sum   'Ca2 V1 Ga1 F10'
_cell_volume   208.73336083
_cell_formula_units_Z   1
loop_
 _symmetry_equiv_pos_site_id
 _symmetry_equiv_pos_as_xyz
  1  'x, y, z'
loop_
 _atom_site_type_symbol
 _atom_site_label
 _atom_site_symmetry_multiplicity
 _atom_site_fract_x
 _atom_site_fract_y
 _atom_site_fract_z
 _atom_site_occupancy
  Ca  Ca0  1  0.540584  0.452785  0.753889  1
  Ca  Ca1  1  0.459416  0.547215  0.246111  1
  V  V2  1  0.000000  0.000000  0.500000  1
  Ga  Ga3  1  0.000000  0.000000  0.000000  1
  F  F4  1  0.085266  0.915196  0.245908  1
  F  F5  1  0.914734  0.084804  0.754092  1
  F  F6  1  0.759592  0.787676  0.117004  1
  F  F7  1  0.218660  0.247465  0.379730  1
  F  F8  1  0.694521  0.288441  0.467566  1
  F  F9  1  0.716985  0.299575  0.034294  1
  F  F10  1  0.305479  0.711559  0.532434  1
  F  F11  1  0.283015  0.700425  0.965706  1
  F  F12  1  0.781340  0.752535  0.620270  1
  F  F13  1  0.240408  0.212324  0.882996  1
