# generated using pymatgen
data_Hf4BeIn5Fe
_symmetry_space_group_name_H-M   'P 1'
_cell_length_a   7.49876474
_cell_length_b   3.27301000
_cell_length_c   9.05127650
_cell_angle_alpha   90.00000000
_cell_angle_beta   95.31278203
_cell_angle_gamma   90.00000000
_symmetry_Int_Tables_number   1
_chemical_formula_structural   Hf4BeIn5Fe
_chemical_formula_sum   'Hf4 Be1 In5 Fe1'
_cell_volume   221.19595143
_cell_formula_units_Z   1
loop_
 _symmetry_equiv_pos_site_id
 _symmetry_equiv_pos_as_xyz
  1  'x, y, z'
loop_
 _atom_site_type_symbol
 _atom_site_label
 _atom_site_symmetry_multiplicity
 _atom_site_fract_x
 _atom_site_fract_y
 _atom_site_fract_z
 _atom_site_occupancy
  Hf  Hf0  1  0.798661  0.499999  0.057165  1
  Hf  Hf1  1  0.190293  0.499999  0.343394  1
  Hf  Hf2  1  0.814525  0.499999  0.664321  1
  Hf  Hf3  1  0.195760  0.499999  0.933944  1
  Be  Be4  1  0.072292  0.000000  0.129356  1
  In  In5  1  0.456362  0.000000  0.165299  1
  In  In6  1  0.847724  0.000000  0.356835  1
  In  In7  1  0.501856  0.000000  0.498686  1
  In  In8  1  0.154631  0.000000  0.637782  1
  In  In9  1  0.536738  0.000000  0.833697  1
  Fe  Fe10  1  0.931154  0.000000  0.879519  1
