# generated using pymatgen
data_CaHoSi4Tc3
_symmetry_space_group_name_H-M   'P 1'
_cell_length_a   6.81928400
_cell_length_b   6.66251970
_cell_length_c   6.79924955
_cell_angle_alpha   70.53372212
_cell_angle_beta   90.00000000
_cell_angle_gamma   90.00000000
_symmetry_Int_Tables_number   1
_chemical_formula_structural   CaHoSi4Tc3
_chemical_formula_sum   'Ca2 Ho2 Si8 Tc6'
_cell_volume   291.25624638
_cell_formula_units_Z   2
loop_
 _symmetry_equiv_pos_site_id
 _symmetry_equiv_pos_as_xyz
  1  'x, y, z'
loop_
 _atom_site_type_symbol
 _atom_site_label
 _atom_site_symmetry_multiplicity
 _atom_site_fract_x
 _atom_site_fract_y
 _atom_site_fract_z
 _atom_site_occupancy
  Ca  Ca0  1  0.666994  0.443212  0.186430  1
  Ca  Ca1  1  0.166994  0.056788  0.813570  1
  Ho  Ho2  1  0.331883  0.558331  0.807567  1
  Ho  Ho3  1  0.831883  0.941669  0.192433  1
  Si  Si4  1  0.451931  0.119078  0.104292  1
  Si  Si5  1  0.951931  0.380922  0.895708  1
  Si  Si6  1  0.546664  0.880009  0.896980  1
  Si  Si7  1  0.046664  0.619991  0.103020  1
  Si  Si8  1  0.860793  0.134809  0.510133  1
  Si  Si9  1  0.360793  0.365191  0.489867  1
  Si  Si10  1  0.139683  0.869442  0.490446  1
  Si  Si11  1  0.639683  0.630558  0.509554  1
  Tc  Tc12  1  0.502503  0.997744  0.498526  1
  Tc  Tc13  1  0.002503  0.502256  0.501474  1
  Tc  Tc14  1  0.157099  0.244632  0.237856  1
  Tc  Tc15  1  0.657099  0.255368  0.762144  1
  Tc  Tc16  1  0.842450  0.757776  0.760674  1
  Tc  Tc17  1  0.342450  0.742224  0.239326  1
