# generated using pymatgen
data_Zr6Ga6PdRh5
_symmetry_space_group_name_H-M   'P 1'
_cell_length_a   7.23510900
_cell_length_b   7.23510822
_cell_length_c   6.93014800
_cell_angle_alpha   90.00000000
_cell_angle_beta   90.00000000
_cell_angle_gamma   120.00000815
_symmetry_Int_Tables_number   1
_chemical_formula_structural   Zr6Ga6PdRh5
_chemical_formula_sum   'Zr6 Ga6 Pd1 Rh5'
_cell_volume   314.16891716
_cell_formula_units_Z   1
loop_
 _symmetry_equiv_pos_site_id
 _symmetry_equiv_pos_as_xyz
  1  'x, y, z'
loop_
 _atom_site_type_symbol
 _atom_site_label
 _atom_site_symmetry_multiplicity
 _atom_site_fract_x
 _atom_site_fract_y
 _atom_site_fract_z
 _atom_site_occupancy
  Zr  Zr0  1  0.606464  0.601783  0.250000  1
  Zr  Zr1  1  0.004921  0.409403  0.750000  1
  Zr  Zr2  1  0.398217  0.004681  0.250000  1
  Zr  Zr3  1  0.995319  0.393536  0.250000  1
  Zr  Zr4  1  0.404482  0.995079  0.750000  1
  Zr  Zr5  1  0.590597  0.595518  0.750000  1
  Ga  Ga6  1  0.268463  0.268547  0.498072  1
  Ga  Ga7  1  0.731453  0.999916  0.498072  1
  Ga  Ga8  1  0.000084  0.731537  0.498072  1
  Ga  Ga9  1  0.731453  0.999916  0.001928  1
  Ga  Ga10  1  0.268463  0.268547  0.001928  1
  Ga  Ga11  1  0.000084  0.731537  0.001928  1
  Pd  Pd12  1  0.000000  0.000000  0.750000  1
  Rh  Rh13  1  0.333333  0.666667  0.493032  1
  Rh  Rh14  1  0.000000  0.000000  0.250000  1
  Rh  Rh15  1  0.333333  0.666667  0.006968  1
  Rh  Rh16  1  0.666667  0.333333  0.506116  1
  Rh  Rh17  1  0.666667  0.333333  0.993884  1
