# generated using pymatgen
data_Ho4Tm12Cd3InPd4
_symmetry_space_group_name_H-M   'P 1'
_cell_length_a   9.59884939
_cell_length_b   9.59884937
_cell_length_c   9.59884935
_cell_angle_alpha   59.94871879
_cell_angle_beta   59.94872139
_cell_angle_gamma   59.94871988
_symmetry_Int_Tables_number   1
_chemical_formula_structural   Ho4Tm12Cd3InPd4
_chemical_formula_sum   'Ho4 Tm12 Cd3 In1 Pd4'
_cell_volume   624.65057562
_cell_formula_units_Z   1
loop_
 _symmetry_equiv_pos_site_id
 _symmetry_equiv_pos_as_xyz
  1  'x, y, z'
loop_
 _atom_site_type_symbol
 _atom_site_label
 _atom_site_symmetry_multiplicity
 _atom_site_fract_x
 _atom_site_fract_y
 _atom_site_fract_z
 _atom_site_occupancy
  Ho  Ho0  1  0.351281  0.351281  0.351281  1
  Ho  Ho1  1  0.357105  0.357105  0.933801  1
  Ho  Ho2  1  0.357105  0.933801  0.357105  1
  Ho  Ho3  1  0.933801  0.357105  0.357105  1
  Tm  Tm4  1  0.810645  0.189113  0.189113  1
  Tm  Tm5  1  0.190374  0.810489  0.810489  1
  Tm  Tm6  1  0.189113  0.810645  0.189113  1
  Tm  Tm7  1  0.810489  0.190374  0.810489  1
  Tm  Tm8  1  0.189113  0.189113  0.810645  1
  Tm  Tm9  1  0.810489  0.810489  0.190374  1
  Tm  Tm10  1  0.935475  0.567562  0.567562  1
  Tm  Tm11  1  0.565033  0.935324  0.935324  1
  Tm  Tm12  1  0.567562  0.935475  0.567562  1
  Tm  Tm13  1  0.935324  0.565033  0.935324  1
  Tm  Tm14  1  0.567562  0.567562  0.935475  1
  Tm  Tm15  1  0.935324  0.935324  0.565033  1
  Cd  Cd16  1  0.580951  0.580951  0.250767  1
  Cd  Cd17  1  0.580951  0.250767  0.580951  1
  Cd  Cd18  1  0.250767  0.580951  0.580951  1
  In  In19  1  0.583842  0.583842  0.583842  1
  Pd  Pd20  1  0.145174  0.145174  0.145174  1
  Pd  Pd21  1  0.141764  0.141764  0.568990  1
  Pd  Pd22  1  0.141764  0.568990  0.141764  1
  Pd  Pd23  1  0.568990  0.141764  0.141764  1
