# generated using pymatgen
data_Yb3YCo12(GeB3)2
_symmetry_space_group_name_H-M   'P 1'
_cell_length_a   5.16306901
_cell_length_b   5.16287274
_cell_length_c   12.12086902
_cell_angle_alpha   89.99978457
_cell_angle_beta   90.00047524
_cell_angle_gamma   120.00126395
_symmetry_Int_Tables_number   1
_chemical_formula_structural   Yb3YCo12(GeB3)2
_chemical_formula_sum   'Yb3 Y1 Co12 Ge2 B6'
_cell_volume   279.80676356
_cell_formula_units_Z   1
loop_
 _symmetry_equiv_pos_site_id
 _symmetry_equiv_pos_as_xyz
  1  'x, y, z'
loop_
 _atom_site_type_symbol
 _atom_site_label
 _atom_site_symmetry_multiplicity
 _atom_site_fract_x
 _atom_site_fract_y
 _atom_site_fract_z
 _atom_site_occupancy
  Yb  Yb0  1  0.000000  0.000000  0.005271  1
  Yb  Yb1  1  0.999987  0.000000  0.493567  1
  Yb  Yb2  1  0.999969  0.000000  0.258981  1
  Y  Y3  1  0.000004  0.000000  0.739155  1
  Co  Co4  1  0.499973  0.000000  0.159605  1
  Co  Co5  1  0.499977  0.499994  0.159620  1
  Co  Co6  1  0.999983  0.500006  0.159620  1
  Co  Co7  1  0.500015  0.000000  0.842627  1
  Co  Co8  1  0.500008  0.500003  0.842627  1
  Co  Co9  1  0.000006  0.499997  0.842627  1
  Co  Co10  1  0.499973  0.000000  0.385008  1
  Co  Co11  1  0.499979  0.499995  0.385017  1
  Co  Co12  1  0.999983  0.500005  0.385017  1
  Co  Co13  1  0.499996  0.000000  0.613401  1
  Co  Co14  1  0.499999  0.500001  0.613395  1
  Co  Co15  1  0.999996  0.499999  0.613395  1
  Ge  Ge16  1  0.333316  0.666631  0.001137  1
  Ge  Ge17  1  0.666685  0.333369  0.001137  1
  B  B18  1  0.333351  0.666715  0.498882  1
  B  B19  1  0.666634  0.333285  0.498882  1
  B  B20  1  0.333336  0.666701  0.269378  1
  B  B21  1  0.666635  0.333299  0.269378  1
  B  B22  1  0.666664  0.333334  0.731136  1
  B  B23  1  0.333331  0.666666  0.731136  1
