# generated using pymatgen
data_Tm6IO12
_symmetry_space_group_name_H-M   'P 1'
_cell_length_a   6.43765393
_cell_length_b   6.43765380
_cell_length_c   6.43765400
_cell_angle_alpha   98.81997987
_cell_angle_beta   98.81998238
_cell_angle_gamma   98.81997862
_symmetry_Int_Tables_number   1
_chemical_formula_structural   Tm6IO12
_chemical_formula_sum   'Tm6 I1 O12'
_cell_volume   256.21790824
_cell_formula_units_Z   1
loop_
 _symmetry_equiv_pos_site_id
 _symmetry_equiv_pos_as_xyz
  1  'x, y, z'
loop_
 _atom_site_type_symbol
 _atom_site_label
 _atom_site_symmetry_multiplicity
 _atom_site_fract_x
 _atom_site_fract_y
 _atom_site_fract_z
 _atom_site_occupancy
  Tm  Tm0  1  0.679507  0.854435  0.390261  1
  Tm  Tm1  1  0.390261  0.679507  0.854435  1
  Tm  Tm2  1  0.854435  0.390261  0.679507  1
  Tm  Tm3  1  0.320493  0.145565  0.609739  1
  Tm  Tm4  1  0.609739  0.320493  0.145565  1
  Tm  Tm5  1  0.145565  0.609739  0.320493  1
  I  I6  1  0.000000  0.000000  0.000000  1
  O  O7  1  0.429320  0.590326  0.177620  1
  O  O8  1  0.177620  0.429320  0.590326  1
  O  O9  1  0.590326  0.177620  0.429320  1
  O  O10  1  0.570680  0.409674  0.822380  1
  O  O11  1  0.822380  0.570680  0.409674  1
  O  O12  1  0.409674  0.822380  0.570680  1
  O  O13  1  0.923181  0.041673  0.693077  1
  O  O14  1  0.958327  0.306923  0.076819  1
  O  O15  1  0.306923  0.076819  0.958327  1
  O  O16  1  0.076819  0.958327  0.306923  1
  O  O17  1  0.041673  0.693077  0.923181  1
  O  O18  1  0.693077  0.923181  0.041673  1
