# generated using pymatgen
data_CaYEr2(Mo2O7)2
_symmetry_space_group_name_H-M   'P 1'
_cell_length_a   7.31625465
_cell_length_b   7.30722371
_cell_length_c   7.41376608
_cell_angle_alpha   60.40359431
_cell_angle_beta   60.43414619
_cell_angle_gamma   59.95910735
_symmetry_Int_Tables_number   1
_chemical_formula_structural   CaYEr2(Mo2O7)2
_chemical_formula_sum   'Ca1 Y1 Er2 Mo4 O14'
_cell_volume   281.93550022
_cell_formula_units_Z   1
loop_
 _symmetry_equiv_pos_site_id
 _symmetry_equiv_pos_as_xyz
  1  'x, y, z'
loop_
 _atom_site_type_symbol
 _atom_site_label
 _atom_site_symmetry_multiplicity
 _atom_site_fract_x
 _atom_site_fract_y
 _atom_site_fract_z
 _atom_site_occupancy
  Ca  Ca0  1  0.125000  0.125000  0.625000  1
  Y  Y1  1  0.125000  0.625000  0.125000  1
  Er  Er2  1  0.125000  0.125000  0.125000  1
  Er  Er3  1  0.625000  0.125000  0.125000  1
  Mo  Mo4  1  0.625000  0.625000  0.625000  1
  Mo  Mo5  1  0.125000  0.625000  0.625000  1
  Mo  Mo6  1  0.625000  0.125000  0.625000  1
  Mo  Mo7  1  0.625000  0.625000  0.125000  1
  O  O8  1  0.255061  0.250814  0.239063  1
  O  O9  1  0.994939  0.999186  0.010937  1
  O  O10  1  0.554128  0.961928  0.522532  1
  O  O11  1  0.296973  0.709933  0.285475  1
  O  O12  1  0.542380  0.540067  0.964525  1
  O  O13  1  0.961249  0.552681  0.524821  1
  O  O14  1  0.541212  0.953218  0.964357  1
  O  O15  1  0.961413  0.961928  0.522532  1
  O  O16  1  0.953027  0.540067  0.964525  1
  O  O17  1  0.708788  0.296782  0.285643  1
  O  O18  1  0.288751  0.697319  0.725179  1
  O  O19  1  0.707620  0.709933  0.285475  1
  O  O20  1  0.288587  0.288072  0.727468  1
  O  O21  1  0.695872  0.288072  0.727468  1
