# generated using pymatgen
data_TeF18
_symmetry_space_group_name_H-M   'P 1'
_cell_length_a   5.85743597
_cell_length_b   9.37752285
_cell_length_c   13.56166100
_cell_angle_alpha   101.85032987
_cell_angle_beta   93.26313484
_cell_angle_gamma   102.74165111
_symmetry_Int_Tables_number   1
_chemical_formula_structural   TeF18
_chemical_formula_sum   'Te2 F36'
_cell_volume   707.00074063
_cell_formula_units_Z   2
loop_
 _symmetry_equiv_pos_site_id
 _symmetry_equiv_pos_as_xyz
  1  'x, y, z'
loop_
 _atom_site_type_symbol
 _atom_site_label
 _atom_site_symmetry_multiplicity
 _atom_site_fract_x
 _atom_site_fract_y
 _atom_site_fract_z
 _atom_site_occupancy
  Te  Te0  1  0.166766  0.988882  0.275928  1
  Te  Te1  1  0.833234  0.011118  0.724072  1
  F  F2  1  0.649972  0.650693  0.375548  1
  F  F3  1  0.350028  0.349307  0.624452  1
  F  F4  1  0.999696  0.395850  0.358415  1
  F  F5  1  0.000304  0.604150  0.641585  1
  F  F6  1  0.213166  0.880545  0.935544  1
  F  F7  1  0.786834  0.119455  0.064456  1
  F  F8  1  0.916406  0.079393  0.300746  1
  F  F9  1  0.083594  0.920607  0.699254  1
  F  F10  1  0.974342  0.805282  0.283587  1
  F  F11  1  0.025658  0.194718  0.716413  1
  F  F12  1  0.572813  0.518506  0.412738  1
  F  F13  1  0.427187  0.481494  0.587262  1
  F  F14  1  0.074565  0.949794  0.137272  1
  F  F15  1  0.925435  0.050206  0.862728  1
  F  F16  1  0.256003  0.031719  0.415072  1
  F  F17  1  0.743997  0.968281  0.584928  1
  F  F18  1  0.096622  0.417570  0.266896  1
  F  F19  1  0.903378  0.582430  0.733104  1
  F  F20  1  0.704583  0.666187  0.068991  1
  F  F21  1  0.295417  0.333813  0.931009  1
  F  F22  1  0.870065  0.606342  0.010456  1
  F  F23  1  0.129935  0.393658  0.989544  1
  F  F24  1  0.542146  0.583092  0.852872  1
  F  F25  1  0.457854  0.416908  0.147128  1
  F  F26  1  0.362831  0.171215  0.268486  1
  F  F27  1  0.637169  0.828785  0.731514  1
  F  F28  1  0.312166  0.799734  0.512420  1
  F  F29  1  0.687834  0.200266  0.487580  1
  F  F30  1  0.383224  0.828116  0.988677  1
  F  F31  1  0.616776  0.171884  0.011323  1
  F  F32  1  0.413710  0.894687  0.251048  1
  F  F33  1  0.586290  0.105313  0.748952  1
  F  F34  1  0.691525  0.422600  0.186682  1
  F  F35  1  0.308475  0.577400  0.813318  1
  F  F36  1  0.151665  0.659838  0.467368  1
  F  F37  1  0.848335  0.340162  0.532632  1
