# generated using pymatgen
data_SrAs2RuRh
_symmetry_space_group_name_H-M   'P 1'
_cell_length_a   6.64632364
_cell_length_b   6.64632418
_cell_length_c   6.64632311
_cell_angle_alpha   143.78632819
_cell_angle_beta   143.78632688
_cell_angle_gamma   52.14692454
_symmetry_Int_Tables_number   1
_chemical_formula_structural   SrAs2RuRh
_chemical_formula_sum   'Sr1 As2 Ru1 Rh1'
_cell_volume   101.88874812
_cell_formula_units_Z   1
loop_
 _symmetry_equiv_pos_site_id
 _symmetry_equiv_pos_as_xyz
  1  'x, y, z'
loop_
 _atom_site_type_symbol
 _atom_site_label
 _atom_site_symmetry_multiplicity
 _atom_site_fract_x
 _atom_site_fract_y
 _atom_site_fract_z
 _atom_site_occupancy
  Sr  Sr0  1  0.000000  0.000000  0.000000  1
  As  As1  1  0.638831  0.638831  0.000000  1
  As  As2  1  0.361169  0.361169  0.000000  1
  Ru  Ru3  1  0.750000  0.250000  0.500000  1
  Rh  Rh4  1  0.250000  0.750000  0.500000  1
