# generated using pymatgen
data_PmBIrF
_symmetry_space_group_name_H-M   'P 1'
_cell_length_a   3.87860800
_cell_length_b   3.87860800
_cell_length_c   8.05724200
_cell_angle_alpha   90.00001477
_cell_angle_beta   90.00001477
_cell_angle_gamma   89.99994091
_symmetry_Int_Tables_number   1
_chemical_formula_structural   PmBIrF
_chemical_formula_sum   'Pm2 B2 Ir2 F2'
_cell_volume   121.20992589
_cell_formula_units_Z   2
loop_
 _symmetry_equiv_pos_site_id
 _symmetry_equiv_pos_as_xyz
  1  'x, y, z'
loop_
 _atom_site_type_symbol
 _atom_site_label
 _atom_site_symmetry_multiplicity
 _atom_site_fract_x
 _atom_site_fract_y
 _atom_site_fract_z
 _atom_site_occupancy
  Pm  Pm0  1  0.250001  0.250001  0.194877  1
  Pm  Pm1  1  0.750001  0.750001  0.805118  1
  B  B2  1  0.750001  0.750001  0.376066  1
  B  B3  1  0.250002  0.250002  0.623938  1
  Ir  Ir4  1  0.750001  0.250002  0.499998  1
  Ir  Ir5  1  0.250002  0.750001  0.499998  1
  F  F6  1  0.750002  0.250002  0.000002  1
  F  F7  1  0.250002  0.750002  0.000002  1
