# generated using pymatgen
data_La3In3Pt2Rh
_symmetry_space_group_name_H-M   'P 1'
_cell_length_a   7.90965300
_cell_length_b   7.90965237
_cell_length_c   4.02154600
_cell_angle_alpha   90.00000000
_cell_angle_beta   90.00000000
_cell_angle_gamma   119.99999843
_symmetry_Int_Tables_number   1
_chemical_formula_structural   La3In3Pt2Rh
_chemical_formula_sum   'La3 In3 Pt2 Rh1'
_cell_volume   217.89060632
_cell_formula_units_Z   1
loop_
 _symmetry_equiv_pos_site_id
 _symmetry_equiv_pos_as_xyz
  1  'x, y, z'
loop_
 _atom_site_type_symbol
 _atom_site_label
 _atom_site_symmetry_multiplicity
 _atom_site_fract_x
 _atom_site_fract_y
 _atom_site_fract_z
 _atom_site_occupancy
  La  La0  1  0.413308  0.413308  0.500000  1
  La  La1  1  0.000000  0.586692  0.500000  1
  La  La2  1  0.586692  0.000000  0.500000  1
  In  In3  1  0.754737  0.754737  0.000000  1
  In  In4  1  0.245263  0.000000  0.000000  1
  In  In5  1  0.000000  0.245263  0.000000  1
  Pt  Pt6  1  0.666667  0.333333  0.000000  1
  Pt  Pt7  1  0.333333  0.666667  0.000000  1
  Rh  Rh8  1  0.000000  0.000000  0.500000  1
