# generated using pymatgen
data_Tm4Co17(As4Ru)3
_symmetry_space_group_name_H-M   'P 1'
_cell_length_a   3.78754400
_cell_length_b   10.72345397
_cell_length_c   12.20662293
_cell_angle_alpha   89.94428586
_cell_angle_beta   90.00000000
_cell_angle_gamma   90.00000000
_symmetry_Int_Tables_number   1
_chemical_formula_structural   Tm4Co17(As4Ru)3
_chemical_formula_sum   'Tm4 Co17 As12 Ru3'
_cell_volume   495.77851552
_cell_formula_units_Z   1
loop_
 _symmetry_equiv_pos_site_id
 _symmetry_equiv_pos_as_xyz
  1  'x, y, z'
loop_
 _atom_site_type_symbol
 _atom_site_label
 _atom_site_symmetry_multiplicity
 _atom_site_fract_x
 _atom_site_fract_y
 _atom_site_fract_z
 _atom_site_occupancy
  Tm  Tm0  1  0.250000  0.579772  0.701720  1
  Tm  Tm1  1  0.250000  0.916273  0.203731  1
  Tm  Tm2  1  0.750000  0.416340  0.295796  1
  Tm  Tm3  1  0.750000  0.083080  0.795887  1
  Co  Co4  1  0.750000  0.213782  0.508121  1
  Co  Co5  1  0.250000  0.406862  0.487187  1
  Co  Co6  1  0.250000  0.092502  0.987482  1
  Co  Co7  1  0.750000  0.592723  0.511919  1
  Co  Co8  1  0.750000  0.907498  0.012856  1
  Co  Co9  1  0.250000  0.216326  0.177346  1
  Co  Co10  1  0.250000  0.283425  0.676100  1
  Co  Co11  1  0.750000  0.783078  0.823233  1
  Co  Co12  1  0.750000  0.717647  0.324184  1
  Co  Co13  1  0.250000  0.886953  0.699577  1
  Co  Co14  1  0.250000  0.614210  0.200763  1
  Co  Co15  1  0.750000  0.116778  0.302279  1
  Co  Co16  1  0.750000  0.385451  0.799263  1
  Co  Co17  1  0.250000  0.465023  0.930920  1
  Co  Co18  1  0.250000  0.034256  0.431420  1
  Co  Co19  1  0.750000  0.534779  0.069266  1
  Co  Co20  1  0.750000  0.967372  0.568843  1
  As  As21  1  0.250000  0.416994  0.115081  1
  As  As22  1  0.250000  0.084771  0.613561  1
  As  As23  1  0.750000  0.582242  0.884669  1
  As  As24  1  0.750000  0.918369  0.385263  1
  As  As25  1  0.250000  0.266929  0.866585  1
  As  As26  1  0.250000  0.232840  0.369636  1
  As  As27  1  0.750000  0.732779  0.133447  1
  As  As28  1  0.750000  0.767692  0.633140  1
  As  As29  1  0.250000  0.594556  0.389494  1
  As  As30  1  0.250000  0.905200  0.889266  1
  As  As31  1  0.750000  0.399912  0.608044  1
  As  As32  1  0.750000  0.095111  0.111848  1
  Ru  Ru33  1  0.250000  0.711305  0.990827  1
  Ru  Ru34  1  0.250000  0.788305  0.491238  1
  Ru  Ru35  1  0.750000  0.288864  0.010010  1
