# generated using pymatgen
data_Zn6In5SnRh12
_symmetry_space_group_name_H-M   'P 1'
_cell_length_a   4.43930700
_cell_length_b   6.29793200
_cell_length_c   13.31963500
_cell_angle_alpha   89.99989380
_cell_angle_beta   89.99860619
_cell_angle_gamma   90.00010621
_symmetry_Int_Tables_number   1
_chemical_formula_structural   Zn6In5SnRh12
_chemical_formula_sum   'Zn6 In5 Sn1 Rh12'
_cell_volume   372.39639724
_cell_formula_units_Z   1
loop_
 _symmetry_equiv_pos_site_id
 _symmetry_equiv_pos_as_xyz
  1  'x, y, z'
loop_
 _atom_site_type_symbol
 _atom_site_label
 _atom_site_symmetry_multiplicity
 _atom_site_fract_x
 _atom_site_fract_y
 _atom_site_fract_z
 _atom_site_occupancy
  Zn  Zn0  1  0.000000  0.500000  0.000000  1
  Zn  Zn1  1  0.499878  0.000000  0.169242  1
  Zn  Zn2  1  0.999869  0.499999  0.333654  1
  Zn  Zn3  1  0.500001  0.000000  0.500000  1
  Zn  Zn4  1  0.000131  0.500001  0.666346  1
  Zn  Zn5  1  0.500122  0.000000  0.830758  1
  In  In6  1  0.499918  0.500000  0.166917  1
  In  In7  1  0.999843  0.000001  0.333665  1
  In  In8  1  0.500001  0.500000  0.500000  1
  In  In9  1  0.000157  0.999999  0.666334  1
  In  In10  1  0.500082  0.500000  0.833083  1
  Sn  Sn11  1  0.000000  0.000000  0.000000  1
  Rh  Rh12  1  0.500004  0.245415  0.000000  1
  Rh  Rh13  1  0.499998  0.754586  0.000000  1
  Rh  Rh14  1  0.999893  0.247802  0.164418  1
  Rh  Rh15  1  0.999898  0.752197  0.164422  1
  Rh  Rh16  1  0.499903  0.249979  0.333105  1
  Rh  Rh17  1  0.499902  0.750017  0.333105  1
  Rh  Rh18  1  0.000001  0.250385  0.499998  1
  Rh  Rh19  1  0.999999  0.749615  0.500002  1
  Rh  Rh20  1  0.500098  0.249982  0.666895  1
  Rh  Rh21  1  0.500097  0.750020  0.666895  1
  Rh  Rh22  1  0.000102  0.247802  0.835578  1
  Rh  Rh23  1  0.000107  0.752197  0.835582  1
