# generated using pymatgen
data_LiTh3Hg3Rh2
_symmetry_space_group_name_H-M   'P 1'
_cell_length_a   7.88920700
_cell_length_b   7.88920616
_cell_length_c   3.79475000
_cell_angle_alpha   90.00000000
_cell_angle_beta   90.00000000
_cell_angle_gamma   119.99999932
_symmetry_Int_Tables_number   1
_chemical_formula_structural   LiTh3Hg3Rh2
_chemical_formula_sum   'Li1 Th3 Hg3 Rh2'
_cell_volume   204.54104058
_cell_formula_units_Z   1
loop_
 _symmetry_equiv_pos_site_id
 _symmetry_equiv_pos_as_xyz
  1  'x, y, z'
loop_
 _atom_site_type_symbol
 _atom_site_label
 _atom_site_symmetry_multiplicity
 _atom_site_fract_x
 _atom_site_fract_y
 _atom_site_fract_z
 _atom_site_occupancy
  Li  Li0  1  0.000000  0.000000  0.500000  1
  Th  Th1  1  0.000000  0.426559  0.500000  1
  Th  Th2  1  0.573441  0.573441  0.500000  1
  Th  Th3  1  0.426559  0.000000  0.500000  1
  Hg  Hg4  1  0.000000  0.757911  0.000000  1
  Hg  Hg5  1  0.242089  0.242089  0.000000  1
  Hg  Hg6  1  0.757911  0.000000  0.000000  1
  Rh  Rh7  1  0.333333  0.666667  0.000000  1
  Rh  Rh8  1  0.666667  0.333333  0.000000  1
