# generated using pymatgen
data_Ba4Np2U2N11
_symmetry_space_group_name_H-M   'P 1'
_cell_length_a   6.14769704
_cell_length_b   6.14544472
_cell_length_c   8.72346929
_cell_angle_alpha   89.99618891
_cell_angle_beta   89.98982658
_cell_angle_gamma   90.37639262
_symmetry_Int_Tables_number   1
_chemical_formula_structural   Ba4Np2U2N11
_chemical_formula_sum   'Ba4 Np2 U2 N11'
_cell_volume   329.56845088
_cell_formula_units_Z   1
loop_
 _symmetry_equiv_pos_site_id
 _symmetry_equiv_pos_as_xyz
  1  'x, y, z'
loop_
 _atom_site_type_symbol
 _atom_site_label
 _atom_site_symmetry_multiplicity
 _atom_site_fract_x
 _atom_site_fract_y
 _atom_site_fract_z
 _atom_site_occupancy
  Ba  Ba0  1  0.008295  0.991111  0.256210  1
  Ba  Ba1  1  0.494990  0.504606  0.256418  1
  Ba  Ba2  1  0.495010  0.504584  0.739285  1
  Ba  Ba3  1  0.008298  0.991125  0.739496  1
  Np  Np4  1  0.503634  0.999591  0.497800  1
  Np  Np5  1  0.495801  0.991762  0.997775  1
  U  U6  1  0.998521  0.494746  0.497836  1
  U  U7  1  0.006565  0.502567  0.997744  1
  N  N8  1  0.772503  0.719349  0.997945  1
  N  N9  1  0.996571  0.492462  0.267582  1
  N  N10  1  0.514324  0.010851  0.214332  1
  N  N11  1  0.726180  0.771245  0.497737  1
  N  N12  1  0.739386  0.234687  0.497474  1
  N  N13  1  0.262290  0.758887  0.498065  1
  N  N14  1  0.276012  0.223222  0.497942  1
  N  N15  1  0.515305  0.011381  0.781349  1
  N  N16  1  0.995727  0.492049  0.727995  1
  N  N17  1  0.258198  0.750103  0.997370  1
  N  N18  1  0.218958  0.264490  0.997714  1
