# generated using pymatgen
data_Pr2TmGa2
_symmetry_space_group_name_H-M   'P 1'
_cell_length_a   7.71041300
_cell_length_b   7.71041300
_cell_length_c   4.60381200
_cell_angle_alpha   90.00000000
_cell_angle_beta   90.00000000
_cell_angle_gamma   90.00000000
_symmetry_Int_Tables_number   1
_chemical_formula_structural   Pr2TmGa2
_chemical_formula_sum   'Pr4 Tm2 Ga4'
_cell_volume   273.69878089
_cell_formula_units_Z   2
loop_
 _symmetry_equiv_pos_site_id
 _symmetry_equiv_pos_as_xyz
  1  'x, y, z'
loop_
 _atom_site_type_symbol
 _atom_site_label
 _atom_site_symmetry_multiplicity
 _atom_site_fract_x
 _atom_site_fract_y
 _atom_site_fract_z
 _atom_site_occupancy
  Pr  Pr0  1  0.325415  0.174584  0.500000  1
  Pr  Pr1  1  0.825415  0.325415  0.500000  1
  Pr  Pr2  1  0.174584  0.674584  0.500000  1
  Pr  Pr3  1  0.674584  0.825415  0.500000  1
  Tm  Tm4  1  0.000000  0.000000  0.000000  1
  Tm  Tm5  1  0.500000  0.500000  0.000000  1
  Ga  Ga6  1  0.620186  0.120186  0.000000  1
  Ga  Ga7  1  0.120186  0.379813  0.000000  1
  Ga  Ga8  1  0.879814  0.620186  0.000000  1
  Ga  Ga9  1  0.379813  0.879814  0.000000  1
