# generated using pymatgen
data_HoTm3Al7Ga5
_symmetry_space_group_name_H-M   'P 1'
_cell_length_a   6.10421969
_cell_length_b   6.09093687
_cell_length_c   9.40434301
_cell_angle_alpha   90.00160342
_cell_angle_beta   89.99517060
_cell_angle_gamma   120.25397556
_symmetry_Int_Tables_number   1
_chemical_formula_structural   HoTm3Al7Ga5
_chemical_formula_sum   'Ho1 Tm3 Al7 Ga5'
_cell_volume   302.03424627
_cell_formula_units_Z   1
loop_
 _symmetry_equiv_pos_site_id
 _symmetry_equiv_pos_as_xyz
  1  'x, y, z'
loop_
 _atom_site_type_symbol
 _atom_site_label
 _atom_site_symmetry_multiplicity
 _atom_site_fract_x
 _atom_site_fract_y
 _atom_site_fract_z
 _atom_site_occupancy
  Ho  Ho0  1  0.000708  0.001278  0.998314  1
  Tm  Tm1  1  0.000697  0.001241  0.501717  1
  Tm  Tm2  1  0.332292  0.666081  0.249937  1
  Tm  Tm3  1  0.667239  0.333023  0.750057  1
  Al  Al4  1  0.501311  0.500786  0.499378  1
  Al  Al5  1  0.500537  0.001098  0.500140  1
  Al  Al6  1  0.999529  0.500852  0.499404  1
  Al  Al7  1  0.501326  0.500789  0.000627  1
  Al  Al8  1  0.500547  0.001115  0.999856  1
  Al  Al9  1  0.999517  0.500859  0.000609  1
  Al  Al10  1  0.815955  0.631676  0.250341  1
  Ga  Ga11  1  0.364592  0.181019  0.250367  1
  Ga  Ga12  1  0.816456  0.181486  0.250374  1
  Ga  Ga13  1  0.183061  0.366388  0.749631  1
  Ga  Ga14  1  0.633171  0.816354  0.749629  1
  Ga  Ga15  1  0.183063  0.815954  0.749618  1
