# generated using pymatgen
data_K2H7Au
_symmetry_space_group_name_H-M   'P 1'
_cell_length_a   6.02223966
_cell_length_b   5.98136015
_cell_length_c   5.97705011
_cell_angle_alpha   87.92027674
_cell_angle_beta   121.33567380
_cell_angle_gamma   121.44906014
_symmetry_Int_Tables_number   1
_chemical_formula_structural   K2H7Au
_chemical_formula_sum   'K2 H7 Au1'
_cell_volume   148.49648067
_cell_formula_units_Z   1
loop_
 _symmetry_equiv_pos_site_id
 _symmetry_equiv_pos_as_xyz
  1  'x, y, z'
loop_
 _atom_site_type_symbol
 _atom_site_label
 _atom_site_symmetry_multiplicity
 _atom_site_fract_x
 _atom_site_fract_y
 _atom_site_fract_z
 _atom_site_occupancy
  K  K0  1  0.119298  0.051157  0.948437  1
  K  K1  1  0.118531  0.550684  0.447684  1
  H  H2  1  0.624759  0.067503  0.465684  1
  H  H3  1  0.012801  0.513878  0.911566  1
  H  H4  1  0.574910  0.710428  0.105536  1
  H  H5  1  0.221460  0.105705  0.502495  1
  H  H6  1  0.619188  0.113489  0.906661  1
  H  H7  1  0.620180  0.508682  0.509609  1
  H  H8  1  0.588749  0.629083  0.024290  1
  Au  Au9  1  0.618882  0.291195  0.688374  1
