# generated using pymatgen
data_Th2Mg3CdCu18
_symmetry_space_group_name_H-M   'P 1'
_cell_length_a   5.08682701
_cell_length_b   5.08678822
_cell_length_c   16.06098600
_cell_angle_alpha   90.00044835
_cell_angle_beta   89.99975123
_cell_angle_gamma   120.00628088
_symmetry_Int_Tables_number   1
_chemical_formula_structural   Th2Mg3CdCu18
_chemical_formula_sum   'Th2 Mg3 Cd1 Cu18'
_cell_volume   359.88684340
_cell_formula_units_Z   1
loop_
 _symmetry_equiv_pos_site_id
 _symmetry_equiv_pos_as_xyz
  1  'x, y, z'
loop_
 _atom_site_type_symbol
 _atom_site_label
 _atom_site_symmetry_multiplicity
 _atom_site_fract_x
 _atom_site_fract_y
 _atom_site_fract_z
 _atom_site_occupancy
  Th  Th0  1  0.666670  0.333339  0.251011  1
  Th  Th1  1  0.333327  0.666656  0.750489  1
  Mg  Mg2  1  0.333327  0.666663  0.968808  1
  Mg  Mg3  1  0.666674  0.333336  0.031111  1
  Mg  Mg4  1  0.333327  0.666665  0.530589  1
  Cd  Cd5  1  0.666672  0.333331  0.467794  1
  Cu  Cu6  1  0.333320  0.666647  0.249647  1
  Cu  Cu7  1  0.666672  0.333321  0.750227  1
  Cu  Cu8  1  0.167796  0.832226  0.377133  1
  Cu  Cu9  1  0.167787  0.335574  0.377137  1
  Cu  Cu10  1  0.999985  0.000003  0.749983  1
  Cu  Cu11  1  0.000014  0.000022  0.249766  1
  Cu  Cu12  1  0.000008  0.999991  0.000130  1
  Cu  Cu13  1  0.000013  0.000002  0.500057  1
  Cu  Cu14  1  0.168000  0.335991  0.122297  1
  Cu  Cu15  1  0.832071  0.167915  0.622879  1
  Cu  Cu16  1  0.335826  0.167911  0.622881  1
  Cu  Cu17  1  0.664007  0.832009  0.122298  1
  Cu  Cu18  1  0.168014  0.832013  0.122300  1
  Cu  Cu19  1  0.832169  0.664350  0.877814  1
  Cu  Cu20  1  0.832155  0.167821  0.877816  1
  Cu  Cu21  1  0.832080  0.664171  0.622881  1
  Cu  Cu22  1  0.335649  0.167820  0.877815  1
  Cu  Cu23  1  0.664435  0.832225  0.377135  1
