# generated using pymatgen
data_La8Er2(RuPt)3
_symmetry_space_group_name_H-M   'P 1'
_cell_length_a   11.33265816
_cell_length_b   11.32662000
_cell_length_c   6.47901500
_cell_angle_alpha   90.00000000
_cell_angle_beta   90.07673712
_cell_angle_gamma   90.00000000
_symmetry_Int_Tables_number   1
_chemical_formula_structural   La8Er2(RuPt)3
_chemical_formula_sum   'La16 Er4 Ru6 Pt6'
_cell_volume   831.65023655
_cell_formula_units_Z   2
loop_
 _symmetry_equiv_pos_site_id
 _symmetry_equiv_pos_as_xyz
  1  'x, y, z'
loop_
 _atom_site_type_symbol
 _atom_site_label
 _atom_site_symmetry_multiplicity
 _atom_site_fract_x
 _atom_site_fract_y
 _atom_site_fract_z
 _atom_site_occupancy
  La  La0  1  0.293619  0.090348  0.375802  1
  La  La1  1  0.293619  0.909652  0.875802  1
  La  La2  1  0.706719  0.086146  0.876096  1
  La  La3  1  0.706719  0.913854  0.376096  1
  La  La4  1  0.582974  0.790080  0.875961  1
  La  La5  1  0.582974  0.209920  0.375961  1
  La  La6  1  0.411523  0.789926  0.383126  1
  La  La7  1  0.411523  0.210074  0.883126  1
  La  La8  1  0.212524  0.414693  0.618146  1
  La  La9  1  0.212524  0.585307  0.118146  1
  La  La10  1  0.792941  0.413533  0.122543  1
  La  La11  1  0.792941  0.586467  0.622543  1
  La  La12  1  0.914134  0.706573  0.123751  1
  La  La13  1  0.914134  0.293427  0.623751  1
  La  La14  1  0.090799  0.706541  0.624451  1
  La  La15  1  0.090799  0.293459  0.124451  1
  Er  Er16  1  0.000139  0.999720  0.499847  1
  Er  Er17  1  0.000139  0.000280  0.999847  1
  Er  Er18  1  0.496284  0.499416  0.999812  1
  Er  Er19  1  0.496284  0.500584  0.499812  1
  Ru  Ru20  1  0.351876  0.350741  0.249786  1
  Ru  Ru21  1  0.351876  0.649259  0.749786  1
  Ru  Ru22  1  0.501014  0.999265  0.117989  1
  Ru  Ru23  1  0.501014  0.000735  0.617989  1
  Ru  Ru24  1  0.997790  0.499984  0.882116  1
  Ru  Ru25  1  0.997790  0.500016  0.382116  1
  Pt  Pt26  1  0.853921  0.146194  0.250207  1
  Pt  Pt27  1  0.853921  0.853806  0.750207  1
  Pt  Pt28  1  0.145629  0.145807  0.749959  1
  Pt  Pt29  1  0.145629  0.854193  0.249959  1
  Pt  Pt30  1  0.648114  0.352870  0.750408  1
  Pt  Pt31  1  0.648114  0.647130  0.250408  1
