# generated using pymatgen
data_TmLu(Pa2Ga5)2
_symmetry_space_group_name_H-M   'P 1'
_cell_length_a   6.06216000
_cell_length_b   9.49798100
_cell_length_c   11.65496000
_cell_angle_alpha   90.00000000
_cell_angle_beta   90.00000000
_cell_angle_gamma   90.00000000
_symmetry_Int_Tables_number   1
_chemical_formula_structural   TmLu(Pa2Ga5)2
_chemical_formula_sum   'Tm2 Lu2 Pa8 Ga20'
_cell_volume   671.07255608
_cell_formula_units_Z   2
loop_
 _symmetry_equiv_pos_site_id
 _symmetry_equiv_pos_as_xyz
  1  'x, y, z'
loop_
 _atom_site_type_symbol
 _atom_site_label
 _atom_site_symmetry_multiplicity
 _atom_site_fract_x
 _atom_site_fract_y
 _atom_site_fract_z
 _atom_site_occupancy
  Tm  Tm0  1  0.143151  0.250000  0.927859  1
  Tm  Tm1  1  0.356849  0.250000  0.427859  1
  Lu  Lu2  1  0.856670  0.750000  0.072245  1
  Lu  Lu3  1  0.643330  0.750000  0.572245  1
  Pa  Pa4  1  0.881004  0.502643  0.352246  1
  Pa  Pa5  1  0.618996  0.997357  0.852246  1
  Pa  Pa6  1  0.118942  0.002479  0.647748  1
  Pa  Pa7  1  0.381058  0.497521  0.147748  1
  Pa  Pa8  1  0.118942  0.497521  0.647748  1
  Pa  Pa9  1  0.381058  0.002479  0.147748  1
  Pa  Pa10  1  0.881004  0.997357  0.352246  1
  Pa  Pa11  1  0.618996  0.502643  0.852246  1
  Ga  Ga12  1  0.873325  0.051201  0.090436  1
  Ga  Ga13  1  0.626675  0.448799  0.590436  1
  Ga  Ga14  1  0.126585  0.551588  0.909600  1
  Ga  Ga15  1  0.373415  0.948412  0.409600  1
  Ga  Ga16  1  0.126585  0.948412  0.909600  1
  Ga  Ga17  1  0.373415  0.551588  0.409600  1
  Ga  Ga18  1  0.873325  0.448799  0.090436  1
  Ga  Ga19  1  0.626675  0.051201  0.590436  1
  Ga  Ga20  1  0.154419  0.750000  0.263219  1
  Ga  Ga21  1  0.345581  0.750000  0.763219  1
  Ga  Ga22  1  0.845283  0.250000  0.736624  1
  Ga  Ga23  1  0.654717  0.250000  0.236624  1
  Ga  Ga24  1  0.391734  0.750000  0.993988  1
  Ga  Ga25  1  0.108266  0.750000  0.493988  1
  Ga  Ga26  1  0.608680  0.250000  0.006074  1
  Ga  Ga27  1  0.891320  0.250000  0.506074  1
  Ga  Ga28  1  0.596247  0.750000  0.291352  1
  Ga  Ga29  1  0.903753  0.750000  0.791352  1
  Ga  Ga30  1  0.403866  0.250000  0.708579  1
  Ga  Ga31  1  0.096134  0.250000  0.208579  1
