# generated using pymatgen
data_SrNpN2
_symmetry_space_group_name_H-M   'P 1'
_cell_length_a   6.31483415
_cell_length_b   6.31483433
_cell_length_c   6.31483454
_cell_angle_alpha   32.69585630
_cell_angle_beta   32.69585669
_cell_angle_gamma   32.69584143
_symmetry_Int_Tables_number   1
_chemical_formula_structural   SrNpN2
_chemical_formula_sum   'Sr1 Np1 N2'
_cell_volume   65.35771002
_cell_formula_units_Z   1
loop_
 _symmetry_equiv_pos_site_id
 _symmetry_equiv_pos_as_xyz
  1  'x, y, z'
loop_
 _atom_site_type_symbol
 _atom_site_label
 _atom_site_symmetry_multiplicity
 _atom_site_fract_x
 _atom_site_fract_y
 _atom_site_fract_z
 _atom_site_occupancy
  Sr  Sr0  1  0.000000  0.000000  0.000000  1
  Np  Np1  1  0.500000  0.500000  0.500000  1
  N  N2  1  0.768072  0.768072  0.768072  1
  N  N3  1  0.231928  0.231928  0.231928  1
