# generated using pymatgen
data_Tb7Ho9(ErSn4)4
_symmetry_space_group_name_H-M   'P 1'
_cell_length_a   8.02274019
_cell_length_b   8.16743231
_cell_length_c   15.44232601
_cell_angle_alpha   90.00401904
_cell_angle_beta   90.04279452
_cell_angle_gamma   89.96828203
_symmetry_Int_Tables_number   1
_chemical_formula_structural   Tb7Ho9(ErSn4)4
_chemical_formula_sum   'Tb7 Ho9 Er4 Sn16'
_cell_volume   1011.86086666
_cell_formula_units_Z   1
loop_
 _symmetry_equiv_pos_site_id
 _symmetry_equiv_pos_as_xyz
  1  'x, y, z'
loop_
 _atom_site_type_symbol
 _atom_site_label
 _atom_site_symmetry_multiplicity
 _atom_site_fract_x
 _atom_site_fract_y
 _atom_site_fract_z
 _atom_site_occupancy
  Tb  Tb0  1  0.020283  0.180047  0.597616  1
  Tb  Tb1  1  0.479698  0.679967  0.402553  1
  Tb  Tb2  1  0.979571  0.820102  0.097411  1
  Tb  Tb3  1  0.479526  0.679808  0.097377  1
  Tb  Tb4  1  0.979701  0.820034  0.402561  1
  Tb  Tb5  1  0.520201  0.320101  0.597337  1
  Tb  Tb6  1  0.020335  0.180088  0.902559  1
  Ho  Ho7  1  0.367404  0.836048  0.877895  1
  Ho  Ho8  1  0.867239  0.663914  0.622196  1
  Ho  Ho9  1  0.632675  0.164002  0.377877  1
  Ho  Ho10  1  0.132410  0.336024  0.122022  1
  Ho  Ho11  1  0.632436  0.164114  0.121977  1
  Ho  Ho12  1  0.132723  0.335999  0.377871  1
  Ho  Ho13  1  0.367322  0.836112  0.622260  1
  Ho  Ho14  1  0.867420  0.663863  0.877951  1
  Ho  Ho15  1  0.520804  0.320187  0.902402  1
  Er  Er16  1  0.198231  0.503040  0.750194  1
  Er  Er17  1  0.697986  0.996907  0.750147  1
  Er  Er18  1  0.801893  0.496768  0.249936  1
  Er  Er19  1  0.301914  0.003216  0.249915  1
  Sn  Sn20  1  0.293667  0.036164  0.041848  1
  Sn  Sn21  1  0.793761  0.463773  0.458154  1
  Sn  Sn22  1  0.706269  0.963805  0.541890  1
  Sn  Sn23  1  0.207538  0.535244  0.957877  1
  Sn  Sn24  1  0.706028  0.964397  0.957998  1
  Sn  Sn25  1  0.206184  0.536350  0.541868  1
  Sn  Sn26  1  0.293772  0.036176  0.458172  1
  Sn  Sn27  1  0.792899  0.463407  0.041496  1
  Sn  Sn28  1  0.564682  0.619747  0.750055  1
  Sn  Sn29  1  0.064718  0.879917  0.750047  1
  Sn  Sn30  1  0.435241  0.379971  0.249934  1
  Sn  Sn31  1  0.935216  0.120147  0.249979  1
  Sn  Sn32  1  0.329434  0.147150  0.750472  1
  Sn  Sn33  1  0.828406  0.353361  0.750196  1
  Sn  Sn34  1  0.671215  0.853412  0.249958  1
  Sn  Sn35  1  0.171202  0.646635  0.250000  1
