# generated using pymatgen
data_Ga2B2PbO7
_symmetry_space_group_name_H-M   'P 1'
_cell_length_a   7.32946613
_cell_length_b   7.32946564
_cell_length_c   5.77911600
_cell_angle_alpha   90.00000000
_cell_angle_beta   90.00000000
_cell_angle_gamma   108.09409305
_symmetry_Int_Tables_number   1
_chemical_formula_structural   Ga2B2PbO7
_chemical_formula_sum   'Ga4 B4 Pb2 O14'
_cell_volume   295.10733750
_cell_formula_units_Z   2
loop_
 _symmetry_equiv_pos_site_id
 _symmetry_equiv_pos_as_xyz
  1  'x, y, z'
loop_
 _atom_site_type_symbol
 _atom_site_label
 _atom_site_symmetry_multiplicity
 _atom_site_fract_x
 _atom_site_fract_y
 _atom_site_fract_z
 _atom_site_occupancy
  Ga  Ga0  1  0.878991  0.296576  0.250000  1
  Ga  Ga1  1  0.703424  0.121009  0.750000  1
  Ga  Ga2  1  0.296576  0.878991  0.250000  1
  Ga  Ga3  1  0.121009  0.703424  0.750000  1
  B  B4  1  0.706434  0.487208  0.750000  1
  B  B5  1  0.487208  0.706434  0.750000  1
  B  B6  1  0.512792  0.293566  0.250000  1
  B  B7  1  0.293566  0.512792  0.250000  1
  Pb  Pb8  1  0.174614  0.174614  0.750000  1
  Pb  Pb9  1  0.825386  0.825386  0.250000  1
  O  O10  1  0.657117  0.657117  0.750000  1
  O  O11  1  0.871794  0.128206  0.000000  1
  O  O12  1  0.693945  0.426015  0.250000  1
  O  O13  1  0.342883  0.342883  0.250000  1
  O  O14  1  0.128206  0.871794  0.000000  1
  O  O15  1  0.500462  0.896356  0.750000  1
  O  O16  1  0.896356  0.500462  0.750000  1
  O  O17  1  0.103644  0.499538  0.250000  1
  O  O18  1  0.306055  0.573985  0.750000  1
  O  O19  1  0.426015  0.693945  0.250000  1
  O  O20  1  0.499538  0.103644  0.250000  1
  O  O21  1  0.871794  0.128206  0.500000  1
  O  O22  1  0.128206  0.871794  0.500000  1
  O  O23  1  0.573985  0.306055  0.750000  1
