# generated using pymatgen
data_CaNb(NiSb)2
_symmetry_space_group_name_H-M   'P 1'
_cell_length_a   4.04780700
_cell_length_b   8.16343807
_cell_length_c   7.28992299
_cell_angle_alpha   87.12351200
_cell_angle_beta   90.00000000
_cell_angle_gamma   90.00000000
_symmetry_Int_Tables_number   1
_chemical_formula_structural   CaNb(NiSb)2
_chemical_formula_sum   'Ca2 Nb2 Ni4 Sb4'
_cell_volume   240.58486306
_cell_formula_units_Z   2
loop_
 _symmetry_equiv_pos_site_id
 _symmetry_equiv_pos_as_xyz
  1  'x, y, z'
loop_
 _atom_site_type_symbol
 _atom_site_label
 _atom_site_symmetry_multiplicity
 _atom_site_fract_x
 _atom_site_fract_y
 _atom_site_fract_z
 _atom_site_occupancy
  Ca  Ca0  1  0.750000  0.018775  0.739197  1
  Ca  Ca1  1  0.250000  0.981225  0.260803  1
  Nb  Nb2  1  0.750000  0.477571  0.701545  1
  Nb  Nb3  1  0.250000  0.522429  0.298455  1
  Ni  Ni4  1  0.250000  0.584703  0.936312  1
  Ni  Ni5  1  0.750000  0.415297  0.063688  1
  Ni  Ni6  1  0.250000  0.313392  0.582309  1
  Ni  Ni7  1  0.750000  0.686608  0.417691  1
  Sb  Sb8  1  0.250000  0.741213  0.618012  1
  Sb  Sb9  1  0.750000  0.258787  0.381988  1
  Sb  Sb10  1  0.250000  0.264263  0.929582  1
  Sb  Sb11  1  0.750000  0.735737  0.070418  1
