# generated using pymatgen
data_Sm12(FeC3)5
_symmetry_space_group_name_H-M   'P 1'
_cell_length_a   5.21388600
_cell_length_b   10.60690412
_cell_length_c   10.60652900
_cell_angle_alpha   119.99882699
_cell_angle_beta   90.00000000
_cell_angle_gamma   90.00000000
_symmetry_Int_Tables_number   1
_chemical_formula_structural   Sm12(FeC3)5
_chemical_formula_sum   'Sm12 Fe5 C15'
_cell_volume   507.99474895
_cell_formula_units_Z   1
loop_
 _symmetry_equiv_pos_site_id
 _symmetry_equiv_pos_as_xyz
  1  'x, y, z'
loop_
 _atom_site_type_symbol
 _atom_site_label
 _atom_site_symmetry_multiplicity
 _atom_site_fract_x
 _atom_site_fract_y
 _atom_site_fract_z
 _atom_site_occupancy
  Sm  Sm0  1  0.500000  0.208667  0.208653  1
  Sm  Sm1  1  0.500000  0.000000  0.791351  1
  Sm  Sm2  1  0.500000  0.791333  0.999986  1
  Sm  Sm3  1  0.000000  0.728629  0.184451  1
  Sm  Sm4  1  0.000000  0.455799  0.271353  1
  Sm  Sm5  1  0.000000  0.544201  0.815554  1
  Sm  Sm6  1  0.000000  0.815560  0.544195  1
  Sm  Sm7  1  0.000000  0.184440  0.728636  1
  Sm  Sm8  1  0.000000  0.271371  0.455822  1
  Sm  Sm9  1  0.500000  0.570515  0.570507  1
  Sm  Sm10  1  0.500000  0.000000  0.429473  1
  Sm  Sm11  1  0.500000  0.429485  0.999992  1
  Fe  Fe12  1  0.000000  0.844852  0.844833  1
  Fe  Fe13  1  0.000000  0.000000  0.155133  1
  Fe  Fe14  1  0.000000  0.155148  0.999980  1
  Fe  Fe15  1  0.500000  0.666673  0.333336  1
  Fe  Fe16  1  0.500000  0.333327  0.666664  1
  C  C17  1  0.000000  0.678404  0.678400  1
  C  C18  1  0.000000  0.000000  0.321627  1
  C  C19  1  0.000000  0.321596  0.999996  1
  C  C20  1  0.000000  0.193141  0.193141  1
  C  C21  1  0.000000  0.000000  0.806875  1
  C  C22  1  0.000000  0.806859  0.000001  1
  C  C23  1  0.000000  0.551974  0.551970  1
  C  C24  1  0.000000  0.000000  0.448078  1
  C  C25  1  0.000000  0.448026  0.999996  1
  C  C26  1  0.500000  0.712534  0.191776  1
  C  C27  1  0.500000  0.479249  0.287463  1
  C  C28  1  0.500000  0.520751  0.808214  1
  C  C29  1  0.500000  0.808225  0.520762  1
  C  C30  1  0.500000  0.191775  0.712538  1
  C  C31  1  0.500000  0.287466  0.479242  1
