# generated using pymatgen
data_Ac2Sm(Si3Pd10)2
_symmetry_space_group_name_H-M   'P 1'
_cell_length_a   8.78827936
_cell_length_b   8.78827927
_cell_length_c   8.78828000
_cell_angle_alpha   59.99999725
_cell_angle_beta   59.99999760
_cell_angle_gamma   60.00000240
_symmetry_Int_Tables_number   1
_chemical_formula_structural   Ac2Sm(Si3Pd10)2
_chemical_formula_sum   'Ac2 Sm1 Si6 Pd20'
_cell_volume   479.95064719
_cell_formula_units_Z   1
loop_
 _symmetry_equiv_pos_site_id
 _symmetry_equiv_pos_as_xyz
  1  'x, y, z'
loop_
 _atom_site_type_symbol
 _atom_site_label
 _atom_site_symmetry_multiplicity
 _atom_site_fract_x
 _atom_site_fract_y
 _atom_site_fract_z
 _atom_site_occupancy
  Ac  Ac0  1  0.250000  0.250000  0.250000  1
  Ac  Ac1  1  0.750000  0.750000  0.750000  1
  Sm  Sm2  1  0.000000  0.000000  0.000000  1
  Si  Si3  1  0.733409  0.266591  0.266591  1
  Si  Si4  1  0.266591  0.733409  0.733409  1
  Si  Si5  1  0.266591  0.733409  0.266591  1
  Si  Si6  1  0.733409  0.266591  0.733409  1
  Si  Si7  1  0.266591  0.266591  0.733409  1
  Si  Si8  1  0.733409  0.733409  0.266591  1
  Pd  Pd9  1  0.386884  0.386884  0.386884  1
  Pd  Pd10  1  0.613116  0.613116  0.613116  1
  Pd  Pd11  1  0.386884  0.386884  0.839345  1
  Pd  Pd12  1  0.386884  0.839345  0.386884  1
  Pd  Pd13  1  0.613116  0.613116  0.160655  1
  Pd  Pd14  1  0.613116  0.160655  0.613116  1
  Pd  Pd15  1  0.839345  0.386884  0.386884  1
  Pd  Pd16  1  0.160655  0.613116  0.613116  1
  Pd  Pd17  1  0.345888  0.000000  0.000000  1
  Pd  Pd18  1  0.654112  0.000000  0.000000  1
  Pd  Pd19  1  0.000000  0.345888  0.654112  1
  Pd  Pd20  1  0.000000  0.654112  0.345888  1
  Pd  Pd21  1  0.000000  0.345888  0.000000  1
  Pd  Pd22  1  0.654112  0.000000  0.345888  1
  Pd  Pd23  1  0.000000  0.654112  0.000000  1
  Pd  Pd24  1  0.345888  0.000000  0.654112  1
  Pd  Pd25  1  0.000000  0.000000  0.345888  1
  Pd  Pd26  1  0.000000  0.000000  0.654112  1
  Pd  Pd27  1  0.654112  0.345888  0.000000  1
  Pd  Pd28  1  0.345888  0.654112  0.000000  1
