# generated using pymatgen
data_Ca5Si2Pb
_symmetry_space_group_name_H-M   'P 1'
_cell_length_a   7.78239717
_cell_length_b   7.78239778
_cell_length_c   9.41909966
_cell_angle_alpha   114.40084792
_cell_angle_beta   114.40085266
_cell_angle_gamma   89.99999902
_symmetry_Int_Tables_number   1
_chemical_formula_structural   Ca5Si2Pb
_chemical_formula_sum   'Ca10 Si4 Pb2'
_cell_volume   462.98743481
_cell_formula_units_Z   2
loop_
 _symmetry_equiv_pos_site_id
 _symmetry_equiv_pos_as_xyz
  1  'x, y, z'
loop_
 _atom_site_type_symbol
 _atom_site_label
 _atom_site_symmetry_multiplicity
 _atom_site_fract_x
 _atom_site_fract_y
 _atom_site_fract_z
 _atom_site_occupancy
  Ca  Ca0  1  0.500000  0.500000  0.000000  1
  Ca  Ca1  1  0.000000  0.000000  0.000000  1
  Ca  Ca2  1  0.958412  0.810717  0.269128  1
  Ca  Ca3  1  0.310717  0.458412  0.269128  1
  Ca  Ca4  1  0.810717  0.310717  0.269128  1
  Ca  Ca5  1  0.458412  0.958412  0.269128  1
  Ca  Ca6  1  0.041588  0.189283  0.730872  1
  Ca  Ca7  1  0.689283  0.541588  0.730872  1
  Ca  Ca8  1  0.189283  0.689283  0.730872  1
  Ca  Ca9  1  0.541588  0.041588  0.730872  1
  Si  Si10  1  0.613356  0.886644  0.000000  1
  Si  Si11  1  0.386644  0.113356  0.000000  1
  Si  Si12  1  0.886644  0.386644  0.000000  1
  Si  Si13  1  0.113356  0.613356  0.000000  1
  Pb  Pb14  1  0.750000  0.750000  0.500000  1
  Pb  Pb15  1  0.250000  0.250000  0.500000  1
