# generated using pymatgen
data_Sc13Ti3(Ir2O)4
_symmetry_space_group_name_H-M   'P 1'
_cell_length_a   8.57934946
_cell_length_b   8.58706554
_cell_length_c   8.57934900
_cell_angle_alpha   60.02972562
_cell_angle_beta   60.00000562
_cell_angle_gamma   60.02972374
_symmetry_Int_Tables_number   1
_chemical_formula_structural   Sc13Ti3(Ir2O)4
_chemical_formula_sum   'Sc13 Ti3 Ir8 O4'
_cell_volume   447.12964872
_cell_formula_units_Z   1
loop_
 _symmetry_equiv_pos_site_id
 _symmetry_equiv_pos_as_xyz
  1  'x, y, z'
loop_
 _atom_site_type_symbol
 _atom_site_label
 _atom_site_symmetry_multiplicity
 _atom_site_fract_x
 _atom_site_fract_y
 _atom_site_fract_z
 _atom_site_occupancy
  Sc  Sc0  1  0.625000  0.125000  0.625000  1
  Sc  Sc1  1  0.813114  0.811423  0.187731  1
  Sc  Sc2  1  0.185266  0.186957  0.813889  1
  Sc  Sc3  1  0.813889  0.186957  0.813889  1
  Sc  Sc4  1  0.187731  0.811423  0.187731  1
  Sc  Sc5  1  0.187731  0.811423  0.813114  1
  Sc  Sc6  1  0.813889  0.186957  0.185266  1
  Sc  Sc7  1  0.436886  0.438577  0.062269  1
  Sc  Sc8  1  0.064734  0.063043  0.436111  1
  Sc  Sc9  1  0.436111  0.063043  0.436111  1
  Sc  Sc10  1  0.062269  0.438577  0.062269  1
  Sc  Sc11  1  0.062269  0.438577  0.436886  1
  Sc  Sc12  1  0.436111  0.063043  0.064734  1
  Ti  Ti13  1  0.125000  0.625000  0.625000  1
  Ti  Ti14  1  0.625000  0.625000  0.125000  1
  Ti  Ti15  1  0.625000  0.625000  0.625000  1
  Ir  Ir16  1  0.756802  0.423286  0.409957  1
  Ir  Ir17  1  0.414444  0.756667  0.414444  1
  Ir  Ir18  1  0.409957  0.423286  0.756802  1
  Ir  Ir19  1  0.409957  0.423286  0.409957  1
  Ir  Ir20  1  0.493198  0.826714  0.840043  1
  Ir  Ir21  1  0.835556  0.493333  0.835556  1
  Ir  Ir22  1  0.840043  0.826714  0.493198  1
  Ir  Ir23  1  0.840043  0.826714  0.840043  1
  O  O24  1  0.625000  0.125000  0.125000  1
  O  O25  1  0.125000  0.625000  0.125000  1
  O  O26  1  0.125000  0.125000  0.625000  1
  O  O27  1  0.125000  0.125000  0.125000  1
