# generated using pymatgen
data_Sm3Nb(Ni4P3)2
_symmetry_space_group_name_H-M   'P 1'
_cell_length_a   3.82348000
_cell_length_b   10.79267300
_cell_length_c   12.47898100
_cell_angle_alpha   90.00000000
_cell_angle_beta   90.00000000
_cell_angle_gamma   90.00000000
_symmetry_Int_Tables_number   1
_chemical_formula_structural   Sm3Nb(Ni4P3)2
_chemical_formula_sum   'Sm6 Nb2 Ni16 P12'
_cell_volume   514.95225602
_cell_formula_units_Z   2
loop_
 _symmetry_equiv_pos_site_id
 _symmetry_equiv_pos_as_xyz
  1  'x, y, z'
loop_
 _atom_site_type_symbol
 _atom_site_label
 _atom_site_symmetry_multiplicity
 _atom_site_fract_x
 _atom_site_fract_y
 _atom_site_fract_z
 _atom_site_occupancy
  Sm  Sm0  1  0.000000  0.500000  0.523894  1
  Sm  Sm1  1  0.500000  0.000000  0.476106  1
  Sm  Sm2  1  0.500000  0.818185  0.206153  1
  Sm  Sm3  1  0.500000  0.181815  0.206153  1
  Sm  Sm4  1  0.000000  0.681815  0.793847  1
  Sm  Sm5  1  0.000000  0.318185  0.793847  1
  Nb  Nb6  1  0.500000  0.500000  0.151763  1
  Nb  Nb7  1  0.000000  0.000000  0.848237  1
  Ni  Ni8  1  0.500000  0.500000  0.701879  1
  Ni  Ni9  1  0.000000  0.000000  0.298121  1
  Ni  Ni10  1  0.000000  0.500000  0.983626  1
  Ni  Ni11  1  0.500000  0.000000  0.016374  1
  Ni  Ni12  1  0.500000  0.333295  0.988562  1
  Ni  Ni13  1  0.500000  0.666705  0.988562  1
  Ni  Ni14  1  0.000000  0.166705  0.011438  1
  Ni  Ni15  1  0.000000  0.833295  0.011438  1
  Ni  Ni16  1  0.500000  0.301279  0.427092  1
  Ni  Ni17  1  0.500000  0.698721  0.427092  1
  Ni  Ni18  1  0.000000  0.198721  0.572908  1
  Ni  Ni19  1  0.000000  0.801279  0.572908  1
  Ni  Ni20  1  0.500000  0.880360  0.709369  1
  Ni  Ni21  1  0.500000  0.119640  0.709369  1
  Ni  Ni22  1  0.000000  0.619640  0.290631  1
  Ni  Ni23  1  0.000000  0.380360  0.290631  1
  P  P24  1  0.500000  0.500000  0.880826  1
  P  P25  1  0.000000  0.000000  0.119174  1
  P  P26  1  0.500000  0.500000  0.349295  1
  P  P27  1  0.000000  0.000000  0.650705  1
  P  P28  1  0.500000  0.311689  0.613094  1
  P  P29  1  0.500000  0.688311  0.613094  1
  P  P30  1  0.000000  0.188311  0.386906  1
  P  P31  1  0.000000  0.811689  0.386906  1
  P  P32  1  0.500000  0.843495  0.895785  1
  P  P33  1  0.500000  0.156505  0.895785  1
  P  P34  1  0.000000  0.656505  0.104215  1
  P  P35  1  0.000000  0.343495  0.104215  1
