# generated using pymatgen
data_Ba8Sb5I
_symmetry_space_group_name_H-M   'P 1'
_cell_length_a   9.20659770
_cell_length_b   9.20659825
_cell_length_c   9.20659843
_cell_angle_alpha   109.57016508
_cell_angle_beta   109.42177375
_cell_angle_gamma   109.42177382
_symmetry_Int_Tables_number   1
_chemical_formula_structural   Ba8Sb5I
_chemical_formula_sum   'Ba8 Sb5 I1'
_cell_volume   600.72356419
_cell_formula_units_Z   1
loop_
 _symmetry_equiv_pos_site_id
 _symmetry_equiv_pos_as_xyz
  1  'x, y, z'
loop_
 _atom_site_type_symbol
 _atom_site_label
 _atom_site_symmetry_multiplicity
 _atom_site_fract_x
 _atom_site_fract_y
 _atom_site_fract_z
 _atom_site_occupancy
  Ba  Ba0  1  0.340714  0.485657  0.992152  1
  Ba  Ba1  1  0.867167  0.487142  0.995649  1
  Ba  Ba2  1  0.159286  0.151438  0.144944  1
  Ba  Ba3  1  0.491492  0.004351  0.371518  1
  Ba  Ba4  1  0.008507  0.380025  0.512857  1
  Ba  Ba5  1  0.006494  0.855056  0.514342  1
  Ba  Ba6  1  0.632832  0.628481  0.619974  1
  Ba  Ba7  1  0.493506  0.007848  0.848562  1
  Sb  Sb8  1  0.627193  0.374567  0.242792  1
  Sb  Sb9  1  0.250000  0.624999  0.375000  1
  Sb  Sb10  1  0.368224  0.252626  0.625432  1
  Sb  Sb11  1  0.872806  0.115598  0.747374  1
  Sb  Sb12  1  0.131776  0.757208  0.884402  1
  I  I13  1  0.750000  0.875000  0.125000  1
