# generated using pymatgen
data_Li4Yb3HoSi8
_symmetry_space_group_name_H-M   'P 1'
_cell_length_a   3.79090200
_cell_length_b   7.80622282
_cell_length_c   10.43728251
_cell_angle_alpha   90.23755946
_cell_angle_beta   90.00000000
_cell_angle_gamma   90.00000000
_symmetry_Int_Tables_number   1
_chemical_formula_structural   Li4Yb3HoSi8
_chemical_formula_sum   'Li4 Yb3 Ho1 Si8'
_cell_volume   308.86393982
_cell_formula_units_Z   1
loop_
 _symmetry_equiv_pos_site_id
 _symmetry_equiv_pos_as_xyz
  1  'x, y, z'
loop_
 _atom_site_type_symbol
 _atom_site_label
 _atom_site_symmetry_multiplicity
 _atom_site_fract_x
 _atom_site_fract_y
 _atom_site_fract_z
 _atom_site_occupancy
  Li  Li0  1  0.250000  0.990470  0.389708  1
  Li  Li1  1  0.250000  0.498929  0.108399  1
  Li  Li2  1  0.750000  0.002974  0.608650  1
  Li  Li3  1  0.750000  0.503729  0.889283  1
  Yb  Yb4  1  0.250000  0.137665  0.866233  1
  Yb  Yb5  1  0.250000  0.634461  0.634454  1
  Yb  Yb6  1  0.750000  0.864488  0.136403  1
  Ho  Ho7  1  0.750000  0.369988  0.366392  1
  Si  Si8  1  0.250000  0.233414  0.562430  1
  Si  Si9  1  0.250000  0.735560  0.931760  1
  Si  Si10  1  0.750000  0.758514  0.432623  1
  Si  Si11  1  0.750000  0.271458  0.073346  1
  Si  Si12  1  0.250000  0.655429  0.321877  1
  Si  Si13  1  0.250000  0.166849  0.183143  1
  Si  Si14  1  0.750000  0.337678  0.672399  1
  Si  Si15  1  0.750000  0.838394  0.822901  1
