# generated using pymatgen
data_NdY3(Si5Pt3)2
_symmetry_space_group_name_H-M   'P 1'
_cell_length_a   8.17884683
_cell_length_b   8.18408743
_cell_length_c   8.18408744
_cell_angle_alpha   136.32204339
_cell_angle_beta   104.79410131
_cell_angle_gamma   91.23758096
_symmetry_Int_Tables_number   1
_chemical_formula_structural   NdY3(Si5Pt3)2
_chemical_formula_sum   'Nd1 Y3 Si10 Pt6'
_cell_volume   347.88895196
_cell_formula_units_Z   1
loop_
 _symmetry_equiv_pos_site_id
 _symmetry_equiv_pos_as_xyz
  1  'x, y, z'
loop_
 _atom_site_type_symbol
 _atom_site_label
 _atom_site_symmetry_multiplicity
 _atom_site_fract_x
 _atom_site_fract_y
 _atom_site_fract_z
 _atom_site_occupancy
  Nd  Nd0  1  0.898706  0.129237  0.769469  1
  Y  Y1  1  0.642073  0.370442  0.271632  1
  Y  Y2  1  0.358393  0.629631  0.728761  1
  Y  Y3  1  0.099373  0.870427  0.228946  1
  Si  Si4  1  0.272706  0.521997  0.250390  1
  Si  Si5  1  0.728272  0.478219  0.749787  1
  Si  Si6  1  0.728272  0.978486  0.250055  1
  Si  Si7  1  0.272706  0.022316  0.750709  1
  Si  Si8  1  0.460884  0.111585  0.349300  1
  Si  Si9  1  0.536755  0.886284  0.650471  1
  Si  Si10  1  0.762986  0.611717  0.151270  1
  Si  Si11  1  0.238108  0.389546  0.848562  1
  Si  Si12  1  0.000134  0.249057  0.249506  1
  Si  Si13  1  0.000134  0.750628  0.751076  1
  Pt  Pt14  1  0.250601  0.137583  0.113018  1
  Pt  Pt15  1  0.748975  0.861130  0.887846  1
  Pt  Pt16  1  0.026254  0.637409  0.388844  1
  Pt  Pt17  1  0.976059  0.364698  0.611361  1
  Pt  Pt18  1  0.499303  0.250385  0.750080  1
  Pt  Pt19  1  0.499303  0.749224  0.248918  1
