# generated using pymatgen
data_Dy3Th(InPd2)2
_symmetry_space_group_name_H-M   'P 1'
_cell_length_a   7.81345997
_cell_length_b   7.81345997
_cell_length_c   3.74427800
_cell_angle_alpha   90.00000000
_cell_angle_beta   90.00000000
_cell_angle_gamma   90.87727975
_symmetry_Int_Tables_number   1
_chemical_formula_structural   Dy3Th(InPd2)2
_chemical_formula_sum   'Dy3 Th1 In2 Pd4'
_cell_volume   228.56196415
_cell_formula_units_Z   1
loop_
 _symmetry_equiv_pos_site_id
 _symmetry_equiv_pos_as_xyz
  1  'x, y, z'
loop_
 _atom_site_type_symbol
 _atom_site_label
 _atom_site_symmetry_multiplicity
 _atom_site_fract_x
 _atom_site_fract_y
 _atom_site_fract_z
 _atom_site_occupancy
  Dy  Dy0  1  0.825502  0.669322  0.500000  1
  Dy  Dy1  1  0.169322  0.325502  0.500000  1
  Dy  Dy2  1  0.675776  0.175776  0.500000  1
  Th  Th3  1  0.328607  0.828607  0.500000  1
  In  In4  1  0.994982  0.002364  0.000000  1
  In  In5  1  0.502364  0.494982  0.000000  1
  Pd  Pd6  1  0.372357  0.127097  0.000000  1
  Pd  Pd7  1  0.873747  0.373747  0.000000  1
  Pd  Pd8  1  0.130247  0.630247  0.000000  1
  Pd  Pd9  1  0.627097  0.872357  0.000000  1
