# generated using pymatgen
data_BaErTi4N7
_symmetry_space_group_name_H-M   'P 1'
_cell_length_a   6.45442500
_cell_length_b   6.45442510
_cell_length_c   10.46335800
_cell_angle_alpha   90.00000000
_cell_angle_beta   90.00000000
_cell_angle_gamma   119.99998410
_symmetry_Int_Tables_number   1
_chemical_formula_structural   BaErTi4N7
_chemical_formula_sum   'Ba2 Er2 Ti8 N14'
_cell_volume   377.49996028
_cell_formula_units_Z   2
loop_
 _symmetry_equiv_pos_site_id
 _symmetry_equiv_pos_as_xyz
  1  'x, y, z'
loop_
 _atom_site_type_symbol
 _atom_site_label
 _atom_site_symmetry_multiplicity
 _atom_site_fract_x
 _atom_site_fract_y
 _atom_site_fract_z
 _atom_site_occupancy
  Ba  Ba0  1  0.666667  0.333333  0.582036  1
  Ba  Ba1  1  0.333333  0.666667  0.082036  1
  Er  Er2  1  0.666667  0.333333  0.948935  1
  Er  Er3  1  0.333333  0.666667  0.448935  1
  Ti  Ti4  1  0.169552  0.339102  0.763643  1
  Ti  Ti5  1  0.830448  0.169552  0.263643  1
  Ti  Ti6  1  0.339102  0.169552  0.263643  1
  Ti  Ti7  1  0.660898  0.830448  0.763643  1
  Ti  Ti8  1  0.169552  0.830448  0.763643  1
  Ti  Ti9  1  0.830448  0.660898  0.263643  1
  Ti  Ti10  1  0.000000  0.000000  0.023284  1
  Ti  Ti11  1  0.000000  0.000000  0.523284  1
  N  N12  1  0.000000  0.000000  0.830108  1
  N  N13  1  0.000000  0.000000  0.330108  1
  N  N14  1  0.839546  0.679092  0.082626  1
  N  N15  1  0.160454  0.839546  0.582626  1
  N  N16  1  0.679092  0.839546  0.582626  1
  N  N17  1  0.320908  0.160454  0.082626  1
  N  N18  1  0.839546  0.160454  0.082626  1
  N  N19  1  0.160454  0.320908  0.582626  1
  N  N20  1  0.495186  0.504814  0.816550  1
  N  N21  1  0.990373  0.495186  0.316550  1
  N  N22  1  0.504814  0.009627  0.316550  1
  N  N23  1  0.495186  0.990373  0.816550  1
  N  N24  1  0.504814  0.495186  0.316550  1
  N  N25  1  0.009627  0.504814  0.816550  1
