# generated using pymatgen
data_Dy3Tm5(CuP)12
_symmetry_space_group_name_H-M   'P 1'
_cell_length_a   3.81356000
_cell_length_b   10.59431103
_cell_length_c   12.86814303
_cell_angle_alpha   89.99193247
_cell_angle_beta   90.00000000
_cell_angle_gamma   90.00000000
_symmetry_Int_Tables_number   1
_chemical_formula_structural   Dy3Tm5(CuP)12
_chemical_formula_sum   'Dy3 Tm5 Cu12 P12'
_cell_volume   519.89923409
_cell_formula_units_Z   1
loop_
 _symmetry_equiv_pos_site_id
 _symmetry_equiv_pos_as_xyz
  1  'x, y, z'
loop_
 _atom_site_type_symbol
 _atom_site_label
 _atom_site_symmetry_multiplicity
 _atom_site_fract_x
 _atom_site_fract_y
 _atom_site_fract_z
 _atom_site_occupancy
  Dy  Dy0  1  0.250000  0.931428  0.792066  1
  Dy  Dy1  1  0.750000  0.431271  0.707905  1
  Dy  Dy2  1  0.250000  0.568689  0.292133  1
  Tm  Tm3  1  0.750000  0.068888  0.208241  1
  Tm  Tm4  1  0.250000  0.840807  0.503257  1
  Tm  Tm5  1  0.750000  0.340553  0.996727  1
  Tm  Tm6  1  0.250000  0.659335  0.003564  1
  Tm  Tm7  1  0.750000  0.158843  0.496119  1
  Cu  Cu8  1  0.250000  0.405395  0.512685  1
  Cu  Cu9  1  0.750000  0.905667  0.987412  1
  Cu  Cu10  1  0.250000  0.094163  0.013474  1
  Cu  Cu11  1  0.750000  0.594656  0.487264  1
  Cu  Cu12  1  0.250000  0.271447  0.331296  1
  Cu  Cu13  1  0.750000  0.772186  0.168553  1
  Cu  Cu14  1  0.250000  0.228399  0.831703  1
  Cu  Cu15  1  0.750000  0.728781  0.668669  1
  Cu  Cu16  1  0.250000  0.860322  0.282033  1
  Cu  Cu17  1  0.750000  0.358863  0.217710  1
  Cu  Cu18  1  0.250000  0.640446  0.782394  1
  Cu  Cu19  1  0.750000  0.140508  0.717530  1
  P  P20  1  0.250000  0.242264  0.641000  1
  P  P21  1  0.750000  0.742492  0.858855  1
  P  P22  1  0.250000  0.256037  0.141719  1
  P  P23  1  0.750000  0.757667  0.358798  1
  P  P24  1  0.250000  0.605981  0.602228  1
  P  P25  1  0.750000  0.106002  0.897686  1
  P  P26  1  0.250000  0.894763  0.102619  1
  P  P27  1  0.750000  0.394083  0.397806  1
  P  P28  1  0.250000  0.056328  0.369853  1
  P  P29  1  0.750000  0.556120  0.128734  1
  P  P30  1  0.250000  0.443751  0.871517  1
  P  P31  1  0.750000  0.943864  0.628449  1
