# generated using pymatgen
data_La16Cd4RePt3
_symmetry_space_group_name_H-M   'P 1'
_cell_length_a   10.24907036
_cell_length_b   10.24907002
_cell_length_c   10.24907024
_cell_angle_alpha   59.22464332
_cell_angle_beta   59.22464257
_cell_angle_gamma   59.22464003
_symmetry_Int_Tables_number   1
_chemical_formula_structural   La16Cd4RePt3
_chemical_formula_sum   'La16 Cd4 Re1 Pt3'
_cell_volume   747.82323378
_cell_formula_units_Z   1
loop_
 _symmetry_equiv_pos_site_id
 _symmetry_equiv_pos_as_xyz
  1  'x, y, z'
loop_
 _atom_site_type_symbol
 _atom_site_label
 _atom_site_symmetry_multiplicity
 _atom_site_fract_x
 _atom_site_fract_y
 _atom_site_fract_z
 _atom_site_occupancy
  La  La0  1  0.600275  0.600275  0.600275  1
  La  La1  1  0.595722  0.595722  0.206230  1
  La  La2  1  0.595722  0.206230  0.595722  1
  La  La3  1  0.206230  0.595722  0.595722  1
  La  La4  1  0.066569  0.438784  0.438784  1
  La  La5  1  0.442204  0.056974  0.056974  1
  La  La6  1  0.438784  0.066569  0.438784  1
  La  La7  1  0.056974  0.442204  0.056974  1
  La  La8  1  0.438784  0.438784  0.066569  1
  La  La9  1  0.056974  0.056974  0.442204  1
  La  La10  1  0.186369  0.813113  0.813113  1
  La  La11  1  0.803587  0.190338  0.190338  1
  La  La12  1  0.813113  0.186369  0.813113  1
  La  La13  1  0.190338  0.803587  0.190338  1
  La  La14  1  0.813113  0.813113  0.186369  1
  La  La15  1  0.190338  0.190338  0.803587  1
  Cd  Cd16  1  0.829422  0.829422  0.829422  1
  Cd  Cd17  1  0.829455  0.829455  0.511039  1
  Cd  Cd18  1  0.829455  0.511039  0.829455  1
  Cd  Cd19  1  0.511039  0.829455  0.829455  1
  Re  Re20  1  0.391681  0.391681  0.391681  1
  Pt  Pt21  1  0.394199  0.394199  0.825455  1
  Pt  Pt22  1  0.394199  0.825455  0.394199  1
  Pt  Pt23  1  0.825455  0.394199  0.394199  1
