# generated using pymatgen
data_TmLuBe25Co
_symmetry_space_group_name_H-M   'P 1'
_cell_length_a   7.18480269
_cell_length_b   7.16757745
_cell_length_c   7.23266901
_cell_angle_alpha   59.85783711
_cell_angle_beta   59.62859148
_cell_angle_gamma   59.89971816
_symmetry_Int_Tables_number   1
_chemical_formula_structural   TmLuBe25Co
_chemical_formula_sum   'Tm1 Lu1 Be25 Co1'
_cell_volume   262.14592749
_cell_formula_units_Z   1
loop_
 _symmetry_equiv_pos_site_id
 _symmetry_equiv_pos_as_xyz
  1  'x, y, z'
loop_
 _atom_site_type_symbol
 _atom_site_label
 _atom_site_symmetry_multiplicity
 _atom_site_fract_x
 _atom_site_fract_y
 _atom_site_fract_z
 _atom_site_occupancy
  Tm  Tm0  1  0.253791  0.249922  0.244387  1
  Lu  Lu1  1  0.750029  0.745560  0.748290  1
  Be  Be2  1  0.933227  0.066590  0.712032  1
  Be  Be3  1  0.298096  0.702236  0.059280  1
  Be  Be4  1  0.065051  0.934699  0.292602  1
  Be  Be5  1  0.705763  0.939433  0.063056  1
  Be  Be6  1  0.707841  0.063415  0.293697  1
  Be  Be7  1  0.060596  0.294483  0.708248  1
  Be  Be8  1  0.936380  0.292394  0.064751  1
  Be  Be9  1  0.940481  0.705306  0.291703  1
  Be  Be10  1  0.294092  0.938263  0.703574  1
  Be  Be11  1  0.294924  0.059359  0.937331  1
  Be  Be12  1  0.061507  0.706066  0.935782  1
  Be  Be13  1  0.789739  0.436659  0.564847  1
  Be  Be14  1  0.563633  0.210164  0.791039  1
  Be  Be15  1  0.208278  0.565230  0.436827  1
  Be  Be16  1  0.434936  0.791530  0.210246  1
  Be  Be17  1  0.793339  0.206348  0.436429  1
  Be  Be18  1  0.790129  0.565436  0.214711  1
  Be  Be19  1  0.434012  0.566217  0.786005  1
  Be  Be20  1  0.564254  0.789151  0.435047  1
  Be  Be21  1  0.566223  0.434069  0.210597  1
  Be  Be22  1  0.210759  0.435882  0.788334  1
  Be  Be23  1  0.207711  0.791948  0.565761  1
  Be  Be24  1  0.434723  0.209663  0.570344  1
  Be  Be25  1  0.997420  0.002626  0.998439  1
  Be  Be26  1  0.501270  0.498746  0.497093  1
  Co  Co27  1  0.701794  0.298608  0.939548  1
