# generated using pymatgen
data_Ho12Co4OsPb
_symmetry_space_group_name_H-M   'P 1'
_cell_length_a   8.30407979
_cell_length_b   8.30421709
_cell_length_c   8.30407979
_cell_angle_alpha   111.60353009
_cell_angle_beta   110.48719014
_cell_angle_gamma   106.36823404
_symmetry_Int_Tables_number   1
_chemical_formula_structural   Ho12Co4OsPb
_chemical_formula_sum   'Ho12 Co4 Os1 Pb1'
_cell_volume   439.81490747
_cell_formula_units_Z   1
loop_
 _symmetry_equiv_pos_site_id
 _symmetry_equiv_pos_as_xyz
  1  'x, y, z'
loop_
 _atom_site_type_symbol
 _atom_site_label
 _atom_site_symmetry_multiplicity
 _atom_site_fract_x
 _atom_site_fract_y
 _atom_site_fract_z
 _atom_site_occupancy
  Ho  Ho0  1  0.818503  0.716975  0.535482  1
  Ho  Ho1  1  0.181497  0.283025  0.464518  1
  Ho  Ho2  1  0.181494  0.716975  0.898472  1
  Ho  Ho3  1  0.818506  0.283025  0.101528  1
  Ho  Ho4  1  0.686913  0.379042  0.692130  1
  Ho  Ho5  1  0.313087  0.620958  0.307870  1
  Ho  Ho6  1  0.686924  0.994798  0.307874  1
  Ho  Ho7  1  0.313076  0.005202  0.692126  1
  Ho  Ho8  1  0.590252  0.784942  0.805315  1
  Ho  Ho9  1  0.409748  0.215058  0.194685  1
  Ho  Ho10  1  0.979627  0.784942  0.194691  1
  Ho  Ho11  1  0.020373  0.215058  0.805309  1
  Co  Co12  1  0.621644  0.000000  0.621644  1
  Co  Co13  1  0.378356  0.000000  0.378356  1
  Co  Co14  1  0.111014  0.611020  0.500006  1
  Co  Co15  1  0.888986  0.388980  0.499994  1
  Os  Os16  1  0.000000  0.000000  0.000000  1
  Pb  Pb17  1  0.500000  0.500000  0.000000  1
