# generated using pymatgen
data_V12Ga2SiIr
_symmetry_space_group_name_H-M   'P 1'
_cell_length_a   4.75341600
_cell_length_b   4.77209300
_cell_length_c   9.52222900
_cell_angle_alpha   90.00000000
_cell_angle_beta   90.00000000
_cell_angle_gamma   90.00000000
_symmetry_Int_Tables_number   1
_chemical_formula_structural   V12Ga2SiIr
_chemical_formula_sum   'V12 Ga2 Si1 Ir1'
_cell_volume   215.99979752
_cell_formula_units_Z   1
loop_
 _symmetry_equiv_pos_site_id
 _symmetry_equiv_pos_as_xyz
  1  'x, y, z'
loop_
 _atom_site_type_symbol
 _atom_site_label
 _atom_site_symmetry_multiplicity
 _atom_site_fract_x
 _atom_site_fract_y
 _atom_site_fract_z
 _atom_site_occupancy
  V  V0  1  0.000000  0.500000  0.120330  1
  V  V1  1  0.000000  0.500000  0.627517  1
  V  V2  1  0.500000  0.254113  0.747362  1
  V  V3  1  0.500000  0.254113  0.252638  1
  V  V4  1  0.747836  0.000000  0.000000  1
  V  V5  1  0.742520  0.000000  0.500000  1
  V  V6  1  0.000000  0.500000  0.879670  1
  V  V7  1  0.000000  0.500000  0.372483  1
  V  V8  1  0.500000  0.745887  0.747362  1
  V  V9  1  0.500000  0.745887  0.252638  1
  V  V10  1  0.252164  0.000000  0.000000  1
  V  V11  1  0.257480  0.000000  0.500000  1
  Ga  Ga12  1  0.000000  0.000000  0.748392  1
  Ga  Ga13  1  0.000000  0.000000  0.251608  1
  Si  Si14  1  0.500000  0.500000  0.500000  1
  Ir  Ir15  1  0.500000  0.500000  0.000000  1
