# generated using pymatgen
data_Dy4ReB12Ir
_symmetry_space_group_name_H-M   'P 1'
_cell_length_a   3.67401500
_cell_length_b   9.17191018
_cell_length_c   11.55786154
_cell_angle_alpha   90.34816766
_cell_angle_beta   90.00000000
_cell_angle_gamma   90.00000000
_symmetry_Int_Tables_number   1
_chemical_formula_structural   Dy4ReB12Ir
_chemical_formula_sum   'Dy8 Re2 B24 Ir2'
_cell_volume   389.46657136
_cell_formula_units_Z   2
loop_
 _symmetry_equiv_pos_site_id
 _symmetry_equiv_pos_as_xyz
  1  'x, y, z'
loop_
 _atom_site_type_symbol
 _atom_site_label
 _atom_site_symmetry_multiplicity
 _atom_site_fract_x
 _atom_site_fract_y
 _atom_site_fract_z
 _atom_site_occupancy
  Dy  Dy0  1  0.000000  0.317667  0.409780  1
  Dy  Dy1  1  0.000000  0.682333  0.590220  1
  Dy  Dy2  1  0.000000  0.826925  0.082399  1
  Dy  Dy3  1  0.000000  0.173075  0.917601  1
  Dy  Dy4  1  0.000000  0.946318  0.372275  1
  Dy  Dy5  1  0.000000  0.053682  0.627725  1
  Dy  Dy6  1  0.000000  0.441776  0.125784  1
  Dy  Dy7  1  0.000000  0.558224  0.874216  1
  Re  Re8  1  0.000000  0.138429  0.179612  1
  Re  Re9  1  0.000000  0.861571  0.820388  1
  B  B10  1  0.500000  0.554259  0.433769  1
  B  B11  1  0.500000  0.445741  0.566231  1
  B  B12  1  0.500000  0.053413  0.067335  1
  B  B13  1  0.500000  0.946587  0.932665  1
  B  B14  1  0.500000  0.749001  0.421116  1
  B  B15  1  0.500000  0.250999  0.578884  1
  B  B16  1  0.500000  0.247460  0.080763  1
  B  B17  1  0.500000  0.752540  0.919237  1
  B  B18  1  0.500000  0.790785  0.266198  1
  B  B19  1  0.500000  0.209215  0.733802  1
  B  B20  1  0.500000  0.292164  0.234094  1
  B  B21  1  0.500000  0.707836  0.765906  1
  B  B22  1  0.500000  0.632182  0.184265  1
  B  B23  1  0.500000  0.367818  0.815735  1
  B  B24  1  0.500000  0.132207  0.314397  1
  B  B25  1  0.500000  0.867793  0.685603  1
  B  B26  1  0.500000  0.983598  0.212915  1
  B  B27  1  0.500000  0.016402  0.787085  1
  B  B28  1  0.500000  0.483128  0.287302  1
  B  B29  1  0.500000  0.516872  0.712698  1
  B  B30  1  0.500000  0.608285  0.030259  1
  B  B31  1  0.500000  0.391715  0.969741  1
  B  B32  1  0.500000  0.109104  0.470362  1
  B  B33  1  0.500000  0.890896  0.529638  1
  Ir  Ir34  1  0.000000  0.636720  0.322306  1
  Ir  Ir35  1  0.000000  0.363280  0.677694  1
