# generated using pymatgen
data_Nd3Dy5Cd2CoRu
_symmetry_space_group_name_H-M   'P 1'
_cell_length_a   9.69114929
_cell_length_b   9.68769518
_cell_length_c   9.66094564
_cell_angle_alpha   59.71357247
_cell_angle_beta   59.69908258
_cell_angle_gamma   59.92880009
_symmetry_Int_Tables_number   1
_chemical_formula_structural   Nd3Dy5Cd2CoRu
_chemical_formula_sum   'Nd6 Dy10 Cd4 Co2 Ru2'
_cell_volume   638.15493985
_cell_formula_units_Z   2
loop_
 _symmetry_equiv_pos_site_id
 _symmetry_equiv_pos_as_xyz
  1  'x, y, z'
loop_
 _atom_site_type_symbol
 _atom_site_label
 _atom_site_symmetry_multiplicity
 _atom_site_fract_x
 _atom_site_fract_y
 _atom_site_fract_z
 _atom_site_occupancy
  Nd  Nd0  1  0.938774  0.561972  0.557394  1
  Nd  Nd1  1  0.559980  0.940940  0.941762  1
  Nd  Nd2  1  0.561988  0.938784  0.557339  1
  Nd  Nd3  1  0.940914  0.559991  0.941747  1
  Nd  Nd4  1  0.556499  0.556456  0.942650  1
  Nd  Nd5  1  0.939020  0.939062  0.560719  1
  Dy  Dy6  1  0.343841  0.343875  0.351828  1
  Dy  Dy7  1  0.344902  0.344971  0.959571  1
  Dy  Dy8  1  0.341653  0.964312  0.348384  1
  Dy  Dy9  1  0.964349  0.341685  0.348316  1
  Dy  Dy10  1  0.815491  0.187499  0.186826  1
  Dy  Dy11  1  0.187375  0.816032  0.809623  1
  Dy  Dy12  1  0.187507  0.815499  0.186807  1
  Dy  Dy13  1  0.816089  0.187321  0.809636  1
  Dy  Dy14  1  0.187202  0.187185  0.812322  1
  Dy  Dy15  1  0.813381  0.813363  0.185349  1
  Cd  Cd16  1  0.579258  0.579224  0.577744  1
  Cd  Cd17  1  0.579365  0.579333  0.262311  1
  Cd  Cd18  1  0.580159  0.261496  0.578771  1
  Cd  Cd19  1  0.261496  0.580141  0.578792  1
  Co  Co20  1  0.139677  0.139705  0.140554  1
  Co  Co21  1  0.140535  0.140604  0.579635  1
  Ru  Ru22  1  0.140989  0.579554  0.140965  1
  Ru  Ru23  1  0.579558  0.141000  0.140958  1
