# generated using pymatgen
data_DyPN3
_symmetry_space_group_name_H-M   'P 1'
_cell_length_a   7.08706245
_cell_length_b   7.08706309
_cell_length_c   5.01672057
_cell_angle_alpha   85.76363154
_cell_angle_beta   85.76362046
_cell_angle_gamma   100.30156862
_symmetry_Int_Tables_number   1
_chemical_formula_structural   DyPN3
_chemical_formula_sum   'Dy4 P4 N12'
_cell_volume   246.25739062
_cell_formula_units_Z   4
loop_
 _symmetry_equiv_pos_site_id
 _symmetry_equiv_pos_as_xyz
  1  'x, y, z'
loop_
 _atom_site_type_symbol
 _atom_site_label
 _atom_site_symmetry_multiplicity
 _atom_site_fract_x
 _atom_site_fract_y
 _atom_site_fract_z
 _atom_site_occupancy
  Dy  Dy0  1  0.288595  0.711405  0.750000  1
  Dy  Dy1  1  0.711405  0.288595  0.250000  1
  Dy  Dy2  1  0.091923  0.908077  0.250000  1
  Dy  Dy3  1  0.908077  0.091923  0.750000  1
  P  P4  1  0.378713  0.232452  0.829531  1
  P  P5  1  0.621287  0.767548  0.170469  1
  P  P6  1  0.767548  0.621287  0.670469  1
  P  P7  1  0.232452  0.378713  0.329531  1
  N  N8  1  0.970671  0.761267  0.688457  1
  N  N9  1  0.771855  0.389293  0.779419  1
  N  N10  1  0.761267  0.970671  0.188457  1
  N  N11  1  0.228145  0.610707  0.220581  1
  N  N12  1  0.029329  0.238733  0.311543  1
  N  N13  1  0.238733  0.029329  0.811543  1
  N  N14  1  0.610707  0.228145  0.720581  1
  N  N15  1  0.604513  0.707559  0.857665  1
  N  N16  1  0.395487  0.292441  0.142335  1
  N  N17  1  0.389293  0.771855  0.279419  1
  N  N18  1  0.707559  0.604513  0.357665  1
  N  N19  1  0.292441  0.395487  0.642335  1
