# generated using pymatgen
data_Pa3Fe(CuSb2)2
_symmetry_space_group_name_H-M   'P 1'
_cell_length_a   8.14836313
_cell_length_b   8.14645628
_cell_length_c   8.14645600
_cell_angle_alpha   109.76973112
_cell_angle_beta   109.30395398
_cell_angle_gamma   109.30395530
_symmetry_Int_Tables_number   1
_chemical_formula_structural   Pa3Fe(CuSb2)2
_chemical_formula_sum   'Pa6 Fe2 Cu4 Sb8'
_cell_volume   416.45843526
_cell_formula_units_Z   2
loop_
 _symmetry_equiv_pos_site_id
 _symmetry_equiv_pos_as_xyz
  1  'x, y, z'
loop_
 _atom_site_type_symbol
 _atom_site_label
 _atom_site_symmetry_multiplicity
 _atom_site_fract_x
 _atom_site_fract_y
 _atom_site_fract_z
 _atom_site_occupancy
  Pa  Pa0  1  0.636823  0.369607  0.246308  1
  Pa  Pa1  1  0.376720  0.265567  0.629517  1
  Pa  Pa2  1  0.136823  0.746308  0.869607  1
  Pa  Pa3  1  0.740474  0.878781  0.113356  1
  Pa  Pa4  1  0.240474  0.613356  0.378781  1
  Pa  Pa5  1  0.876720  0.129517  0.765567  1
  Fe  Fe6  1  0.869401  0.248279  0.121144  1
  Fe  Fe7  1  0.369401  0.621144  0.748279  1
  Cu  Cu8  1  0.624099  0.748772  0.375519  1
  Cu  Cu9  1  0.753064  0.376661  0.627054  1
  Cu  Cu10  1  0.253064  0.127054  0.876661  1
  Cu  Cu11  1  0.124099  0.875519  0.248772  1
  Sb  Sb12  1  0.500440  0.997478  0.825105  1
  Sb  Sb13  1  0.167489  0.170037  0.171155  1
  Sb  Sb14  1  0.832460  0.501169  0.002573  1
  Sb  Sb15  1  0.999029  0.833162  0.498757  1
  Sb  Sb16  1  0.332460  0.502573  0.001169  1
  Sb  Sb17  1  0.000440  0.325105  0.497478  1
  Sb  Sb18  1  0.499029  0.998757  0.333162  1
  Sb  Sb19  1  0.667489  0.671155  0.670037  1
