# generated using pymatgen
data_Tm16In2Hg2PtRh3
_symmetry_space_group_name_H-M   'P 1'
_cell_length_a   9.51511220
_cell_length_b   9.51217165
_cell_length_c   9.51603159
_cell_angle_alpha   59.87765274
_cell_angle_beta   60.00319866
_cell_angle_gamma   59.98977565
_symmetry_Int_Tables_number   1
_chemical_formula_structural   Tm16In2Hg2PtRh3
_chemical_formula_sum   'Tm16 In2 Hg2 Pt1 Rh3'
_cell_volume   608.42669887
_cell_formula_units_Z   1
loop_
 _symmetry_equiv_pos_site_id
 _symmetry_equiv_pos_as_xyz
  1  'x, y, z'
loop_
 _atom_site_type_symbol
 _atom_site_label
 _atom_site_symmetry_multiplicity
 _atom_site_fract_x
 _atom_site_fract_y
 _atom_site_fract_z
 _atom_site_occupancy
  Tm  Tm0  1  0.060721  0.065541  0.438656  1
  Tm  Tm1  1  0.435083  0.065541  0.438656  1
  Tm  Tm2  1  0.060752  0.437358  0.066005  1
  Tm  Tm3  1  0.052308  0.647565  0.651093  1
  Tm  Tm4  1  0.435885  0.437358  0.066005  1
  Tm  Tm5  1  0.647211  0.057542  0.648037  1
  Tm  Tm6  1  0.192441  0.811274  0.187184  1
  Tm  Tm7  1  0.188789  0.189603  0.811886  1
  Tm  Tm8  1  0.809102  0.811274  0.187184  1
  Tm  Tm9  1  0.436705  0.062974  0.063616  1
  Tm  Tm10  1  0.811547  0.191619  0.185288  1
  Tm  Tm11  1  0.063225  0.435600  0.437951  1
  Tm  Tm12  1  0.809723  0.189603  0.811886  1
  Tm  Tm13  1  0.189754  0.810435  0.810056  1
  Tm  Tm14  1  0.649150  0.646861  0.054840  1
  Tm  Tm15  1  0.649035  0.647565  0.651093  1
  In  In16  1  0.417966  0.746602  0.417463  1
  In  In17  1  0.417564  0.417352  0.747517  1
  Hg  Hg18  1  0.413125  0.413487  0.413374  1
  Hg  Hg19  1  0.760014  0.413487  0.413374  1
  Pt  Pt20  1  0.856878  0.857584  0.428659  1
  Rh  Rh21  1  0.856046  0.857437  0.856527  1
  Rh  Rh22  1  0.429990  0.857437  0.856527  1
  Rh  Rh23  1  0.856987  0.428901  0.857124  1
