# generated using pymatgen
data_Dy4Y(FeB3)2
_symmetry_space_group_name_H-M   'P 1'
_cell_length_a   5.40784437
_cell_length_b   5.40784400
_cell_length_c   8.35635945
_cell_angle_alpha   71.12064532
_cell_angle_beta   71.12064747
_cell_angle_gamma   59.99998679
_symmetry_Int_Tables_number   1
_chemical_formula_structural   Dy4Y(FeB3)2
_chemical_formula_sum   'Dy4 Y1 Fe2 B6'
_cell_volume   196.31145753
_cell_formula_units_Z   1
loop_
 _symmetry_equiv_pos_site_id
 _symmetry_equiv_pos_as_xyz
  1  'x, y, z'
loop_
 _atom_site_type_symbol
 _atom_site_label
 _atom_site_symmetry_multiplicity
 _atom_site_fract_x
 _atom_site_fract_y
 _atom_site_fract_z
 _atom_site_occupancy
  Dy  Dy0  1  0.250872  0.250872  0.247385  1
  Dy  Dy1  1  0.749128  0.749128  0.752615  1
  Dy  Dy2  1  0.417036  0.417036  0.748891  1
  Dy  Dy3  1  0.582964  0.582964  0.251109  1
  Y  Y4  1  0.000000  0.000000  0.000000  1
  Fe  Fe5  1  0.119131  0.119131  0.642608  1
  Fe  Fe6  1  0.880869  0.880869  0.357392  1
  B  B7  1  0.167605  0.832395  0.500000  1
  B  B8  1  0.832395  0.500000  0.500000  1
  B  B9  1  0.500000  0.167605  0.500000  1
  B  B10  1  0.167605  0.500000  0.500000  1
  B  B11  1  0.500000  0.832395  0.500000  1
  B  B12  1  0.832395  0.167605  0.500000  1
