# generated using pymatgen
data_Ti13Al9Fe8
_symmetry_space_group_name_H-M   'P 1'
_cell_length_a   8.48061900
_cell_length_b   8.48061893
_cell_length_c   8.48061900
_cell_angle_alpha   59.75744632
_cell_angle_beta   59.75744660
_cell_angle_gamma   59.75745629
_symmetry_Int_Tables_number   1
_chemical_formula_structural   Ti13Al9Fe8
_chemical_formula_sum   'Ti13 Al9 Fe8'
_cell_volume   428.91293765
_cell_formula_units_Z   1
loop_
 _symmetry_equiv_pos_site_id
 _symmetry_equiv_pos_as_xyz
  1  'x, y, z'
loop_
 _atom_site_type_symbol
 _atom_site_label
 _atom_site_symmetry_multiplicity
 _atom_site_fract_x
 _atom_site_fract_y
 _atom_site_fract_z
 _atom_site_occupancy
  Ti  Ti0  1  0.209682  0.209682  0.796622  1
  Ti  Ti1  1  0.796622  0.209682  0.209682  1
  Ti  Ti2  1  0.209682  0.796622  0.209682  1
  Ti  Ti3  1  0.798920  0.798920  0.182903  1
  Ti  Ti4  1  0.182903  0.798920  0.798920  1
  Ti  Ti5  1  0.798920  0.182903  0.798920  1
  Ti  Ti6  1  0.381595  0.381595  0.381595  1
  Ti  Ti7  1  0.383108  0.857845  0.383108  1
  Ti  Ti8  1  0.857845  0.383108  0.383108  1
  Ti  Ti9  1  0.383108  0.383108  0.857845  1
  Ti  Ti10  1  0.842089  0.467656  0.842089  1
  Ti  Ti11  1  0.467656  0.842089  0.842089  1
  Ti  Ti12  1  0.842089  0.842089  0.467656  1
  Al  Al13  1  0.161841  0.161841  0.161841  1
  Al  Al14  1  0.161122  0.523528  0.161122  1
  Al  Al15  1  0.523528  0.161122  0.161122  1
  Al  Al16  1  0.161122  0.161122  0.523528  1
  Al  Al17  1  0.617425  0.617425  0.617425  1
  Al  Al18  1  0.617991  0.146110  0.617991  1
  Al  Al19  1  0.146110  0.617991  0.617991  1
  Al  Al20  1  0.617991  0.617991  0.146110  1
  Al  Al21  1  0.828037  0.828037  0.828037  1
  Fe  Fe22  1  0.000804  0.000804  0.500424  1
  Fe  Fe23  1  0.500424  0.000804  0.000804  1
  Fe  Fe24  1  0.000804  0.500424  0.000804  1
  Fe  Fe25  1  0.502291  0.502291  0.000401  1
  Fe  Fe26  1  0.000401  0.502291  0.502291  1
  Fe  Fe27  1  0.502291  0.000401  0.502291  1
  Fe  Fe28  1  0.500149  0.500149  0.500149  1
  Fe  Fe29  1  0.003446  0.003446  0.003446  1
