# generated using pymatgen
data_Pr3Nd(Mo2O7)2
_symmetry_space_group_name_H-M   'P 1'
_cell_length_a   7.54669244
_cell_length_b   7.54472700
_cell_length_c   7.54686405
_cell_angle_alpha   119.96935824
_cell_angle_beta   119.93874888
_cell_angle_gamma   90.09857604
_symmetry_Int_Tables_number   1
_chemical_formula_structural   Pr3Nd(Mo2O7)2
_chemical_formula_sum   'Pr3 Nd1 Mo4 O14'
_cell_volume   304.00494755
_cell_formula_units_Z   1
loop_
 _symmetry_equiv_pos_site_id
 _symmetry_equiv_pos_as_xyz
  1  'x, y, z'
loop_
 _atom_site_type_symbol
 _atom_site_label
 _atom_site_symmetry_multiplicity
 _atom_site_fract_x
 _atom_site_fract_y
 _atom_site_fract_z
 _atom_site_occupancy
  Pr  Pr0  1  0.375000  0.625000  0.750000  1
  Pr  Pr1  1  0.375000  0.625000  0.250000  1
  Pr  Pr2  1  0.875000  0.625000  0.250000  1
  Nd  Nd3  1  0.375000  0.125000  0.750000  1
  Mo  Mo4  1  0.875000  0.625000  0.750000  1
  Mo  Mo5  1  0.375000  0.125000  0.250000  1
  Mo  Mo6  1  0.875000  0.125000  0.250000  1
  Mo  Mo7  1  0.875000  0.125000  0.750000  1
  O  O8  1  0.783891  0.200541  0.997174  1
  O  O9  1  0.547114  0.462920  0.498218  1
  O  O10  1  0.207174  0.206584  0.999268  1
  O  O11  1  0.956935  0.456842  0.499920  1
  O  O12  1  0.798856  0.796853  0.584083  1
  O  O13  1  0.536847  0.035714  0.083790  1
  O  O14  1  0.250893  0.752592  0.501772  1
  O  O15  1  0.951144  0.453147  0.915917  1
  O  O16  1  0.966109  0.049459  0.502826  1
  O  O17  1  0.542826  0.043416  0.500732  1
  O  O18  1  0.213153  0.214286  0.416210  1
  O  O19  1  0.499107  0.497408  0.998228  1
  O  O20  1  0.793065  0.793158  0.000080  1
  O  O21  1  0.202886  0.787080  0.001782  1
