# generated using pymatgen
data_TbTm15In4(RuRh)2
_symmetry_space_group_name_H-M   'P 1'
_cell_length_a   9.53919004
_cell_length_b   9.53919032
_cell_length_c   9.55221800
_cell_angle_alpha   59.95480575
_cell_angle_beta   59.95480478
_cell_angle_gamma   59.83048221
_symmetry_Int_Tables_number   1
_chemical_formula_structural   TbTm15In4(RuRh)2
_chemical_formula_sum   'Tb1 Tm15 In4 Ru2 Rh2'
_cell_volume   613.41799228
_cell_formula_units_Z   1
loop_
 _symmetry_equiv_pos_site_id
 _symmetry_equiv_pos_as_xyz
  1  'x, y, z'
loop_
 _atom_site_type_symbol
 _atom_site_label
 _atom_site_symmetry_multiplicity
 _atom_site_fract_x
 _atom_site_fract_y
 _atom_site_fract_z
 _atom_site_occupancy
  Tb  Tb0  1  0.059253  0.059253  0.440747  1
  Tm  Tm1  1  0.443790  0.060740  0.437543  1
  Tm  Tm2  1  0.060740  0.443790  0.057927  1
  Tm  Tm3  1  0.043208  0.652509  0.652142  1
  Tm  Tm4  1  0.438009  0.438009  0.061991  1
  Tm  Tm5  1  0.652509  0.043208  0.652142  1
  Tm  Tm6  1  0.190498  0.808786  0.192378  1
  Tm  Tm7  1  0.192016  0.192016  0.807984  1
  Tm  Tm8  1  0.808928  0.808928  0.191072  1
  Tm  Tm9  1  0.443790  0.060740  0.057927  1
  Tm  Tm10  1  0.808786  0.190498  0.192378  1
  Tm  Tm11  1  0.060740  0.443790  0.437543  1
  Tm  Tm12  1  0.808786  0.190498  0.808338  1
  Tm  Tm13  1  0.190498  0.808786  0.808338  1
  Tm  Tm14  1  0.651463  0.651463  0.046372  1
  Tm  Tm15  1  0.651463  0.651463  0.650703  1
  In  In16  1  0.416743  0.416743  0.418473  1
  In  In17  1  0.748825  0.418280  0.416447  1
  In  In18  1  0.418280  0.748825  0.416447  1
  In  In19  1  0.416743  0.416743  0.748039  1
  Ru  Ru20  1  0.857881  0.857881  0.420544  1
  Ru  Ru21  1  0.857881  0.857881  0.863692  1
  Rh  Rh22  1  0.421530  0.857643  0.860414  1
  Rh  Rh23  1  0.857643  0.421530  0.860414  1
