# generated using pymatgen
data_Tb10Dy2Co4SnOs
_symmetry_space_group_name_H-M   'P 1'
_cell_length_a   8.32395489
_cell_length_b   8.32395423
_cell_length_c   8.32706230
_cell_angle_alpha   106.46484434
_cell_angle_beta   110.46476000
_cell_angle_gamma   111.51257321
_symmetry_Int_Tables_number   1
_chemical_formula_structural   Tb10Dy2Co4SnOs
_chemical_formula_sum   'Tb10 Dy2 Co4 Sn1 Os1'
_cell_volume   443.28104490
_cell_formula_units_Z   1
loop_
 _symmetry_equiv_pos_site_id
 _symmetry_equiv_pos_as_xyz
  1  'x, y, z'
loop_
 _atom_site_type_symbol
 _atom_site_label
 _atom_site_symmetry_multiplicity
 _atom_site_fract_x
 _atom_site_fract_y
 _atom_site_fract_z
 _atom_site_occupancy
  Tb  Tb0  1  0.468088  0.284989  0.182661  1
  Tb  Tb1  1  0.102328  0.285426  0.817339  1
  Tb  Tb2  1  0.897672  0.714574  0.182661  1
  Tb  Tb3  1  0.531912  0.715011  0.817339  1
  Tb  Tb4  1  0.305912  0.620143  0.313256  1
  Tb  Tb5  1  0.306887  0.992657  0.686744  1
  Tb  Tb6  1  0.694088  0.379857  0.686744  1
  Tb  Tb7  1  0.693113  0.007343  0.313256  1
  Tb  Tb8  1  0.193586  0.215156  0.408743  1
  Tb  Tb9  1  0.806414  0.784844  0.591257  1
  Dy  Dy10  1  0.193654  0.784822  0.978475  1
  Dy  Dy11  1  0.806346  0.215178  0.021525  1
  Co  Co12  1  0.499425  0.611107  0.110532  1
  Co  Co13  1  0.500575  0.388893  0.889468  1
  Co  Co14  1  0.378474  0.999640  0.378114  1
  Co  Co15  1  0.621526  0.000360  0.621886  1
  Sn  Sn16  1  0.000000  0.500000  0.500000  1
  Os  Os17  1  0.000000  0.000000  0.000000  1
