# generated using pymatgen
data_TmMg2ScIr8
_symmetry_space_group_name_H-M   'P 1'
_cell_length_a   5.24506500
_cell_length_b   5.24506479
_cell_length_c   8.53837300
_cell_angle_alpha   90.00000000
_cell_angle_beta   90.00000000
_cell_angle_gamma   120.00000765
_symmetry_Int_Tables_number   1
_chemical_formula_structural   TmMg2ScIr8
_chemical_formula_sum   'Tm1 Mg2 Sc1 Ir8'
_cell_volume   203.42646528
_cell_formula_units_Z   1
loop_
 _symmetry_equiv_pos_site_id
 _symmetry_equiv_pos_as_xyz
  1  'x, y, z'
loop_
 _atom_site_type_symbol
 _atom_site_label
 _atom_site_symmetry_multiplicity
 _atom_site_fract_x
 _atom_site_fract_y
 _atom_site_fract_z
 _atom_site_occupancy
  Tm  Tm0  1  0.333333  0.666667  0.069248  1
  Mg  Mg1  1  0.666667  0.333333  0.933369  1
  Mg  Mg2  1  0.333333  0.666667  0.437891  1
  Sc  Sc3  1  0.666667  0.333333  0.572558  1
  Ir  Ir4  1  0.000000  0.000000  0.996219  1
  Ir  Ir5  1  0.000000  0.000000  0.496397  1
  Ir  Ir6  1  0.828811  0.657622  0.250945  1
  Ir  Ir7  1  0.170902  0.829098  0.747162  1
  Ir  Ir8  1  0.658197  0.829098  0.747162  1
  Ir  Ir9  1  0.342378  0.171189  0.250945  1
  Ir  Ir10  1  0.828811  0.171189  0.250945  1
  Ir  Ir11  1  0.170902  0.341803  0.747162  1
