# generated using pymatgen
data_Zr6Zn17SiNi6
_symmetry_space_group_name_H-M   'P 1'
_cell_length_a   8.61429225
_cell_length_b   8.61429206
_cell_length_c   8.61429200
_cell_angle_alpha   60.00000022
_cell_angle_beta   60.00000097
_cell_angle_gamma   59.99999989
_symmetry_Int_Tables_number   1
_chemical_formula_structural   Zr6Zn17SiNi6
_chemical_formula_sum   'Zr6 Zn17 Si1 Ni6'
_cell_volume   452.00557190
_cell_formula_units_Z   1
loop_
 _symmetry_equiv_pos_site_id
 _symmetry_equiv_pos_as_xyz
  1  'x, y, z'
loop_
 _atom_site_type_symbol
 _atom_site_label
 _atom_site_symmetry_multiplicity
 _atom_site_fract_x
 _atom_site_fract_y
 _atom_site_fract_z
 _atom_site_occupancy
  Zr  Zr0  1  0.716067  0.283933  0.283933  1
  Zr  Zr1  1  0.283933  0.716067  0.716067  1
  Zr  Zr2  1  0.283933  0.716067  0.283933  1
  Zr  Zr3  1  0.716067  0.283933  0.716067  1
  Zr  Zr4  1  0.283933  0.283933  0.716067  1
  Zr  Zr5  1  0.716067  0.716067  0.283933  1
  Zn  Zn6  1  0.126523  0.126523  0.126523  1
  Zn  Zn7  1  0.873477  0.873477  0.873477  1
  Zn  Zn8  1  0.126523  0.126523  0.620433  1
  Zn  Zn9  1  0.126523  0.620433  0.126523  1
  Zn  Zn10  1  0.873477  0.873477  0.379567  1
  Zn  Zn11  1  0.873477  0.379567  0.873477  1
  Zn  Zn12  1  0.620433  0.126523  0.126523  1
  Zn  Zn13  1  0.379567  0.873477  0.873477  1
  Zn  Zn14  1  0.338078  0.338078  0.338078  1
  Zn  Zn15  1  0.661922  0.661922  0.661922  1
  Zn  Zn16  1  0.338078  0.338078  0.985766  1
  Zn  Zn17  1  0.338078  0.985766  0.338078  1
  Zn  Zn18  1  0.661922  0.661922  0.014234  1
  Zn  Zn19  1  0.661922  0.014234  0.661922  1
  Zn  Zn20  1  0.985766  0.338078  0.338078  1
  Zn  Zn21  1  0.014234  0.661922  0.661922  1
  Zn  Zn22  1  0.000000  0.000000  0.000000  1
  Si  Si23  1  0.500000  0.500000  0.500000  1
  Ni  Ni24  1  0.500000  0.000000  0.000000  1
  Ni  Ni25  1  0.000000  0.500000  0.500000  1
  Ni  Ni26  1  0.000000  0.500000  0.000000  1
  Ni  Ni27  1  0.500000  0.000000  0.500000  1
  Ni  Ni28  1  0.000000  0.000000  0.500000  1
  Ni  Ni29  1  0.500000  0.500000  0.000000  1
