# generated using pymatgen
data_HfSc3(NiP)6
_symmetry_space_group_name_H-M   'P 1'
_cell_length_a   3.63677600
_cell_length_b   9.98477400
_cell_length_c   12.24241900
_cell_angle_alpha   90.00000000
_cell_angle_beta   90.00000000
_cell_angle_gamma   90.00000000
_symmetry_Int_Tables_number   1
_chemical_formula_structural   HfSc3(NiP)6
_chemical_formula_sum   'Hf2 Sc6 Ni12 P12'
_cell_volume   444.55144979
_cell_formula_units_Z   2
loop_
 _symmetry_equiv_pos_site_id
 _symmetry_equiv_pos_as_xyz
  1  'x, y, z'
loop_
 _atom_site_type_symbol
 _atom_site_label
 _atom_site_symmetry_multiplicity
 _atom_site_fract_x
 _atom_site_fract_y
 _atom_site_fract_z
 _atom_site_occupancy
  Hf  Hf0  1  0.250000  0.339181  0.996496  1
  Hf  Hf1  1  0.250000  0.160819  0.496496  1
  Sc  Sc2  1  0.750000  0.659505  0.003542  1
  Sc  Sc3  1  0.750000  0.840495  0.503542  1
  Sc  Sc4  1  0.250000  0.427638  0.711912  1
  Sc  Sc5  1  0.250000  0.072362  0.211912  1
  Sc  Sc6  1  0.750000  0.572484  0.288000  1
  Sc  Sc7  1  0.750000  0.927516  0.788000  1
  Ni  Ni8  1  0.250000  0.905850  0.981669  1
  Ni  Ni9  1  0.250000  0.594150  0.481669  1
  Ni  Ni10  1  0.750000  0.094920  0.018529  1
  Ni  Ni11  1  0.750000  0.405080  0.518529  1
  Ni  Ni12  1  0.250000  0.135106  0.717832  1
  Ni  Ni13  1  0.250000  0.364894  0.217832  1
  Ni  Ni14  1  0.750000  0.865265  0.282470  1
  Ni  Ni15  1  0.750000  0.634735  0.782470  1
  Ni  Ni16  1  0.250000  0.773491  0.165504  1
  Ni  Ni17  1  0.250000  0.726509  0.665504  1
  Ni  Ni18  1  0.750000  0.227354  0.834642  1
  Ni  Ni19  1  0.750000  0.272646  0.334642  1
  P  P20  1  0.250000  0.103045  0.897726  1
  P  P21  1  0.250000  0.396955  0.397726  1
  P  P22  1  0.750000  0.896527  0.102335  1
  P  P23  1  0.750000  0.603473  0.602335  1
  P  P24  1  0.250000  0.737134  0.854963  1
  P  P25  1  0.250000  0.762866  0.354963  1
  P  P26  1  0.750000  0.263954  0.144247  1
  P  P27  1  0.750000  0.236046  0.644247  1
  P  P28  1  0.250000  0.554365  0.125630  1
  P  P29  1  0.250000  0.945635  0.625630  1
  P  P30  1  0.750000  0.445505  0.874501  1
  P  P31  1  0.750000  0.054495  0.374501  1
