# generated using pymatgen
data_Tb5Y(Si3Pt2)4
_symmetry_space_group_name_H-M   'P 1'
_cell_length_a   4.24242600
_cell_length_b   8.55094885
_cell_length_c   12.91707300
_cell_angle_alpha   80.24100480
_cell_angle_beta   90.00000000
_cell_angle_gamma   90.00000000
_symmetry_Int_Tables_number   1
_chemical_formula_structural   Tb5Y(Si3Pt2)4
_chemical_formula_sum   'Tb5 Y1 Si12 Pt8'
_cell_volume   461.80891140
_cell_formula_units_Z   1
loop_
 _symmetry_equiv_pos_site_id
 _symmetry_equiv_pos_as_xyz
  1  'x, y, z'
loop_
 _atom_site_type_symbol
 _atom_site_label
 _atom_site_symmetry_multiplicity
 _atom_site_fract_x
 _atom_site_fract_y
 _atom_site_fract_z
 _atom_site_occupancy
  Tb  Tb0  1  0.250000  0.583454  0.185831  1
  Tb  Tb1  1  0.750000  0.233845  0.560275  1
  Tb  Tb2  1  0.750000  0.416686  0.814012  1
  Tb  Tb3  1  0.750000  0.925981  0.816063  1
  Tb  Tb4  1  0.250000  0.073905  0.183856  1
  Y  Y5  1  0.250000  0.766169  0.439666  1
  Si  Si6  1  0.750000  0.588528  0.572216  1
  Si  Si7  1  0.750000  0.127022  0.004460  1
  Si  Si8  1  0.750000  0.872572  0.574469  1
  Si  Si9  1  0.250000  0.696349  0.713695  1
  Si  Si10  1  0.750000  0.303635  0.286346  1
  Si  Si11  1  0.750000  0.805862  0.276708  1
  Si  Si12  1  0.250000  0.873007  0.995528  1
  Si  Si13  1  0.250000  0.194131  0.723407  1
  Si  Si14  1  0.250000  0.378460  0.001524  1
  Si  Si15  1  0.250000  0.127169  0.425742  1
  Si  Si16  1  0.750000  0.621529  0.998421  1
  Si  Si17  1  0.250000  0.411630  0.427969  1
  Pt  Pt18  1  0.750000  0.351982  0.098872  1
  Pt  Pt19  1  0.250000  0.970822  0.624246  1
  Pt  Pt20  1  0.750000  0.849487  0.088552  1
  Pt  Pt21  1  0.750000  0.029141  0.375581  1
  Pt  Pt22  1  0.250000  0.647970  0.901228  1
  Pt  Pt23  1  0.250000  0.150527  0.911497  1
  Pt  Pt24  1  0.750000  0.533105  0.375895  1
  Pt  Pt25  1  0.250000  0.467032  0.623943  1
