# generated using pymatgen
data_La2NpHgO7
_symmetry_space_group_name_H-M   'P 1'
_cell_length_a   6.58419700
_cell_length_b   7.00822729
_cell_length_c   8.26947400
_cell_angle_alpha   90.00000000
_cell_angle_beta   90.00000000
_cell_angle_gamma   113.96275129
_symmetry_Int_Tables_number   1
_chemical_formula_structural   La2NpHgO7
_chemical_formula_sum   'La4 Np2 Hg2 O14'
_cell_volume   348.69413246
_cell_formula_units_Z   2
loop_
 _symmetry_equiv_pos_site_id
 _symmetry_equiv_pos_as_xyz
  1  'x, y, z'
loop_
 _atom_site_type_symbol
 _atom_site_label
 _atom_site_symmetry_multiplicity
 _atom_site_fract_x
 _atom_site_fract_y
 _atom_site_fract_z
 _atom_site_occupancy
  La  La0  1  0.000000  0.000000  0.000000  1
  La  La1  1  0.000000  0.000000  0.500000  1
  La  La2  1  0.959162  0.489812  0.750000  1
  La  La3  1  0.040838  0.510188  0.250000  1
  Np  Np4  1  0.500000  0.500000  0.000000  1
  Np  Np5  1  0.500000  0.500000  0.500000  1
  Hg  Hg6  1  0.487163  0.992699  0.750000  1
  Hg  Hg7  1  0.512837  0.007301  0.250000  1
  O  O8  1  0.585581  0.480183  0.750000  1
  O  O9  1  0.414419  0.519817  0.250000  1
  O  O10  1  0.838514  0.115922  0.750000  1
  O  O11  1  0.161486  0.884078  0.250000  1
  O  O12  1  0.135824  0.875683  0.750000  1
  O  O13  1  0.864176  0.124317  0.250000  1
  O  O14  1  0.417880  0.201395  0.014567  1
  O  O15  1  0.582120  0.798605  0.514567  1
  O  O16  1  0.157701  0.411212  0.971627  1
  O  O17  1  0.842299  0.588788  0.471627  1
  O  O18  1  0.417880  0.201395  0.485433  1
  O  O19  1  0.582120  0.798605  0.985433  1
  O  O20  1  0.842299  0.588788  0.028373  1
  O  O21  1  0.157701  0.411212  0.528373  1
