# generated using pymatgen
data_Ba4Np2CdO12
_symmetry_space_group_name_H-M   'P 1'
_cell_length_a   10.32231939
_cell_length_b   10.32231874
_cell_length_c   10.32232000
_cell_angle_alpha   34.02656404
_cell_angle_beta   34.02655946
_cell_angle_gamma   34.02656230
_symmetry_Int_Tables_number   1
_chemical_formula_structural   Ba4Np2CdO12
_chemical_formula_sum   'Ba4 Np2 Cd1 O12'
_cell_volume   306.99554410
_cell_formula_units_Z   1
loop_
 _symmetry_equiv_pos_site_id
 _symmetry_equiv_pos_as_xyz
  1  'x, y, z'
loop_
 _atom_site_type_symbol
 _atom_site_label
 _atom_site_symmetry_multiplicity
 _atom_site_fract_x
 _atom_site_fract_y
 _atom_site_fract_z
 _atom_site_occupancy
  Ba  Ba0  1  0.712820  0.712820  0.712820  1
  Ba  Ba1  1  0.287180  0.287180  0.287180  1
  Ba  Ba2  1  0.863781  0.863781  0.863781  1
  Ba  Ba3  1  0.136219  0.136219  0.136219  1
  Np  Np4  1  0.579886  0.579886  0.579886  1
  Np  Np5  1  0.420114  0.420114  0.420114  1
  Cd  Cd6  1  0.000000  0.000000  0.000000  1
  O  O7  1  0.221421  0.693394  0.221421  1
  O  O8  1  0.221421  0.221421  0.693394  1
  O  O9  1  0.693394  0.221421  0.221421  1
  O  O10  1  0.778579  0.306606  0.778579  1
  O  O11  1  0.778579  0.778579  0.306606  1
  O  O12  1  0.306606  0.778579  0.778579  1
  O  O13  1  0.380019  0.873356  0.380019  1
  O  O14  1  0.380019  0.380019  0.873356  1
  O  O15  1  0.873356  0.380019  0.380019  1
  O  O16  1  0.619981  0.126644  0.619981  1
  O  O17  1  0.619981  0.619981  0.126644  1
  O  O18  1  0.126644  0.619981  0.619981  1
