# generated using pymatgen
data_PrBi3Os2O11
_symmetry_space_group_name_H-M   'P 1'
_cell_length_a   6.63513797
_cell_length_b   7.59937554
_cell_length_c   9.95250269
_cell_angle_alpha   101.13434342
_cell_angle_beta   92.05953399
_cell_angle_gamma   90.11848491
_symmetry_Int_Tables_number   1
_chemical_formula_structural   PrBi3Os2O11
_chemical_formula_sum   'Pr2 Bi6 Os4 O22'
_cell_volume   492.04928601
_cell_formula_units_Z   2
loop_
 _symmetry_equiv_pos_site_id
 _symmetry_equiv_pos_as_xyz
  1  'x, y, z'
loop_
 _atom_site_type_symbol
 _atom_site_label
 _atom_site_symmetry_multiplicity
 _atom_site_fract_x
 _atom_site_fract_y
 _atom_site_fract_z
 _atom_site_occupancy
  Pr  Pr0  1  0.750150  0.366660  0.478619  1
  Pr  Pr1  1  0.249850  0.633340  0.521381  1
  Bi  Bi2  1  0.750595  0.871517  0.478824  1
  Bi  Bi3  1  0.249405  0.128483  0.521176  1
  Bi  Bi4  1  0.480971  0.956758  0.822237  1
  Bi  Bi5  1  0.519029  0.043242  0.177763  1
  Bi  Bi6  1  0.407645  0.456206  0.827037  1
  Bi  Bi7  1  0.592355  0.543794  0.172963  1
  Os  Os8  1  0.938087  0.703356  0.812098  1
  Os  Os9  1  0.061913  0.296644  0.187902  1
  Os  Os10  1  0.937637  0.204452  0.814816  1
  Os  Os11  1  0.062363  0.795548  0.185184  1
  O  O12  1  0.234200  0.723167  0.768603  1
  O  O13  1  0.765800  0.276833  0.231397  1
  O  O14  1  0.642219  0.676708  0.827730  1
  O  O15  1  0.357781  0.323292  0.172270  1
  O  O16  1  0.643331  0.242162  0.841389  1
  O  O17  1  0.356669  0.757838  0.158611  1
  O  O18  1  0.893589  0.169699  0.613346  1
  O  O19  1  0.106411  0.830301  0.386654  1
  O  O20  1  0.230843  0.159716  0.767272  1
  O  O21  1  0.769157  0.840284  0.232728  1
  O  O22  1  0.902810  0.639704  0.607578  1
  O  O23  1  0.097190  0.360296  0.392422  1
  O  O24  1  0.998824  0.545539  0.183309  1
  O  O25  1  0.001176  0.454461  0.816691  1
  O  O26  1  0.997001  0.764965  0.998911  1
  O  O27  1  0.002999  0.235035  0.001089  1
  O  O28  1  0.570327  0.607692  0.394086  1
  O  O29  1  0.429673  0.392308  0.605914  1
  O  O30  1  0.142526  0.049862  0.202537  1
  O  O31  1  0.857474  0.950138  0.797463  1
  O  O32  1  0.541433  0.091262  0.397819  1
  O  O33  1  0.458567  0.908738  0.602181  1
