# generated using pymatgen
data_AcSm(MoO4)3
_symmetry_space_group_name_H-M   'P 1'
_cell_length_a   7.65128000
_cell_length_b   7.65128003
_cell_length_c   10.97127200
_cell_angle_alpha   90.00000000
_cell_angle_beta   90.00000000
_cell_angle_gamma   89.60695372
_symmetry_Int_Tables_number   1
_chemical_formula_structural   AcSm(MoO4)3
_chemical_formula_sum   'Ac2 Sm2 Mo6 O24'
_cell_volume   642.26603502
_cell_formula_units_Z   2
loop_
 _symmetry_equiv_pos_site_id
 _symmetry_equiv_pos_as_xyz
  1  'x, y, z'
loop_
 _atom_site_type_symbol
 _atom_site_label
 _atom_site_symmetry_multiplicity
 _atom_site_fract_x
 _atom_site_fract_y
 _atom_site_fract_z
 _atom_site_occupancy
  Ac  Ac0  1  0.690784  0.190784  0.259528  1
  Ac  Ac1  1  0.309216  0.809216  0.259528  1
  Sm  Sm2  1  0.187790  0.312210  0.737644  1
  Sm  Sm3  1  0.812210  0.687790  0.737644  1
  Mo  Mo4  1  0.708438  0.208438  0.652020  1
  Mo  Mo5  1  0.291562  0.791562  0.652020  1
  Mo  Mo6  1  0.209864  0.290136  0.362956  1
  Mo  Mo7  1  0.790136  0.709864  0.362956  1
  Mo  Mo8  1  0.500000  0.500000  0.987633  1
  Mo  Mo9  1  0.000000  0.000000  0.987633  1
  O  O10  1  0.698400  0.198400  0.490243  1
  O  O11  1  0.301600  0.801600  0.490243  1
  O  O12  1  0.193466  0.306534  0.524279  1
  O  O13  1  0.806534  0.693466  0.524279  1
  O  O14  1  0.127722  0.627722  0.693978  1
  O  O15  1  0.872278  0.372278  0.693978  1
  O  O16  1  0.627678  0.872322  0.319268  1
  O  O17  1  0.372322  0.127678  0.319268  1
  O  O18  1  0.277393  0.492160  0.299499  1
  O  O19  1  0.722607  0.507840  0.299499  1
  O  O20  1  0.992160  0.777393  0.299499  1
  O  O21  1  0.007840  0.222607  0.299499  1
  O  O22  1  0.501587  0.726876  0.707834  1
  O  O23  1  0.498413  0.273124  0.707834  1
  O  O24  1  0.226876  0.001587  0.707834  1
  O  O25  1  0.773124  0.998413  0.707834  1
  O  O26  1  0.309658  0.461998  0.896533  1
  O  O27  1  0.690342  0.538002  0.896533  1
  O  O28  1  0.961998  0.809658  0.896533  1
  O  O29  1  0.038002  0.190342  0.896533  1
  O  O30  1  0.463512  0.686629  0.082359  1
  O  O31  1  0.536488  0.313371  0.082359  1
  O  O32  1  0.186629  0.963512  0.082359  1
  O  O33  1  0.813371  0.036488  0.082359  1
