# generated using pymatgen
data_Nd2ErTm7Bi6
_symmetry_space_group_name_H-M   'P 1'
_cell_length_a   8.29260500
_cell_length_b   9.44835300
_cell_length_c   12.09017700
_cell_angle_alpha   90.00000000
_cell_angle_beta   90.00000000
_cell_angle_gamma   90.00000000
_symmetry_Int_Tables_number   1
_chemical_formula_structural   Nd2ErTm7Bi6
_chemical_formula_sum   'Nd4 Er2 Tm14 Bi12'
_cell_volume   947.28301150
_cell_formula_units_Z   2
loop_
 _symmetry_equiv_pos_site_id
 _symmetry_equiv_pos_as_xyz
  1  'x, y, z'
loop_
 _atom_site_type_symbol
 _atom_site_label
 _atom_site_symmetry_multiplicity
 _atom_site_fract_x
 _atom_site_fract_y
 _atom_site_fract_z
 _atom_site_occupancy
  Nd  Nd0  1  0.168142  0.750000  0.222927  1
  Nd  Nd1  1  0.331858  0.750000  0.722927  1
  Nd  Nd2  1  0.831851  0.250000  0.777066  1
  Nd  Nd3  1  0.668149  0.250000  0.277066  1
  Er  Er4  1  0.330986  0.250000  0.711567  1
  Er  Er5  1  0.169014  0.250000  0.211567  1
  Tm  Tm6  1  0.812815  0.565169  0.063148  1
  Tm  Tm7  1  0.687185  0.934831  0.563148  1
  Tm  Tm8  1  0.187158  0.065154  0.936878  1
  Tm  Tm9  1  0.312842  0.434846  0.436878  1
  Tm  Tm10  1  0.187158  0.434846  0.936878  1
  Tm  Tm11  1  0.312842  0.065154  0.436878  1
  Tm  Tm12  1  0.812815  0.934831  0.063148  1
  Tm  Tm13  1  0.687185  0.565169  0.563148  1
  Tm  Tm14  1  0.478778  0.750000  0.003465  1
  Tm  Tm15  1  0.021222  0.750000  0.503465  1
  Tm  Tm16  1  0.521272  0.250000  0.996559  1
  Tm  Tm17  1  0.978728  0.250000  0.496559  1
  Tm  Tm18  1  0.669062  0.750000  0.288440  1
  Tm  Tm19  1  0.830938  0.750000  0.788440  1
  Bi  Bi20  1  0.400558  0.750000  0.461857  1
  Bi  Bi21  1  0.099442  0.750000  0.961857  1
  Bi  Bi22  1  0.599539  0.250000  0.538055  1
  Bi  Bi23  1  0.900461  0.250000  0.038055  1
  Bi  Bi24  1  0.935939  0.505799  0.328630  1
  Bi  Bi25  1  0.564061  0.994201  0.828630  1
  Bi  Bi26  1  0.063994  0.005721  0.671376  1
  Bi  Bi27  1  0.436006  0.494279  0.171376  1
  Bi  Bi28  1  0.063994  0.494279  0.671376  1
  Bi  Bi29  1  0.436006  0.005721  0.171376  1
  Bi  Bi30  1  0.935939  0.994201  0.328630  1
  Bi  Bi31  1  0.564061  0.505799  0.828630  1
