# generated using pymatgen
data_Y6Sc2AgPd9
_symmetry_space_group_name_H-M   'P 1'
_cell_length_a   7.75623019
_cell_length_b   7.75622990
_cell_length_c   7.75623000
_cell_angle_alpha   66.17383949
_cell_angle_beta   66.17384044
_cell_angle_gamma   66.17383106
_symmetry_Int_Tables_number   1
_chemical_formula_structural   Y6Sc2AgPd9
_chemical_formula_sum   'Y6 Sc2 Ag1 Pd9'
_cell_volume   373.95174283
_cell_formula_units_Z   1
loop_
 _symmetry_equiv_pos_site_id
 _symmetry_equiv_pos_as_xyz
  1  'x, y, z'
loop_
 _atom_site_type_symbol
 _atom_site_label
 _atom_site_symmetry_multiplicity
 _atom_site_fract_x
 _atom_site_fract_y
 _atom_site_fract_z
 _atom_site_occupancy
  Y  Y0  1  0.896733  0.184848  0.625292  1
  Y  Y1  1  0.625292  0.896733  0.184848  1
  Y  Y2  1  0.184848  0.625292  0.896733  1
  Y  Y3  1  0.103267  0.815152  0.374708  1
  Y  Y4  1  0.374708  0.103267  0.815152  1
  Y  Y5  1  0.815152  0.374708  0.103267  1
  Sc  Sc6  1  0.662440  0.662440  0.662440  1
  Sc  Sc7  1  0.337560  0.337560  0.337560  1
  Ag  Ag8  1  0.500000  0.500000  0.500000  1
  Pd  Pd9  1  0.000000  0.000000  0.000000  1
  Pd  Pd10  1  0.807525  0.807525  0.807525  1
  Pd  Pd11  1  0.192475  0.192475  0.192475  1
  Pd  Pd12  1  0.935360  0.551578  0.321908  1
  Pd  Pd13  1  0.321908  0.935360  0.551578  1
  Pd  Pd14  1  0.551578  0.321908  0.935360  1
  Pd  Pd15  1  0.064640  0.448422  0.678092  1
  Pd  Pd16  1  0.678092  0.064640  0.448422  1
  Pd  Pd17  1  0.448422  0.678092  0.064640  1
