# generated using pymatgen
data_Y3Ga2Ir7
_symmetry_space_group_name_H-M   'P 1'
_cell_length_a   5.47552726
_cell_length_b   5.47552671
_cell_length_c   8.81830818
_cell_angle_alpha   108.08717633
_cell_angle_beta   71.91282477
_cell_angle_gamma   120.00000277
_symmetry_Int_Tables_number   1
_chemical_formula_structural   Y3Ga2Ir7
_chemical_formula_sum   'Y3 Ga2 Ir7'
_cell_volume   213.74561771
_cell_formula_units_Z   1
loop_
 _symmetry_equiv_pos_site_id
 _symmetry_equiv_pos_as_xyz
  1  'x, y, z'
loop_
 _atom_site_type_symbol
 _atom_site_label
 _atom_site_symmetry_multiplicity
 _atom_site_fract_x
 _atom_site_fract_y
 _atom_site_fract_z
 _atom_site_occupancy
  Y  Y0  1  0.000000  0.000000  0.000000  1
  Y  Y1  1  0.859311  0.140688  0.422067  1
  Y  Y2  1  0.140688  0.859311  0.577932  1
  Ga  Ga3  1  0.664332  0.335668  0.007004  1
  Ga  Ga4  1  0.335667  0.664332  0.992996  1
  Ir  Ir5  1  0.414389  0.075509  0.246732  1
  Ir  Ir6  1  0.414389  0.585611  0.246732  1
  Ir  Ir7  1  0.924492  0.585611  0.246732  1
  Ir  Ir8  1  0.500001  0.500000  0.500000  1
  Ir  Ir9  1  0.585610  0.414389  0.753269  1
  Ir  Ir10  1  0.075509  0.414389  0.753269  1
  Ir  Ir11  1  0.585610  0.924491  0.753269  1
