# generated using pymatgen
data_La2TbDy3IrBr10
_symmetry_space_group_name_H-M   'P 1'
_cell_length_a   7.50274111
_cell_length_b   9.42813403
_cell_length_c   9.42110410
_cell_angle_alpha   109.56898209
_cell_angle_beta   96.85985842
_cell_angle_gamma   104.14556220
_symmetry_Int_Tables_number   1
_chemical_formula_structural   La2TbDy3IrBr10
_chemical_formula_sum   'La2 Tb1 Dy3 Ir1 Br10'
_cell_volume   593.92482853
_cell_formula_units_Z   1
loop_
 _symmetry_equiv_pos_site_id
 _symmetry_equiv_pos_as_xyz
  1  'x, y, z'
loop_
 _atom_site_type_symbol
 _atom_site_label
 _atom_site_symmetry_multiplicity
 _atom_site_fract_x
 _atom_site_fract_y
 _atom_site_fract_z
 _atom_site_occupancy
  La  La0  1  0.969719  0.297100  0.098739  1
  La  La1  1  0.030466  0.702878  0.900760  1
  Tb  Tb2  1  0.875279  0.956804  0.250815  1
  Dy  Dy3  1  0.639054  0.868379  0.816578  1
  Dy  Dy4  1  0.361139  0.131753  0.183170  1
  Dy  Dy5  1  0.123986  0.042890  0.750007  1
  Ir  Ir6  1  0.000031  0.999941  0.999894  1
  Br  Br7  1  0.537563  0.169582  0.916499  1
  Br  Br8  1  0.461830  0.830171  0.083007  1
  Br  Br9  1  0.753539  0.916848  0.544164  1
  Br  Br10  1  0.247399  0.083489  0.456956  1
  Br  Br11  1  0.094054  0.359001  0.820804  1
  Br  Br12  1  0.906155  0.639985  0.178559  1
  Br  Br13  1  0.225288  0.753062  0.642611  1
  Br  Br14  1  0.774546  0.248025  0.357370  1
  Br  Br15  1  0.629094  0.553100  0.725591  1
  Br  Br16  1  0.370859  0.446994  0.274477  1
