# generated using pymatgen
data_Tm3Fe7(P3Ru)2
_symmetry_space_group_name_H-M   'P 1'
_cell_length_a   3.72031700
_cell_length_b   10.57915100
_cell_length_c   12.29851600
_cell_angle_alpha   90.00000000
_cell_angle_beta   90.00000000
_cell_angle_gamma   90.00000000
_symmetry_Int_Tables_number   1
_chemical_formula_structural   Tm3Fe7(P3Ru)2
_chemical_formula_sum   'Tm6 Fe14 P12 Ru4'
_cell_volume   484.04247536
_cell_formula_units_Z   2
loop_
 _symmetry_equiv_pos_site_id
 _symmetry_equiv_pos_as_xyz
  1  'x, y, z'
loop_
 _atom_site_type_symbol
 _atom_site_label
 _atom_site_symmetry_multiplicity
 _atom_site_fract_x
 _atom_site_fract_y
 _atom_site_fract_z
 _atom_site_occupancy
  Tm  Tm0  1  0.000000  0.500000  0.523299  1
  Tm  Tm1  1  0.500000  0.000000  0.476701  1
  Tm  Tm2  1  0.500000  0.817441  0.206541  1
  Tm  Tm3  1  0.500000  0.182559  0.206541  1
  Tm  Tm4  1  0.000000  0.682559  0.793459  1
  Tm  Tm5  1  0.000000  0.317441  0.793459  1
  Fe  Fe6  1  0.000000  0.500000  0.989562  1
  Fe  Fe7  1  0.500000  0.000000  0.010438  1
  Fe  Fe8  1  0.500000  0.326566  0.995245  1
  Fe  Fe9  1  0.500000  0.673434  0.995245  1
  Fe  Fe10  1  0.000000  0.173434  0.004755  1
  Fe  Fe11  1  0.000000  0.826566  0.004755  1
  Fe  Fe12  1  0.500000  0.301636  0.431540  1
  Fe  Fe13  1  0.500000  0.698364  0.431540  1
  Fe  Fe14  1  0.000000  0.198364  0.568460  1
  Fe  Fe15  1  0.000000  0.801636  0.568460  1
  Fe  Fe16  1  0.500000  0.882481  0.708297  1
  Fe  Fe17  1  0.500000  0.117519  0.708297  1
  Fe  Fe18  1  0.000000  0.617519  0.291703  1
  Fe  Fe19  1  0.000000  0.382481  0.291703  1
  P  P20  1  0.500000  0.500000  0.888702  1
  P  P21  1  0.000000  0.000000  0.111298  1
  P  P22  1  0.500000  0.500000  0.344680  1
  P  P23  1  0.000000  0.000000  0.655320  1
  P  P24  1  0.500000  0.297835  0.612991  1
  P  P25  1  0.500000  0.702165  0.612991  1
  P  P26  1  0.000000  0.202165  0.387009  1
  P  P27  1  0.000000  0.797835  0.387009  1
  P  P28  1  0.500000  0.848033  0.889247  1
  P  P29  1  0.500000  0.151967  0.889247  1
  P  P30  1  0.000000  0.651967  0.110753  1
  P  P31  1  0.000000  0.348033  0.110753  1
  Ru  Ru32  1  0.500000  0.500000  0.154607  1
  Ru  Ru33  1  0.000000  0.000000  0.845393  1
  Ru  Ru34  1  0.500000  0.500000  0.697376  1
  Ru  Ru35  1  0.000000  0.000000  0.302624  1
