# generated using pymatgen
data_CaPr5Cd4Pd13
_symmetry_space_group_name_H-M   'P 1'
_cell_length_a   8.57921749
_cell_length_b   8.57921751
_cell_length_c   8.57921736
_cell_angle_alpha   109.43784148
_cell_angle_beta   109.48791540
_cell_angle_gamma   109.48791004
_symmetry_Int_Tables_number   1
_chemical_formula_structural   CaPr5Cd4Pd13
_chemical_formula_sum   'Ca1 Pr5 Cd4 Pd13'
_cell_volume   486.09485796
_cell_formula_units_Z   1
loop_
 _symmetry_equiv_pos_site_id
 _symmetry_equiv_pos_as_xyz
  1  'x, y, z'
loop_
 _atom_site_type_symbol
 _atom_site_label
 _atom_site_symmetry_multiplicity
 _atom_site_fract_x
 _atom_site_fract_y
 _atom_site_fract_z
 _atom_site_occupancy
  Ca  Ca0  1  0.000000  0.301541  0.301541  1
  Pr  Pr1  1  0.000000  0.694138  0.694138  1
  Pr  Pr2  1  0.302020  0.000295  0.302315  1
  Pr  Pr3  1  0.697980  0.698275  0.000295  1
  Pr  Pr4  1  0.697980  0.000295  0.698275  1
  Pr  Pr5  1  0.302020  0.302315  0.000295  1
  Cd  Cd6  1  0.000000  0.000888  0.499523  1
  Cd  Cd7  1  0.501366  0.000888  0.000888  1
  Cd  Cd8  1  0.000000  0.499523  0.000888  1
  Cd  Cd9  1  0.498634  0.499523  0.499523  1
  Pd  Pd10  1  0.340754  0.658300  0.999054  1
  Pd  Pd11  1  0.000000  0.340184  0.659832  1
  Pd  Pd12  1  0.658083  0.000494  0.342411  1
  Pd  Pd13  1  0.319646  0.659832  0.659832  1
  Pd  Pd14  1  0.659246  0.317544  0.658300  1
  Pd  Pd15  1  0.680354  0.340184  0.340184  1
  Pd  Pd16  1  0.341917  0.684329  0.342411  1
  Pd  Pd17  1  0.341917  0.342411  0.684329  1
  Pd  Pd18  1  0.000000  0.659832  0.340184  1
  Pd  Pd19  1  0.659246  0.658300  0.317544  1
  Pd  Pd20  1  0.340754  0.999054  0.658300  1
  Pd  Pd21  1  0.000000  0.999445  0.999445  1
  Pd  Pd22  1  0.658083  0.342411  0.000494  1
