# generated using pymatgen
data_La2Mn5(PIr)7
_symmetry_space_group_name_H-M   'P 1'
_cell_length_a   9.47024215
_cell_length_b   9.45505160
_cell_length_c   3.94480900
_cell_angle_alpha   90.00000000
_cell_angle_beta   90.00000000
_cell_angle_gamma   120.22403453
_symmetry_Int_Tables_number   1
_chemical_formula_structural   La2Mn5(PIr)7
_chemical_formula_sum   'La2 Mn5 P7 Ir7'
_cell_volume   305.20857925
_cell_formula_units_Z   1
loop_
 _symmetry_equiv_pos_site_id
 _symmetry_equiv_pos_as_xyz
  1  'x, y, z'
loop_
 _atom_site_type_symbol
 _atom_site_label
 _atom_site_symmetry_multiplicity
 _atom_site_fract_x
 _atom_site_fract_y
 _atom_site_fract_z
 _atom_site_occupancy
  La  La0  1  0.332391  0.667718  0.000000  1
  La  La1  1  0.668065  0.333632  0.500000  1
  Mn  Mn2  1  0.158925  0.896100  0.000000  1
  Mn  Mn3  1  0.109426  0.266032  0.000000  1
  Mn  Mn4  1  0.730527  0.838940  0.000000  1
  Mn  Mn5  1  0.879596  0.092912  0.500000  1
  Mn  Mn6  1  0.907506  0.784068  0.500000  1
  P  P7  1  0.411047  0.105714  0.000000  1
  P  P8  1  0.893853  0.298573  0.000000  1
  P  P9  1  0.702354  0.592653  0.000000  1
  P  P10  1  0.109645  0.720326  0.500000  1
  P  P11  1  0.278789  0.397489  0.500000  1
  P  P12  1  0.609418  0.887670  0.500000  1
  P  P13  1  0.996296  0.998865  0.000000  1
  Ir  Ir14  1  0.422900  0.360100  0.000000  1
  Ir  Ir15  1  0.638791  0.059172  0.000000  1
  Ir  Ir16  1  0.942500  0.579362  0.000000  1
  Ir  Ir17  1  0.384515  0.947727  0.500000  1
  Ir  Ir18  1  0.050516  0.434633  0.500000  1
  Ir  Ir19  1  0.561837  0.612799  0.500000  1
  Ir  Ir20  1  0.211105  0.125516  0.500000  1
