# generated using pymatgen
data_Tb8Ta4Ti7Si16W
_symmetry_space_group_name_H-M   'P 1'
_cell_length_a   7.04637049
_cell_length_b   7.03469919
_cell_length_c   12.98097846
_cell_angle_alpha   89.93554702
_cell_angle_beta   90.16072542
_cell_angle_gamma   89.97297311
_symmetry_Int_Tables_number   1
_chemical_formula_structural   Tb8Ta4Ti7Si16W
_chemical_formula_sum   'Tb8 Ta4 Ti7 Si16 W1'
_cell_volume   643.45236651
_cell_formula_units_Z   1
loop_
 _symmetry_equiv_pos_site_id
 _symmetry_equiv_pos_as_xyz
  1  'x, y, z'
loop_
 _atom_site_type_symbol
 _atom_site_label
 _atom_site_symmetry_multiplicity
 _atom_site_fract_x
 _atom_site_fract_y
 _atom_site_fract_z
 _atom_site_occupancy
  Tb  Tb0  1  0.341008  0.001788  0.466885  1
  Tb  Tb1  1  0.497548  0.840632  0.718599  1
  Tb  Tb2  1  0.501908  0.159228  0.215989  1
  Tb  Tb3  1  0.839843  0.497004  0.282801  1
  Tb  Tb4  1  0.160148  0.502939  0.782809  1
  Tb  Tb5  1  0.659085  0.996552  0.967061  1
  Tb  Tb6  1  0.002311  0.339681  0.533522  1
  Tb  Tb7  1  0.997932  0.661066  0.031636  1
  Ta  Ta8  1  0.324504  0.325362  0.999021  1
  Ta  Ta9  1  0.171537  0.828033  0.249352  1
  Ta  Ta10  1  0.830202  0.171158  0.751227  1
  Ta  Ta11  1  0.673606  0.672751  0.500056  1
  Ti  Ti12  1  0.489763  0.655101  0.123849  1
  Ti  Ti13  1  0.507800  0.344838  0.627201  1
  Ti  Ti14  1  0.654390  0.490496  0.874087  1
  Ti  Ti15  1  0.346287  0.508823  0.374839  1
  Ti  Ti16  1  0.846332  0.991186  0.375577  1
  Ti  Ti17  1  0.006936  0.152867  0.124926  1
  Ti  Ti18  1  0.991541  0.845041  0.624495  1
  Si  Si19  1  0.202324  0.129299  0.686038  1
  Si  Si20  1  0.370073  0.704303  0.933437  1
  Si  Si21  1  0.629778  0.298441  0.435640  1
  Si  Si22  1  0.701540  0.370432  0.065004  1
  Si  Si23  1  0.299288  0.629546  0.565270  1
  Si  Si24  1  0.798242  0.869766  0.184796  1
  Si  Si25  1  0.130167  0.201641  0.314844  1
  Si  Si26  1  0.871666  0.799818  0.816160  1
  Si  Si27  1  0.291621  0.954704  0.063527  1
  Si  Si28  1  0.545843  0.791585  0.313931  1
  Si  Si29  1  0.453164  0.209077  0.814149  1
  Si  Si30  1  0.792447  0.546007  0.685795  1
  Si  Si31  1  0.208173  0.453704  0.185623  1
  Si  Si32  1  0.708923  0.045874  0.564719  1
  Si  Si33  1  0.954025  0.291741  0.935938  1
  Si  Si34  1  0.045895  0.708014  0.435713  1
  W  W35  1  0.154148  0.011502  0.875484  1
