# generated using pymatgen
data_Dy4Sc6Ga7Ge
_symmetry_space_group_name_H-M   'P 1'
_cell_length_a   7.27310951
_cell_length_b   7.49838239
_cell_length_c   14.49825200
_cell_angle_alpha   90.00000000
_cell_angle_beta   90.00000000
_cell_angle_gamma   90.16899036
_symmetry_Int_Tables_number   1
_chemical_formula_structural   Dy4Sc6Ga7Ge
_chemical_formula_sum   'Dy8 Sc12 Ga14 Ge2'
_cell_volume   790.68129603
_cell_formula_units_Z   2
loop_
 _symmetry_equiv_pos_site_id
 _symmetry_equiv_pos_as_xyz
  1  'x, y, z'
loop_
 _atom_site_type_symbol
 _atom_site_label
 _atom_site_symmetry_multiplicity
 _atom_site_fract_x
 _atom_site_fract_y
 _atom_site_fract_z
 _atom_site_occupancy
  Dy  Dy0  1  0.012117  0.178209  0.095919  1
  Dy  Dy1  1  0.987883  0.821791  0.904081  1
  Dy  Dy2  1  0.488577  0.678040  0.904753  1
  Dy  Dy3  1  0.987883  0.821791  0.595919  1
  Dy  Dy4  1  0.511423  0.321960  0.095247  1
  Dy  Dy5  1  0.012117  0.178209  0.404081  1
  Dy  Dy6  1  0.511423  0.321960  0.404753  1
  Dy  Dy7  1  0.488577  0.678040  0.595247  1
  Sc  Sc8  1  0.161944  0.502960  0.750000  1
  Sc  Sc9  1  0.838056  0.497040  0.250000  1
  Sc  Sc10  1  0.337329  0.004362  0.250000  1
  Sc  Sc11  1  0.662671  0.995638  0.750000  1
  Sc  Sc12  1  0.331161  0.173943  0.622951  1
  Sc  Sc13  1  0.668839  0.826057  0.377049  1
  Sc  Sc14  1  0.170539  0.672033  0.376406  1
  Sc  Sc15  1  0.668839  0.826057  0.122951  1
  Sc  Sc16  1  0.829461  0.327967  0.623594  1
  Sc  Sc17  1  0.331161  0.173943  0.877049  1
  Sc  Sc18  1  0.829461  0.327967  0.876406  1
  Sc  Sc19  1  0.170539  0.672033  0.123594  1
  Ga  Ga20  1  0.032871  0.118166  0.750000  1
  Ga  Ga21  1  0.967129  0.881834  0.250000  1
  Ga  Ga22  1  0.469392  0.615013  0.250000  1
  Ga  Ga23  1  0.530608  0.384987  0.750000  1
  Ga  Ga24  1  0.285473  0.872002  0.750000  1
  Ga  Ga25  1  0.714527  0.127998  0.250000  1
  Ga  Ga26  1  0.159142  0.465202  0.540536  1
  Ga  Ga27  1  0.840858  0.534798  0.459464  1
  Ga  Ga28  1  0.339056  0.964897  0.459392  1
  Ga  Ga29  1  0.840858  0.534798  0.040536  1
  Ga  Ga30  1  0.660944  0.035103  0.540608  1
  Ga  Ga31  1  0.159142  0.465202  0.959464  1
  Ga  Ga32  1  0.660944  0.035103  0.959392  1
  Ga  Ga33  1  0.339056  0.964897  0.040608  1
  Ge  Ge34  1  0.213099  0.371868  0.250000  1
  Ge  Ge35  1  0.786901  0.628132  0.750000  1
