# generated using pymatgen
data_Cs5K9Rb2(SnSe4)4
_symmetry_space_group_name_H-M   'P 1'
_cell_length_a   8.35386511
_cell_length_b   10.73384200
_cell_length_c   16.05889038
_cell_angle_alpha   90.00000000
_cell_angle_beta   90.31638538
_cell_angle_gamma   90.00000000
_symmetry_Int_Tables_number   1
_chemical_formula_structural   Cs5K9Rb2(SnSe4)4
_chemical_formula_sum   'Cs5 K9 Rb2 Sn4 Se16'
_cell_volume   1439.96378242
_cell_formula_units_Z   1
loop_
 _symmetry_equiv_pos_site_id
 _symmetry_equiv_pos_as_xyz
  1  'x, y, z'
loop_
 _atom_site_type_symbol
 _atom_site_label
 _atom_site_symmetry_multiplicity
 _atom_site_fract_x
 _atom_site_fract_y
 _atom_site_fract_z
 _atom_site_occupancy
  Cs  Cs0  1  0.000813  0.999438  0.999385  1
  Cs  Cs1  1  0.499983  0.001166  0.500775  1
  Cs  Cs2  1  0.000813  0.500562  0.999385  1
  Cs  Cs3  1  0.499983  0.498834  0.500775  1
  Cs  Cs4  1  0.994735  0.750000  0.427703  1
  K  K5  1  0.531032  0.750000  0.929997  1
  K  K6  1  0.831023  0.050486  0.261111  1
  K  K7  1  0.330191  0.950161  0.233247  1
  K  K8  1  0.168654  0.551170  0.739311  1
  K  K9  1  0.669158  0.448092  0.766166  1
  K  K10  1  0.168654  0.948830  0.739311  1
  K  K11  1  0.669158  0.051908  0.766166  1
  K  K12  1  0.831023  0.449514  0.261111  1
  K  K13  1  0.330191  0.549839  0.233247  1
  Rb  Rb14  1  0.482106  0.250000  0.072220  1
  Rb  Rb15  1  0.019405  0.250000  0.572487  1
  Sn  Sn16  1  0.772059  0.750000  0.675485  1
  Sn  Sn17  1  0.225747  0.250000  0.325447  1
  Sn  Sn18  1  0.719819  0.750000  0.170794  1
  Sn  Sn19  1  0.278278  0.250000  0.828046  1
  Se  Se20  1  0.970321  0.250000  0.821459  1
  Se  Se21  1  0.532950  0.250000  0.319443  1
  Se  Se22  1  0.464665  0.750000  0.678584  1
  Se  Se23  1  0.027281  0.750000  0.177630  1
  Se  Se24  1  0.617503  0.557744  0.093518  1
  Se  Se25  1  0.122042  0.441864  0.400621  1
  Se  Se26  1  0.381412  0.056166  0.903788  1
  Se  Se27  1  0.875902  0.944843  0.602485  1
  Se  Se28  1  0.381412  0.443834  0.903788  1
  Se  Se29  1  0.875902  0.555157  0.602485  1
  Se  Se30  1  0.617503  0.942256  0.093518  1
  Se  Se31  1  0.122042  0.058136  0.400621  1
  Se  Se32  1  0.603403  0.750000  0.320376  1
  Se  Se33  1  0.110370  0.250000  0.174969  1
  Se  Se34  1  0.390413  0.250000  0.677719  1
  Se  Se35  1  0.884060  0.750000  0.826826  1
