# generated using pymatgen
data_Sc3Ni(BRh2)2
_symmetry_space_group_name_H-M   'P 1'
_cell_length_a   9.34920900
_cell_length_b   9.34920900
_cell_length_c   3.13138700
_cell_angle_alpha   90.00000000
_cell_angle_beta   90.00000000
_cell_angle_gamma   90.00000000
_symmetry_Int_Tables_number   1
_chemical_formula_structural   Sc3Ni(BRh2)2
_chemical_formula_sum   'Sc6 Ni2 B4 Rh8'
_cell_volume   273.70736343
_cell_formula_units_Z   2
loop_
 _symmetry_equiv_pos_site_id
 _symmetry_equiv_pos_as_xyz
  1  'x, y, z'
loop_
 _atom_site_type_symbol
 _atom_site_label
 _atom_site_symmetry_multiplicity
 _atom_site_fract_x
 _atom_site_fract_y
 _atom_site_fract_z
 _atom_site_occupancy
  Sc  Sc0  1  0.822539  0.322539  0.000000  1
  Sc  Sc1  1  0.322539  0.177461  0.000000  1
  Sc  Sc2  1  0.677461  0.822539  0.000000  1
  Sc  Sc3  1  0.177461  0.677461  0.000000  1
  Sc  Sc4  1  0.000000  0.000000  0.000000  1
  Sc  Sc5  1  0.500000  0.500000  0.000000  1
  Ni  Ni6  1  0.500000  0.000000  0.500000  1
  Ni  Ni7  1  0.000000  0.500000  0.500000  1
  B  B8  1  0.611927  0.111927  0.000000  1
  B  B9  1  0.111927  0.388073  0.000000  1
  B  B10  1  0.888073  0.611927  0.000000  1
  B  B11  1  0.388073  0.888073  0.000000  1
  Rh  Rh12  1  0.064281  0.229204  0.500000  1
  Rh  Rh13  1  0.229204  0.935719  0.500000  1
  Rh  Rh14  1  0.770796  0.064281  0.500000  1
  Rh  Rh15  1  0.935719  0.770796  0.500000  1
  Rh  Rh16  1  0.435719  0.729204  0.500000  1
  Rh  Rh17  1  0.564281  0.270796  0.500000  1
  Rh  Rh18  1  0.729204  0.564281  0.500000  1
  Rh  Rh19  1  0.270796  0.435719  0.500000  1
