# generated using pymatgen
data_Dy16Y4Bi11Sb
_symmetry_space_group_name_H-M   'P 1'
_cell_length_a   8.24726377
_cell_length_b   9.51953000
_cell_length_c   12.03974303
_cell_angle_alpha   90.00000000
_cell_angle_beta   90.04193204
_cell_angle_gamma   90.00000000
_symmetry_Int_Tables_number   1
_chemical_formula_structural   Dy16Y4Bi11Sb
_chemical_formula_sum   'Dy16 Y4 Bi11 Sb1'
_cell_volume   945.24087444
_cell_formula_units_Z   1
loop_
 _symmetry_equiv_pos_site_id
 _symmetry_equiv_pos_as_xyz
  1  'x, y, z'
loop_
 _atom_site_type_symbol
 _atom_site_label
 _atom_site_symmetry_multiplicity
 _atom_site_fract_x
 _atom_site_fract_y
 _atom_site_fract_z
 _atom_site_occupancy
  Dy  Dy0  1  0.690082  0.565920  0.056971  1
  Dy  Dy1  1  0.192777  0.936203  0.441463  1
  Dy  Dy2  1  0.308590  0.059934  0.941690  1
  Dy  Dy3  1  0.807289  0.436607  0.558344  1
  Dy  Dy4  1  0.308590  0.440066  0.941690  1
  Dy  Dy5  1  0.807289  0.063393  0.558344  1
  Dy  Dy6  1  0.690082  0.934080  0.056971  1
  Dy  Dy7  1  0.192777  0.563797  0.441463  1
  Dy  Dy8  1  0.475030  0.250000  0.487716  1
  Dy  Dy9  1  0.975883  0.250000  0.011764  1
  Dy  Dy10  1  0.525381  0.750000  0.512389  1
  Dy  Dy11  1  0.028151  0.750000  0.987649  1
  Dy  Dy12  1  0.313271  0.250000  0.218861  1
  Dy  Dy13  1  0.812831  0.250000  0.281121  1
  Dy  Dy14  1  0.682343  0.750000  0.783936  1
  Dy  Dy15  1  0.188542  0.750000  0.720636  1
  Y  Y16  1  0.353083  0.750000  0.212351  1
  Y  Y17  1  0.852376  0.750000  0.284572  1
  Y  Y18  1  0.647889  0.250000  0.784740  1
  Y  Y19  1  0.147609  0.250000  0.715648  1
  Bi  Bi20  1  0.908273  0.750000  0.543503  1
  Bi  Bi21  1  0.592801  0.250000  0.042894  1
  Bi  Bi22  1  0.092362  0.250000  0.457296  1
  Bi  Bi23  1  0.565531  0.995569  0.325543  1
  Bi  Bi24  1  0.065478  0.504052  0.174121  1
  Bi  Bi25  1  0.434386  0.495607  0.674295  1
  Bi  Bi26  1  0.934104  0.003760  0.825749  1
  Bi  Bi27  1  0.434386  0.004393  0.674295  1
  Bi  Bi28  1  0.934104  0.496240  0.825749  1
  Bi  Bi29  1  0.565531  0.504431  0.325543  1
  Bi  Bi30  1  0.065478  0.995948  0.174121  1
  Sb  Sb31  1  0.407702  0.750000  0.958572  1
