# generated using pymatgen
data_Tb7YCd2NiOs
_symmetry_space_group_name_H-M   'P 1'
_cell_length_a   9.61623163
_cell_length_b   9.61623240
_cell_length_c   9.70131100
_cell_angle_alpha   59.70689299
_cell_angle_beta   59.70689032
_cell_angle_gamma   59.51569886
_symmetry_Int_Tables_number   1
_chemical_formula_structural   Tb7YCd2NiOs
_chemical_formula_sum   'Tb14 Y2 Cd4 Ni2 Os2'
_cell_volume   629.19643634
_cell_formula_units_Z   2
loop_
 _symmetry_equiv_pos_site_id
 _symmetry_equiv_pos_as_xyz
  1  'x, y, z'
loop_
 _atom_site_type_symbol
 _atom_site_label
 _atom_site_symmetry_multiplicity
 _atom_site_fract_x
 _atom_site_fract_y
 _atom_site_fract_z
 _atom_site_occupancy
  Tb  Tb0  1  0.600017  0.600017  0.594053  1
  Tb  Tb1  1  0.600017  0.600017  0.205912  1
  Tb  Tb2  1  0.601611  0.205225  0.596582  1
  Tb  Tb3  1  0.205225  0.601611  0.596582  1
  Tb  Tb4  1  0.060811  0.436933  0.440340  1
  Tb  Tb5  1  0.436933  0.060811  0.061916  1
  Tb  Tb6  1  0.436933  0.060811  0.440340  1
  Tb  Tb7  1  0.060811  0.436933  0.061916  1
  Tb  Tb8  1  0.438615  0.438615  0.061385  1
  Tb  Tb9  1  0.059975  0.059975  0.440025  1
  Tb  Tb10  1  0.188752  0.806940  0.816244  1
  Tb  Tb11  1  0.806940  0.188752  0.188064  1
  Tb  Tb12  1  0.806940  0.188752  0.816244  1
  Tb  Tb13  1  0.188752  0.806940  0.188064  1
  Y  Y14  1  0.815014  0.815014  0.184986  1
  Y  Y15  1  0.191286  0.191286  0.808714  1
  Cd  Cd16  1  0.829414  0.829414  0.832245  1
  Cd  Cd17  1  0.829414  0.829414  0.508926  1
  Cd  Cd18  1  0.830066  0.506854  0.831539  1
  Cd  Cd19  1  0.506854  0.830066  0.831539  1
  Ni  Ni20  1  0.392516  0.826282  0.390602  1
  Ni  Ni21  1  0.826282  0.392516  0.390602  1
  Os  Os22  1  0.393412  0.393412  0.388552  1
  Os  Os23  1  0.393412  0.393412  0.824626  1
