# generated using pymatgen
data_Y3Ho4Cd(Co3Sn11)2
_symmetry_space_group_name_H-M   'P 1'
_cell_length_a   9.67524900
_cell_length_b   9.67523540
_cell_length_c   10.00960100
_cell_angle_alpha   90.00007255
_cell_angle_beta   89.99770633
_cell_angle_gamma   119.99907790
_symmetry_Int_Tables_number   1
_chemical_formula_structural   Y3Ho4Cd(Co3Sn11)2
_chemical_formula_sum   'Y3 Ho4 Cd1 Co6 Sn22'
_cell_volume   811.47496137
_cell_formula_units_Z   1
loop_
 _symmetry_equiv_pos_site_id
 _symmetry_equiv_pos_as_xyz
  1  'x, y, z'
loop_
 _atom_site_type_symbol
 _atom_site_label
 _atom_site_symmetry_multiplicity
 _atom_site_fract_x
 _atom_site_fract_y
 _atom_site_fract_z
 _atom_site_occupancy
  Y  Y0  1  0.999990  0.999995  0.000018  1
  Y  Y1  1  0.521152  0.478844  0.693579  1
  Y  Y2  1  0.521155  0.042310  0.693582  1
  Ho  Ho3  1  0.958050  0.479024  0.693644  1
  Ho  Ho4  1  0.041950  0.520975  0.306349  1
  Ho  Ho5  1  0.479012  0.958042  0.306292  1
  Ho  Ho6  1  0.479011  0.520970  0.306296  1
  Cd  Cd7  1  0.000002  0.000001  0.499977  1
  Co  Co8  1  0.167772  0.831821  0.803158  1
  Co  Co9  1  0.167778  0.335956  0.803161  1
  Co  Co10  1  0.664149  0.832071  0.803228  1
  Co  Co11  1  0.336083  0.168046  0.196909  1
  Co  Co12  1  0.831962  0.663939  0.196922  1
  Co  Co13  1  0.831970  0.168024  0.196925  1
  Sn  Sn14  1  0.666668  0.333334  0.181383  1
  Sn  Sn15  1  0.666955  0.333477  0.881044  1
  Sn  Sn16  1  0.333337  0.666668  0.119327  1
  Sn  Sn17  1  0.346153  0.346177  0.000084  1
  Sn  Sn18  1  0.999991  0.653782  0.000003  1
  Sn  Sn19  1  0.653844  0.999983  0.000075  1
  Sn  Sn20  1  0.653841  0.653856  0.000074  1
  Sn  Sn21  1  0.333226  0.666615  0.818620  1
  Sn  Sn22  1  0.435281  0.217640  0.452720  1
  Sn  Sn23  1  0.217464  0.782111  0.546877  1
  Sn  Sn24  1  0.217465  0.435354  0.546879  1
  Sn  Sn25  1  0.564657  0.782328  0.546805  1
  Sn  Sn26  1  0.116647  0.883358  0.271171  1
  Sn  Sn27  1  0.782471  0.564693  0.452870  1
  Sn  Sn28  1  0.782470  0.217778  0.452873  1
  Sn  Sn29  1  0.346149  0.999977  0.000083  1
  Sn  Sn30  1  0.116650  0.233294  0.271174  1
  Sn  Sn31  1  0.766705  0.883352  0.271184  1
  Sn  Sn32  1  0.232938  0.116470  0.728915  1
  Sn  Sn33  1  0.883529  0.766869  0.728895  1
  Sn  Sn34  1  0.883533  0.116659  0.728898  1
  Sn  Sn35  1  0.999993  0.346209  0.000006  1
