# generated using pymatgen
data_NdDy15CdHg3Rh4
_symmetry_space_group_name_H-M   'P 1'
_cell_length_a   9.62511687
_cell_length_b   9.62929101
_cell_length_c   9.63852500
_cell_angle_alpha   59.96826975
_cell_angle_beta   59.95390461
_cell_angle_gamma   59.85232180
_symmetry_Int_Tables_number   1
_chemical_formula_structural   NdDy15CdHg3Rh4
_chemical_formula_sum   'Nd1 Dy15 Cd1 Hg3 Rh4'
_cell_volume   630.59964155
_cell_formula_units_Z   1
loop_
 _symmetry_equiv_pos_site_id
 _symmetry_equiv_pos_as_xyz
  1  'x, y, z'
loop_
 _atom_site_type_symbol
 _atom_site_label
 _atom_site_symmetry_multiplicity
 _atom_site_fract_x
 _atom_site_fract_y
 _atom_site_fract_z
 _atom_site_occupancy
  Nd  Nd0  1  0.564537  0.563971  0.935746  1
  Dy  Dy1  1  0.146039  0.555711  0.149126  1
  Dy  Dy2  1  0.689455  0.311364  0.311234  1
  Dy  Dy3  1  0.939637  0.563371  0.560759  1
  Dy  Dy4  1  0.939637  0.563371  0.936233  1
  Dy  Dy5  1  0.689722  0.690038  0.310120  1
  Dy  Dy6  1  0.562363  0.940109  0.936028  1
  Dy  Dy7  1  0.149098  0.148702  0.151430  1
  Dy  Dy8  1  0.310202  0.690390  0.310716  1
  Dy  Dy9  1  0.552578  0.146247  0.150588  1
  Dy  Dy10  1  0.310484  0.311399  0.689059  1
  Dy  Dy11  1  0.310202  0.690390  0.688691  1
  Dy  Dy12  1  0.149098  0.148702  0.550770  1
  Dy  Dy13  1  0.689455  0.311364  0.687947  1
  Dy  Dy14  1  0.936373  0.937283  0.563171  1
  Dy  Dy15  1  0.562363  0.940109  0.561498  1
  Cd  Cd16  1  0.922640  0.239310  0.919025  1
  Hg  Hg17  1  0.913600  0.915531  0.913762  1
  Hg  Hg18  1  0.253835  0.919894  0.913135  1
  Hg  Hg19  1  0.913600  0.915531  0.257106  1
  Rh  Rh20  1  0.355586  0.356462  0.927455  1
  Rh  Rh21  1  0.355586  0.356462  0.360495  1
  Rh  Rh22  1  0.927414  0.356990  0.357798  1
  Rh  Rh23  1  0.356493  0.927298  0.358104  1
