# generated using pymatgen
data_Ca2TbErGa8Ag3Au
_symmetry_space_group_name_H-M   'P 1'
_cell_length_a   4.34785300
_cell_length_b   7.00134458
_cell_length_c   10.43966400
_cell_angle_alpha   90.09961828
_cell_angle_beta   90.00000000
_cell_angle_gamma   90.00000000
_symmetry_Int_Tables_number   1
_chemical_formula_structural   Ca2TbErGa8Ag3Au
_chemical_formula_sum   'Ca2 Tb1 Er1 Ga8 Ag3 Au1'
_cell_volume   317.79142152
_cell_formula_units_Z   1
loop_
 _symmetry_equiv_pos_site_id
 _symmetry_equiv_pos_as_xyz
  1  'x, y, z'
loop_
 _atom_site_type_symbol
 _atom_site_label
 _atom_site_symmetry_multiplicity
 _atom_site_fract_x
 _atom_site_fract_y
 _atom_site_fract_z
 _atom_site_occupancy
  Ca  Ca0  1  0.750000  0.224800  0.173550  1
  Ca  Ca1  1  0.750000  0.725395  0.325858  1
  Tb  Tb2  1  0.250000  0.279397  0.673684  1
  Er  Er3  1  0.250000  0.775645  0.829308  1
  Ga  Ga4  1  0.250000  0.926099  0.148698  1
  Ga  Ga5  1  0.750000  0.072581  0.842638  1
  Ga  Ga6  1  0.750000  0.575552  0.656364  1
  Ga  Ga7  1  0.250000  0.426456  0.352076  1
  Ga  Ga8  1  0.250000  0.703477  0.537834  1
  Ga  Ga9  1  0.750000  0.296521  0.468186  1
  Ga  Ga10  1  0.750000  0.796270  0.030978  1
  Ga  Ga11  1  0.250000  0.201147  0.963961  1
  Ag  Ag12  1  0.250000  0.541955  0.097563  1
  Ag  Ag13  1  0.750000  0.955549  0.598952  1
  Ag  Ag14  1  0.250000  0.041680  0.402192  1
  Au  Au15  1  0.750000  0.457477  0.898155  1
