# generated using pymatgen
data_SmU8O18
_symmetry_space_group_name_H-M   'P 1'
_cell_length_a   6.63698879
_cell_length_b   6.64161318
_cell_length_c   8.57745613
_cell_angle_alpha   82.63381672
_cell_angle_beta   75.04971233
_cell_angle_gamma   80.44939824
_symmetry_Int_Tables_number   1
_chemical_formula_structural   SmU8O18
_chemical_formula_sum   'Sm1 U8 O18'
_cell_volume   358.78487404
_cell_formula_units_Z   1
loop_
 _symmetry_equiv_pos_site_id
 _symmetry_equiv_pos_as_xyz
  1  'x, y, z'
loop_
 _atom_site_type_symbol
 _atom_site_label
 _atom_site_symmetry_multiplicity
 _atom_site_fract_x
 _atom_site_fract_y
 _atom_site_fract_z
 _atom_site_occupancy
  Sm  Sm0  1  0.000000  0.000000  0.500000  1
  U  U1  1  0.333333  0.667579  0.166996  1
  U  U2  1  0.778194  0.555488  0.389491  1
  U  U3  1  0.111695  0.222724  0.055734  1
  U  U4  1  0.666667  0.332421  0.833004  1
  U  U5  1  0.221806  0.444512  0.610509  1
  U  U6  1  0.555593  0.111438  0.278037  1
  U  U7  1  0.888305  0.777276  0.944266  1
  U  U8  1  0.444407  0.888562  0.721963  1
  O  O9  1  0.582207  0.665319  0.916263  1
  O  O10  1  0.029509  0.556606  0.136623  1
  O  O11  1  0.417793  0.334681  0.083737  1
  O  O12  1  0.086477  0.658859  0.412633  1
  O  O13  1  0.805836  0.109892  0.027983  1
  O  O14  1  0.472956  0.447304  0.360884  1
  O  O15  1  0.857601  0.228408  0.300850  1
  O  O16  1  0.527044  0.552696  0.639116  1
  O  O17  1  0.257704  0.000482  0.243908  1
  O  O18  1  0.913523  0.341141  0.587367  1
  O  O19  1  0.194164  0.890108  0.972017  1
  O  O20  1  0.742296  0.999518  0.756092  1
  O  O21  1  0.687042  0.883144  0.471078  1
  O  O22  1  0.358419  0.223998  0.807968  1
  O  O23  1  0.641581  0.776002  0.192032  1
  O  O24  1  0.312958  0.116856  0.528922  1
  O  O25  1  0.970491  0.443394  0.863377  1
  O  O26  1  0.142399  0.771592  0.699150  1
