# generated using pymatgen
data_YbEuTmGa8Ag3
_symmetry_space_group_name_H-M   'P 1'
_cell_length_a   4.40822371
_cell_length_b   8.41376992
_cell_length_c   8.41376915
_cell_angle_alpha   70.34467279
_cell_angle_beta   74.81332916
_cell_angle_gamma   74.81332677
_symmetry_Int_Tables_number   1
_chemical_formula_structural   YbEuTmGa8Ag3
_chemical_formula_sum   'Yb1 Eu1 Tm1 Ga8 Ag3'
_cell_volume   278.38145291
_cell_formula_units_Z   1
loop_
 _symmetry_equiv_pos_site_id
 _symmetry_equiv_pos_as_xyz
  1  'x, y, z'
loop_
 _atom_site_type_symbol
 _atom_site_label
 _atom_site_symmetry_multiplicity
 _atom_site_fract_x
 _atom_site_fract_y
 _atom_site_fract_z
 _atom_site_occupancy
  Yb  Yb0  1  0.197760  0.802240  0.802240  1
  Eu  Eu1  1  0.499921  0.500079  0.500079  1
  Tm  Tm2  1  0.799503  0.200497  0.200497  1
  Ga  Ga3  1  0.356704  0.361068  0.925524  1
  Ga  Ga4  1  0.645501  0.634458  0.074540  1
  Ga  Ga5  1  0.356704  0.925524  0.361068  1
  Ga  Ga6  1  0.645501  0.074540  0.634458  1
  Ga  Ga7  1  0.162035  0.468253  0.207677  1
  Ga  Ga8  1  0.836781  0.530521  0.795918  1
  Ga  Ga9  1  0.162035  0.207677  0.468253  1
  Ga  Ga10  1  0.836781  0.795918  0.530521  1
  Ag  Ag11  1  0.499964  0.000036  0.000036  1
  Ag  Ag12  1  0.000404  0.805641  0.193551  1
  Ag  Ag13  1  0.000404  0.193551  0.805641  1
