# generated using pymatgen
data_Th4Cd2Ni3Ir
_symmetry_space_group_name_H-M   'P 1'
_cell_length_a   7.70339737
_cell_length_b   7.70339737
_cell_length_c   3.73198400
_cell_angle_alpha   90.00000000
_cell_angle_beta   90.00000000
_cell_angle_gamma   90.16895551
_symmetry_Int_Tables_number   1
_chemical_formula_structural   Th4Cd2Ni3Ir
_chemical_formula_sum   'Th4 Cd2 Ni3 Ir1'
_cell_volume   221.46366727
_cell_formula_units_Z   1
loop_
 _symmetry_equiv_pos_site_id
 _symmetry_equiv_pos_as_xyz
  1  'x, y, z'
loop_
 _atom_site_type_symbol
 _atom_site_label
 _atom_site_symmetry_multiplicity
 _atom_site_fract_x
 _atom_site_fract_y
 _atom_site_fract_z
 _atom_site_occupancy
  Th  Th0  1  0.326337  0.828467  0.500000  1
  Th  Th1  1  0.827969  0.672031  0.500000  1
  Th  Th2  1  0.170075  0.329925  0.500000  1
  Th  Th3  1  0.671533  0.173663  0.500000  1
  Cd  Cd4  1  0.995093  0.998198  0.000000  1
  Cd  Cd5  1  0.501802  0.504907  0.000000  1
  Ni  Ni6  1  0.875988  0.378470  0.000000  1
  Ni  Ni7  1  0.121530  0.624012  0.000000  1
  Ni  Ni8  1  0.633043  0.866957  0.000000  1
  Ir  Ir9  1  0.376631  0.123369  0.000000  1
