# generated using pymatgen
data_Dy6Al24TcIr3(RuPt)2
_symmetry_space_group_name_H-M   'P 1'
_cell_length_a   8.82994821
_cell_length_b   8.83117559
_cell_length_c   9.53395600
_cell_angle_alpha   89.94862232
_cell_angle_beta   90.12557138
_cell_angle_gamma   119.85406629
_symmetry_Int_Tables_number   1
_chemical_formula_structural   Dy6Al24TcIr3(RuPt)2
_chemical_formula_sum   'Dy6 Al24 Tc1 Ir3 Ru2 Pt2'
_cell_volume   644.78683473
_cell_formula_units_Z   1
loop_
 _symmetry_equiv_pos_site_id
 _symmetry_equiv_pos_as_xyz
  1  'x, y, z'
loop_
 _atom_site_type_symbol
 _atom_site_label
 _atom_site_symmetry_multiplicity
 _atom_site_fract_x
 _atom_site_fract_y
 _atom_site_fract_z
 _atom_site_occupancy
  Dy  Dy0  1  0.191935  0.809234  0.251362  1
  Dy  Dy1  1  0.191068  0.382723  0.250125  1
  Dy  Dy2  1  0.616605  0.809249  0.248273  1
  Dy  Dy3  1  0.808065  0.190766  0.748638  1
  Dy  Dy4  1  0.808932  0.617277  0.749875  1
  Dy  Dy5  1  0.383395  0.190751  0.751727  1
  Al  Al6  1  0.563336  0.436122  0.252370  1
  Al  Al7  1  0.562120  0.125539  0.250070  1
  Al  Al8  1  0.874452  0.437606  0.245667  1
  Al  Al9  1  0.436664  0.563878  0.747630  1
  Al  Al10  1  0.437880  0.874461  0.749930  1
  Al  Al11  1  0.125548  0.562394  0.754333  1
  Al  Al12  1  0.325971  0.162974  0.424342  1
  Al  Al13  1  0.833970  0.159168  0.422585  1
  Al  Al14  1  0.834109  0.675408  0.423160  1
  Al  Al15  1  0.674029  0.837026  0.575658  1
  Al  Al16  1  0.166030  0.840832  0.577415  1
  Al  Al17  1  0.165891  0.324592  0.576840  1
  Al  Al18  1  0.674520  0.840486  0.924267  1
  Al  Al19  1  0.162062  0.834984  0.925469  1
  Al  Al20  1  0.157666  0.325495  0.924839  1
  Al  Al21  1  0.325480  0.159514  0.075733  1
  Al  Al22  1  0.837938  0.165016  0.074531  1
  Al  Al23  1  0.842334  0.674505  0.075161  1
  Al  Al24  1  0.663066  0.331537  0.531132  1
  Al  Al25  1  0.336934  0.668463  0.468868  1
  Al  Al26  1  0.328997  0.667228  0.030415  1
  Al  Al27  1  0.671003  0.332772  0.969585  1
  Al  Al28  1  0.999357  0.000299  0.249020  1
  Al  Al29  1  0.000643  0.999701  0.750980  1
  Tc  Tc30  1  0.000000  0.000000  0.500000  1
  Ir  Ir31  1  0.500000  0.500000  0.500000  1
  Ir  Ir32  1  0.500000  0.000000  0.500000  1
  Ir  Ir33  1  0.500000  0.000000  0.000000  1
  Ru  Ru34  1  0.000000  0.000000  0.000000  1
  Ru  Ru35  1  0.000000  0.500000  0.000000  1
  Pt  Pt36  1  0.000000  0.500000  0.500000  1
  Pt  Pt37  1  0.500000  0.500000  0.000000  1
