# generated using pymatgen
data_Ce2Ni16GeH3
_symmetry_space_group_name_H-M   'P 1'
_cell_length_a   6.32344166
_cell_length_b   6.32344318
_cell_length_c   6.33802902
_cell_angle_alpha   83.90297704
_cell_angle_beta   83.90298275
_cell_angle_gamma   83.02687754
_symmetry_Int_Tables_number   1
_chemical_formula_structural   Ce2Ni16GeH3
_chemical_formula_sum   'Ce2 Ni16 Ge1 H3'
_cell_volume   249.01389625
_cell_formula_units_Z   1
loop_
 _symmetry_equiv_pos_site_id
 _symmetry_equiv_pos_as_xyz
  1  'x, y, z'
loop_
 _atom_site_type_symbol
 _atom_site_label
 _atom_site_symmetry_multiplicity
 _atom_site_fract_x
 _atom_site_fract_y
 _atom_site_fract_z
 _atom_site_occupancy
  Ce  Ce0  1  0.656639  0.656639  0.666784  1
  Ce  Ce1  1  0.343361  0.343361  0.333216  1
  Ni  Ni2  1  0.500000  0.000000  0.000000  1
  Ni  Ni3  1  0.000000  0.500000  0.000000  1
  Ni  Ni4  1  0.710865  0.289135  0.000000  1
  Ni  Ni5  1  0.000890  0.707381  0.290111  1
  Ni  Ni6  1  0.292619  0.999110  0.709889  1
  Ni  Ni7  1  0.999110  0.292619  0.709889  1
  Ni  Ni8  1  0.707381  0.000890  0.290111  1
  Ni  Ni9  1  0.289135  0.710865  0.000000  1
  Ni  Ni10  1  0.346556  0.346556  0.849943  1
  Ni  Ni11  1  0.851724  0.349134  0.344652  1
  Ni  Ni12  1  0.349134  0.851724  0.344652  1
  Ni  Ni13  1  0.653444  0.653444  0.150057  1
  Ni  Ni14  1  0.148276  0.650866  0.655348  1
  Ni  Ni15  1  0.650866  0.148276  0.655348  1
  Ni  Ni16  1  0.896211  0.896211  0.906774  1
  Ni  Ni17  1  0.103789  0.103789  0.093226  1
  Ge  Ge18  1  0.000000  0.000000  0.500000  1
  H  H19  1  0.500000  0.500000  0.000000  1
  H  H20  1  0.000000  0.500000  0.500000  1
  H  H21  1  0.500000  0.000000  0.500000  1
