# generated using pymatgen
data_RbCeNdSe6
_symmetry_space_group_name_H-M   'P 1'
_cell_length_a   11.85175266
_cell_length_b   11.85175376
_cell_length_c   11.85175311
_cell_angle_alpha   159.13611179
_cell_angle_beta   152.20513984
_cell_angle_gamma   35.00999638
_symmetry_Int_Tables_number   1
_chemical_formula_structural   RbCeNdSe6
_chemical_formula_sum   'Rb1 Ce1 Nd1 Se6'
_cell_volume   276.18545147
_cell_formula_units_Z   1
loop_
 _symmetry_equiv_pos_site_id
 _symmetry_equiv_pos_as_xyz
  1  'x, y, z'
loop_
 _atom_site_type_symbol
 _atom_site_label
 _atom_site_symmetry_multiplicity
 _atom_site_fract_x
 _atom_site_fract_y
 _atom_site_fract_z
 _atom_site_occupancy
  Rb  Rb0  1  0.997340  0.997340  0.000000  1
  Ce  Ce1  1  0.686937  0.186937  0.500000  1
  Nd  Nd2  1  0.315680  0.815680  0.500000  1
  Se  Se3  1  0.182250  0.395030  0.787219  1
  Se  Se4  1  0.220763  0.220763  0.000000  1
  Se  Se5  1  0.399491  0.608710  0.790783  1
  Se  Se6  1  0.607813  0.395030  0.212781  1
  Se  Se7  1  0.817927  0.608710  0.209217  1
  Se  Se8  1  0.771797  0.771797  0.000000  1
