# generated using pymatgen
data_TbY3Rh4F28
_symmetry_space_group_name_H-M   'P 1'
_cell_length_a   5.52768718
_cell_length_b   8.91512353
_cell_length_c   11.96420256
_cell_angle_alpha   62.44005956
_cell_angle_beta   89.97112414
_cell_angle_gamma   89.98963165
_symmetry_Int_Tables_number   1
_chemical_formula_structural   TbY3Rh4F28
_chemical_formula_sum   'Tb1 Y3 Rh4 F28'
_cell_volume   522.69293661
_cell_formula_units_Z   1
loop_
 _symmetry_equiv_pos_site_id
 _symmetry_equiv_pos_as_xyz
  1  'x, y, z'
loop_
 _atom_site_type_symbol
 _atom_site_label
 _atom_site_symmetry_multiplicity
 _atom_site_fract_x
 _atom_site_fract_y
 _atom_site_fract_z
 _atom_site_occupancy
  Tb  Tb0  1  0.260811  0.813361  0.264898  1
  Y  Y1  1  0.738842  0.186440  0.735284  1
  Y  Y2  1  0.761268  0.186718  0.235461  1
  Y  Y3  1  0.238752  0.813748  0.764419  1
  Rh  Rh4  1  0.757957  0.726006  0.043032  1
  Rh  Rh5  1  0.241931  0.274058  0.956594  1
  Rh  Rh6  1  0.258062  0.273702  0.456766  1
  Rh  Rh7  1  0.741964  0.725979  0.543550  1
  F  F8  1  0.937922  0.707324  0.415234  1
  F  F9  1  0.062416  0.292843  0.584699  1
  F  F10  1  0.437643  0.292987  0.084690  1
  F  F11  1  0.562015  0.707019  0.914908  1
  F  F12  1  0.467038  0.729007  0.134513  1
  F  F13  1  0.532920  0.270981  0.865264  1
  F  F14  1  0.966769  0.271075  0.365213  1
  F  F15  1  0.033723  0.728858  0.634984  1
  F  F16  1  0.950561  0.742854  0.173916  1
  F  F17  1  0.048879  0.257084  0.825773  1
  F  F18  1  0.450812  0.256974  0.325986  1
  F  F19  1  0.548897  0.742950  0.674370  1
  F  F20  1  0.768588  0.481549  0.139328  1
  F  F21  1  0.231443  0.518115  0.860708  1
  F  F22  1  0.268487  0.517785  0.360760  1
  F  F23  1  0.731429  0.481401  0.639609  1
  F  F24  1  0.944382  0.280986  0.042987  1
  F  F25  1  0.055919  0.719081  0.956747  1
  F  F26  1  0.444123  0.719118  0.456912  1
  F  F27  1  0.555894  0.280862  0.543186  1
  F  F28  1  0.739895  0.970148  0.450719  1
  F  F29  1  0.260032  0.029814  0.549421  1
  F  F30  1  0.240015  0.030204  0.049482  1
  F  F31  1  0.759948  0.970128  0.950552  1
  F  F32  1  0.590331  0.969424  0.230197  1
  F  F33  1  0.410638  0.030806  0.769761  1
  F  F34  1  0.089366  0.031420  0.269713  1
  F  F35  1  0.910326  0.969191  0.730363  1
