# generated using pymatgen
data_Yb3CeEr4(B6Os)4
_symmetry_space_group_name_H-M   'P 1'
_cell_length_a   3.64455500
_cell_length_b   9.14844244
_cell_length_c   11.54710889
_cell_angle_alpha   89.83546014
_cell_angle_beta   90.00000000
_cell_angle_gamma   90.00000000
_symmetry_Int_Tables_number   1
_chemical_formula_structural   Yb3CeEr4(B6Os)4
_chemical_formula_sum   'Yb3 Ce1 Er4 B24 Os4'
_cell_volume   385.00213602
_cell_formula_units_Z   1
loop_
 _symmetry_equiv_pos_site_id
 _symmetry_equiv_pos_as_xyz
  1  'x, y, z'
loop_
 _atom_site_type_symbol
 _atom_site_label
 _atom_site_symmetry_multiplicity
 _atom_site_fract_x
 _atom_site_fract_y
 _atom_site_fract_z
 _atom_site_occupancy
  Yb  Yb0  1  0.000000  0.325582  0.413940  1
  Yb  Yb1  1  0.000000  0.675274  0.583965  1
  Yb  Yb2  1  0.000000  0.822231  0.087641  1
  Ce  Ce3  1  0.000000  0.175815  0.914724  1
  Er  Er4  1  0.000000  0.941564  0.369424  1
  Er  Er5  1  0.000000  0.056529  0.627971  1
  Er  Er6  1  0.000000  0.445192  0.131497  1
  Er  Er7  1  0.000000  0.558121  0.870138  1
  B  B8  1  0.500000  0.554016  0.433209  1
  B  B9  1  0.500000  0.445568  0.567436  1
  B  B10  1  0.500000  0.053821  0.068466  1
  B  B11  1  0.500000  0.944500  0.932431  1
  B  B12  1  0.500000  0.748170  0.418243  1
  B  B13  1  0.500000  0.251770  0.580963  1
  B  B14  1  0.500000  0.249209  0.082570  1
  B  B15  1  0.500000  0.750957  0.918222  1
  B  B16  1  0.500000  0.791180  0.265501  1
  B  B17  1  0.500000  0.208847  0.733601  1
  B  B18  1  0.500000  0.291516  0.235784  1
  B  B19  1  0.500000  0.709068  0.765025  1
  B  B20  1  0.500000  0.631995  0.186310  1
  B  B21  1  0.500000  0.368798  0.814422  1
  B  B22  1  0.500000  0.131349  0.314124  1
  B  B23  1  0.500000  0.867973  0.684457  1
  B  B24  1  0.500000  0.983512  0.212545  1
  B  B25  1  0.500000  0.014915  0.787206  1
  B  B26  1  0.500000  0.484188  0.288934  1
  B  B27  1  0.500000  0.516363  0.711450  1
  B  B28  1  0.500000  0.602104  0.028187  1
  B  B29  1  0.500000  0.400399  0.972776  1
  B  B30  1  0.500000  0.099361  0.471724  1
  B  B31  1  0.500000  0.900172  0.526687  1
  Os  Os32  1  0.000000  0.639138  0.320432  1
  Os  Os33  1  0.000000  0.359086  0.681725  1
  Os  Os34  1  0.000000  0.139253  0.177978  1
  Os  Os35  1  0.000000  0.862464  0.820292  1
