# generated using pymatgen
data_Ba3HoScSe6
_symmetry_space_group_name_H-M   'P 1'
_cell_length_a   8.74384940
_cell_length_b   8.74384789
_cell_length_c   8.74384906
_cell_angle_alpha   92.88113425
_cell_angle_beta   92.88113694
_cell_angle_gamma   92.88112882
_symmetry_Int_Tables_number   1
_chemical_formula_structural   Ba3HoScSe6
_chemical_formula_sum   'Ba6 Ho2 Sc2 Se12'
_cell_volume   665.88650505
_cell_formula_units_Z   2
loop_
 _symmetry_equiv_pos_site_id
 _symmetry_equiv_pos_as_xyz
  1  'x, y, z'
loop_
 _atom_site_type_symbol
 _atom_site_label
 _atom_site_symmetry_multiplicity
 _atom_site_fract_x
 _atom_site_fract_y
 _atom_site_fract_z
 _atom_site_occupancy
  Ba  Ba0  1  0.366662  0.750000  0.133338  1
  Ba  Ba1  1  0.133338  0.366662  0.750000  1
  Ba  Ba2  1  0.750000  0.133338  0.366662  1
  Ba  Ba3  1  0.633338  0.250000  0.866662  1
  Ba  Ba4  1  0.866662  0.633338  0.250000  1
  Ba  Ba5  1  0.250000  0.866662  0.633338  1
  Ho  Ho6  1  0.250000  0.250000  0.250000  1
  Ho  Ho7  1  0.750000  0.750000  0.750000  1
  Sc  Sc8  1  0.500000  0.500000  0.500000  1
  Sc  Sc9  1  0.000000  0.000000  0.000000  1
  Se  Se10  1  0.537699  0.411923  0.200406  1
  Se  Se11  1  0.200406  0.537699  0.411923  1
  Se  Se12  1  0.411923  0.200406  0.537699  1
  Se  Se13  1  0.962301  0.299594  0.088077  1
  Se  Se14  1  0.088077  0.962301  0.299594  1
  Se  Se15  1  0.299594  0.088077  0.962301  1
  Se  Se16  1  0.462301  0.588077  0.799594  1
  Se  Se17  1  0.799594  0.462301  0.588077  1
  Se  Se18  1  0.588077  0.799594  0.462301  1
  Se  Se19  1  0.037699  0.700406  0.911923  1
  Se  Se20  1  0.700406  0.911923  0.037699  1
  Se  Se21  1  0.911923  0.037699  0.700406  1
