# generated using pymatgen
data_Ta6Co3Os3C2
_symmetry_space_group_name_H-M   'P 1'
_cell_length_a   8.18876172
_cell_length_b   8.18876230
_cell_length_c   8.18876153
_cell_angle_alpha   119.88949759
_cell_angle_beta   120.05858770
_cell_angle_gamma   90.04502633
_symmetry_Int_Tables_number   1
_chemical_formula_structural   Ta6Co3Os3C2
_chemical_formula_sum   'Ta12 Co6 Os6 C4'
_cell_volume   388.42642145
_cell_formula_units_Z   2
loop_
 _symmetry_equiv_pos_site_id
 _symmetry_equiv_pos_as_xyz
  1  'x, y, z'
loop_
 _atom_site_type_symbol
 _atom_site_label
 _atom_site_symmetry_multiplicity
 _atom_site_fract_x
 _atom_site_fract_y
 _atom_site_fract_z
 _atom_site_occupancy
  Ta  Ta0  1  0.065528  0.565528  0.500000  1
  Ta  Ta1  1  0.678702  0.178702  0.500000  1
  Ta  Ta2  1  0.065197  0.182319  0.499249  1
  Ta  Ta3  1  0.683070  0.565948  0.500751  1
  Ta  Ta4  1  0.683070  0.182319  0.117122  1
  Ta  Ta5  1  0.065197  0.565948  0.882878  1
  Ta  Ta6  1  0.431431  0.431431  0.000000  1
  Ta  Ta7  1  0.815077  0.815077  0.000000  1
  Ta  Ta8  1  0.429688  0.818154  0.002008  1
  Ta  Ta9  1  0.816146  0.427680  0.997992  1
  Ta  Ta10  1  0.816146  0.818154  0.388465  1
  Ta  Ta11  1  0.429688  0.427680  0.611535  1
  Co  Co12  1  0.455226  0.117305  0.662080  1
  Co  Co13  1  0.455226  0.793145  0.337920  1
  Co  Co14  1  0.375383  0.209725  0.165658  1
  Co  Co15  1  0.044067  0.209725  0.834342  1
  Co  Co16  1  0.043697  0.886047  0.842350  1
  Co  Co17  1  0.043697  0.201347  0.157650  1
  Os  Os18  1  0.757823  0.007393  0.750431  1
  Os  Os19  1  0.256962  0.007393  0.249569  1
  Os  Os20  1  0.248136  0.488409  0.240273  1
  Os  Os21  1  0.248136  0.007863  0.759727  1
  Os  Os22  1  0.138364  0.798952  0.339413  1
  Os  Os23  1  0.459539  0.798952  0.660587  1
  C  C24  1  0.250194  0.499403  0.750791  1
  C  C25  1  0.748613  0.499403  0.249209  1
  C  C26  1  0.748001  0.999604  0.251603  1
  C  C27  1  0.748001  0.496397  0.748397  1
