# generated using pymatgen
data_HoPa5(Co3P2)6
_symmetry_space_group_name_H-M   'P 1'
_cell_length_a   3.76708600
_cell_length_b   10.39986890
_cell_length_c   12.26935345
_cell_angle_alpha   90.15731735
_cell_angle_beta   90.00000000
_cell_angle_gamma   90.00000000
_symmetry_Int_Tables_number   1
_chemical_formula_structural   HoPa5(Co3P2)6
_chemical_formula_sum   'Ho1 Pa5 Co18 P12'
_cell_volume   480.67710847
_cell_formula_units_Z   1
loop_
 _symmetry_equiv_pos_site_id
 _symmetry_equiv_pos_as_xyz
  1  'x, y, z'
loop_
 _atom_site_type_symbol
 _atom_site_label
 _atom_site_symmetry_multiplicity
 _atom_site_fract_x
 _atom_site_fract_y
 _atom_site_fract_z
 _atom_site_occupancy
  Ho  Ho0  1  0.000000  0.312521  0.793545  1
  Pa  Pa1  1  0.000000  0.498805  0.525471  1
  Pa  Pa2  1  0.500000  0.000948  0.476747  1
  Pa  Pa3  1  0.500000  0.815848  0.207115  1
  Pa  Pa4  1  0.500000  0.184658  0.208642  1
  Pa  Pa5  1  0.000000  0.682416  0.791151  1
  Co  Co6  1  0.000000  0.499800  0.978613  1
  Co  Co7  1  0.500000  0.000496  0.020064  1
  Co  Co8  1  0.500000  0.302409  0.431564  1
  Co  Co9  1  0.500000  0.698313  0.428924  1
  Co  Co10  1  0.000000  0.197553  0.570203  1
  Co  Co11  1  0.000000  0.804726  0.570302  1
  Co  Co12  1  0.500000  0.877384  0.714116  1
  Co  Co13  1  0.500000  0.118999  0.712555  1
  Co  Co14  1  0.000000  0.622372  0.285696  1
  Co  Co15  1  0.000000  0.377728  0.286543  1
  Co  Co16  1  0.500000  0.333354  0.994477  1
  Co  Co17  1  0.500000  0.664936  0.992742  1
  Co  Co18  1  0.000000  0.165918  0.007408  1
  Co  Co19  1  0.000000  0.832561  0.006039  1
  Co  Co20  1  0.500000  0.500432  0.159746  1
  Co  Co21  1  0.000000  0.000361  0.841713  1
  Co  Co22  1  0.500000  0.505907  0.698185  1
  Co  Co23  1  0.000000  0.000639  0.298999  1
  P  P24  1  0.500000  0.308842  0.618378  1
  P  P25  1  0.500000  0.693924  0.611559  1
  P  P26  1  0.000000  0.191503  0.387956  1
  P  P27  1  0.000000  0.809731  0.386572  1
  P  P28  1  0.500000  0.496496  0.878067  1
  P  P29  1  0.000000  0.999771  0.118833  1
  P  P30  1  0.500000  0.849159  0.896855  1
  P  P31  1  0.500000  0.151064  0.894578  1
  P  P32  1  0.000000  0.648759  0.102317  1
  P  P33  1  0.000000  0.349909  0.102555  1
  P  P34  1  0.500000  0.500121  0.342128  1
  P  P35  1  0.000000  0.001637  0.659642  1
