# generated using pymatgen
data_YEr15CdIn3Ni4
_symmetry_space_group_name_H-M   'P 1'
_cell_length_a   9.49268771
_cell_length_b   9.49914674
_cell_length_c   9.49208288
_cell_angle_alpha   60.00517773
_cell_angle_beta   59.94436925
_cell_angle_gamma   60.01170370
_symmetry_Int_Tables_number   1
_chemical_formula_structural   YEr15CdIn3Ni4
_chemical_formula_sum   'Y1 Er15 Cd1 In3 Ni4'
_cell_volume   605.05205138
_cell_formula_units_Z   1
loop_
 _symmetry_equiv_pos_site_id
 _symmetry_equiv_pos_as_xyz
  1  'x, y, z'
loop_
 _atom_site_type_symbol
 _atom_site_label
 _atom_site_symmetry_multiplicity
 _atom_site_fract_x
 _atom_site_fract_y
 _atom_site_fract_z
 _atom_site_occupancy
  Y  Y0  1  0.188971  0.186381  0.812388  1
  Er  Er1  1  0.595613  0.596650  0.596519  1
  Er  Er2  1  0.598229  0.598265  0.204897  1
  Er  Er3  1  0.599339  0.204755  0.597952  1
  Er  Er4  1  0.204044  0.598872  0.597533  1
  Er  Er5  1  0.061368  0.439687  0.438697  1
  Er  Er6  1  0.439519  0.061829  0.062429  1
  Er  Er7  1  0.438702  0.062364  0.437501  1
  Er  Er8  1  0.061168  0.440824  0.060965  1
  Er  Er9  1  0.438363  0.438100  0.062644  1
  Er  Er10  1  0.061437  0.060810  0.440193  1
  Er  Er11  1  0.188614  0.813557  0.814464  1
  Er  Er12  1  0.812550  0.187218  0.187649  1
  Er  Er13  1  0.813294  0.186773  0.813235  1
  Er  Er14  1  0.189583  0.811166  0.187351  1
  Er  Er15  1  0.814332  0.813327  0.186513  1
  Cd  Cd16  1  0.504004  0.830934  0.831509  1
  In  In17  1  0.831960  0.833345  0.833306  1
  In  In18  1  0.830126  0.832911  0.503159  1
  In  In19  1  0.829829  0.503523  0.832967  1
  Ni  Ni20  1  0.392849  0.392858  0.392363  1
  Ni  Ni21  1  0.391366  0.390939  0.823775  1
  Ni  Ni22  1  0.391250  0.823679  0.390852  1
  Ni  Ni23  1  0.823490  0.391232  0.391139  1
