# generated using pymatgen
data_HfSc3(P3Rh4)2
_symmetry_space_group_name_H-M   'P 1'
_cell_length_a   12.73625792
_cell_length_b   12.78716926
_cell_length_c   3.85051400
_cell_angle_alpha   90.00000000
_cell_angle_beta   90.00000000
_cell_angle_gamma   120.05360472
_symmetry_Int_Tables_number   1
_chemical_formula_structural   HfSc3(P3Rh4)2
_chemical_formula_sum   'Hf2 Sc6 P12 Rh16'
_cell_volume   542.78864881
_cell_formula_units_Z   2
loop_
 _symmetry_equiv_pos_site_id
 _symmetry_equiv_pos_as_xyz
  1  'x, y, z'
loop_
 _atom_site_type_symbol
 _atom_site_label
 _atom_site_symmetry_multiplicity
 _atom_site_fract_x
 _atom_site_fract_y
 _atom_site_fract_z
 _atom_site_occupancy
  Hf  Hf0  1  0.000551  0.554930  0.000000  1
  Hf  Hf1  1  0.187878  0.998404  0.500000  1
  Sc  Sc2  1  0.814087  0.813215  0.500000  1
  Sc  Sc3  1  0.445398  0.444115  0.000000  1
  Sc  Sc4  1  0.999361  0.185543  0.500000  1
  Sc  Sc5  1  0.554843  0.999591  0.000000  1
  Sc  Sc6  1  0.333428  0.666373  0.000000  1
  Sc  Sc7  1  0.667180  0.333090  0.000000  1
  P  P8  1  0.999771  0.348286  0.000000  1
  P  P9  1  0.828233  0.515257  0.500000  1
  P  P10  1  0.686481  0.172321  0.500000  1
  P  P11  1  0.173704  0.174411  0.000000  1
  P  P12  1  0.649444  0.650538  0.000000  1
  P  P13  1  0.826701  0.000165  0.000000  1
  P  P14  1  0.514344  0.826674  0.500000  1
  P  P15  1  0.171956  0.686530  0.500000  1
  P  P16  1  0.349933  0.000504  0.000000  1
  P  P17  1  0.485516  0.312844  0.500000  1
  P  P18  1  0.999221  0.828148  0.000000  1
  P  P19  1  0.314150  0.485547  0.500000  1
  Rh  Rh20  1  0.629121  0.822798  0.000000  1
  Rh  Rh21  1  0.368585  0.191061  0.000000  1
  Rh  Rh22  1  0.001122  0.723510  0.500000  1
  Rh  Rh23  1  0.277214  0.276845  0.500000  1
  Rh  Rh24  1  0.869408  0.358123  0.500000  1
  Rh  Rh25  1  0.721707  0.000611  0.500000  1
  Rh  Rh26  1  0.822975  0.630386  0.000000  1
  Rh  Rh27  1  0.176858  0.809332  0.000000  1
  Rh  Rh28  1  0.356270  0.868302  0.500000  1
  Rh  Rh29  1  0.131468  0.489084  0.500000  1
  Rh  Rh30  1  0.642607  0.510279  0.500000  1
  Rh  Rh31  1  0.001445  0.001456  0.000000  1
  Rh  Rh32  1  0.513681  0.642829  0.500000  1
  Rh  Rh33  1  0.485612  0.129425  0.500000  1
  Rh  Rh34  1  0.193464  0.371426  0.000000  1
  Rh  Rh35  1  0.806286  0.178046  0.000000  1
