# generated using pymatgen
data_Ba4Hf3ZrSe12
_symmetry_space_group_name_H-M   'P 1'
_cell_length_a   4.05241400
_cell_length_b   9.15718513
_cell_length_c   15.14240586
_cell_angle_alpha   89.94319881
_cell_angle_beta   90.00000000
_cell_angle_gamma   90.00000000
_symmetry_Int_Tables_number   1
_chemical_formula_structural   Ba4Hf3ZrSe12
_chemical_formula_sum   'Ba4 Hf3 Zr1 Se12'
_cell_volume   561.91479897
_cell_formula_units_Z   1
loop_
 _symmetry_equiv_pos_site_id
 _symmetry_equiv_pos_as_xyz
  1  'x, y, z'
loop_
 _atom_site_type_symbol
 _atom_site_label
 _atom_site_symmetry_multiplicity
 _atom_site_fract_x
 _atom_site_fract_y
 _atom_site_fract_z
 _atom_site_occupancy
  Ba  Ba0  1  0.750000  0.566136  0.174824  1
  Ba  Ba1  1  0.250000  0.432834  0.825528  1
  Ba  Ba2  1  0.750000  0.066729  0.325500  1
  Ba  Ba3  1  0.250000  0.933853  0.674300  1
  Hf  Hf4  1  0.250000  0.663311  0.441178  1
  Hf  Hf5  1  0.750000  0.336839  0.558758  1
  Hf  Hf6  1  0.250000  0.162857  0.058987  1
  Zr  Zr7  1  0.750000  0.835944  0.940562  1
  Se  Se8  1  0.750000  0.829708  0.504248  1
  Se  Se9  1  0.250000  0.170343  0.495868  1
  Se  Se10  1  0.750000  0.329929  0.995810  1
  Se  Se11  1  0.250000  0.667884  0.005501  1
  Se  Se12  1  0.250000  0.523765  0.603693  1
  Se  Se13  1  0.750000  0.476167  0.396381  1
  Se  Se14  1  0.250000  0.027215  0.895628  1
  Se  Se15  1  0.750000  0.977418  0.105200  1
  Se  Se16  1  0.250000  0.784860  0.288064  1
  Se  Se17  1  0.750000  0.215174  0.712030  1
  Se  Se18  1  0.250000  0.285174  0.211954  1
  Se  Se19  1  0.750000  0.713859  0.785986  1
