# generated using pymatgen
data_Mg2Mn4Ni8P7
_symmetry_space_group_name_H-M   'P 1'
_cell_length_a   9.10625245
_cell_length_b   9.09324696
_cell_length_c   3.55063900
_cell_angle_alpha   90.00000000
_cell_angle_beta   90.00000000
_cell_angle_gamma   120.01128349
_symmetry_Int_Tables_number   1
_chemical_formula_structural   Mg2Mn4Ni8P7
_chemical_formula_sum   'Mg2 Mn4 Ni8 P7'
_cell_volume   254.59298456
_cell_formula_units_Z   1
loop_
 _symmetry_equiv_pos_site_id
 _symmetry_equiv_pos_as_xyz
  1  'x, y, z'
loop_
 _atom_site_type_symbol
 _atom_site_label
 _atom_site_symmetry_multiplicity
 _atom_site_fract_x
 _atom_site_fract_y
 _atom_site_fract_z
 _atom_site_occupancy
  Mg  Mg0  1  0.667705  0.333314  0.000000  1
  Mg  Mg1  1  0.331956  0.665981  0.500000  1
  Mn  Mn2  1  0.840296  0.121187  0.000000  1
  Mn  Mn3  1  0.124362  0.905073  0.500000  1
  Mn  Mn4  1  0.098295  0.220894  0.500000  1
  Mn  Mn5  1  0.775081  0.872018  0.500000  1
  Ni  Ni6  1  0.374570  0.934632  0.000000  1
  Ni  Ni7  1  0.070094  0.442339  0.000000  1
  Ni  Ni8  1  0.561115  0.626107  0.000000  1
  Ni  Ni9  1  0.878460  0.721570  0.000000  1
  Ni  Ni10  1  0.280496  0.157892  0.000000  1
  Ni  Ni11  1  0.941773  0.557855  0.500000  1
  Ni  Ni12  1  0.442633  0.384838  0.500000  1
  Ni  Ni13  1  0.612951  0.056154  0.500000  1
  P  P14  1  0.118860  0.708406  0.000000  1
  P  P15  1  0.292844  0.410930  0.000000  1
  P  P16  1  0.589162  0.881528  0.000000  1
  P  P17  1  0.709521  0.588997  0.500000  1
  P  P18  1  0.407810  0.117555  0.500000  1
  P  P19  1  0.882953  0.290049  0.500000  1
  P  P20  1  0.999062  0.002684  0.000000  1
