# generated using pymatgen
data_Er6ScNb(Co4P3)4
_symmetry_space_group_name_H-M   'P 1'
_cell_length_a   3.69421300
_cell_length_b   10.61342000
_cell_length_c   12.29237900
_cell_angle_alpha   90.00000000
_cell_angle_beta   90.00000000
_cell_angle_gamma   90.00000000
_symmetry_Int_Tables_number   1
_chemical_formula_structural   Er6ScNb(Co4P3)4
_chemical_formula_sum   'Er6 Sc1 Nb1 Co16 P12'
_cell_volume   481.96247395
_cell_formula_units_Z   1
loop_
 _symmetry_equiv_pos_site_id
 _symmetry_equiv_pos_as_xyz
  1  'x, y, z'
loop_
 _atom_site_type_symbol
 _atom_site_label
 _atom_site_symmetry_multiplicity
 _atom_site_fract_x
 _atom_site_fract_y
 _atom_site_fract_z
 _atom_site_occupancy
  Er  Er0  1  0.750000  0.250000  0.472390  1
  Er  Er1  1  0.250000  0.750000  0.527945  1
  Er  Er2  1  0.250000  0.929736  0.795230  1
  Er  Er3  1  0.250000  0.570264  0.795230  1
  Er  Er4  1  0.750000  0.072002  0.205086  1
  Er  Er5  1  0.750000  0.427998  0.205086  1
  Sc  Sc6  1  0.750000  0.750000  0.156099  1
  Nb  Nb7  1  0.250000  0.250000  0.841478  1
  Co  Co8  1  0.250000  0.250000  0.297163  1
  Co  Co9  1  0.750000  0.750000  0.703558  1
  Co  Co10  1  0.750000  0.250000  0.012561  1
  Co  Co11  1  0.250000  0.750000  0.985697  1
  Co  Co12  1  0.250000  0.416240  0.006532  1
  Co  Co13  1  0.250000  0.083760  0.006532  1
  Co  Co14  1  0.750000  0.579898  0.992885  1
  Co  Co15  1  0.750000  0.920102  0.992885  1
  Co  Co16  1  0.250000  0.454150  0.567993  1
  Co  Co17  1  0.250000  0.045850  0.567993  1
  Co  Co18  1  0.750000  0.545171  0.433869  1
  Co  Co19  1  0.750000  0.954829  0.433869  1
  Co  Co20  1  0.250000  0.873150  0.297236  1
  Co  Co21  1  0.250000  0.626850  0.297236  1
  Co  Co22  1  0.750000  0.127503  0.703273  1
  Co  Co23  1  0.750000  0.372497  0.703273  1
  P  P24  1  0.250000  0.250000  0.117313  1
  P  P25  1  0.750000  0.750000  0.883630  1
  P  P26  1  0.250000  0.250000  0.641007  1
  P  P27  1  0.750000  0.750000  0.359907  1
  P  P28  1  0.250000  0.439086  0.384243  1
  P  P29  1  0.250000  0.060914  0.384243  1
  P  P30  1  0.750000  0.561395  0.616417  1
  P  P31  1  0.750000  0.938605  0.616417  1
  P  P32  1  0.250000  0.910872  0.106745  1
  P  P33  1  0.250000  0.589128  0.106745  1
  P  P34  1  0.750000  0.090718  0.891117  1
  P  P35  1  0.750000  0.409282  0.891117  1
