# generated using pymatgen
data_Ca4P6SN12
_symmetry_space_group_name_H-M   'P 1'
_cell_length_a   7.53902939
_cell_length_b   7.53902990
_cell_length_c   7.53903000
_cell_angle_alpha   109.47122089
_cell_angle_beta   109.47122228
_cell_angle_gamma   109.47122140
_symmetry_Int_Tables_number   1
_chemical_formula_structural   Ca4P6SN12
_chemical_formula_sum   'Ca4 P6 S1 N12'
_cell_volume   329.85606114
_cell_formula_units_Z   1
loop_
 _symmetry_equiv_pos_site_id
 _symmetry_equiv_pos_as_xyz
  1  'x, y, z'
loop_
 _atom_site_type_symbol
 _atom_site_label
 _atom_site_symmetry_multiplicity
 _atom_site_fract_x
 _atom_site_fract_y
 _atom_site_fract_z
 _atom_site_occupancy
  Ca  Ca0  1  0.642189  0.000000  0.000000  1
  Ca  Ca1  1  0.000000  0.000000  0.642189  1
  Ca  Ca2  1  0.000000  0.642189  0.000000  1
  Ca  Ca3  1  0.357811  0.357811  0.357811  1
  P  P4  1  0.250000  0.750000  0.500000  1
  P  P5  1  0.750000  0.250000  0.500000  1
  P  P6  1  0.750000  0.500000  0.250000  1
  P  P7  1  0.250000  0.500000  0.750000  1
  P  P8  1  0.500000  0.750000  0.250000  1
  P  P9  1  0.500000  0.250000  0.750000  1
  S  S10  1  0.000000  0.000000  0.000000  1
  N  N11  1  0.699422  0.298127  0.298127  1
  N  N12  1  0.298127  0.699422  0.298127  1
  N  N13  1  0.300578  0.598705  0.598705  1
  N  N14  1  0.598705  0.598705  0.300578  1
  N  N15  1  0.401295  0.701873  0.000000  1
  N  N16  1  0.000000  0.701873  0.401295  1
  N  N17  1  0.598705  0.300578  0.598705  1
  N  N18  1  0.701873  0.000000  0.401295  1
  N  N19  1  0.401295  0.000000  0.701873  1
  N  N20  1  0.701873  0.401295  0.000000  1
  N  N21  1  0.298127  0.298127  0.699422  1
  N  N22  1  0.000000  0.401295  0.701873  1
