# generated using pymatgen
data_Dy2Ho3Fe12Co4(MoP4)3
_symmetry_space_group_name_H-M   'P 1'
_cell_length_a   12.05999800
_cell_length_b   12.05999881
_cell_length_c   3.70160600
_cell_angle_alpha   90.00000000
_cell_angle_beta   90.00000000
_cell_angle_gamma   120.00000325
_symmetry_Int_Tables_number   1
_chemical_formula_structural   Dy2Ho3Fe12Co4(MoP4)3
_chemical_formula_sum   'Dy2 Ho3 Fe12 Co4 Mo3 P12'
_cell_volume   466.24620379
_cell_formula_units_Z   1
loop_
 _symmetry_equiv_pos_site_id
 _symmetry_equiv_pos_as_xyz
  1  'x, y, z'
loop_
 _atom_site_type_symbol
 _atom_site_label
 _atom_site_symmetry_multiplicity
 _atom_site_fract_x
 _atom_site_fract_y
 _atom_site_fract_z
 _atom_site_occupancy
  Dy  Dy0  1  0.666667  0.333333  0.000000  1
  Dy  Dy1  1  0.333333  0.666667  0.000000  1
  Ho  Ho2  1  0.816665  0.819277  0.500000  1
  Ho  Ho3  1  0.180723  0.997388  0.500000  1
  Ho  Ho4  1  0.002612  0.183335  0.500000  1
  Fe  Fe5  1  0.878089  0.353905  0.500000  1
  Fe  Fe6  1  0.646095  0.524184  0.500000  1
  Fe  Fe7  1  0.475816  0.121911  0.500000  1
  Fe  Fe8  1  0.353683  0.874137  0.500000  1
  Fe  Fe9  1  0.520455  0.646317  0.500000  1
  Fe  Fe10  1  0.125863  0.479545  0.500000  1
  Fe  Fe11  1  0.805067  0.183483  0.000000  1
  Fe  Fe12  1  0.816517  0.621583  0.000000  1
  Fe  Fe13  1  0.378417  0.194933  0.000000  1
  Fe  Fe14  1  0.281796  0.281007  0.500000  1
  Fe  Fe15  1  0.718993  0.000789  0.500000  1
  Fe  Fe16  1  0.999211  0.718204  0.500000  1
  Co  Co17  1  0.176714  0.801867  0.000000  1
  Co  Co18  1  0.625152  0.823286  0.000000  1
  Co  Co19  1  0.198133  0.374848  0.000000  1
  Co  Co20  1  0.000000  0.000000  0.000000  1
  Mo  Mo21  1  0.443580  0.441526  0.000000  1
  Mo  Mo22  1  0.558474  0.002054  0.000000  1
  Mo  Mo23  1  0.997946  0.556420  0.000000  1
  P  P24  1  0.687286  0.165723  0.500000  1
  P  P25  1  0.834277  0.521564  0.500000  1
  P  P26  1  0.478436  0.312714  0.500000  1
  P  P27  1  0.165398  0.685710  0.500000  1
  P  P28  1  0.520313  0.834602  0.500000  1
  P  P29  1  0.314290  0.479687  0.500000  1
  P  P30  1  0.183570  0.180504  0.000000  1
  P  P31  1  0.819496  0.003065  0.000000  1
  P  P32  1  0.996935  0.816430  0.000000  1
  P  P33  1  0.637086  0.642904  0.000000  1
  P  P34  1  0.357096  0.994182  0.000000  1
  P  P35  1  0.005818  0.362914  0.000000  1
