# generated using pymatgen
data_Nb2AlH
_symmetry_space_group_name_H-M   'P 1'
_cell_length_a   5.27040637
_cell_length_b   5.27040614
_cell_length_c   5.27040619
_cell_angle_alpha   104.68636870
_cell_angle_beta   104.68637070
_cell_angle_gamma   119.53429297
_symmetry_Int_Tables_number   1
_chemical_formula_structural   Nb2AlH
_chemical_formula_sum   'Nb4 Al2 H2'
_cell_volume   110.04965427
_cell_formula_units_Z   2
loop_
 _symmetry_equiv_pos_site_id
 _symmetry_equiv_pos_as_xyz
  1  'x, y, z'
loop_
 _atom_site_type_symbol
 _atom_site_label
 _atom_site_symmetry_multiplicity
 _atom_site_fract_x
 _atom_site_fract_y
 _atom_site_fract_z
 _atom_site_occupancy
  Nb  Nb0  1  0.164068  0.664068  0.828136  1
  Nb  Nb1  1  0.835932  0.335932  0.171864  1
  Nb  Nb2  1  0.335932  0.164068  0.500000  1
  Nb  Nb3  1  0.664068  0.835932  0.500000  1
  Al  Al4  1  0.250000  0.250000  0.000000  1
  Al  Al5  1  0.750000  0.750000  0.000000  1
  H  H6  1  0.750000  0.250000  0.500000  1
  H  H7  1  0.250000  0.750000  0.500000  1
