# generated using pymatgen
data_Sc11FeOs2Ru
_symmetry_space_group_name_H-M   'P 1'
_cell_length_a   9.35872220
_cell_length_b   9.36729499
_cell_length_c   9.36729384
_cell_angle_alpha   60.55648151
_cell_angle_beta   60.75620321
_cell_angle_gamma   60.75620243
_symmetry_Int_Tables_number   1
_chemical_formula_structural   Sc11FeOs2Ru
_chemical_formula_sum   'Sc22 Fe2 Os4 Ru2'
_cell_volume   589.70479692
_cell_formula_units_Z   2
loop_
 _symmetry_equiv_pos_site_id
 _symmetry_equiv_pos_as_xyz
  1  'x, y, z'
loop_
 _atom_site_type_symbol
 _atom_site_label
 _atom_site_symmetry_multiplicity
 _atom_site_fract_x
 _atom_site_fract_y
 _atom_site_fract_z
 _atom_site_occupancy
  Sc  Sc0  1  0.804835  0.807436  0.194100  1
  Sc  Sc1  1  0.195165  0.805900  0.192564  1
  Sc  Sc2  1  0.804702  0.194133  0.194133  1
  Sc  Sc3  1  0.195165  0.192564  0.805900  1
  Sc  Sc4  1  0.804835  0.194100  0.807436  1
  Sc  Sc5  1  0.195298  0.805867  0.805867  1
  Sc  Sc6  1  0.611625  0.614603  0.156230  1
  Sc  Sc7  1  0.611625  0.156230  0.614603  1
  Sc  Sc8  1  0.157720  0.612127  0.612127  1
  Sc  Sc9  1  0.617247  0.617075  0.617075  1
  Sc  Sc10  1  0.388375  0.385397  0.843770  1
  Sc  Sc11  1  0.388375  0.843770  0.385397  1
  Sc  Sc12  1  0.842280  0.387873  0.387873  1
  Sc  Sc13  1  0.382753  0.382925  0.382925  1
  Sc  Sc14  1  0.845698  0.845145  0.469726  1
  Sc  Sc15  1  0.845698  0.469726  0.845145  1
  Sc  Sc16  1  0.470905  0.843993  0.843993  1
  Sc  Sc17  1  0.843003  0.841443  0.841443  1
  Sc  Sc18  1  0.154302  0.154855  0.530274  1
  Sc  Sc19  1  0.154302  0.530274  0.154855  1
  Sc  Sc20  1  0.529095  0.156007  0.156007  1
  Sc  Sc21  1  0.156997  0.158557  0.158557  1
  Fe  Fe22  1  0.000000  0.000000  0.000000  1
  Fe  Fe23  1  0.500000  0.500000  0.500000  1
  Os  Os24  1  0.500000  0.000000  0.500000  1
  Os  Os25  1  0.000000  0.500000  0.500000  1
  Os  Os26  1  0.500000  0.500000  0.000000  1
  Os  Os27  1  0.500000  0.000000  0.000000  1
  Ru  Ru28  1  0.000000  0.000000  0.500000  1
  Ru  Ru29  1  0.000000  0.500000  0.000000  1
