# generated using pymatgen
data_LiYb2NpO6
_symmetry_space_group_name_H-M   'P 1'
_cell_length_a   5.61699400
_cell_length_b   5.45509025
_cell_length_c   9.49717800
_cell_angle_alpha   57.47706839
_cell_angle_beta   90.00000000
_cell_angle_gamma   90.00000000
_symmetry_Int_Tables_number   1
_chemical_formula_structural   LiYb2NpO6
_chemical_formula_sum   'Li2 Yb4 Np2 O12'
_cell_volume   245.36854428
_cell_formula_units_Z   2
loop_
 _symmetry_equiv_pos_site_id
 _symmetry_equiv_pos_as_xyz
  1  'x, y, z'
loop_
 _atom_site_type_symbol
 _atom_site_label
 _atom_site_symmetry_multiplicity
 _atom_site_fract_x
 _atom_site_fract_y
 _atom_site_fract_z
 _atom_site_occupancy
  Li  Li0  1  0.500000  0.500000  0.000000  1
  Li  Li1  1  0.000000  0.500000  0.500000  1
  Yb  Yb2  1  0.060666  0.710861  0.758895  1
  Yb  Yb3  1  0.939334  0.289139  0.241105  1
  Yb  Yb4  1  0.560666  0.289139  0.741105  1
  Yb  Yb5  1  0.439334  0.710861  0.258895  1
  Np  Np6  1  0.500000  0.000000  0.500000  1
  Np  Np7  1  0.000000  0.000000  0.000000  1
  O  O8  1  0.302466  0.652229  0.553503  1
  O  O9  1  0.697534  0.347771  0.446497  1
  O  O10  1  0.802466  0.347771  0.946497  1
  O  O11  1  0.197534  0.652229  0.053503  1
  O  O12  1  0.447476  0.889982  0.735335  1
  O  O13  1  0.552524  0.110018  0.264665  1
  O  O14  1  0.947476  0.110018  0.764665  1
  O  O15  1  0.052524  0.889982  0.235335  1
  O  O16  1  0.784722  0.731111  0.573801  1
  O  O17  1  0.215278  0.268889  0.426199  1
  O  O18  1  0.284722  0.268889  0.926199  1
  O  O19  1  0.715278  0.731111  0.073801  1
