# generated using pymatgen
data_CeCu2SbPt3
_symmetry_space_group_name_H-M   'P 1'
_cell_length_a   5.22720233
_cell_length_b   5.22720300
_cell_length_c   10.80991451
_cell_angle_alpha   76.86835337
_cell_angle_beta   76.86835076
_cell_angle_gamma   59.31725745
_symmetry_Int_Tables_number   1
_chemical_formula_structural   CeCu2SbPt3
_chemical_formula_sum   'Ce2 Cu4 Sb2 Pt6'
_cell_volume   245.18195571
_cell_formula_units_Z   2
loop_
 _symmetry_equiv_pos_site_id
 _symmetry_equiv_pos_as_xyz
  1  'x, y, z'
loop_
 _atom_site_type_symbol
 _atom_site_label
 _atom_site_symmetry_multiplicity
 _atom_site_fract_x
 _atom_site_fract_y
 _atom_site_fract_z
 _atom_site_occupancy
  Ce  Ce0  1  0.500000  0.500000  0.000000  1
  Ce  Ce1  1  0.000000  0.000000  0.500000  1
  Cu  Cu2  1  0.569851  0.066265  0.286166  1
  Cu  Cu3  1  0.066265  0.569851  0.286166  1
  Cu  Cu4  1  0.430149  0.933735  0.713834  1
  Cu  Cu5  1  0.933735  0.430149  0.713834  1
  Sb  Sb6  1  0.102367  0.102367  0.186098  1
  Sb  Sb7  1  0.897633  0.897633  0.813902  1
  Pt  Pt8  1  0.570244  0.570244  0.273520  1
  Pt  Pt9  1  0.429756  0.429756  0.726480  1
  Pt  Pt10  1  0.822723  0.822723  0.061956  1
  Pt  Pt11  1  0.177277  0.177277  0.938044  1
  Pt  Pt12  1  0.329304  0.329304  0.496939  1
  Pt  Pt13  1  0.670696  0.670696  0.503061  1
