# generated using pymatgen
data_Ac5LaPr2(Si4I3)2
_symmetry_space_group_name_H-M   'P 1'
_cell_length_a   12.71403576
_cell_length_b   12.71403479
_cell_length_c   12.82840582
_cell_angle_alpha   82.98433057
_cell_angle_beta   82.98433065
_cell_angle_gamma   19.71839098
_symmetry_Int_Tables_number   1
_chemical_formula_structural   Ac5LaPr2(Si4I3)2
_chemical_formula_sum   'Ac5 La1 Pr2 Si8 I6'
_cell_volume   694.25345900
_cell_formula_units_Z   1
loop_
 _symmetry_equiv_pos_site_id
 _symmetry_equiv_pos_as_xyz
  1  'x, y, z'
loop_
 _atom_site_type_symbol
 _atom_site_label
 _atom_site_symmetry_multiplicity
 _atom_site_fract_x
 _atom_site_fract_y
 _atom_site_fract_z
 _atom_site_occupancy
  Ac  Ac0  1  0.495108  0.495108  0.165055  1
  Ac  Ac1  1  0.924162  0.924162  0.445802  1
  Ac  Ac2  1  0.352925  0.352925  0.019907  1
  Ac  Ac3  1  0.076708  0.076708  0.556569  1
  Ac  Ac4  1  0.647015  0.647015  0.978094  1
  La  La5  1  0.502525  0.502525  0.835984  1
  Pr  Pr6  1  0.634243  0.634243  0.290382  1
  Pr  Pr7  1  0.366327  0.366327  0.708881  1
  Si  Si8  1  0.524010  0.524010  0.407945  1
  Si  Si9  1  0.041176  0.041176  0.324136  1
  Si  Si10  1  0.049366  0.049366  0.985636  1
  Si  Si11  1  0.477140  0.477140  0.595890  1
  Si  Si12  1  0.906940  0.906940  0.854103  1
  Si  Si13  1  0.951158  0.951158  0.007572  1
  Si  Si14  1  0.960083  0.960083  0.678411  1
  Si  Si15  1  0.093688  0.093688  0.142557  1
  I  I16  1  0.247618  0.247618  0.864948  1
  I  I17  1  0.752772  0.752772  0.133881  1
  I  I18  1  0.800727  0.800727  0.581939  1
  I  I19  1  0.364765  0.364765  0.287818  1
  I  I20  1  0.199568  0.199568  0.418229  1
  I  I21  1  0.631975  0.631975  0.716264  1
