# generated using pymatgen
data_CaSm3(Ga8Pd3)3
_symmetry_space_group_name_H-M   'P 1'
_cell_length_a   7.59904196
_cell_length_b   7.63316242
_cell_length_c   13.42083000
_cell_angle_alpha   84.89598033
_cell_angle_beta   100.43668642
_cell_angle_gamma   119.79917741
_symmetry_Int_Tables_number   1
_chemical_formula_structural   CaSm3(Ga8Pd3)3
_chemical_formula_sum   'Ca1 Sm3 Ga24 Pd9'
_cell_volume   664.35943605
_cell_formula_units_Z   1
loop_
 _symmetry_equiv_pos_site_id
 _symmetry_equiv_pos_as_xyz
  1  'x, y, z'
loop_
 _atom_site_type_symbol
 _atom_site_label
 _atom_site_symmetry_multiplicity
 _atom_site_fract_x
 _atom_site_fract_y
 _atom_site_fract_z
 _atom_site_occupancy
  Ca  Ca0  1  0.436408  0.831050  0.809112  1
  Sm  Sm1  1  0.563508  0.168519  0.189936  1
  Sm  Sm2  1  0.771234  0.502402  0.811095  1
  Sm  Sm3  1  0.229246  0.497722  0.189645  1
  Ga  Ga4  1  0.478066  0.167128  0.941289  1
  Ga  Ga5  1  0.521180  0.833118  0.060760  1
  Ga  Ga6  1  0.021946  0.165992  0.557829  1
  Ga  Ga7  1  0.977996  0.833857  0.441420  1
  Ga  Ga8  1  0.354043  0.832933  0.555162  1
  Ga  Ga9  1  0.645701  0.167234  0.443270  1
  Ga  Ga10  1  0.614840  0.835315  0.326667  1
  Ga  Ga11  1  0.383606  0.165836  0.671803  1
  Ga  Ga12  1  0.057492  0.493991  0.670657  1
  Ga  Ga13  1  0.940809  0.504643  0.327811  1
  Ga  Ga14  1  0.732142  0.838890  0.668755  1
  Ga  Ga15  1  0.269500  0.161859  0.328994  1
  Ga  Ga16  1  0.145376  0.499140  0.942239  1
  Ga  Ga17  1  0.854842  0.499732  0.059469  1
  Ga  Ga18  1  0.816836  0.833692  0.949478  1
  Ga  Ga19  1  0.185695  0.167287  0.053665  1
  Ga  Ga20  1  0.312337  0.499993  0.442233  1
  Ga  Ga21  1  0.687471  0.500004  0.557052  1
  Ga  Ga22  1  0.100436  0.835626  0.182426  1
  Ga  Ga23  1  0.900862  0.166908  0.817476  1
  Ga  Ga24  1  0.308831  0.367237  0.816702  1
  Ga  Ga25  1  0.692354  0.630420  0.183718  1
  Ga  Ga26  1  0.100528  0.959833  0.816754  1
  Ga  Ga27  1  0.897418  0.039059  0.183679  1
  Pd  Pd28  1  0.385584  0.504849  0.637455  1
  Pd  Pd29  1  0.614259  0.497492  0.362688  1
  Pd  Pd30  1  0.171878  0.830480  0.999483  1
  Pd  Pd31  1  0.827960  0.168603  0.001515  1
  Pd  Pd32  1  0.290271  0.833047  0.361199  1
  Pd  Pd33  1  0.707296  0.164768  0.638346  1
  Pd  Pd34  1  0.050911  0.829147  0.636977  1
  Pd  Pd35  1  0.951296  0.171237  0.362810  1
  Pd  Pd36  1  0.499842  0.500957  0.000428  1
