# generated using pymatgen
data_Zr10CuSn7
_symmetry_space_group_name_H-M   'P 1'
_cell_length_a   5.91791001
_cell_length_b   8.78340462
_cell_length_c   8.78349200
_cell_angle_alpha   119.99966753
_cell_angle_beta   89.99970614
_cell_angle_gamma   90.00058379
_symmetry_Int_Tables_number   1
_chemical_formula_structural   Zr10CuSn7
_chemical_formula_sum   'Zr10 Cu1 Sn7'
_cell_volume   395.39442682
_cell_formula_units_Z   1
loop_
 _symmetry_equiv_pos_site_id
 _symmetry_equiv_pos_as_xyz
  1  'x, y, z'
loop_
 _atom_site_type_symbol
 _atom_site_label
 _atom_site_symmetry_multiplicity
 _atom_site_fract_x
 _atom_site_fract_y
 _atom_site_fract_z
 _atom_site_occupancy
  Zr  Zr0  1  0.500002  0.333342  0.666683  1
  Zr  Zr1  1  0.500002  0.666659  0.333317  1
  Zr  Zr2  1  0.999999  0.666661  0.333326  1
  Zr  Zr3  1  0.999999  0.333335  0.666674  1
  Zr  Zr4  1  0.739247  0.273124  0.000000  1
  Zr  Zr5  1  0.739268  0.726881  0.726856  1
  Zr  Zr6  1  0.739268  0.000024  0.273144  1
  Zr  Zr7  1  0.260746  0.726880  0.000000  1
  Zr  Zr8  1  0.260734  0.273116  0.273140  1
  Zr  Zr9  1  0.260734  0.999976  0.726860  1
  Cu  Cu10  1  0.499998  0.000000  0.000000  1
  Sn  Sn11  1  0.753491  0.615274  0.000000  1
  Sn  Sn12  1  0.753478  0.384748  0.384754  1
  Sn  Sn13  1  0.753478  0.999994  0.615246  1
  Sn  Sn14  1  0.246504  0.384725  0.000000  1
  Sn  Sn15  1  0.246528  0.615250  0.615244  1
  Sn  Sn16  1  0.246528  0.000007  0.384756  1
  Sn  Sn17  1  0.999997  0.000002  0.000000  1
