# generated using pymatgen
data_K4In3SbI16
_symmetry_space_group_name_H-M   'P 1'
_cell_length_a   8.71021641
_cell_length_b   8.67179943
_cell_length_c   17.62861822
_cell_angle_alpha   76.98965601
_cell_angle_beta   90.20447839
_cell_angle_gamma   94.01086635
_symmetry_Int_Tables_number   1
_chemical_formula_structural   K4In3SbI16
_chemical_formula_sum   'K4 In3 Sb1 I16'
_cell_volume   1294.08617344
_cell_formula_units_Z   1
loop_
 _symmetry_equiv_pos_site_id
 _symmetry_equiv_pos_as_xyz
  1  'x, y, z'
loop_
 _atom_site_type_symbol
 _atom_site_label
 _atom_site_symmetry_multiplicity
 _atom_site_fract_x
 _atom_site_fract_y
 _atom_site_fract_z
 _atom_site_occupancy
  K  K0  1  0.492359  0.232583  0.646282  1
  K  K1  1  0.956157  0.727630  0.844545  1
  K  K2  1  0.513572  0.753737  0.349838  1
  K  K3  1  0.018217  0.277407  0.158146  1
  In  In4  1  0.366949  0.244144  0.363589  1
  In  In5  1  0.866571  0.774547  0.135862  1
  In  In6  1  0.634766  0.748167  0.632346  1
  Sb  Sb7  1  0.168410  0.211433  0.888330  1
  I  I8  1  0.855033  0.101444  0.899103  1
  I  I9  1  0.348108  0.846777  0.588087  1
  I  I10  1  0.153566  0.928104  0.089365  1
  I  I11  1  0.650161  0.127582  0.402964  1
  I  I12  1  0.386749  0.471733  0.224812  1
  I  I13  1  0.896955  0.567110  0.278689  1
  I  I14  1  0.629577  0.519957  0.771666  1
  I  I15  1  0.143266  0.431236  0.744983  1
  I  I16  1  0.674776  0.003364  0.158948  1
  I  I17  1  0.160711  0.999928  0.342338  1
  I  I18  1  0.306473  0.969202  0.813998  1
  I  I19  1  0.832874  0.998136  0.653583  1
  I  I20  1  0.267583  0.401533  0.473456  1
  I  I21  1  0.737639  0.599865  0.036327  1
  I  I22  1  0.748523  0.594094  0.524599  1
  I  I23  1  0.191007  0.470288  0.978145  1
