# generated using pymatgen
data_LaPr17B6(C6Br5)2
_symmetry_space_group_name_H-M   'P 1'
_cell_length_a   3.85643600
_cell_length_b   7.83902600
_cell_length_c   33.14497600
_cell_angle_alpha   90.00000000
_cell_angle_beta   90.00000000
_cell_angle_gamma   90.00000000
_symmetry_Int_Tables_number   1
_chemical_formula_structural   LaPr17B6(C6Br5)2
_chemical_formula_sum   'La1 Pr17 B6 C12 Br10'
_cell_volume   1001.99589462
_cell_formula_units_Z   1
loop_
 _symmetry_equiv_pos_site_id
 _symmetry_equiv_pos_as_xyz
  1  'x, y, z'
loop_
 _atom_site_type_symbol
 _atom_site_label
 _atom_site_symmetry_multiplicity
 _atom_site_fract_x
 _atom_site_fract_y
 _atom_site_fract_z
 _atom_site_occupancy
  La  La0  1  0.750000  0.450540  0.750000  1
  Pr  Pr1  1  0.250000  0.193614  0.990565  1
  Pr  Pr2  1  0.250000  0.347699  0.865949  1
  Pr  Pr3  1  0.250000  0.915437  0.904687  1
  Pr  Pr4  1  0.750000  0.049484  0.694470  1
  Pr  Pr5  1  0.250000  0.551523  0.250000  1
  Pr  Pr6  1  0.750000  0.651961  0.134013  1
  Pr  Pr7  1  0.750000  0.806335  0.009531  1
  Pr  Pr8  1  0.750000  0.084545  0.095335  1
  Pr  Pr9  1  0.750000  0.651961  0.365987  1
  Pr  Pr10  1  0.750000  0.084545  0.404665  1
  Pr  Pr11  1  0.250000  0.949218  0.194660  1
  Pr  Pr12  1  0.250000  0.949218  0.305340  1
  Pr  Pr13  1  0.750000  0.806335  0.490469  1
  Pr  Pr14  1  0.750000  0.049484  0.805530  1
  Pr  Pr15  1  0.250000  0.915437  0.595313  1
  Pr  Pr16  1  0.250000  0.347699  0.634051  1
  Pr  Pr17  1  0.250000  0.193614  0.509435  1
  B  B18  1  0.750000  0.135930  0.920145  1
  B  B19  1  0.250000  0.863874  0.420065  1
  B  B20  1  0.750000  0.776272  0.250000  1
  B  B21  1  0.250000  0.863874  0.079935  1
  B  B22  1  0.750000  0.135930  0.579855  1
  B  B23  1  0.250000  0.222828  0.750000  1
  C  C24  1  0.250000  0.270843  0.793381  1
  C  C25  1  0.250000  0.970396  0.042905  1
  C  C26  1  0.750000  0.136373  0.875563  1
  C  C27  1  0.750000  0.029652  0.542803  1
  C  C28  1  0.250000  0.863287  0.375448  1
  C  C29  1  0.750000  0.728820  0.293426  1
  C  C30  1  0.250000  0.863287  0.124552  1
  C  C31  1  0.750000  0.029652  0.957197  1
  C  C32  1  0.750000  0.728820  0.206574  1
  C  C33  1  0.250000  0.970396  0.457095  1
  C  C34  1  0.250000  0.270843  0.706619  1
  C  C35  1  0.750000  0.136373  0.624437  1
  Br  Br36  1  0.750000  0.424502  0.452048  1
  Br  Br37  1  0.750000  0.676560  0.848787  1
  Br  Br38  1  0.250000  0.792965  0.750000  1
  Br  Br39  1  0.250000  0.575474  0.547980  1
  Br  Br40  1  0.250000  0.575474  0.952020  1
  Br  Br41  1  0.250000  0.322612  0.349011  1
  Br  Br42  1  0.750000  0.212638  0.250000  1
  Br  Br43  1  0.250000  0.322612  0.150989  1
  Br  Br44  1  0.750000  0.424502  0.047952  1
  Br  Br45  1  0.750000  0.676560  0.651213  1
