# generated using pymatgen
data_NbAg2AsF12
_symmetry_space_group_name_H-M   'P 1'
_cell_length_a   5.64988214
_cell_length_b   6.00914841
_cell_length_c   8.20556833
_cell_angle_alpha   96.94542641
_cell_angle_beta   89.74190571
_cell_angle_gamma   90.31841551
_symmetry_Int_Tables_number   1
_chemical_formula_structural   NbAg2AsF12
_chemical_formula_sum   'Nb1 Ag2 As1 F12'
_cell_volume   276.53642328
_cell_formula_units_Z   1
loop_
 _symmetry_equiv_pos_site_id
 _symmetry_equiv_pos_as_xyz
  1  'x, y, z'
loop_
 _atom_site_type_symbol
 _atom_site_label
 _atom_site_symmetry_multiplicity
 _atom_site_fract_x
 _atom_site_fract_y
 _atom_site_fract_z
 _atom_site_occupancy
  Nb  Nb0  1  0.000000  0.000000  0.500000  1
  Ag  Ag1  1  0.000000  0.000000  0.000000  1
  Ag  Ag2  1  0.500000  0.500000  0.500000  1
  As  As3  1  0.500000  0.500000  0.000000  1
  F  F4  1  0.884011  0.998797  0.723093  1
  F  F5  1  0.148859  0.289617  0.561200  1
  F  F6  1  0.249255  0.636744  0.927265  1
  F  F7  1  0.357871  0.492927  0.193565  1
  F  F8  1  0.372583  0.234490  0.928286  1
  F  F9  1  0.286829  0.851308  0.557148  1
  F  F10  1  0.713171  0.148692  0.442852  1
  F  F11  1  0.627417  0.765510  0.071714  1
  F  F12  1  0.642129  0.507073  0.806435  1
  F  F13  1  0.750745  0.363256  0.072735  1
  F  F14  1  0.851141  0.710383  0.438800  1
  F  F15  1  0.115989  0.001203  0.276907  1
