# generated using pymatgen
data_Lu2Mn3Fe8NiP7
_symmetry_space_group_name_H-M   'P 1'
_cell_length_a   9.00545162
_cell_length_b   9.02291217
_cell_length_c   3.59736800
_cell_angle_alpha   90.00000000
_cell_angle_beta   90.00000000
_cell_angle_gamma   119.74471975
_symmetry_Int_Tables_number   1
_chemical_formula_structural   Lu2Mn3Fe8NiP7
_chemical_formula_sum   'Lu2 Mn3 Fe8 Ni1 P7'
_cell_volume   253.79271735
_cell_formula_units_Z   1
loop_
 _symmetry_equiv_pos_site_id
 _symmetry_equiv_pos_as_xyz
  1  'x, y, z'
loop_
 _atom_site_type_symbol
 _atom_site_label
 _atom_site_symmetry_multiplicity
 _atom_site_fract_x
 _atom_site_fract_y
 _atom_site_fract_z
 _atom_site_occupancy
  Lu  Lu0  1  0.666338  0.332790  0.000000  1
  Lu  Lu1  1  0.002175  0.002044  0.500000  1
  Mn  Mn2  1  0.557868  0.770074  0.500000  1
  Mn  Mn3  1  0.230891  0.783724  0.500000  1
  Mn  Mn4  1  0.215042  0.445536  0.500000  1
  Fe  Fe5  1  0.274485  0.034797  0.000000  1
  Fe  Fe6  1  0.965020  0.240044  0.000000  1
  Fe  Fe7  1  0.487199  0.940427  0.000000  1
  Fe  Fe8  1  0.057466  0.546513  0.000000  1
  Fe  Fe9  1  0.452544  0.510116  0.000000  1
  Fe  Fe10  1  0.719186  0.103123  0.500000  1
  Fe  Fe11  1  0.895118  0.617251  0.500000  1
  Fe  Fe12  1  0.381874  0.278263  0.500000  1
  Ni  Ni13  1  0.763634  0.729424  0.000000  1
  P  P14  1  0.452699  0.075215  0.500000  1
  P  P15  1  0.924167  0.377898  0.500000  1
  P  P16  1  0.615653  0.539203  0.500000  1
  P  P17  1  0.747809  0.974778  0.000000  1
  P  P18  1  0.036377  0.780360  0.000000  1
  P  P19  1  0.221046  0.252567  0.000000  1
  P  P20  1  0.333407  0.665854  0.000000  1
