# generated using pymatgen
data_BaGeAsIr2
_symmetry_space_group_name_H-M   'P 1'
_cell_length_a   7.10645529
_cell_length_b   7.10645583
_cell_length_c   7.10645658
_cell_angle_alpha   146.09805854
_cell_angle_beta   146.09805148
_cell_angle_gamma   48.70113581
_symmetry_Int_Tables_number   1
_chemical_formula_structural   BaGeAsIr2
_chemical_formula_sum   'Ba1 Ge1 As1 Ir2'
_cell_volume   111.17123088
_cell_formula_units_Z   1
loop_
 _symmetry_equiv_pos_site_id
 _symmetry_equiv_pos_as_xyz
  1  'x, y, z'
loop_
 _atom_site_type_symbol
 _atom_site_label
 _atom_site_symmetry_multiplicity
 _atom_site_fract_x
 _atom_site_fract_y
 _atom_site_fract_z
 _atom_site_occupancy
  Ba  Ba0  1  0.000952  0.000952  0.000000  1
  Ge  Ge1  1  0.355459  0.355459  0.000000  1
  As  As2  1  0.646205  0.646205  0.000000  1
  Ir  Ir3  1  0.748692  0.248692  0.500000  1
  Ir  Ir4  1  0.248692  0.748692  0.500000  1
