# generated using pymatgen
data_Y4MgCo12P12Rh7
_symmetry_space_group_name_H-M   'P 1'
_cell_length_a   3.74301200
_cell_length_b   10.48540583
_cell_length_c   12.17969737
_cell_angle_alpha   89.84326264
_cell_angle_beta   90.00000000
_cell_angle_gamma   90.00000000
_symmetry_Int_Tables_number   1
_chemical_formula_structural   Y4MgCo12P12Rh7
_chemical_formula_sum   'Y4 Mg1 Co12 P12 Rh7'
_cell_volume   478.01479214
_cell_formula_units_Z   1
loop_
 _symmetry_equiv_pos_site_id
 _symmetry_equiv_pos_as_xyz
  1  'x, y, z'
loop_
 _atom_site_type_symbol
 _atom_site_label
 _atom_site_symmetry_multiplicity
 _atom_site_fract_x
 _atom_site_fract_y
 _atom_site_fract_z
 _atom_site_occupancy
  Y  Y0  1  0.250000  0.917496  0.207784  1
  Y  Y1  1  0.750000  0.083789  0.789836  1
  Y  Y2  1  0.750000  0.416953  0.288152  1
  Y  Y3  1  0.250000  0.582634  0.711860  1
  Mg  Mg4  1  0.250000  0.794480  0.491502  1
  Co  Co5  1  0.250000  0.277253  0.677882  1
  Co  Co6  1  0.750000  0.721652  0.320455  1
  Co  Co7  1  0.750000  0.778655  0.825550  1
  Co  Co8  1  0.250000  0.222741  0.176605  1
  Co  Co9  1  0.250000  0.616515  0.194959  1
  Co  Co10  1  0.750000  0.382782  0.801488  1
  Co  Co11  1  0.750000  0.120130  0.303628  1
  Co  Co12  1  0.250000  0.882857  0.699273  1
  Co  Co13  1  0.250000  0.035489  0.433679  1
  Co  Co14  1  0.750000  0.962027  0.566510  1
  Co  Co15  1  0.750000  0.536784  0.067417  1
  Co  Co16  1  0.250000  0.463126  0.931024  1
  P  P17  1  0.250000  0.077012  0.612094  1
  P  P18  1  0.750000  0.926028  0.383073  1
  P  P19  1  0.750000  0.577233  0.889395  1
  P  P20  1  0.250000  0.422437  0.109278  1
  P  P21  1  0.250000  0.225588  0.359608  1
  P  P22  1  0.750000  0.773806  0.644900  1
  P  P23  1  0.750000  0.724650  0.137672  1
  P  P24  1  0.250000  0.274759  0.861433  1
  P  P25  1  0.250000  0.897176  0.881694  1
  P  P26  1  0.750000  0.105834  0.120461  1
  P  P27  1  0.750000  0.395991  0.618811  1
  P  P28  1  0.250000  0.599945  0.376436  1
  Rh  Rh29  1  0.750000  0.205201  0.519238  1
  Rh  Rh30  1  0.750000  0.288779  0.012323  1
  Rh  Rh31  1  0.250000  0.712193  0.987149  1
  Rh  Rh32  1  0.250000  0.094769  0.980887  1
  Rh  Rh33  1  0.750000  0.906702  0.020155  1
  Rh  Rh34  1  0.750000  0.595125  0.518299  1
  Rh  Rh35  1  0.250000  0.401410  0.479491  1
