# generated using pymatgen
data_Tm3Ga7Cu4
_symmetry_space_group_name_H-M   'P 1'
_cell_length_a   7.93983137
_cell_length_b   7.93983104
_cell_length_c   9.33158379
_cell_angle_alpha   54.29689910
_cell_angle_beta   54.29689995
_cell_angle_gamma   30.60758706
_symmetry_Int_Tables_number   1
_chemical_formula_structural   Tm3Ga7Cu4
_chemical_formula_sum   'Tm3 Ga7 Cu4'
_cell_volume   238.47769887
_cell_formula_units_Z   1
loop_
 _symmetry_equiv_pos_site_id
 _symmetry_equiv_pos_as_xyz
  1  'x, y, z'
loop_
 _atom_site_type_symbol
 _atom_site_label
 _atom_site_symmetry_multiplicity
 _atom_site_fract_x
 _atom_site_fract_y
 _atom_site_fract_z
 _atom_site_occupancy
  Tm  Tm0  1  0.302562  0.302562  0.704577  1
  Tm  Tm1  1  0.697438  0.697438  0.295423  1
  Tm  Tm2  1  0.000000  0.000000  0.000000  1
  Ga  Ga3  1  0.859716  0.859716  0.420050  1
  Ga  Ga4  1  0.140284  0.140284  0.579950  1
  Ga  Ga5  1  0.139935  0.139935  0.131672  1
  Ga  Ga6  1  0.860065  0.860065  0.868328  1
  Ga  Ga7  1  0.000000  0.000000  0.500000  1
  Ga  Ga8  1  0.344938  0.344938  0.276332  1
  Ga  Ga9  1  0.655062  0.655062  0.723668  1
  Cu  Cu10  1  0.497222  0.497222  0.310445  1
  Cu  Cu11  1  0.502778  0.502778  0.689555  1
  Cu  Cu12  1  0.657360  0.657360  0.981361  1
  Cu  Cu13  1  0.342640  0.342640  0.018639  1
