# generated using pymatgen
data_YbYEr8(In2Pt)4
_symmetry_space_group_name_H-M   'P 1'
_cell_length_a   3.63418100
_cell_length_b   8.11516563
_cell_length_c   18.16623208
_cell_angle_alpha   89.91724707
_cell_angle_beta   90.00000000
_cell_angle_gamma   90.00000000
_symmetry_Int_Tables_number   1
_chemical_formula_structural   YbYEr8(In2Pt)4
_chemical_formula_sum   'Yb1 Y1 Er8 In8 Pt4'
_cell_volume   535.75760770
_cell_formula_units_Z   1
loop_
 _symmetry_equiv_pos_site_id
 _symmetry_equiv_pos_as_xyz
  1  'x, y, z'
loop_
 _atom_site_type_symbol
 _atom_site_label
 _atom_site_symmetry_multiplicity
 _atom_site_fract_x
 _atom_site_fract_y
 _atom_site_fract_z
 _atom_site_occupancy
  Yb  Yb0  1  0.000000  0.000000  0.000000  1
  Y  Y1  1  0.000000  0.500000  0.500000  1
  Er  Er2  1  0.000000  0.116586  0.413933  1
  Er  Er3  1  0.000000  0.883414  0.586067  1
  Er  Er4  1  0.000000  0.381756  0.913786  1
  Er  Er5  1  0.000000  0.618244  0.086214  1
  Er  Er6  1  0.000000  0.243356  0.221148  1
  Er  Er7  1  0.000000  0.756644  0.778852  1
  Er  Er8  1  0.000000  0.257010  0.721069  1
  Er  Er9  1  0.000000  0.742990  0.278931  1
  In  In10  1  0.500000  0.423955  0.351748  1
  In  In11  1  0.500000  0.576045  0.648252  1
  In  In12  1  0.500000  0.073933  0.851356  1
  In  In13  1  0.500000  0.926067  0.148644  1
  In  In14  1  0.500000  0.293730  0.067179  1
  In  In15  1  0.500000  0.706270  0.932821  1
  In  In16  1  0.500000  0.207585  0.566569  1
  In  In17  1  0.500000  0.792415  0.433431  1
  Pt  Pt18  1  0.500000  0.024141  0.304062  1
  Pt  Pt19  1  0.500000  0.975859  0.695938  1
  Pt  Pt20  1  0.500000  0.477209  0.803152  1
  Pt  Pt21  1  0.500000  0.522791  0.196848  1
