# generated using pymatgen
data_Ho2Lu6Os3WC8
_symmetry_space_group_name_H-M   'P 1'
_cell_length_a   5.00984500
_cell_length_b   6.47402426
_cell_length_c   9.66934945
_cell_angle_alpha   89.31794492
_cell_angle_beta   90.00000000
_cell_angle_gamma   90.00000000
_symmetry_Int_Tables_number   1
_chemical_formula_structural   Ho2Lu6Os3WC8
_chemical_formula_sum   'Ho2 Lu6 Os3 W1 C8'
_cell_volume   313.59208718
_cell_formula_units_Z   1
loop_
 _symmetry_equiv_pos_site_id
 _symmetry_equiv_pos_as_xyz
  1  'x, y, z'
loop_
 _atom_site_type_symbol
 _atom_site_label
 _atom_site_symmetry_multiplicity
 _atom_site_fract_x
 _atom_site_fract_y
 _atom_site_fract_z
 _atom_site_occupancy
  Ho  Ho0  1  0.750000  0.969136  0.714344  1
  Ho  Ho1  1  0.250000  0.032073  0.286211  1
  Lu  Lu2  1  0.250000  0.675731  0.556616  1
  Lu  Lu3  1  0.750000  0.325660  0.443384  1
  Lu  Lu4  1  0.750000  0.826011  0.057133  1
  Lu  Lu5  1  0.250000  0.177153  0.941450  1
  Lu  Lu6  1  0.250000  0.533035  0.214174  1
  Lu  Lu7  1  0.750000  0.465339  0.780325  1
  Os  Os8  1  0.750000  0.282304  0.132645  1
  Os  Os9  1  0.750000  0.778814  0.366782  1
  Os  Os10  1  0.250000  0.222158  0.629412  1
  W  W11  1  0.250000  0.716882  0.870711  1
  C  C12  1  0.250000  0.449492  0.760344  1
  C  C13  1  0.750000  0.546138  0.241545  1
  C  C14  1  0.750000  0.046910  0.259289  1
  C  C15  1  0.250000  0.954183  0.740023  1
  C  C16  1  0.250000  0.826387  0.060900  1
  C  C17  1  0.750000  0.173815  0.946844  1
  C  C18  1  0.750000  0.666890  0.554223  1
  C  C19  1  0.250000  0.331888  0.443644  1
