# generated using pymatgen
data_Ca4SmEu3(BO4)4
_symmetry_space_group_name_H-M   'P 1'
_cell_length_a   3.69004900
_cell_length_b   9.93046103
_cell_length_c   10.58064849
_cell_angle_alpha   89.86363694
_cell_angle_beta   90.00000000
_cell_angle_gamma   90.00000000
_symmetry_Int_Tables_number   1
_chemical_formula_structural   Ca4SmEu3(BO4)4
_chemical_formula_sum   'Ca4 Sm1 Eu3 B4 O16'
_cell_volume   387.71499807
_cell_formula_units_Z   1
loop_
 _symmetry_equiv_pos_site_id
 _symmetry_equiv_pos_as_xyz
  1  'x, y, z'
loop_
 _atom_site_type_symbol
 _atom_site_label
 _atom_site_symmetry_multiplicity
 _atom_site_fract_x
 _atom_site_fract_y
 _atom_site_fract_z
 _atom_site_occupancy
  Ca  Ca0  1  0.250000  0.684383  0.080861  1
  Ca  Ca1  1  0.750000  0.316585  0.918142  1
  Ca  Ca2  1  0.750000  0.184114  0.418895  1
  Ca  Ca3  1  0.250000  0.815951  0.581331  1
  Sm  Sm4  1  0.250000  0.083369  0.120916  1
  Eu  Eu5  1  0.750000  0.919841  0.876865  1
  Eu  Eu6  1  0.750000  0.579171  0.375860  1
  Eu  Eu7  1  0.250000  0.420945  0.623756  1
  B  B8  1  0.250000  0.368250  0.190975  1
  B  B9  1  0.750000  0.631075  0.810205  1
  B  B10  1  0.750000  0.869068  0.310285  1
  B  B11  1  0.250000  0.130917  0.689734  1
  O  O12  1  0.250000  0.501771  0.230387  1
  O  O13  1  0.750000  0.497908  0.768716  1
  O  O14  1  0.750000  0.001900  0.267253  1
  O  O15  1  0.250000  0.997476  0.730928  1
  O  O16  1  0.250000  0.261210  0.277558  1
  O  O17  1  0.750000  0.738619  0.724374  1
  O  O18  1  0.750000  0.761064  0.225145  1
  O  O19  1  0.250000  0.238390  0.775497  1
  O  O20  1  0.250000  0.337029  0.062157  1
  O  O21  1  0.750000  0.659150  0.939048  1
  O  O22  1  0.750000  0.840637  0.439245  1
  O  O23  1  0.250000  0.160031  0.561006  1
  O  O24  1  0.250000  0.607307  0.498813  1
  O  O25  1  0.750000  0.392824  0.501153  1
  O  O26  1  0.750000  0.109515  0.000749  1
  O  O27  1  0.250000  0.891500  0.000146  1
