# generated using pymatgen
data_Sc3TcP3Ru2
_symmetry_space_group_name_H-M   'P 1'
_cell_length_a   6.64023828
_cell_length_b   6.69117119
_cell_length_c   3.54439300
_cell_angle_alpha   90.00000000
_cell_angle_beta   90.00000000
_cell_angle_gamma   120.25406453
_symmetry_Int_Tables_number   1
_chemical_formula_structural   Sc3TcP3Ru2
_chemical_formula_sum   'Sc3 Tc1 P3 Ru2'
_cell_volume   136.03189792
_cell_formula_units_Z   1
loop_
 _symmetry_equiv_pos_site_id
 _symmetry_equiv_pos_as_xyz
  1  'x, y, z'
loop_
 _atom_site_type_symbol
 _atom_site_label
 _atom_site_symmetry_multiplicity
 _atom_site_fract_x
 _atom_site_fract_y
 _atom_site_fract_z
 _atom_site_occupancy
  Sc  Sc0  1  0.408443  0.409327  0.500000  1
  Sc  Sc1  1  0.591557  0.000884  0.500000  1
  Sc  Sc2  1  0.000000  0.592636  0.500000  1
  Tc  Tc3  1  0.000000  0.245618  0.000000  1
  P  P4  1  0.666219  0.333392  0.000000  1
  P  P5  1  0.333781  0.667174  0.000000  1
  P  P6  1  0.000000  0.996112  0.500000  1
  Ru  Ru7  1  0.245476  0.000167  0.000000  1
  Ru  Ru8  1  0.754524  0.754691  0.000000  1
