# generated using pymatgen
data_Ca3Bi5(Os2O11)2
_symmetry_space_group_name_H-M   'P 1'
_cell_length_a   6.66030348
_cell_length_b   7.49497244
_cell_length_c   9.86751500
_cell_angle_alpha   100.85739462
_cell_angle_beta   92.43330816
_cell_angle_gamma   89.91631552
_symmetry_Int_Tables_number   1
_chemical_formula_structural   Ca3Bi5(Os2O11)2
_chemical_formula_sum   'Ca3 Bi5 Os4 O22'
_cell_volume   483.30995063
_cell_formula_units_Z   1
loop_
 _symmetry_equiv_pos_site_id
 _symmetry_equiv_pos_as_xyz
  1  'x, y, z'
loop_
 _atom_site_type_symbol
 _atom_site_label
 _atom_site_symmetry_multiplicity
 _atom_site_fract_x
 _atom_site_fract_y
 _atom_site_fract_z
 _atom_site_occupancy
  Ca  Ca0  1  0.742694  0.373942  0.482486  1
  Ca  Ca1  1  0.266863  0.630330  0.514678  1
  Ca  Ca2  1  0.753201  0.866086  0.480731  1
  Bi  Bi3  1  0.267578  0.125045  0.518346  1
  Bi  Bi4  1  0.447742  0.950229  0.821351  1
  Bi  Bi5  1  0.549902  0.042736  0.178874  1
  Bi  Bi6  1  0.414198  0.459340  0.826133  1
  Bi  Bi7  1  0.585026  0.547773  0.181547  1
  Os  Os8  1  0.935033  0.702039  0.806330  1
  Os  Os9  1  0.065393  0.298899  0.192157  1
  Os  Os10  1  0.929023  0.202240  0.808406  1
  Os  Os11  1  0.064759  0.797566  0.189629  1
  O  O12  1  0.231323  0.711983  0.767770  1
  O  O13  1  0.772928  0.282248  0.228499  1
  O  O14  1  0.639670  0.686048  0.830087  1
  O  O15  1  0.351912  0.313803  0.162340  1
  O  O16  1  0.643893  0.233004  0.843945  1
  O  O17  1  0.356898  0.769032  0.161079  1
  O  O18  1  0.885723  0.161960  0.615294  1
  O  O19  1  0.104989  0.832348  0.387563  1
  O  O20  1  0.222721  0.170537  0.771661  1
  O  O21  1  0.770929  0.832207  0.231051  1
  O  O22  1  0.899163  0.646320  0.611166  1
  O  O23  1  0.104330  0.360867  0.386107  1
  O  O24  1  0.030266  0.546960  0.182600  1
  O  O25  1  0.964805  0.454043  0.813695  1
  O  O26  1  0.998133  0.760815  0.998799  1
  O  O27  1  0.998606  0.239286  0.000371  1
  O  O28  1  0.567592  0.598097  0.394580  1
  O  O29  1  0.432721  0.389992  0.609053  1
  O  O30  1  0.102928  0.048941  0.198495  1
  O  O31  1  0.900537  0.950489  0.804160  1
  O  O32  1  0.540440  0.100981  0.395452  1
  O  O33  1  0.458081  0.913815  0.605563  1
