# generated using pymatgen
data_Y5Er15(Ag3Ru)2
_symmetry_space_group_name_H-M   'P 1'
_cell_length_a   9.44822554
_cell_length_b   9.44822626
_cell_length_c   9.60198800
_cell_angle_alpha   90.00000000
_cell_angle_beta   90.00000000
_cell_angle_gamma   120.03044594
_symmetry_Int_Tables_number   1
_chemical_formula_structural   Y5Er15(Ag3Ru)2
_chemical_formula_sum   'Y5 Er15 Ag6 Ru2'
_cell_volume   742.09414785
_cell_formula_units_Z   1
loop_
 _symmetry_equiv_pos_site_id
 _symmetry_equiv_pos_as_xyz
  1  'x, y, z'
loop_
 _atom_site_type_symbol
 _atom_site_label
 _atom_site_symmetry_multiplicity
 _atom_site_fract_x
 _atom_site_fract_y
 _atom_site_fract_z
 _atom_site_occupancy
  Y  Y0  1  0.541202  0.083055  0.250000  1
  Y  Y1  1  0.916945  0.458798  0.250000  1
  Y  Y2  1  0.458763  0.541237  0.750000  1
  Y  Y3  1  0.458930  0.918040  0.750000  1
  Y  Y4  1  0.081960  0.541070  0.750000  1
  Er  Er5  1  0.000069  0.999931  0.500009  1
  Er  Er6  1  0.000069  0.999931  0.999991  1
  Er  Er7  1  0.209063  0.790937  0.440930  1
  Er  Er8  1  0.209490  0.417862  0.440659  1
  Er  Er9  1  0.582138  0.790510  0.440659  1
  Er  Er10  1  0.791176  0.208824  0.558765  1
  Er  Er11  1  0.790576  0.582062  0.558501  1
  Er  Er12  1  0.417938  0.209424  0.558501  1
  Er  Er13  1  0.791176  0.208824  0.941235  1
  Er  Er14  1  0.790576  0.582062  0.941499  1
  Er  Er15  1  0.417938  0.209424  0.941499  1
  Er  Er16  1  0.209063  0.790937  0.059070  1
  Er  Er17  1  0.209490  0.417862  0.059341  1
  Er  Er18  1  0.582138  0.790510  0.059341  1
  Er  Er19  1  0.540588  0.459412  0.250000  1
  Ag  Ag20  1  0.885375  0.114625  0.250000  1
  Ag  Ag21  1  0.883991  0.769564  0.250000  1
  Ag  Ag22  1  0.230436  0.116009  0.250000  1
  Ag  Ag23  1  0.114648  0.885352  0.750000  1
  Ag  Ag24  1  0.114473  0.229033  0.750000  1
  Ag  Ag25  1  0.770967  0.885527  0.750000  1
  Ru  Ru26  1  0.333951  0.666049  0.250000  1
  Ru  Ru27  1  0.666868  0.333132  0.750000  1
