# generated using pymatgen
data_Lu12TlInTcOs2
_symmetry_space_group_name_H-M   'P 1'
_cell_length_a   8.30164593
_cell_length_b   8.30203556
_cell_length_c   8.30164565
_cell_angle_alpha   109.76270966
_cell_angle_beta   109.40002509
_cell_angle_gamma   109.24944531
_symmetry_Int_Tables_number   1
_chemical_formula_structural   Lu12TlInTcOs2
_chemical_formula_sum   'Lu12 Tl1 In1 Tc1 Os2'
_cell_volume   440.44544875
_cell_formula_units_Z   1
loop_
 _symmetry_equiv_pos_site_id
 _symmetry_equiv_pos_as_xyz
  1  'x, y, z'
loop_
 _atom_site_type_symbol
 _atom_site_label
 _atom_site_symmetry_multiplicity
 _atom_site_fract_x
 _atom_site_fract_y
 _atom_site_fract_z
 _atom_site_occupancy
  Lu  Lu0  1  0.319003  0.317716  0.636820  1
  Lu  Lu1  1  0.680997  0.682284  0.363180  1
  Lu  Lu2  1  0.680897  0.317716  0.998713  1
  Lu  Lu3  1  0.319103  0.682284  0.001287  1
  Lu  Lu4  1  0.185357  0.427756  0.242399  1
  Lu  Lu5  1  0.814643  0.572244  0.757601  1
  Lu  Lu6  1  0.185206  0.942826  0.757621  1
  Lu  Lu7  1  0.943623  0.184667  0.759060  1
  Lu  Lu8  1  0.814794  0.057174  0.242379  1
  Lu  Lu9  1  0.056377  0.815333  0.240940  1
  Lu  Lu10  1  0.425608  0.184667  0.241043  1
  Lu  Lu11  1  0.574392  0.815333  0.758957  1
  Tl  Tl12  1  0.000000  0.500000  0.500000  1
  In  In13  1  0.500000  0.000000  0.500000  1
  Tc  Tc14  1  0.000000  0.000000  0.000000  1
  Os  Os15  1  0.345276  0.345309  0.000033  1
  Os  Os16  1  0.654724  0.654691  0.999967  1
