# generated using pymatgen
data_Nd2Dy3Lu3Pt4
_symmetry_space_group_name_H-M   'P 1'
_cell_length_a   4.74028400
_cell_length_b   7.19226967
_cell_length_c   8.81777574
_cell_angle_alpha   89.95180061
_cell_angle_beta   90.00000000
_cell_angle_gamma   90.00000000
_symmetry_Int_Tables_number   1
_chemical_formula_structural   Nd2Dy3Lu3Pt4
_chemical_formula_sum   'Nd2 Dy3 Lu3 Pt4'
_cell_volume   300.62785644
_cell_formula_units_Z   1
loop_
 _symmetry_equiv_pos_site_id
 _symmetry_equiv_pos_as_xyz
  1  'x, y, z'
loop_
 _atom_site_type_symbol
 _atom_site_label
 _atom_site_symmetry_multiplicity
 _atom_site_fract_x
 _atom_site_fract_y
 _atom_site_fract_z
 _atom_site_occupancy
  Nd  Nd0  1  0.250000  0.007728  0.329360  1
  Nd  Nd1  1  0.250000  0.510921  0.169384  1
  Dy  Dy2  1  0.750000  0.357141  0.424947  1
  Dy  Dy3  1  0.750000  0.987757  0.673718  1
  Dy  Dy4  1  0.750000  0.489891  0.827809  1
  Lu  Lu5  1  0.250000  0.142633  0.919196  1
  Lu  Lu6  1  0.250000  0.643788  0.582471  1
  Lu  Lu7  1  0.750000  0.858727  0.073133  1
  Pt  Pt8  1  0.250000  0.248124  0.599977  1
  Pt  Pt9  1  0.250000  0.750171  0.902878  1
  Pt  Pt10  1  0.750000  0.753039  0.412528  1
  Pt  Pt11  1  0.750000  0.250081  0.084596  1
