# generated using pymatgen
data_Y2ErCdRu2
_symmetry_space_group_name_H-M   'P 1'
_cell_length_a   3.42660000
_cell_length_b   3.42660000
_cell_length_c   11.20581100
_cell_angle_alpha   90.00000000
_cell_angle_beta   90.00000000
_cell_angle_gamma   90.00000000
_symmetry_Int_Tables_number   1
_chemical_formula_structural   Y2ErCdRu2
_chemical_formula_sum   'Y2 Er1 Cd1 Ru2'
_cell_volume   131.57401104
_cell_formula_units_Z   1
loop_
 _symmetry_equiv_pos_site_id
 _symmetry_equiv_pos_as_xyz
  1  'x, y, z'
loop_
 _atom_site_type_symbol
 _atom_site_label
 _atom_site_symmetry_multiplicity
 _atom_site_fract_x
 _atom_site_fract_y
 _atom_site_fract_z
 _atom_site_occupancy
  Y  Y0  1  0.500000  0.500000  0.297291  1
  Y  Y1  1  0.500000  0.500000  0.702709  1
  Er  Er2  1  0.500000  0.500000  0.000000  1
  Cd  Cd3  1  0.000000  0.000000  0.500000  1
  Ru  Ru4  1  0.000000  0.000000  0.152334  1
  Ru  Ru5  1  0.000000  0.000000  0.847666  1
