# generated using pymatgen
data_La2Cd3HgPd2
_symmetry_space_group_name_H-M   'P 1'
_cell_length_a   5.55165256
_cell_length_b   5.55165279
_cell_length_c   8.57867259
_cell_angle_alpha   89.96157841
_cell_angle_beta   90.03842047
_cell_angle_gamma   133.91182290
_symmetry_Int_Tables_number   1
_chemical_formula_structural   La2Cd3HgPd2
_chemical_formula_sum   'La2 Cd3 Hg1 Pd2'
_cell_volume   190.47723954
_cell_formula_units_Z   1
loop_
 _symmetry_equiv_pos_site_id
 _symmetry_equiv_pos_as_xyz
  1  'x, y, z'
loop_
 _atom_site_type_symbol
 _atom_site_label
 _atom_site_symmetry_multiplicity
 _atom_site_fract_x
 _atom_site_fract_y
 _atom_site_fract_z
 _atom_site_occupancy
  La  La0  1  0.065639  0.934361  0.251981  1
  La  La1  1  0.935647  0.064353  0.747430  1
  Cd  Cd2  1  0.353871  0.646129  0.451155  1
  Cd  Cd3  1  0.645018  0.354982  0.952550  1
  Cd  Cd4  1  0.355379  0.644621  0.047675  1
  Hg  Hg5  1  0.641616  0.358384  0.548076  1
  Pd  Pd6  1  0.222176  0.777824  0.752261  1
  Pd  Pd7  1  0.780654  0.219346  0.248872  1
