# generated using pymatgen
data_Tm8TcB24Rh2W
_symmetry_space_group_name_H-M   'P 1'
_cell_length_a   3.62455600
_cell_length_b   9.10132074
_cell_length_c   11.48965649
_cell_angle_alpha   90.37486409
_cell_angle_beta   90.00000000
_cell_angle_gamma   90.00000000
_symmetry_Int_Tables_number   1
_chemical_formula_structural   Tm8TcB24Rh2W
_chemical_formula_sum   'Tm8 Tc1 B24 Rh2 W1'
_cell_volume   379.01551074
_cell_formula_units_Z   1
loop_
 _symmetry_equiv_pos_site_id
 _symmetry_equiv_pos_as_xyz
  1  'x, y, z'
loop_
 _atom_site_type_symbol
 _atom_site_label
 _atom_site_symmetry_multiplicity
 _atom_site_fract_x
 _atom_site_fract_y
 _atom_site_fract_z
 _atom_site_occupancy
  Tm  Tm0  1  0.500000  0.318015  0.411007  1
  Tm  Tm1  1  0.500000  0.681912  0.588541  1
  Tm  Tm2  1  0.500000  0.175419  0.917797  1
  Tm  Tm3  1  0.500000  0.826278  0.084021  1
  Tm  Tm4  1  0.500000  0.441253  0.127446  1
  Tm  Tm5  1  0.500000  0.555508  0.874048  1
  Tm  Tm6  1  0.500000  0.055274  0.626428  1
  Tm  Tm7  1  0.500000  0.945943  0.370822  1
  Tc  Tc8  1  0.500000  0.139646  0.180892  1
  B  B9  1  0.000000  0.107302  0.470571  1
  B  B10  1  0.000000  0.893278  0.527524  1
  B  B11  1  0.000000  0.393919  0.971106  1
  B  B12  1  0.000000  0.604089  0.030183  1
  B  B13  1  0.000000  0.132391  0.315563  1
  B  B14  1  0.000000  0.867700  0.681966  1
  B  B15  1  0.000000  0.367532  0.816273  1
  B  B16  1  0.000000  0.631773  0.183656  1
  B  B17  1  0.000000  0.053479  0.068057  1
  B  B18  1  0.000000  0.949629  0.935676  1
  B  B19  1  0.000000  0.446038  0.565093  1
  B  B20  1  0.000000  0.553768  0.434344  1
  B  B21  1  0.000000  0.482481  0.288011  1
  B  B22  1  0.000000  0.516708  0.711813  1
  B  B23  1  0.000000  0.021755  0.786338  1
  B  B24  1  0.000000  0.982733  0.213262  1
  B  B25  1  0.000000  0.248658  0.081242  1
  B  B26  1  0.000000  0.748502  0.921901  1
  B  B27  1  0.000000  0.250537  0.578189  1
  B  B28  1  0.000000  0.749640  0.421086  1
  B  B29  1  0.000000  0.293546  0.235523  1
  B  B30  1  0.000000  0.703252  0.763137  1
  B  B31  1  0.000000  0.208634  0.734123  1
  B  B32  1  0.000000  0.791760  0.264861  1
  Rh  Rh33  1  0.500000  0.361889  0.678161  1
  Rh  Rh34  1  0.500000  0.638136  0.321161  1
  W  W35  1  0.500000  0.861625  0.820179  1
