# generated using pymatgen
data_Ho2P7Ru11Rh
_symmetry_space_group_name_H-M   'P 1'
_cell_length_a   9.38332400
_cell_length_b   9.42463768
_cell_length_c   3.94781200
_cell_angle_alpha   90.00000000
_cell_angle_beta   90.00000000
_cell_angle_gamma   119.69457006
_symmetry_Int_Tables_number   1
_chemical_formula_structural   Ho2P7Ru11Rh
_chemical_formula_sum   'Ho2 P7 Ru11 Rh1'
_cell_volume   303.27519733
_cell_formula_units_Z   1
loop_
 _symmetry_equiv_pos_site_id
 _symmetry_equiv_pos_as_xyz
  1  'x, y, z'
loop_
 _atom_site_type_symbol
 _atom_site_label
 _atom_site_symmetry_multiplicity
 _atom_site_fract_x
 _atom_site_fract_y
 _atom_site_fract_z
 _atom_site_occupancy
  Ho  Ho0  1  0.668373  0.334950  0.500000  1
  Ho  Ho1  1  0.330904  0.662172  0.000000  1
  P  P2  1  0.599691  0.713614  0.500000  1
  P  P3  1  0.997606  0.999672  0.000000  1
  P  P4  1  0.278781  0.880949  0.500000  1
  P  P5  1  0.118048  0.400333  0.500000  1
  P  P6  1  0.885992  0.576737  0.000000  1
  P  P7  1  0.426079  0.309395  0.000000  1
  P  P8  1  0.695997  0.120444  0.000000  1
  Ru  Ru9  1  0.391393  0.442345  0.500000  1
  Ru  Ru10  1  0.913495  0.124808  0.500000  1
  Ru  Ru11  1  0.210448  0.086603  0.500000  1
  Ru  Ru12  1  0.876912  0.792950  0.500000  1
  Ru  Ru13  1  0.724631  0.891539  0.000000  1
  Ru  Ru14  1  0.109017  0.837739  0.000000  1
  Ru  Ru15  1  0.163847  0.270323  0.000000  1
  Ru  Ru16  1  0.428577  0.066606  0.000000  1
  Ru  Ru17  1  0.935829  0.361620  0.000000  1
  Ru  Ru18  1  0.640833  0.574714  0.000000  1
  Ru  Ru19  1  0.052340  0.608480  0.500000  1
  Rh  Rh20  1  0.551206  0.944003  0.500000  1
