# generated using pymatgen
data_Tb2Pr17CdIr12
_symmetry_space_group_name_H-M   'P 1'
_cell_length_a   11.32548700
_cell_length_b   11.32548700
_cell_length_c   6.48600300
_cell_angle_alpha   90.00000000
_cell_angle_beta   90.00000000
_cell_angle_gamma   90.00000000
_symmetry_Int_Tables_number   1
_chemical_formula_structural   Tb2Pr17CdIr12
_chemical_formula_sum   'Tb2 Pr17 Cd1 Ir12'
_cell_volume   831.93791424
_cell_formula_units_Z   1
loop_
 _symmetry_equiv_pos_site_id
 _symmetry_equiv_pos_as_xyz
  1  'x, y, z'
loop_
 _atom_site_type_symbol
 _atom_site_label
 _atom_site_symmetry_multiplicity
 _atom_site_fract_x
 _atom_site_fract_y
 _atom_site_fract_z
 _atom_site_occupancy
  Tb  Tb0  1  0.500000  0.500000  0.000000  1
  Tb  Tb1  1  0.500000  0.500000  0.500000  1
  Pr  Pr2  1  0.280286  0.085077  0.383286  1
  Pr  Pr3  1  0.290792  0.911152  0.881590  1
  Pr  Pr4  1  0.709208  0.088848  0.881590  1
  Pr  Pr5  1  0.719714  0.914923  0.383286  1
  Pr  Pr6  1  0.588724  0.789577  0.884178  1
  Pr  Pr7  1  0.586680  0.210234  0.380540  1
  Pr  Pr8  1  0.413320  0.789766  0.380540  1
  Pr  Pr9  1  0.411276  0.210423  0.884178  1
  Pr  Pr10  1  0.210234  0.413320  0.619460  1
  Pr  Pr11  1  0.210423  0.588724  0.115822  1
  Pr  Pr12  1  0.789577  0.411276  0.115822  1
  Pr  Pr13  1  0.789766  0.586680  0.619460  1
  Pr  Pr14  1  0.911152  0.709208  0.118410  1
  Pr  Pr15  1  0.914923  0.280286  0.616714  1
  Pr  Pr16  1  0.085077  0.719714  0.616714  1
  Pr  Pr17  1  0.088848  0.290792  0.118410  1
  Pr  Pr18  1  0.000000  0.000000  0.000000  1
  Cd  Cd19  1  0.000000  0.000000  0.500000  1
  Ir  Ir20  1  0.845169  0.156523  0.243730  1
  Ir  Ir21  1  0.843477  0.845169  0.756270  1
  Ir  Ir22  1  0.156523  0.154831  0.756270  1
  Ir  Ir23  1  0.154831  0.843477  0.243730  1
  Ir  Ir24  1  0.649349  0.351582  0.747098  1
  Ir  Ir25  1  0.648418  0.649349  0.252902  1
  Ir  Ir26  1  0.351582  0.350651  0.252902  1
  Ir  Ir27  1  0.350651  0.648418  0.747098  1
  Ir  Ir28  1  0.500000  0.000000  0.120957  1
  Ir  Ir29  1  0.500000  0.000000  0.614278  1
  Ir  Ir30  1  0.000000  0.500000  0.879043  1
  Ir  Ir31  1  0.000000  0.500000  0.385722  1
