# generated using pymatgen
data_Y2Co9Si7Rh3
_symmetry_space_group_name_H-M   'P 1'
_cell_length_a   3.72118500
_cell_length_b   9.22698749
_cell_length_c   9.22698700
_cell_angle_alpha   119.99999465
_cell_angle_beta   90.00000000
_cell_angle_gamma   90.00000000
_symmetry_Int_Tables_number   1
_chemical_formula_structural   Y2Co9Si7Rh3
_chemical_formula_sum   'Y2 Co9 Si7 Rh3'
_cell_volume   274.36692597
_cell_formula_units_Z   1
loop_
 _symmetry_equiv_pos_site_id
 _symmetry_equiv_pos_as_xyz
  1  'x, y, z'
loop_
 _atom_site_type_symbol
 _atom_site_label
 _atom_site_symmetry_multiplicity
 _atom_site_fract_x
 _atom_site_fract_y
 _atom_site_fract_z
 _atom_site_occupancy
  Y  Y0  1  0.000000  0.666667  0.333333  1
  Y  Y1  1  0.500000  0.333333  0.666667  1
  Co  Co2  1  0.000000  0.567297  0.944153  1
  Co  Co3  1  0.000000  0.376857  0.432703  1
  Co  Co4  1  0.000000  0.055847  0.623143  1
  Co  Co5  1  0.000000  0.872099  0.154911  1
  Co  Co6  1  0.000000  0.282812  0.127901  1
  Co  Co7  1  0.000000  0.845089  0.717188  1
  Co  Co8  1  0.500000  0.947054  0.384066  1
  Co  Co9  1  0.500000  0.437012  0.052946  1
  Co  Co10  1  0.500000  0.615934  0.562988  1
  Si  Si11  1  0.000000  0.000000  0.000000  1
  Si  Si12  1  0.500000  0.708724  0.113537  1
  Si  Si13  1  0.500000  0.404812  0.291276  1
  Si  Si14  1  0.500000  0.886463  0.595188  1
  Si  Si15  1  0.000000  0.594951  0.703844  1
  Si  Si16  1  0.000000  0.108893  0.405049  1
  Si  Si17  1  0.000000  0.296156  0.891107  1
  Rh  Rh18  1  0.500000  0.774665  0.895739  1
  Rh  Rh19  1  0.500000  0.121075  0.225335  1
  Rh  Rh20  1  0.500000  0.104261  0.878925  1
