# generated using pymatgen
data_YHo3Al18Ir5Pd
_symmetry_space_group_name_H-M   'P 1'
_cell_length_a   7.56516452
_cell_length_b   7.56574350
_cell_length_c   9.46219404
_cell_angle_alpha   89.96693078
_cell_angle_beta   89.96721563
_cell_angle_gamma   119.59767661
_symmetry_Int_Tables_number   1
_chemical_formula_structural   YHo3Al18Ir5Pd
_chemical_formula_sum   'Y1 Ho3 Al18 Ir5 Pd1'
_cell_volume   470.91076077
_cell_formula_units_Z   1
loop_
 _symmetry_equiv_pos_site_id
 _symmetry_equiv_pos_as_xyz
  1  'x, y, z'
loop_
 _atom_site_type_symbol
 _atom_site_label
 _atom_site_symmetry_multiplicity
 _atom_site_fract_x
 _atom_site_fract_y
 _atom_site_fract_z
 _atom_site_occupancy
  Y  Y0  1  0.994956  0.670960  0.250994  1
  Ho  Ho1  1  0.004763  0.329023  0.749055  1
  Ho  Ho2  1  0.670926  0.995248  0.250973  1
  Ho  Ho3  1  0.328848  0.004870  0.748980  1
  Al  Al4  1  0.128542  0.127738  0.250422  1
  Al  Al5  1  0.872472  0.871497  0.749568  1
  Al  Al6  1  0.004347  0.335250  0.076530  1
  Al  Al7  1  0.002385  0.668448  0.923540  1
  Al  Al8  1  0.999887  0.664829  0.574498  1
  Al  Al9  1  0.335381  0.000313  0.425792  1
  Al  Al10  1  0.000254  0.334535  0.424896  1
  Al  Al11  1  0.665262  0.999747  0.575179  1
  Al  Al12  1  0.664564  0.995661  0.923372  1
  Al  Al13  1  0.331750  0.997813  0.076183  1
  Al  Al14  1  0.332870  0.332842  0.551503  1
  Al  Al15  1  0.666981  0.667107  0.448595  1
  Al  Al16  1  0.666269  0.669537  0.055676  1
  Al  Al17  1  0.330448  0.333561  0.944200  1
  Al  Al18  1  0.340486  0.549196  0.250445  1
  Al  Al19  1  0.659984  0.452533  0.747613  1
  Al  Al20  1  0.547226  0.339785  0.252384  1
  Al  Al21  1  0.450775  0.659679  0.749551  1
  Ir  Ir22  1  0.328232  0.671832  0.999905  1
  Ir  Ir23  1  0.328294  0.671758  0.500097  1
  Ir  Ir24  1  0.671857  0.328014  0.500091  1
  Ir  Ir25  1  0.999771  0.000438  0.999889  1
  Ir  Ir26  1  0.000179  0.000063  0.500108  1
  Pd  Pd27  1  0.672291  0.327724  0.999960  1
