# generated using pymatgen
data_Pr4Ho12Cd4IrPt3
_symmetry_space_group_name_H-M   'P 1'
_cell_length_a   9.72231710
_cell_length_b   9.68824833
_cell_length_c   9.68824795
_cell_angle_alpha   60.54556635
_cell_angle_beta   60.17606353
_cell_angle_gamma   60.17605389
_symmetry_Int_Tables_number   1
_chemical_formula_structural   Pr4Ho12Cd4IrPt3
_chemical_formula_sum   'Pr4 Ho12 Cd4 Ir1 Pt3'
_cell_volume   649.62714894
_cell_formula_units_Z   1
loop_
 _symmetry_equiv_pos_site_id
 _symmetry_equiv_pos_as_xyz
  1  'x, y, z'
loop_
 _atom_site_type_symbol
 _atom_site_label
 _atom_site_symmetry_multiplicity
 _atom_site_fract_x
 _atom_site_fract_y
 _atom_site_fract_z
 _atom_site_occupancy
  Pr  Pr0  1  0.566695  0.934644  0.565751  1
  Pr  Pr1  1  0.937240  0.562590  0.933932  1
  Pr  Pr2  1  0.566695  0.565751  0.934644  1
  Pr  Pr3  1  0.937240  0.933932  0.562590  1
  Ho  Ho4  1  0.354889  0.345069  0.345069  1
  Ho  Ho5  1  0.351739  0.352966  0.949277  1
  Ho  Ho6  1  0.351739  0.949277  0.352966  1
  Ho  Ho7  1  0.939896  0.352883  0.352883  1
  Ho  Ho8  1  0.809718  0.186429  0.186429  1
  Ho  Ho9  1  0.188498  0.812296  0.812296  1
  Ho  Ho10  1  0.190629  0.811813  0.188744  1
  Ho  Ho11  1  0.809014  0.186298  0.814496  1
  Ho  Ho12  1  0.190629  0.188744  0.811813  1
  Ho  Ho13  1  0.809014  0.814496  0.186298  1
  Ho  Ho14  1  0.948160  0.553116  0.553116  1
  Ho  Ho15  1  0.555805  0.947225  0.947225  1
  Cd  Cd16  1  0.584765  0.577738  0.577738  1
  Cd  Cd17  1  0.576504  0.585079  0.259261  1
  Cd  Cd18  1  0.576504  0.259261  0.585079  1
  Cd  Cd19  1  0.260551  0.578089  0.578089  1
  Ir  Ir20  1  0.572266  0.138466  0.138466  1
  Pt  Pt21  1  0.144336  0.143432  0.143432  1
  Pt  Pt22  1  0.138735  0.148287  0.572115  1
  Pt  Pt23  1  0.138735  0.572115  0.148287  1
