# generated using pymatgen
data_Er4Tc5IrRu2
_symmetry_space_group_name_H-M   'P 1'
_cell_length_a   5.28824271
_cell_length_b   5.28824176
_cell_length_c   9.15779172
_cell_angle_alpha   90.22376586
_cell_angle_beta   89.77623342
_cell_angle_gamma   121.84817566
_symmetry_Int_Tables_number   1
_chemical_formula_structural   Er4Tc5IrRu2
_chemical_formula_sum   'Er4 Tc5 Ir1 Ru2'
_cell_volume   217.54373354
_cell_formula_units_Z   1
loop_
 _symmetry_equiv_pos_site_id
 _symmetry_equiv_pos_as_xyz
  1  'x, y, z'
loop_
 _atom_site_type_symbol
 _atom_site_label
 _atom_site_symmetry_multiplicity
 _atom_site_fract_x
 _atom_site_fract_y
 _atom_site_fract_z
 _atom_site_occupancy
  Er  Er0  1  0.335911  0.664089  0.434179  1
  Er  Er1  1  0.664738  0.335262  0.564911  1
  Er  Er2  1  0.665170  0.334830  0.935678  1
  Er  Er3  1  0.335392  0.664608  0.065300  1
  Tc  Tc4  1  0.170173  0.341374  0.749558  1
  Tc  Tc5  1  0.170640  0.829360  0.750406  1
  Tc  Tc6  1  0.338917  0.173469  0.250807  1
  Tc  Tc7  1  0.826531  0.661083  0.250807  1
  Tc  Tc8  1  0.658626  0.829827  0.749558  1
  Ir  Ir9  1  0.003440  0.996560  0.000999  1
  Ru  Ru10  1  0.826532  0.173468  0.249340  1
  Ru  Ru11  1  0.003930  0.996070  0.498457  1
