# generated using pymatgen
data_Co21B6MoAs
_symmetry_space_group_name_H-M   'P 1'
_cell_length_a   7.39075201
_cell_length_b   7.39075241
_cell_length_c   7.39075300
_cell_angle_alpha   60.00000182
_cell_angle_beta   60.00000006
_cell_angle_gamma   59.99999664
_symmetry_Int_Tables_number   1
_chemical_formula_structural   Co21B6MoAs
_chemical_formula_sum   'Co21 B6 Mo1 As1'
_cell_volume   285.46375189
_cell_formula_units_Z   1
loop_
 _symmetry_equiv_pos_site_id
 _symmetry_equiv_pos_as_xyz
  1  'x, y, z'
loop_
 _atom_site_type_symbol
 _atom_site_label
 _atom_site_symmetry_multiplicity
 _atom_site_fract_x
 _atom_site_fract_y
 _atom_site_fract_z
 _atom_site_occupancy
  Co  Co0  1  0.997527  0.997527  0.338785  1
  Co  Co1  1  0.666162  0.997527  0.338785  1
  Co  Co2  1  0.997527  0.666162  0.338785  1
  Co  Co3  1  0.666162  0.338785  0.997527  1
  Co  Co4  1  0.997527  0.338785  0.997527  1
  Co  Co5  1  0.997527  0.338785  0.666162  1
  Co  Co6  1  0.338785  0.666162  0.997527  1
  Co  Co7  1  0.338785  0.997527  0.666162  1
  Co  Co8  1  0.338785  0.997527  0.997527  1
  Co  Co9  1  0.997527  0.997527  0.666162  1
  Co  Co10  1  0.997527  0.666162  0.997527  1
  Co  Co11  1  0.666162  0.997527  0.997527  1
  Co  Co12  1  0.616366  0.616366  0.150901  1
  Co  Co13  1  0.616366  0.150901  0.616366  1
  Co  Co14  1  0.150901  0.616366  0.616366  1
  Co  Co15  1  0.616366  0.616366  0.616366  1
  Co  Co16  1  0.377399  0.377399  0.867803  1
  Co  Co17  1  0.377399  0.867803  0.377399  1
  Co  Co18  1  0.867803  0.377399  0.377399  1
  Co  Co19  1  0.377399  0.377399  0.377399  1
  Co  Co20  1  0.000000  0.000000  0.000000  1
  B  B21  1  0.724188  0.724188  0.275812  1
  B  B22  1  0.275812  0.724188  0.275812  1
  B  B23  1  0.724188  0.275812  0.275812  1
  B  B24  1  0.275812  0.275812  0.724188  1
  B  B25  1  0.724188  0.275812  0.724188  1
  B  B26  1  0.275812  0.724188  0.724188  1
  Mo  Mo27  1  0.750000  0.750000  0.750000  1
  As  As28  1  0.250000  0.250000  0.250000  1
