# generated using pymatgen
data_La6SnGe3Ir4
_symmetry_space_group_name_H-M   'P 1'
_cell_length_a   5.86129300
_cell_length_b   8.41533000
_cell_length_c   13.64174300
_cell_angle_alpha   90.00000000
_cell_angle_beta   90.00000000
_cell_angle_gamma   90.00000000
_symmetry_Int_Tables_number   1
_chemical_formula_structural   La6SnGe3Ir4
_chemical_formula_sum   'La12 Sn2 Ge6 Ir8'
_cell_volume   672.87508315
_cell_formula_units_Z   2
loop_
 _symmetry_equiv_pos_site_id
 _symmetry_equiv_pos_as_xyz
  1  'x, y, z'
loop_
 _atom_site_type_symbol
 _atom_site_label
 _atom_site_symmetry_multiplicity
 _atom_site_fract_x
 _atom_site_fract_y
 _atom_site_fract_z
 _atom_site_occupancy
  La  La0  1  0.155053  0.891794  0.598526  1
  La  La1  1  0.844947  0.108206  0.098526  1
  La  La2  1  0.155053  0.608206  0.401474  1
  La  La3  1  0.844947  0.391794  0.901474  1
  La  La4  1  0.840499  0.102393  0.401564  1
  La  La5  1  0.159501  0.897607  0.901564  1
  La  La6  1  0.840499  0.397607  0.598436  1
  La  La7  1  0.159501  0.602393  0.098436  1
  La  La8  1  0.362199  0.251513  0.753719  1
  La  La9  1  0.637801  0.748487  0.253719  1
  La  La10  1  0.362199  0.248487  0.246281  1
  La  La11  1  0.637801  0.751513  0.746281  1
  Sn  Sn12  1  0.345649  0.250000  0.500000  1
  Sn  Sn13  1  0.654351  0.750000  0.000000  1
  Ge  Ge14  1  0.856491  0.101629  0.748785  1
  Ge  Ge15  1  0.143509  0.898371  0.248785  1
  Ge  Ge16  1  0.856491  0.398371  0.251215  1
  Ge  Ge17  1  0.143509  0.601629  0.751215  1
  Ge  Ge18  1  0.641037  0.750000  0.500000  1
  Ge  Ge19  1  0.358963  0.250000  0.000000  1
  Ir  Ir20  1  0.630168  0.031719  0.592428  1
  Ir  Ir21  1  0.369832  0.968281  0.092428  1
  Ir  Ir22  1  0.630168  0.468281  0.407572  1
  Ir  Ir23  1  0.369832  0.531719  0.907572  1
  Ir  Ir24  1  0.379140  0.950363  0.405446  1
  Ir  Ir25  1  0.620860  0.049637  0.905446  1
  Ir  Ir26  1  0.379140  0.549637  0.594554  1
  Ir  Ir27  1  0.620860  0.450363  0.094554  1
