# generated using pymatgen
data_Tb20Ir11Os
_symmetry_space_group_name_H-M   'P 1'
_cell_length_a   10.92863700
_cell_length_b   10.92863700
_cell_length_c   6.42162900
_cell_angle_alpha   90.00000000
_cell_angle_beta   90.00000000
_cell_angle_gamma   90.00000000
_symmetry_Int_Tables_number   1
_chemical_formula_structural   Tb20Ir11Os
_chemical_formula_sum   'Tb20 Ir11 Os1'
_cell_volume   766.96794466
_cell_formula_units_Z   1
loop_
 _symmetry_equiv_pos_site_id
 _symmetry_equiv_pos_as_xyz
  1  'x, y, z'
loop_
 _atom_site_type_symbol
 _atom_site_label
 _atom_site_symmetry_multiplicity
 _atom_site_fract_x
 _atom_site_fract_y
 _atom_site_fract_z
 _atom_site_occupancy
  Tb  Tb0  1  0.292614  0.087366  0.376597  1
  Tb  Tb1  1  0.292956  0.912710  0.880345  1
  Tb  Tb2  1  0.707044  0.087290  0.880345  1
  Tb  Tb3  1  0.707386  0.912634  0.376597  1
  Tb  Tb4  1  0.587290  0.792956  0.880345  1
  Tb  Tb5  1  0.587366  0.207386  0.376597  1
  Tb  Tb6  1  0.412634  0.792614  0.376597  1
  Tb  Tb7  1  0.412710  0.207044  0.880345  1
  Tb  Tb8  1  0.208970  0.411680  0.621216  1
  Tb  Tb9  1  0.208925  0.588156  0.121065  1
  Tb  Tb10  1  0.791075  0.411844  0.121065  1
  Tb  Tb11  1  0.791030  0.588320  0.621216  1
  Tb  Tb12  1  0.911844  0.708925  0.121065  1
  Tb  Tb13  1  0.911680  0.291030  0.621216  1
  Tb  Tb14  1  0.088320  0.708970  0.621216  1
  Tb  Tb15  1  0.088156  0.291075  0.121065  1
  Tb  Tb16  1  0.000000  0.000000  0.499589  1
  Tb  Tb17  1  0.000000  0.000000  0.999503  1
  Tb  Tb18  1  0.500000  0.500000  0.999503  1
  Tb  Tb19  1  0.500000  0.500000  0.499589  1
  Ir  Ir20  1  0.847364  0.153970  0.250396  1
  Ir  Ir21  1  0.847468  0.846288  0.749970  1
  Ir  Ir22  1  0.152532  0.153712  0.749970  1
  Ir  Ir23  1  0.152636  0.846030  0.250396  1
  Ir  Ir24  1  0.653712  0.347468  0.749970  1
  Ir  Ir25  1  0.653970  0.652636  0.250396  1
  Ir  Ir26  1  0.346030  0.347364  0.250396  1
  Ir  Ir27  1  0.346288  0.652532  0.749970  1
  Ir  Ir28  1  0.500000  0.000000  0.622159  1
  Ir  Ir29  1  0.000000  0.500000  0.878755  1
  Ir  Ir30  1  0.000000  0.500000  0.379106  1
  Os  Os31  1  0.500000  0.000000  0.123445  1
