# generated using pymatgen
data_TmNp(Ta2N3)4
_symmetry_space_group_name_H-M   'P 1'
_cell_length_a   5.28975200
_cell_length_b   5.28975147
_cell_length_c   10.74709400
_cell_angle_alpha   90.00000000
_cell_angle_beta   90.00000000
_cell_angle_gamma   120.00000331
_symmetry_Int_Tables_number   1
_chemical_formula_structural   TmNp(Ta2N3)4
_chemical_formula_sum   'Tm1 Np1 Ta8 N12'
_cell_volume   260.43073945
_cell_formula_units_Z   1
loop_
 _symmetry_equiv_pos_site_id
 _symmetry_equiv_pos_as_xyz
  1  'x, y, z'
loop_
 _atom_site_type_symbol
 _atom_site_label
 _atom_site_symmetry_multiplicity
 _atom_site_fract_x
 _atom_site_fract_y
 _atom_site_fract_z
 _atom_site_occupancy
  Tm  Tm0  1  0.333333  0.666667  0.000000  1
  Np  Np1  1  0.666667  0.333333  0.000000  1
  Ta  Ta2  1  0.675924  0.677323  0.739978  1
  Ta  Ta3  1  0.322677  0.998601  0.739978  1
  Ta  Ta4  1  0.001399  0.324076  0.739978  1
  Ta  Ta5  1  0.322677  0.324076  0.260022  1
  Ta  Ta6  1  0.675924  0.998601  0.260022  1
  Ta  Ta7  1  0.001399  0.677323  0.260022  1
  Ta  Ta8  1  0.333333  0.666667  0.500000  1
  Ta  Ta9  1  0.666667  0.333333  0.500000  1
  N  N10  1  0.658414  0.657767  0.385080  1
  N  N11  1  0.342233  0.000647  0.385080  1
  N  N12  1  0.999353  0.341586  0.385080  1
  N  N13  1  0.342233  0.341586  0.614920  1
  N  N14  1  0.658414  0.000647  0.614920  1
  N  N15  1  0.999353  0.657767  0.614920  1
  N  N16  1  0.346394  0.341316  0.859897  1
  N  N17  1  0.658684  0.005077  0.859897  1
  N  N18  1  0.994923  0.653606  0.859897  1
  N  N19  1  0.658684  0.653606  0.140103  1
  N  N20  1  0.346394  0.005077  0.140103  1
  N  N21  1  0.994923  0.341316  0.140103  1
