# generated using pymatgen
data_Ce2Fe3Tc14C3
_symmetry_space_group_name_H-M   'P 1'
_cell_length_a   6.91098682
_cell_length_b   6.91098850
_cell_length_c   6.91098775
_cell_angle_alpha   82.66085175
_cell_angle_beta   82.66085326
_cell_angle_gamma   82.66084659
_symmetry_Int_Tables_number   1
_chemical_formula_structural   Ce2Fe3Tc14C3
_chemical_formula_sum   'Ce2 Fe3 Tc14 C3'
_cell_volume   322.60482699
_cell_formula_units_Z   1
loop_
 _symmetry_equiv_pos_site_id
 _symmetry_equiv_pos_as_xyz
  1  'x, y, z'
loop_
 _atom_site_type_symbol
 _atom_site_label
 _atom_site_symmetry_multiplicity
 _atom_site_fract_x
 _atom_site_fract_y
 _atom_site_fract_z
 _atom_site_occupancy
  Ce  Ce0  1  0.650549  0.650549  0.650549  1
  Ce  Ce1  1  0.349451  0.349451  0.349451  1
  Fe  Fe2  1  0.000000  0.000000  0.500000  1
  Fe  Fe3  1  0.500000  0.000000  0.000000  1
  Fe  Fe4  1  0.000000  0.500000  0.000000  1
  Tc  Tc5  1  0.724419  0.275581  0.000000  1
  Tc  Tc6  1  0.000000  0.724419  0.275581  1
  Tc  Tc7  1  0.275581  0.000000  0.724419  1
  Tc  Tc8  1  0.000000  0.275581  0.724419  1
  Tc  Tc9  1  0.724419  0.000000  0.275581  1
  Tc  Tc10  1  0.275581  0.724419  0.000000  1
  Tc  Tc11  1  0.347583  0.347583  0.862000  1
  Tc  Tc12  1  0.862000  0.347583  0.347583  1
  Tc  Tc13  1  0.347583  0.862000  0.347583  1
  Tc  Tc14  1  0.652417  0.652417  0.138000  1
  Tc  Tc15  1  0.138000  0.652417  0.652417  1
  Tc  Tc16  1  0.652417  0.138000  0.652417  1
  Tc  Tc17  1  0.898781  0.898781  0.898781  1
  Tc  Tc18  1  0.101219  0.101219  0.101219  1
  C  C19  1  0.500000  0.500000  0.000000  1
  C  C20  1  0.000000  0.500000  0.500000  1
  C  C21  1  0.500000  0.000000  0.500000  1
