# generated using pymatgen
data_Sm4RuCl6
_symmetry_space_group_name_H-M   'P 1'
_cell_length_a   4.00856200
_cell_length_b   13.37279300
_cell_length_c   13.85043700
_cell_angle_alpha   90.00000000
_cell_angle_beta   90.00000000
_cell_angle_gamma   90.00000000
_symmetry_Int_Tables_number   1
_chemical_formula_structural   Sm4RuCl6
_chemical_formula_sum   'Sm8 Ru2 Cl12'
_cell_volume   742.46195315
_cell_formula_units_Z   2
loop_
 _symmetry_equiv_pos_site_id
 _symmetry_equiv_pos_as_xyz
  1  'x, y, z'
loop_
 _atom_site_type_symbol
 _atom_site_label
 _atom_site_symmetry_multiplicity
 _atom_site_fract_x
 _atom_site_fract_y
 _atom_site_fract_z
 _atom_site_occupancy
  Sm  Sm0  1  0.500000  0.110982  0.346570  1
  Sm  Sm1  1  0.500000  0.889018  0.653430  1
  Sm  Sm2  1  0.500000  0.610982  0.153430  1
  Sm  Sm3  1  0.500000  0.389018  0.846570  1
  Sm  Sm4  1  0.000000  0.130594  0.588592  1
  Sm  Sm5  1  0.000000  0.869406  0.411408  1
  Sm  Sm6  1  0.000000  0.630594  0.911408  1
  Sm  Sm7  1  0.000000  0.369406  0.088592  1
  Ru  Ru8  1  0.500000  0.000000  0.500000  1
  Ru  Ru9  1  0.500000  0.500000  0.000000  1
  Cl  Cl10  1  0.500000  0.237029  0.175154  1
  Cl  Cl11  1  0.500000  0.762971  0.824846  1
  Cl  Cl12  1  0.500000  0.737029  0.324846  1
  Cl  Cl13  1  0.500000  0.262971  0.675154  1
  Cl  Cl14  1  0.000000  0.242506  0.413483  1
  Cl  Cl15  1  0.000000  0.757494  0.586517  1
  Cl  Cl16  1  0.000000  0.742506  0.086517  1
  Cl  Cl17  1  0.000000  0.257494  0.913483  1
  Cl  Cl18  1  0.000000  0.001897  0.249852  1
  Cl  Cl19  1  0.000000  0.998103  0.750148  1
  Cl  Cl20  1  0.000000  0.501897  0.250148  1
  Cl  Cl21  1  0.000000  0.498103  0.749852  1
