# generated using pymatgen
data_TbErZnCo2
_symmetry_space_group_name_H-M   'P 1'
_cell_length_a   5.31570598
_cell_length_b   5.31570595
_cell_length_c   5.31570580
_cell_angle_alpha   135.18256048
_cell_angle_beta   118.37428071
_cell_angle_gamma   79.36304050
_symmetry_Int_Tables_number   1
_chemical_formula_structural   TbErZnCo2
_chemical_formula_sum   'Tb1 Er1 Zn1 Co2'
_cell_volume   90.29138532
_cell_formula_units_Z   1
loop_
 _symmetry_equiv_pos_site_id
 _symmetry_equiv_pos_as_xyz
  1  'x, y, z'
loop_
 _atom_site_type_symbol
 _atom_site_label
 _atom_site_symmetry_multiplicity
 _atom_site_fract_x
 _atom_site_fract_y
 _atom_site_fract_z
 _atom_site_occupancy
  Tb  Tb0  1  0.290682  0.790683  0.500000  1
  Er  Er1  1  0.708567  0.208567  0.500000  1
  Zn  Zn2  1  0.999494  0.999494  0.000000  1
  Co  Co3  1  0.708693  0.500627  0.208065  1
  Co  Co4  1  0.292563  0.500628  0.791935  1
