# generated using pymatgen
data_La8Yb12Sn9Bi7
_symmetry_space_group_name_H-M   'P 1'
_cell_length_a   8.48225256
_cell_length_b   8.47600106
_cell_length_c   16.02122000
_cell_angle_alpha   90.03991642
_cell_angle_beta   89.94060518
_cell_angle_gamma   90.00087959
_symmetry_Int_Tables_number   1
_chemical_formula_structural   La8Yb12Sn9Bi7
_chemical_formula_sum   'La8 Yb12 Sn9 Bi7'
_cell_volume   1151.85403210
_cell_formula_units_Z   1
loop_
 _symmetry_equiv_pos_site_id
 _symmetry_equiv_pos_as_xyz
  1  'x, y, z'
loop_
 _atom_site_type_symbol
 _atom_site_label
 _atom_site_symmetry_multiplicity
 _atom_site_fract_x
 _atom_site_fract_y
 _atom_site_fract_z
 _atom_site_occupancy
  La  La0  1  0.525120  0.318691  0.903956  1
  La  La1  1  0.027713  0.182777  0.601071  1
  La  La2  1  0.474128  0.683576  0.399783  1
  La  La3  1  0.973855  0.813013  0.100792  1
  La  La4  1  0.484796  0.683270  0.095739  1
  La  La5  1  0.972904  0.816408  0.398746  1
  La  La6  1  0.525885  0.317253  0.600293  1
  La  La7  1  0.023273  0.183751  0.901477  1
  Yb  Yb8  1  0.373011  0.839319  0.876701  1
  Yb  Yb9  1  0.875290  0.662454  0.623477  1
  Yb  Yb10  1  0.625632  0.160905  0.377146  1
  Yb  Yb11  1  0.121168  0.335576  0.124081  1
  Yb  Yb12  1  0.630169  0.163969  0.121877  1
  Yb  Yb13  1  0.124501  0.338052  0.376462  1
  Yb  Yb14  1  0.373875  0.840076  0.623088  1
  Yb  Yb15  1  0.870200  0.661451  0.877071  1
  Yb  Yb16  1  0.202952  0.511111  0.750243  1
  Yb  Yb17  1  0.702846  0.989980  0.750739  1
  Yb  Yb18  1  0.797115  0.489035  0.247893  1
  Yb  Yb19  1  0.297961  0.009162  0.248515  1
  Sn  Sn20  1  0.792519  0.461674  0.041411  1
  Sn  Sn21  1  0.571102  0.605448  0.749977  1
  Sn  Sn22  1  0.073210  0.893737  0.749587  1
  Sn  Sn23  1  0.429229  0.393818  0.248140  1
  Sn  Sn24  1  0.926494  0.105223  0.251973  1
  Sn  Sn25  1  0.319333  0.141480  0.751201  1
  Sn  Sn26  1  0.817736  0.360745  0.750136  1
  Sn  Sn27  1  0.680319  0.860081  0.249704  1
  Sn  Sn28  1  0.184457  0.638820  0.249997  1
  Bi  Bi29  1  0.285612  0.035416  0.041831  1
  Bi  Bi30  1  0.784909  0.464452  0.457822  1
  Bi  Bi31  1  0.715618  0.965232  0.542551  1
  Bi  Bi32  1  0.204621  0.538981  0.959487  1
  Bi  Bi33  1  0.713567  0.963137  0.958072  1
  Bi  Bi34  1  0.214302  0.536374  0.541824  1
  Bi  Bi35  1  0.284582  0.035555  0.457137  1
