# generated using pymatgen
data_Yb2Si7Pd12
_symmetry_space_group_name_H-M   'P 1'
_cell_length_a   10.08108400
_cell_length_b   10.08108277
_cell_length_c   3.79514900
_cell_angle_alpha   90.00000000
_cell_angle_beta   90.00000000
_cell_angle_gamma   119.99999747
_symmetry_Int_Tables_number   1
_chemical_formula_structural   Yb2Si7Pd12
_chemical_formula_sum   'Yb2 Si7 Pd12'
_cell_volume   334.02108934
_cell_formula_units_Z   1
loop_
 _symmetry_equiv_pos_site_id
 _symmetry_equiv_pos_as_xyz
  1  'x, y, z'
loop_
 _atom_site_type_symbol
 _atom_site_label
 _atom_site_symmetry_multiplicity
 _atom_site_fract_x
 _atom_site_fract_y
 _atom_site_fract_z
 _atom_site_occupancy
  Yb  Yb0  1  0.666667  0.333333  0.249853  1
  Yb  Yb1  1  0.000000  0.000000  0.748145  1
  Si  Si2  1  0.333333  0.666667  0.466147  1
  Si  Si3  1  0.740750  0.783748  0.249358  1
  Si  Si4  1  0.042998  0.259250  0.249358  1
  Si  Si5  1  0.216252  0.957002  0.249358  1
  Si  Si6  1  0.926215  0.550190  0.749183  1
  Si  Si7  1  0.623975  0.073785  0.749183  1
  Si  Si8  1  0.449810  0.376025  0.749183  1
  Pd  Pd9  1  0.775336  0.045090  0.248817  1
  Pd  Pd10  1  0.269754  0.224664  0.248817  1
  Pd  Pd11  1  0.954910  0.730246  0.248817  1
  Pd  Pd12  1  0.891004  0.286781  0.749508  1
  Pd  Pd13  1  0.395776  0.108996  0.749508  1
  Pd  Pd14  1  0.713219  0.604224  0.749508  1
  Pd  Pd15  1  0.480191  0.553224  0.250235  1
  Pd  Pd16  1  0.073031  0.519809  0.250235  1
  Pd  Pd17  1  0.446776  0.926969  0.250235  1
  Pd  Pd18  1  0.189833  0.777556  0.748689  1
  Pd  Pd19  1  0.587724  0.810167  0.748689  1
  Pd  Pd20  1  0.222444  0.412276  0.748689  1
