# generated using pymatgen
data_K20Hf4As5P7
_symmetry_space_group_name_H-M   'P 1'
_cell_length_a   8.35727409
_cell_length_b   9.08535779
_cell_length_c   17.59772162
_cell_angle_alpha   59.91246257
_cell_angle_beta   89.98503203
_cell_angle_gamma   89.89516679
_symmetry_Int_Tables_number   1
_chemical_formula_structural   K20Hf4As5P7
_chemical_formula_sum   'K20 Hf4 As5 P7'
_cell_volume   1156.13658101
_cell_formula_units_Z   1
loop_
 _symmetry_equiv_pos_site_id
 _symmetry_equiv_pos_as_xyz
  1  'x, y, z'
loop_
 _atom_site_type_symbol
 _atom_site_label
 _atom_site_symmetry_multiplicity
 _atom_site_fract_x
 _atom_site_fract_y
 _atom_site_fract_z
 _atom_site_occupancy
  K  K0  1  0.163073  0.837287  0.742776  1
  K  K1  1  0.670714  0.155950  0.758060  1
  K  K2  1  0.836011  0.157067  0.257211  1
  K  K3  1  0.335599  0.844060  0.242031  1
  K  K4  1  0.171246  0.168711  0.416090  1
  K  K5  1  0.671325  0.832190  0.083394  1
  K  K6  1  0.828812  0.833126  0.583020  1
  K  K7  1  0.329657  0.166207  0.919978  1
  K  K8  1  0.009048  0.084748  0.091893  1
  K  K9  1  0.509681  0.917869  0.406732  1
  K  K10  1  0.992639  0.915116  0.908070  1
  K  K11  1  0.491436  0.083434  0.591514  1
  K  K12  1  0.517895  0.265515  0.078204  1
  K  K13  1  0.017234  0.736400  0.421407  1
  K  K14  1  0.480789  0.737996  0.920809  1
  K  K15  1  0.980556  0.264531  0.577119  1
  K  K16  1  0.980107  0.550611  0.257028  1
  K  K17  1  0.480001  0.449924  0.242160  1
  K  K18  1  0.016380  0.452399  0.743014  1
  K  K19  1  0.519347  0.549362  0.757978  1
  Hf  Hf20  1  0.371778  0.494026  0.578816  1
  Hf  Hf21  1  0.870055  0.509014  0.919971  1
  Hf  Hf22  1  0.629803  0.510410  0.418582  1
  Hf  Hf23  1  0.129234  0.490112  0.081092  1
  As  As24  1  0.283495  0.210322  0.718900  1
  As  As25  1  0.251934  0.759393  0.079044  1
  As  As26  1  0.752255  0.239837  0.421244  1
  As  As27  1  0.747533  0.239133  0.922461  1
  As  As28  1  0.247976  0.761960  0.576929  1
  P  P29  1  0.324161  0.489894  0.436290  1
  P  P30  1  0.823316  0.511824  0.063426  1
  P  P31  1  0.676490  0.513696  0.562068  1
  P  P32  1  0.176021  0.487742  0.937566  1
  P  P33  1  0.214229  0.217640  0.215012  1
  P  P34  1  0.714344  0.782379  0.284897  1
  P  P35  1  0.785827  0.780115  0.785215  1
