# generated using pymatgen
data_Yb12Ce(DySb4)3
_symmetry_space_group_name_H-M   'P 1'
_cell_length_a   9.41350213
_cell_length_b   9.41350213
_cell_length_c   9.41350213
_cell_angle_alpha   90.09249811
_cell_angle_beta   90.09249811
_cell_angle_gamma   89.90750189
_symmetry_Int_Tables_number   1
_chemical_formula_structural   Yb12Ce(DySb4)3
_chemical_formula_sum   'Yb12 Ce1 Dy3 Sb12'
_cell_volume   834.16503018
_cell_formula_units_Z   1
loop_
 _symmetry_equiv_pos_site_id
 _symmetry_equiv_pos_as_xyz
  1  'x, y, z'
loop_
 _atom_site_type_symbol
 _atom_site_label
 _atom_site_symmetry_multiplicity
 _atom_site_fract_x
 _atom_site_fract_y
 _atom_site_fract_z
 _atom_site_occupancy
  Yb  Yb0  1  0.822294  0.322294  0.177706  1
  Yb  Yb1  1  0.930061  0.930769  0.930783  1
  Yb  Yb2  1  0.825279  0.674756  0.325743  1
  Yb  Yb3  1  0.177207  0.823051  0.323099  1
  Yb  Yb4  1  0.174756  0.174257  0.174721  1
  Yb  Yb5  1  0.325899  0.825899  0.674101  1
  Yb  Yb6  1  0.069217  0.430061  0.569231  1
  Yb  Yb7  1  0.323051  0.176901  0.822793  1
  Yb  Yb8  1  0.674257  0.325279  0.825244  1
  Yb  Yb9  1  0.676901  0.677207  0.676949  1
  Yb  Yb10  1  0.569399  0.069399  0.430601  1
  Yb  Yb11  1  0.430769  0.569217  0.069939  1
  Ce  Ce12  1  0.071953  0.571953  0.928047  1
  Dy  Dy13  1  0.929757  0.070132  0.569834  1
  Dy  Dy14  1  0.430166  0.429757  0.429868  1
  Dy  Dy15  1  0.570132  0.930166  0.070243  1
  Sb  Sb16  1  0.746011  0.369931  0.500254  1
  Sb  Sb17  1  0.869931  0.999746  0.253989  1
  Sb  Sb18  1  0.999715  0.755656  0.627915  1
  Sb  Sb19  1  0.245665  0.129949  0.499803  1
  Sb  Sb20  1  0.131084  0.498966  0.250102  1
  Sb  Sb21  1  0.998966  0.249898  0.868916  1
  Sb  Sb22  1  0.255656  0.872085  0.000285  1
  Sb  Sb23  1  0.372085  0.499715  0.744344  1
  Sb  Sb24  1  0.499746  0.246011  0.130069  1
  Sb  Sb25  1  0.749898  0.631084  0.001034  1
  Sb  Sb26  1  0.629949  0.000197  0.754335  1
  Sb  Sb27  1  0.500197  0.745665  0.370051  1
