# generated using pymatgen
data_Tb12Nd8ZnSn15
_symmetry_space_group_name_H-M   'P 1'
_cell_length_a   8.07504300
_cell_length_b   8.17468169
_cell_length_c   15.79965800
_cell_angle_alpha   90.00000000
_cell_angle_beta   90.00000000
_cell_angle_gamma   90.21711617
_symmetry_Int_Tables_number   1
_chemical_formula_structural   Tb12Nd8ZnSn15
_chemical_formula_sum   'Tb12 Nd8 Zn1 Sn15'
_cell_volume   1042.94225373
_cell_formula_units_Z   1
loop_
 _symmetry_equiv_pos_site_id
 _symmetry_equiv_pos_as_xyz
  1  'x, y, z'
loop_
 _atom_site_type_symbol
 _atom_site_label
 _atom_site_symmetry_multiplicity
 _atom_site_fract_x
 _atom_site_fract_y
 _atom_site_fract_z
 _atom_site_occupancy
  Tb  Tb0  1  0.655725  0.169060  0.626294  1
  Tb  Tb1  1  0.167112  0.333889  0.874451  1
  Tb  Tb2  1  0.339266  0.834760  0.124555  1
  Tb  Tb3  1  0.838224  0.666924  0.374430  1
  Tb  Tb4  1  0.339266  0.834760  0.375445  1
  Tb  Tb5  1  0.838224  0.666924  0.125570  1
  Tb  Tb6  1  0.655725  0.169060  0.873706  1
  Tb  Tb7  1  0.167112  0.333889  0.625549  1
  Tb  Tb8  1  0.820572  0.494608  0.750000  1
  Tb  Tb9  1  0.329311  0.999557  0.750000  1
  Tb  Tb10  1  0.168880  0.500442  0.250000  1
  Tb  Tb11  1  0.670508  0.999674  0.250000  1
  Nd  Nd12  1  0.502770  0.679490  0.592713  1
  Nd  Nd13  1  0.002155  0.821759  0.903492  1
  Nd  Nd14  1  0.498029  0.322537  0.094870  1
  Nd  Nd15  1  0.999951  0.176697  0.403496  1
  Nd  Nd16  1  0.498029  0.322537  0.405130  1
  Nd  Nd17  1  0.999951  0.176697  0.096504  1
  Nd  Nd18  1  0.502770  0.679490  0.907287  1
  Nd  Nd19  1  0.002155  0.821759  0.596508  1
  Zn  Zn20  1  0.461080  0.383112  0.750000  1
  Sn  Sn21  1  0.681234  0.962476  0.460052  1
  Sn  Sn22  1  0.174364  0.539366  0.040178  1
  Sn  Sn23  1  0.320069  0.038015  0.958665  1
  Sn  Sn24  1  0.822464  0.462257  0.542087  1
  Sn  Sn25  1  0.320069  0.038015  0.541335  1
  Sn  Sn26  1  0.822464  0.462257  0.957913  1
  Sn  Sn27  1  0.681234  0.962476  0.039948  1
  Sn  Sn28  1  0.174364  0.539366  0.459822  1
  Sn  Sn29  1  0.961253  0.118621  0.750000  1
  Sn  Sn30  1  0.533830  0.618964  0.250000  1
  Sn  Sn31  1  0.037193  0.880921  0.250000  1
  Sn  Sn32  1  0.696818  0.855214  0.750000  1
  Sn  Sn33  1  0.207955  0.633618  0.750000  1
  Sn  Sn34  1  0.306711  0.145878  0.250000  1
  Sn  Sn35  1  0.803159  0.354930  0.250000  1
