# generated using pymatgen
data_Nd6Cd4Pd12Au
_symmetry_space_group_name_H-M   'P 1'
_cell_length_a   8.58505677
_cell_length_b   8.58505752
_cell_length_c   8.58505700
_cell_angle_alpha   109.47122178
_cell_angle_beta   109.47122354
_cell_angle_gamma   109.47121931
_symmetry_Int_Tables_number   1
_chemical_formula_structural   Nd6Cd4Pd12Au
_chemical_formula_sum   'Nd6 Cd4 Pd12 Au1'
_cell_volume   487.08825547
_cell_formula_units_Z   1
loop_
 _symmetry_equiv_pos_site_id
 _symmetry_equiv_pos_as_xyz
  1  'x, y, z'
loop_
 _atom_site_type_symbol
 _atom_site_label
 _atom_site_symmetry_multiplicity
 _atom_site_fract_x
 _atom_site_fract_y
 _atom_site_fract_z
 _atom_site_occupancy
  Nd  Nd0  1  0.303972  0.000000  0.303972  1
  Nd  Nd1  1  0.696028  0.000000  0.696028  1
  Nd  Nd2  1  0.303972  0.303972  0.000000  1
  Nd  Nd3  1  0.696028  0.696028  0.000000  1
  Nd  Nd4  1  0.000000  0.303972  0.303972  1
  Nd  Nd5  1  0.000000  0.696028  0.696028  1
  Cd  Cd6  1  0.500000  0.000000  0.000000  1
  Cd  Cd7  1  0.000000  0.000000  0.500000  1
  Cd  Cd8  1  0.000000  0.500000  0.000000  1
  Cd  Cd9  1  0.500000  0.500000  0.500000  1
  Pd  Pd10  1  0.342548  0.000000  0.657452  1
  Pd  Pd11  1  0.657452  0.000000  0.342548  1
  Pd  Pd12  1  0.342548  0.685095  0.342548  1
  Pd  Pd13  1  0.657452  0.314905  0.657452  1
  Pd  Pd14  1  0.657452  0.342548  0.000000  1
  Pd  Pd15  1  0.342548  0.657452  0.000000  1
  Pd  Pd16  1  0.342548  0.342548  0.685095  1
  Pd  Pd17  1  0.657452  0.657452  0.314905  1
  Pd  Pd18  1  0.000000  0.657452  0.342548  1
  Pd  Pd19  1  0.000000  0.342548  0.657452  1
  Pd  Pd20  1  0.685095  0.342548  0.342548  1
  Pd  Pd21  1  0.314905  0.657452  0.657452  1
  Au  Au22  1  0.000000  0.000000  0.000000  1
