# generated using pymatgen
data_Ca2PrNdAl8
_symmetry_space_group_name_H-M   'P 1'
_cell_length_a   9.76755609
_cell_length_b   9.76755589
_cell_length_c   9.76755614
_cell_angle_alpha   34.01764358
_cell_angle_beta   34.01764606
_cell_angle_gamma   34.01764304
_symmetry_Int_Tables_number   1
_chemical_formula_structural   Ca2PrNdAl8
_chemical_formula_sum   'Ca2 Pr1 Nd1 Al8'
_cell_volume   259.98675330
_cell_formula_units_Z   1
loop_
 _symmetry_equiv_pos_site_id
 _symmetry_equiv_pos_as_xyz
  1  'x, y, z'
loop_
 _atom_site_type_symbol
 _atom_site_label
 _atom_site_symmetry_multiplicity
 _atom_site_fract_x
 _atom_site_fract_y
 _atom_site_fract_z
 _atom_site_occupancy
  Ca  Ca0  1  0.312964  0.312964  0.312964  1
  Ca  Ca1  1  0.686793  0.686793  0.686793  1
  Pr  Pr2  1  0.811607  0.811607  0.811607  1
  Nd  Nd3  1  0.188463  0.188463  0.188463  1
  Al  Al4  1  0.500164  0.500164  0.500164  1
  Al  Al5  1  0.999860  0.999860  0.999860  1
  Al  Al6  1  0.249614  0.249614  0.754746  1
  Al  Al7  1  0.750398  0.750398  0.245374  1
  Al  Al8  1  0.249614  0.754746  0.249614  1
  Al  Al9  1  0.750398  0.245374  0.750398  1
  Al  Al10  1  0.754746  0.249614  0.249614  1
  Al  Al11  1  0.245374  0.750398  0.750398  1
