# generated using pymatgen
data_HoThPd5Pt
_symmetry_space_group_name_H-M   'P 1'
_cell_length_a   5.88637241
_cell_length_b   5.90141362
_cell_length_c   9.67512500
_cell_angle_alpha   90.00000000
_cell_angle_beta   90.00000000
_cell_angle_gamma   120.08456797
_symmetry_Int_Tables_number   1
_chemical_formula_structural   HoThPd5Pt
_chemical_formula_sum   'Ho2 Th2 Pd10 Pt2'
_cell_volume   290.81733150
_cell_formula_units_Z   2
loop_
 _symmetry_equiv_pos_site_id
 _symmetry_equiv_pos_as_xyz
  1  'x, y, z'
loop_
 _atom_site_type_symbol
 _atom_site_label
 _atom_site_symmetry_multiplicity
 _atom_site_fract_x
 _atom_site_fract_y
 _atom_site_fract_z
 _atom_site_occupancy
  Ho  Ho0  1  0.331765  0.665883  0.250000  1
  Ho  Ho1  1  0.668235  0.334117  0.750000  1
  Th  Th2  1  0.000000  0.000000  0.500000  1
  Th  Th3  1  0.000000  0.000000  0.000000  1
  Pd  Pd4  1  0.500000  0.500000  0.500000  1
  Pd  Pd5  1  0.500000  0.000000  0.500000  1
  Pd  Pd6  1  0.500000  0.500000  0.000000  1
  Pd  Pd7  1  0.500000  0.000000  0.000000  1
  Pd  Pd8  1  0.825602  0.651585  0.250000  1
  Pd  Pd9  1  0.347083  0.173541  0.250000  1
  Pd  Pd10  1  0.825602  0.174017  0.250000  1
  Pd  Pd11  1  0.174398  0.348415  0.750000  1
  Pd  Pd12  1  0.652917  0.826459  0.750000  1
  Pd  Pd13  1  0.174398  0.825983  0.750000  1
  Pt  Pt14  1  0.000000  0.500000  0.500000  1
  Pt  Pt15  1  0.000000  0.500000  0.000000  1
