# generated using pymatgen
data_Er11Tm(OsPt)2
_symmetry_space_group_name_H-M   'P 1'
_cell_length_a   7.23496572
_cell_length_b   9.02514822
_cell_length_c   6.41202599
_cell_angle_alpha   90.02463302
_cell_angle_beta   89.77847430
_cell_angle_gamma   89.99412581
_symmetry_Int_Tables_number   1
_chemical_formula_structural   Er11Tm(OsPt)2
_chemical_formula_sum   'Er11 Tm1 Os2 Pt2'
_cell_volume   418.68056956
_cell_formula_units_Z   1
loop_
 _symmetry_equiv_pos_site_id
 _symmetry_equiv_pos_as_xyz
  1  'x, y, z'
loop_
 _atom_site_type_symbol
 _atom_site_label
 _atom_site_symmetry_multiplicity
 _atom_site_fract_x
 _atom_site_fract_y
 _atom_site_fract_z
 _atom_site_occupancy
  Er  Er0  1  0.026680  0.250113  0.620042  1
  Er  Er1  1  0.973541  0.749924  0.380139  1
  Er  Er2  1  0.461557  0.749854  0.122815  1
  Er  Er3  1  0.538267  0.250132  0.876957  1
  Er  Er4  1  0.175744  0.059081  0.167175  1
  Er  Er5  1  0.824357  0.940856  0.832918  1
  Er  Er6  1  0.316053  0.938441  0.679964  1
  Er  Er7  1  0.824352  0.559087  0.832772  1
  Er  Er8  1  0.683888  0.061342  0.320071  1
  Er  Er9  1  0.175824  0.441026  0.167187  1
  Er  Er10  1  0.683754  0.438713  0.320179  1
  Tm  Tm11  1  0.316185  0.561719  0.679980  1
  Os  Os12  1  0.113763  0.749753  0.965002  1
  Os  Os13  1  0.886416  0.250017  0.034626  1
  Pt  Pt14  1  0.388248  0.250226  0.459795  1
  Pt  Pt15  1  0.611369  0.749717  0.540377  1
