# generated using pymatgen
data_Ac3GePd5
_symmetry_space_group_name_H-M   'P 1'
_cell_length_a   8.82927242
_cell_length_b   8.82927354
_cell_length_c   8.82927325
_cell_angle_alpha   128.12714953
_cell_angle_beta   126.66390645
_cell_angle_gamma   77.61212831
_symmetry_Int_Tables_number   1
_chemical_formula_structural   Ac3GePd5
_chemical_formula_sum   'Ac6 Ge2 Pd10'
_cell_volume   421.16196600
_cell_formula_units_Z   2
loop_
 _symmetry_equiv_pos_site_id
 _symmetry_equiv_pos_as_xyz
  1  'x, y, z'
loop_
 _atom_site_type_symbol
 _atom_site_label
 _atom_site_symmetry_multiplicity
 _atom_site_fract_x
 _atom_site_fract_y
 _atom_site_fract_z
 _atom_site_occupancy
  Ac  Ac0  1  0.817344  0.048654  0.768691  1
  Ac  Ac1  1  0.220037  0.451346  0.768691  1
  Ac  Ac2  1  0.182656  0.951346  0.231309  1
  Ac  Ac3  1  0.384164  0.250000  0.134164  1
  Ac  Ac4  1  0.779963  0.548654  0.231309  1
  Ac  Ac5  1  0.615836  0.750000  0.865836  1
  Ge  Ge6  1  0.210674  0.750000  0.460674  1
  Ge  Ge7  1  0.789326  0.250000  0.539326  1
  Pd  Pd8  1  0.830488  0.593599  0.637410  1
  Pd  Pd9  1  0.543812  0.306922  0.637410  1
  Pd  Pd10  1  0.456188  0.093599  0.763110  1
  Pd  Pd11  1  0.830488  0.193078  0.236890  1
  Pd  Pd12  1  0.169512  0.406401  0.362590  1
  Pd  Pd13  1  0.456188  0.693078  0.362590  1
  Pd  Pd14  1  0.543812  0.906401  0.236890  1
  Pd  Pd15  1  0.169512  0.806922  0.763110  1
  Pd  Pd16  1  0.000000  0.000000  0.500000  1
  Pd  Pd17  1  0.000000  0.500000  0.000000  1
