# generated using pymatgen
data_Tm9Mg(BiAu2)2
_symmetry_space_group_name_H-M   'P 1'
_cell_length_a   8.64887446
_cell_length_b   8.64887624
_cell_length_c   8.64887594
_cell_angle_alpha   125.62326386
_cell_angle_beta   125.62326632
_cell_angle_gamma   80.50821698
_symmetry_Int_Tables_number   1
_chemical_formula_structural   Tm9Mg(BiAu2)2
_chemical_formula_sum   'Tm9 Mg1 Bi2 Au4'
_cell_volume   412.32977084
_cell_formula_units_Z   1
loop_
 _symmetry_equiv_pos_site_id
 _symmetry_equiv_pos_as_xyz
  1  'x, y, z'
loop_
 _atom_site_type_symbol
 _atom_site_label
 _atom_site_symmetry_multiplicity
 _atom_site_fract_x
 _atom_site_fract_y
 _atom_site_fract_z
 _atom_site_occupancy
  Tm  Tm0  1  0.000000  0.000000  0.000000  1
  Tm  Tm1  1  0.507700  0.023986  0.812323  1
  Tm  Tm2  1  0.211664  0.695378  0.187677  1
  Tm  Tm3  1  0.023986  0.211664  0.516286  1
  Tm  Tm4  1  0.695378  0.507700  0.483714  1
  Tm  Tm5  1  0.492300  0.976014  0.187677  1
  Tm  Tm6  1  0.788336  0.304622  0.812323  1
  Tm  Tm7  1  0.976014  0.788336  0.483714  1
  Tm  Tm8  1  0.304622  0.492300  0.516286  1
  Mg  Mg9  1  0.500000  0.500000  0.000000  1
  Bi  Bi10  1  0.244861  0.244861  0.000000  1
  Bi  Bi11  1  0.755139  0.755139  0.000000  1
  Au  Au12  1  0.134275  0.641515  0.775791  1
  Au  Au13  1  0.865725  0.358485  0.224209  1
  Au  Au14  1  0.641515  0.865725  0.507240  1
  Au  Au15  1  0.358485  0.134275  0.492760  1
