# generated using pymatgen
data_CaYb9(Bi2Pb)2
_symmetry_space_group_name_H-M   'P 1'
_cell_length_a   9.29136809
_cell_length_b   9.37408403
_cell_length_c   6.99615800
_cell_angle_alpha   90.00000000
_cell_angle_beta   90.00000000
_cell_angle_gamma   119.69262254
_symmetry_Int_Tables_number   1
_chemical_formula_structural   CaYb9(Bi2Pb)2
_chemical_formula_sum   'Ca1 Yb9 Bi4 Pb2'
_cell_volume   529.34106881
_cell_formula_units_Z   1
loop_
 _symmetry_equiv_pos_site_id
 _symmetry_equiv_pos_as_xyz
  1  'x, y, z'
loop_
 _atom_site_type_symbol
 _atom_site_label
 _atom_site_symmetry_multiplicity
 _atom_site_fract_x
 _atom_site_fract_y
 _atom_site_fract_z
 _atom_site_occupancy
  Ca  Ca0  1  0.003819  0.734716  0.750000  1
  Yb  Yb1  1  0.729861  0.734794  0.250000  1
  Yb  Yb2  1  0.270068  0.265250  0.750000  1
  Yb  Yb3  1  0.731823  0.000031  0.750000  1
  Yb  Yb4  1  0.334625  0.668973  0.499711  1
  Yb  Yb5  1  0.268121  0.000111  0.250000  1
  Yb  Yb6  1  0.995202  0.265161  0.250000  1
  Yb  Yb7  1  0.665397  0.330988  0.499867  1
  Yb  Yb8  1  0.334625  0.668973  0.000289  1
  Yb  Yb9  1  0.665397  0.330988  0.000133  1
  Bi  Bi10  1  0.378677  0.381067  0.250000  1
  Bi  Bi11  1  0.002465  0.380821  0.750000  1
  Bi  Bi12  1  0.621506  0.618891  0.750000  1
  Bi  Bi13  1  0.997610  0.618685  0.250000  1
  Pb  Pb14  1  0.613023  0.999865  0.250000  1
  Pb  Pb15  1  0.387779  0.000684  0.750000  1
