# generated using pymatgen
data_Rb2NaScSb2
_symmetry_space_group_name_H-M   'P 1'
_cell_length_a   11.14161231
_cell_length_b   11.14161274
_cell_length_c   7.36740900
_cell_angle_alpha   90.00000000
_cell_angle_beta   90.00000000
_cell_angle_gamma   98.93469519
_symmetry_Int_Tables_number   1
_chemical_formula_structural   Rb2NaScSb2
_chemical_formula_sum   'Rb8 Na4 Sc4 Sb8'
_cell_volume   903.45998078
_cell_formula_units_Z   4
loop_
 _symmetry_equiv_pos_site_id
 _symmetry_equiv_pos_as_xyz
  1  'x, y, z'
loop_
 _atom_site_type_symbol
 _atom_site_label
 _atom_site_symmetry_multiplicity
 _atom_site_fract_x
 _atom_site_fract_y
 _atom_site_fract_z
 _atom_site_occupancy
  Rb  Rb0  1  0.073277  0.426723  0.250000  1
  Rb  Rb1  1  0.426723  0.073277  0.750000  1
  Rb  Rb2  1  0.926723  0.573277  0.750000  1
  Rb  Rb3  1  0.573277  0.926723  0.250000  1
  Rb  Rb4  1  0.675201  0.324799  0.216484  1
  Rb  Rb5  1  0.824799  0.175201  0.716484  1
  Rb  Rb6  1  0.324799  0.675201  0.783516  1
  Rb  Rb7  1  0.175201  0.824799  0.283516  1
  Na  Na8  1  0.382156  0.382156  0.000000  1
  Na  Na9  1  0.117844  0.117844  0.500000  1
  Na  Na10  1  0.617844  0.617844  0.000000  1
  Na  Na11  1  0.882156  0.882156  0.500000  1
  Sc  Sc12  1  0.130426  0.130426  0.000000  1
  Sc  Sc13  1  0.369574  0.369574  0.500000  1
  Sc  Sc14  1  0.869574  0.869574  0.000000  1
  Sc  Sc15  1  0.630426  0.630426  0.500000  1
  Sb  Sb16  1  0.842341  0.657658  0.250000  1
  Sb  Sb17  1  0.657658  0.842341  0.750000  1
  Sb  Sb18  1  0.157658  0.342341  0.750000  1
  Sb  Sb19  1  0.342341  0.157658  0.250000  1
  Sb  Sb20  1  0.903441  0.096559  0.200384  1
  Sb  Sb21  1  0.596559  0.403441  0.700384  1
  Sb  Sb22  1  0.096559  0.903441  0.799616  1
  Sb  Sb23  1  0.403441  0.596559  0.299616  1
