# generated using pymatgen
data_TbPr3In2Ir3
_symmetry_space_group_name_H-M   'P 1'
_cell_length_a   7.71721029
_cell_length_b   7.71721011
_cell_length_c   4.23156500
_cell_angle_alpha   90.00000000
_cell_angle_beta   90.00000000
_cell_angle_gamma   120.83741127
_symmetry_Int_Tables_number   1
_chemical_formula_structural   TbPr3In2Ir3
_chemical_formula_sum   'Tb1 Pr3 In2 Ir3'
_cell_volume   216.38412460
_cell_formula_units_Z   1
loop_
 _symmetry_equiv_pos_site_id
 _symmetry_equiv_pos_as_xyz
  1  'x, y, z'
loop_
 _atom_site_type_symbol
 _atom_site_label
 _atom_site_symmetry_multiplicity
 _atom_site_fract_x
 _atom_site_fract_y
 _atom_site_fract_z
 _atom_site_occupancy
  Tb  Tb0  1  0.756564  0.756564  0.000000  1
  Pr  Pr1  1  0.021026  0.585356  0.500000  1
  Pr  Pr2  1  0.387464  0.387464  0.500000  1
  Pr  Pr3  1  0.585356  0.021026  0.500000  1
  In  In4  1  0.993847  0.246308  0.000000  1
  In  In5  1  0.246308  0.993847  0.000000  1
  Ir  Ir6  1  0.338735  0.667988  0.000000  1
  Ir  Ir7  1  0.002712  0.002712  0.500000  1
  Ir  Ir8  1  0.667988  0.338735  0.000000  1
