# generated using pymatgen
data_Er3Lu13(In3Pt)2
_symmetry_space_group_name_H-M   'P 1'
_cell_length_a   10.30915400
_cell_length_b   10.30915378
_cell_length_c   6.85266600
_cell_angle_alpha   90.00000000
_cell_angle_beta   90.00000000
_cell_angle_gamma   120.00000071
_symmetry_Int_Tables_number   1
_chemical_formula_structural   Er3Lu13(In3Pt)2
_chemical_formula_sum   'Er3 Lu13 In6 Pt2'
_cell_volume   630.71947123
_cell_formula_units_Z   1
loop_
 _symmetry_equiv_pos_site_id
 _symmetry_equiv_pos_as_xyz
  1  'x, y, z'
loop_
 _atom_site_type_symbol
 _atom_site_label
 _atom_site_symmetry_multiplicity
 _atom_site_fract_x
 _atom_site_fract_y
 _atom_site_fract_z
 _atom_site_occupancy
  Er  Er0  1  0.529268  0.058537  0.524689  1
  Er  Er1  1  0.941463  0.470732  0.524689  1
  Er  Er2  1  0.529268  0.470732  0.524689  1
  Lu  Lu3  1  0.470153  0.940307  0.025030  1
  Lu  Lu4  1  0.059693  0.529847  0.025030  1
  Lu  Lu5  1  0.470153  0.529847  0.025030  1
  Lu  Lu6  1  0.175572  0.351142  0.734133  1
  Lu  Lu7  1  0.648858  0.824428  0.734133  1
  Lu  Lu8  1  0.175572  0.824428  0.734133  1
  Lu  Lu9  1  0.824382  0.648764  0.230805  1
  Lu  Lu10  1  0.351236  0.175618  0.230805  1
  Lu  Lu11  1  0.824382  0.175618  0.230805  1
  Lu  Lu12  1  0.666667  0.333333  0.898677  1
  Lu  Lu13  1  0.333333  0.666667  0.398605  1
  Lu  Lu14  1  0.000000  0.000000  0.505100  1
  Lu  Lu15  1  0.000000  0.000000  0.005733  1
  In  In16  1  0.837831  0.675660  0.768422  1
  In  In17  1  0.324340  0.162169  0.768422  1
  In  In18  1  0.837831  0.162169  0.768422  1
  In  In19  1  0.162443  0.324887  0.268475  1
  In  In20  1  0.675113  0.837557  0.268475  1
  In  In21  1  0.162443  0.837557  0.268475  1
  Pt  Pt22  1  0.666667  0.333333  0.294981  1
  Pt  Pt23  1  0.333333  0.666667  0.797922  1
