# generated using pymatgen
data_Ac12InNi6
_symmetry_space_group_name_H-M   'P 1'
_cell_length_a   9.31384346
_cell_length_b   9.31384388
_cell_length_c   9.31384400
_cell_angle_alpha   109.47121655
_cell_angle_beta   109.47121746
_cell_angle_gamma   109.47122291
_symmetry_Int_Tables_number   1
_chemical_formula_structural   Ac12InNi6
_chemical_formula_sum   'Ac12 In1 Ni6'
_cell_volume   621.96362171
_cell_formula_units_Z   1
loop_
 _symmetry_equiv_pos_site_id
 _symmetry_equiv_pos_as_xyz
  1  'x, y, z'
loop_
 _atom_site_type_symbol
 _atom_site_label
 _atom_site_symmetry_multiplicity
 _atom_site_fract_x
 _atom_site_fract_y
 _atom_site_fract_z
 _atom_site_occupancy
  Ac  Ac0  1  0.819476  0.686870  0.506347  1
  Ac  Ac1  1  0.180524  0.313130  0.493653  1
  Ac  Ac2  1  0.180524  0.686870  0.867395  1
  Ac  Ac3  1  0.819476  0.313130  0.132605  1
  Ac  Ac4  1  0.686870  0.506347  0.819476  1
  Ac  Ac5  1  0.313130  0.493653  0.180524  1
  Ac  Ac6  1  0.686870  0.867395  0.180524  1
  Ac  Ac7  1  0.313130  0.132605  0.819476  1
  Ac  Ac8  1  0.506347  0.819476  0.686870  1
  Ac  Ac9  1  0.493653  0.180524  0.313130  1
  Ac  Ac10  1  0.132605  0.819476  0.313130  1
  Ac  Ac11  1  0.867395  0.180524  0.686870  1
  In  In12  1  0.000000  0.000000  0.000000  1
  Ni  Ni13  1  0.881681  0.381681  0.500000  1
  Ni  Ni14  1  0.118319  0.618319  0.500000  1
  Ni  Ni15  1  0.381681  0.500000  0.881681  1
  Ni  Ni16  1  0.618319  0.500000  0.118319  1
  Ni  Ni17  1  0.500000  0.881681  0.381681  1
  Ni  Ni18  1  0.500000  0.118319  0.618319  1
