# generated using pymatgen
data_Ho9Er(TmIr2)2
_symmetry_space_group_name_H-M   'P 1'
_cell_length_a   6.37266484
_cell_length_b   7.22288333
_cell_length_c   9.13114736
_cell_angle_alpha   90.00775053
_cell_angle_beta   90.21477334
_cell_angle_gamma   89.96626793
_symmetry_Int_Tables_number   1
_chemical_formula_structural   Ho9Er(TmIr2)2
_chemical_formula_sum   'Ho9 Er1 Tm2 Ir4'
_cell_volume   420.29468629
_cell_formula_units_Z   1
loop_
 _symmetry_equiv_pos_site_id
 _symmetry_equiv_pos_as_xyz
  1  'x, y, z'
loop_
 _atom_site_type_symbol
 _atom_site_label
 _atom_site_symmetry_multiplicity
 _atom_site_fract_x
 _atom_site_fract_y
 _atom_site_fract_z
 _atom_site_occupancy
  Ho  Ho0  1  0.172423  0.177693  0.437531  1
  Ho  Ho1  1  0.672227  0.322613  0.561806  1
  Ho  Ho2  1  0.827736  0.822500  0.938459  1
  Ho  Ho3  1  0.671783  0.322566  0.938306  1
  Ho  Ho4  1  0.828038  0.822459  0.561840  1
  Ho  Ho5  1  0.871681  0.534119  0.250187  1
  Ho  Ho6  1  0.628245  0.033984  0.249638  1
  Ho  Ho7  1  0.129319  0.466231  0.750034  1
  Ho  Ho8  1  0.370725  0.966036  0.750203  1
  Er  Er9  1  0.327701  0.677639  0.062693  1
  Tm  Tm10  1  0.328701  0.676898  0.437333  1
  Tm  Tm11  1  0.171214  0.176876  0.062355  1
  Ir  Ir12  1  0.045214  0.883578  0.250129  1
  Ir  Ir13  1  0.455156  0.384021  0.249311  1
  Ir  Ir14  1  0.956804  0.116401  0.751664  1
  Ir  Ir15  1  0.543033  0.616387  0.748512  1
