# generated using pymatgen
data_Y2TiCo16
_symmetry_space_group_name_H-M   'P 1'
_cell_length_a   6.29798423
_cell_length_b   6.29720150
_cell_length_c   6.30086373
_cell_angle_alpha   82.99200031
_cell_angle_beta   82.99493397
_cell_angle_gamma   82.98321052
_symmetry_Int_Tables_number   1
_chemical_formula_structural   Y2TiCo16
_chemical_formula_sum   'Y2 Ti1 Co16'
_cell_volume   244.70783369
_cell_formula_units_Z   1
loop_
 _symmetry_equiv_pos_site_id
 _symmetry_equiv_pos_as_xyz
  1  'x, y, z'
loop_
 _atom_site_type_symbol
 _atom_site_label
 _atom_site_symmetry_multiplicity
 _atom_site_fract_x
 _atom_site_fract_y
 _atom_site_fract_z
 _atom_site_occupancy
  Y  Y0  1  0.655712  0.655495  0.655887  1
  Y  Y1  1  0.352010  0.351741  0.352055  1
  Ti  Ti2  1  0.092669  0.092947  0.092570  1
  Co  Co3  1  0.707517  0.998055  0.291687  1
  Co  Co4  1  0.997948  0.291732  0.707481  1
  Co  Co5  1  0.291741  0.707447  0.997947  1
  Co  Co6  1  0.997959  0.707468  0.291673  1
  Co  Co7  1  0.707437  0.291750  0.997937  1
  Co  Co8  1  0.291751  0.998059  0.707526  1
  Co  Co9  1  0.998343  0.504835  0.998409  1
  Co  Co10  1  0.504926  0.998392  0.998318  1
  Co  Co11  1  0.998258  0.998395  0.504921  1
  Co  Co12  1  0.347058  0.346996  0.849043  1
  Co  Co13  1  0.347002  0.849048  0.346926  1
  Co  Co14  1  0.849044  0.346996  0.346983  1
  Co  Co15  1  0.655479  0.655412  0.149163  1
  Co  Co16  1  0.655414  0.149149  0.655457  1
  Co  Co17  1  0.149175  0.655401  0.655510  1
  Co  Co18  1  0.900556  0.900681  0.900506  1
