# generated using pymatgen
data_Zr6Zn18Pt5Se
_symmetry_space_group_name_H-M   'P 1'
_cell_length_a   8.80566675
_cell_length_b   8.82104828
_cell_length_c   8.80566674
_cell_angle_alpha   60.20775844
_cell_angle_beta   60.33752397
_cell_angle_gamma   60.20775367
_symmetry_Int_Tables_number   1
_chemical_formula_structural   Zr6Zn18Pt5Se
_chemical_formula_sum   'Zr6 Zn18 Pt5 Se1'
_cell_volume   486.39476407
_cell_formula_units_Z   1
loop_
 _symmetry_equiv_pos_site_id
 _symmetry_equiv_pos_as_xyz
  1  'x, y, z'
loop_
 _atom_site_type_symbol
 _atom_site_label
 _atom_site_symmetry_multiplicity
 _atom_site_fract_x
 _atom_site_fract_y
 _atom_site_fract_z
 _atom_site_occupancy
  Zr  Zr0  1  0.714038  0.285600  0.290526  1
  Zr  Zr1  1  0.285962  0.714400  0.709474  1
  Zr  Zr2  1  0.285448  0.716343  0.285448  1
  Zr  Zr3  1  0.714552  0.283657  0.714552  1
  Zr  Zr4  1  0.290526  0.285600  0.714038  1
  Zr  Zr5  1  0.709474  0.714400  0.285962  1
  Zn  Zn6  1  0.122467  0.124340  0.122467  1
  Zn  Zn7  1  0.877533  0.875660  0.877533  1
  Zn  Zn8  1  0.124182  0.120763  0.633808  1
  Zn  Zn9  1  0.119638  0.635979  0.119638  1
  Zn  Zn10  1  0.875818  0.879237  0.366192  1
  Zn  Zn11  1  0.880362  0.364021  0.880362  1
  Zn  Zn12  1  0.633808  0.120763  0.124182  1
  Zn  Zn13  1  0.366192  0.879237  0.875818  1
  Zn  Zn14  1  0.000000  0.500000  0.500000  1
  Zn  Zn15  1  0.500000  0.500000  0.000000  1
  Zn  Zn16  1  0.335674  0.338819  0.335674  1
  Zn  Zn17  1  0.664326  0.661181  0.664326  1
  Zn  Zn18  1  0.338482  0.338918  0.990280  1
  Zn  Zn19  1  0.336324  0.990772  0.336324  1
  Zn  Zn20  1  0.661518  0.661082  0.009720  1
  Zn  Zn21  1  0.663676  0.009228  0.663676  1
  Zn  Zn22  1  0.990280  0.338918  0.338482  1
  Zn  Zn23  1  0.009720  0.661082  0.661518  1
  Pt  Pt24  1  0.500000  0.000000  0.000000  1
  Pt  Pt25  1  0.000000  0.500000  0.000000  1
  Pt  Pt26  1  0.500000  0.000000  0.500000  1
  Pt  Pt27  1  0.000000  0.000000  0.500000  1
  Pt  Pt28  1  0.000000  0.000000  0.000000  1
  Se  Se29  1  0.500000  0.500000  0.500000  1
