# generated using pymatgen
data_ErThCo2(Ni3B)2
_symmetry_space_group_name_H-M   'P 1'
_cell_length_a   4.97183951
_cell_length_b   4.97183964
_cell_length_c   6.96432700
_cell_angle_alpha   90.00000000
_cell_angle_beta   90.00000000
_cell_angle_gamma   119.80077012
_symmetry_Int_Tables_number   1
_chemical_formula_structural   ErThCo2(Ni3B)2
_chemical_formula_sum   'Er1 Th1 Co2 Ni6 B2'
_cell_volume   149.38685414
_cell_formula_units_Z   1
loop_
 _symmetry_equiv_pos_site_id
 _symmetry_equiv_pos_as_xyz
  1  'x, y, z'
loop_
 _atom_site_type_symbol
 _atom_site_label
 _atom_site_symmetry_multiplicity
 _atom_site_fract_x
 _atom_site_fract_y
 _atom_site_fract_z
 _atom_site_occupancy
  Er  Er0  1  0.000000  0.000000  0.499179  1
  Th  Th1  1  0.000000  0.000000  0.008947  1
  Co  Co2  1  0.500000  0.000000  0.296063  1
  Co  Co3  1  0.000000  0.500000  0.296063  1
  Ni  Ni4  1  0.329820  0.670180  0.999533  1
  Ni  Ni5  1  0.670180  0.329820  0.999533  1
  Ni  Ni6  1  0.500000  0.500000  0.291622  1
  Ni  Ni7  1  0.500000  0.000000  0.704854  1
  Ni  Ni8  1  0.500000  0.500000  0.706269  1
  Ni  Ni9  1  0.000000  0.500000  0.704854  1
  B  B10  1  0.668529  0.331471  0.496541  1
  B  B11  1  0.331471  0.668529  0.496541  1
