# generated using pymatgen
data_Ce2Sm3Tc2
_symmetry_space_group_name_H-M   'P 1'
_cell_length_a   9.00993769
_cell_length_b   9.00993753
_cell_length_c   7.16642743
_cell_angle_alpha   84.70336173
_cell_angle_beta   84.70336440
_cell_angle_gamma   41.95656720
_symmetry_Int_Tables_number   1
_chemical_formula_structural   Ce2Sm3Tc2
_chemical_formula_sum   'Ce4 Sm6 Tc4'
_cell_volume   387.04222417
_cell_formula_units_Z   2
loop_
 _symmetry_equiv_pos_site_id
 _symmetry_equiv_pos_as_xyz
  1  'x, y, z'
loop_
 _atom_site_type_symbol
 _atom_site_label
 _atom_site_symmetry_multiplicity
 _atom_site_fract_x
 _atom_site_fract_y
 _atom_site_fract_z
 _atom_site_occupancy
  Ce  Ce0  1  0.012358  0.800908  0.900655  1
  Ce  Ce1  1  0.199092  0.987642  0.599345  1
  Ce  Ce2  1  0.987642  0.199092  0.099345  1
  Ce  Ce3  1  0.800908  0.012358  0.400655  1
  Sm  Sm4  1  0.355460  0.213811  0.814562  1
  Sm  Sm5  1  0.786189  0.644540  0.685438  1
  Sm  Sm6  1  0.644540  0.786189  0.185438  1
  Sm  Sm7  1  0.213811  0.355460  0.314562  1
  Sm  Sm8  1  0.576625  0.423375  0.750000  1
  Sm  Sm9  1  0.423375  0.576625  0.250000  1
  Tc  Tc10  1  0.133353  0.650612  0.598333  1
  Tc  Tc11  1  0.349388  0.866647  0.901667  1
  Tc  Tc12  1  0.866647  0.349388  0.401667  1
  Tc  Tc13  1  0.650612  0.133353  0.098333  1
