# generated using pymatgen
data_Li12ReMoCN7
_symmetry_space_group_name_H-M   'P 1'
_cell_length_a   6.68011693
_cell_length_b   6.70038600
_cell_length_c   4.96466372
_cell_angle_alpha   90.00000000
_cell_angle_beta   89.78930222
_cell_angle_gamma   90.00000000
_symmetry_Int_Tables_number   1
_chemical_formula_structural   Li12ReMoCN7
_chemical_formula_sum   'Li12 Re1 Mo1 C1 N7'
_cell_volume   222.21367770
_cell_formula_units_Z   1
loop_
 _symmetry_equiv_pos_site_id
 _symmetry_equiv_pos_as_xyz
  1  'x, y, z'
loop_
 _atom_site_type_symbol
 _atom_site_label
 _atom_site_symmetry_multiplicity
 _atom_site_fract_x
 _atom_site_fract_y
 _atom_site_fract_z
 _atom_site_occupancy
  Li  Li0  1  0.000054  0.500000  0.595502  1
  Li  Li1  1  0.499129  0.000000  0.907670  1
  Li  Li2  1  0.498533  0.000000  0.405280  1
  Li  Li3  1  0.996120  0.500000  0.086958  1
  Li  Li4  1  0.217417  0.211796  0.502736  1
  Li  Li5  1  0.788534  0.787741  0.500009  1
  Li  Li6  1  0.711032  0.713779  0.001469  1
  Li  Li7  1  0.284614  0.282099  0.994733  1
  Li  Li8  1  0.788534  0.212259  0.500009  1
  Li  Li9  1  0.217417  0.788204  0.502736  1
  Li  Li10  1  0.284614  0.717901  0.994733  1
  Li  Li11  1  0.711032  0.286221  0.001469  1
  Re  Re12  1  0.502618  0.500000  0.505422  1
  Mo  Mo13  1  0.998561  0.000000  0.000176  1
  C  C14  1  0.268824  0.500000  0.306498  1
  N  N15  1  0.739860  0.500000  0.300456  1
  N  N16  1  0.756038  0.000000  0.199106  1
  N  N17  1  0.241317  0.000000  0.195034  1
  N  N18  1  0.500359  0.257383  0.697647  1
  N  N19  1  0.500359  0.742617  0.697647  1
  N  N20  1  0.997517  0.758843  0.802355  1
  N  N21  1  0.997517  0.241157  0.802355  1
