# generated using pymatgen
data_Tb4Ni15P12Ru5
_symmetry_space_group_name_H-M   'P 1'
_cell_length_a   3.72838700
_cell_length_b   10.58191950
_cell_length_c   11.88715119
_cell_angle_alpha   90.20989732
_cell_angle_beta   90.00000000
_cell_angle_gamma   90.00000000
_symmetry_Int_Tables_number   1
_chemical_formula_structural   Tb4Ni15P12Ru5
_chemical_formula_sum   'Tb4 Ni15 P12 Ru5'
_cell_volume   468.98646675
_cell_formula_units_Z   1
loop_
 _symmetry_equiv_pos_site_id
 _symmetry_equiv_pos_as_xyz
  1  'x, y, z'
loop_
 _atom_site_type_symbol
 _atom_site_label
 _atom_site_symmetry_multiplicity
 _atom_site_fract_x
 _atom_site_fract_y
 _atom_site_fract_z
 _atom_site_occupancy
  Tb  Tb0  1  0.250000  0.592556  0.705410  1
  Tb  Tb1  1  0.250000  0.910309  0.203673  1
  Tb  Tb2  1  0.750000  0.408551  0.291683  1
  Tb  Tb3  1  0.750000  0.089236  0.796482  1
  Ni  Ni4  1  0.250000  0.090993  0.989117  1
  Ni  Ni5  1  0.750000  0.594902  0.509911  1
  Ni  Ni6  1  0.750000  0.910183  0.010955  1
  Ni  Ni7  1  0.250000  0.217884  0.181585  1
  Ni  Ni8  1  0.250000  0.276279  0.685987  1
  Ni  Ni9  1  0.750000  0.782132  0.819300  1
  Ni  Ni10  1  0.750000  0.720450  0.315691  1
  Ni  Ni11  1  0.250000  0.888726  0.701798  1
  Ni  Ni12  1  0.250000  0.609730  0.200015  1
  Ni  Ni13  1  0.750000  0.109084  0.298365  1
  Ni  Ni14  1  0.750000  0.392247  0.799242  1
  Ni  Ni15  1  0.250000  0.468721  0.930141  1
  Ni  Ni16  1  0.250000  0.032659  0.430288  1
  Ni  Ni17  1  0.750000  0.532411  0.068529  1
  Ni  Ni18  1  0.750000  0.966233  0.569735  1
  P  P19  1  0.250000  0.412908  0.110886  1
  P  P20  1  0.250000  0.083885  0.612558  1
  P  P21  1  0.750000  0.586891  0.888220  1
  P  P22  1  0.750000  0.914026  0.388309  1
  P  P23  1  0.250000  0.271573  0.876121  1
  P  P24  1  0.250000  0.227596  0.374502  1
  P  P25  1  0.750000  0.729243  0.123775  1
  P  P26  1  0.750000  0.771842  0.626227  1
  P  P27  1  0.250000  0.597275  0.386551  1
  P  P28  1  0.250000  0.904790  0.889589  1
  P  P29  1  0.750000  0.403355  0.613314  1
  P  P30  1  0.750000  0.095199  0.111079  1
  Ru  Ru31  1  0.250000  0.714887  0.986630  1
  Ru  Ru32  1  0.250000  0.786458  0.483579  1
  Ru  Ru33  1  0.750000  0.285193  0.013783  1
  Ru  Ru34  1  0.750000  0.210470  0.515003  1
  Ru  Ru35  1  0.250000  0.411121  0.491964  1
