# generated using pymatgen
data_La3Al9Si3Os4
_symmetry_space_group_name_H-M   'P 1'
_cell_length_a   8.84044700
_cell_length_b   8.83548863
_cell_length_c   9.73710500
_cell_angle_alpha   90.00000000
_cell_angle_beta   90.00000000
_cell_angle_gamma   120.01856195
_symmetry_Int_Tables_number   1
_chemical_formula_structural   La3Al9Si3Os4
_chemical_formula_sum   'La6 Al18 Si6 Os8'
_cell_volume   658.54282144
_cell_formula_units_Z   2
loop_
 _symmetry_equiv_pos_site_id
 _symmetry_equiv_pos_as_xyz
  1  'x, y, z'
loop_
 _atom_site_type_symbol
 _atom_site_label
 _atom_site_symmetry_multiplicity
 _atom_site_fract_x
 _atom_site_fract_y
 _atom_site_fract_z
 _atom_site_occupancy
  La  La0  1  0.191695  0.383391  0.250000  1
  La  La1  1  0.808305  0.616609  0.750000  1
  La  La2  1  0.613617  0.809028  0.250000  1
  La  La3  1  0.386383  0.190972  0.750000  1
  La  La4  1  0.195412  0.809028  0.250000  1
  La  La5  1  0.804588  0.190972  0.750000  1
  Al  Al6  1  0.165261  0.330523  0.575918  1
  Al  Al7  1  0.834739  0.669477  0.424082  1
  Al  Al8  1  0.669553  0.833577  0.573788  1
  Al  Al9  1  0.834739  0.669477  0.075918  1
  Al  Al10  1  0.330447  0.166423  0.426212  1
  Al  Al11  1  0.165261  0.330523  0.924082  1
  Al  Al12  1  0.164025  0.833577  0.573788  1
  Al  Al13  1  0.330447  0.166423  0.073788  1
  Al  Al14  1  0.835975  0.166423  0.426212  1
  Al  Al15  1  0.669553  0.833577  0.926212  1
  Al  Al16  1  0.835975  0.166423  0.073788  1
  Al  Al17  1  0.164025  0.833577  0.926212  1
  Al  Al18  1  0.869252  0.431026  0.250000  1
  Al  Al19  1  0.130748  0.568974  0.750000  1
  Al  Al20  1  0.561774  0.431026  0.250000  1
  Al  Al21  1  0.438226  0.568974  0.750000  1
  Al  Al22  1  0.998991  0.997982  0.250000  1
  Al  Al23  1  0.001009  0.002018  0.750000  1
  Si  Si24  1  0.332074  0.664147  0.030687  1
  Si  Si25  1  0.667926  0.335853  0.969313  1
  Si  Si26  1  0.667926  0.335853  0.530687  1
  Si  Si27  1  0.332074  0.664147  0.469313  1
  Si  Si28  1  0.565011  0.130022  0.250000  1
  Si  Si29  1  0.434989  0.869978  0.750000  1
  Os  Os30  1  0.500000  0.000000  0.000000  1
  Os  Os31  1  0.000000  0.500000  0.000000  1
  Os  Os32  1  0.500000  0.000000  0.500000  1
  Os  Os33  1  0.500000  0.500000  0.000000  1
  Os  Os34  1  0.000000  0.500000  0.500000  1
  Os  Os35  1  0.500000  0.500000  0.500000  1
  Os  Os36  1  0.000000  0.000000  0.000000  1
  Os  Os37  1  0.000000  0.000000  0.500000  1
