# generated using pymatgen
data_Li4Nd4Bi3Pb
_symmetry_space_group_name_H-M   'P 1'
_cell_length_a   4.84469900
_cell_length_b   7.56079457
_cell_length_c   8.49827816
_cell_angle_alpha   89.90762741
_cell_angle_beta   90.00000000
_cell_angle_gamma   90.00000000
_symmetry_Int_Tables_number   1
_chemical_formula_structural   Li4Nd4Bi3Pb
_chemical_formula_sum   'Li4 Nd4 Bi3 Pb1'
_cell_volume   311.28960326
_cell_formula_units_Z   1
loop_
 _symmetry_equiv_pos_site_id
 _symmetry_equiv_pos_as_xyz
  1  'x, y, z'
loop_
 _atom_site_type_symbol
 _atom_site_label
 _atom_site_symmetry_multiplicity
 _atom_site_fract_x
 _atom_site_fract_y
 _atom_site_fract_z
 _atom_site_occupancy
  Li  Li0  1  0.250000  0.192790  0.917338  1
  Li  Li1  1  0.250000  0.688319  0.580500  1
  Li  Li2  1  0.750000  0.808990  0.080202  1
  Li  Li3  1  0.750000  0.308661  0.422228  1
  Nd  Nd4  1  0.250000  0.007012  0.278255  1
  Nd  Nd5  1  0.250000  0.503773  0.226776  1
  Nd  Nd6  1  0.750000  0.997674  0.721210  1
  Nd  Nd7  1  0.750000  0.491971  0.773868  1
  Bi  Bi8  1  0.250000  0.766071  0.912061  1
  Bi  Bi9  1  0.750000  0.734344  0.411787  1
  Bi  Bi10  1  0.750000  0.234265  0.088387  1
  Pb  Pb11  1  0.250000  0.266128  0.587386  1
