# generated using pymatgen
data_Y5Hf2P12Ir17
_symmetry_space_group_name_H-M   'P 1'
_cell_length_a   12.65823000
_cell_length_b   12.88989160
_cell_length_c   3.98385400
_cell_angle_alpha   90.00000000
_cell_angle_beta   90.00000000
_cell_angle_gamma   119.40723926
_symmetry_Int_Tables_number   1
_chemical_formula_structural   Y5Hf2P12Ir17
_chemical_formula_sum   'Y5 Hf2 P12 Ir17'
_cell_volume   566.26470040
_cell_formula_units_Z   1
loop_
 _symmetry_equiv_pos_site_id
 _symmetry_equiv_pos_as_xyz
  1  'x, y, z'
loop_
 _atom_site_type_symbol
 _atom_site_label
 _atom_site_symmetry_multiplicity
 _atom_site_fract_x
 _atom_site_fract_y
 _atom_site_fract_z
 _atom_site_occupancy
  Y  Y0  1  0.330232  0.661635  0.500000  1
  Y  Y1  1  0.668598  0.338365  0.500000  1
  Y  Y2  1  0.000063  0.815386  0.000000  1
  Y  Y3  1  0.184678  0.184614  0.000000  1
  Y  Y4  1  0.812982  0.000000  0.000000  1
  Hf  Hf5  1  0.997582  0.446986  0.500000  1
  Hf  Hf6  1  0.550597  0.553014  0.500000  1
  P  P7  1  0.005353  0.650771  0.500000  1
  P  P8  1  0.354582  0.349229  0.500000  1
  P  P9  1  0.645138  0.000000  0.500000  1
  P  P10  1  0.514987  0.685890  0.000000  1
  P  P11  1  0.309741  0.825322  0.000000  1
  P  P12  1  0.164751  0.480947  0.000000  1
  P  P13  1  0.484419  0.174678  0.000000  1
  P  P14  1  0.683804  0.519053  0.000000  1
  P  P15  1  0.829098  0.314110  0.000000  1
  P  P16  1  0.999445  0.173979  0.500000  1
  P  P17  1  0.825467  0.826021  0.500000  1
  P  P18  1  0.181438  0.000000  0.500000  1
  Ir  Ir19  1  0.505095  0.864608  0.000000  1
  Ir  Ir20  1  0.127332  0.642674  0.000000  1
  Ir  Ir21  1  0.356135  0.495674  0.000000  1
  Ir  Ir22  1  0.484659  0.357326  0.000000  1
  Ir  Ir23  1  0.860464  0.504326  0.000000  1
  Ir  Ir24  1  0.640488  0.135392  0.000000  1
  Ir  Ir25  1  0.464957  0.000000  0.500000  1
  Ir  Ir26  1  0.997050  0.279761  0.000000  1
  Ir  Ir27  1  0.717289  0.720239  0.000000  1
  Ir  Ir28  1  0.289863  0.000000  0.000000  1
  Ir  Ir29  1  0.623798  0.807360  0.500000  1
  Ir  Ir30  1  0.203870  0.825397  0.500000  1
  Ir  Ir31  1  0.177364  0.367135  0.500000  1
  Ir  Ir32  1  0.378473  0.174603  0.500000  1
  Ir  Ir33  1  0.810230  0.632865  0.500000  1
  Ir  Ir34  1  0.816439  0.192640  0.500000  1
  Ir  Ir35  1  0.003540  0.000000  0.500000  1
