# generated using pymatgen
data_Nd3In3SnPdRu
_symmetry_space_group_name_H-M   'P 1'
_cell_length_a   7.76082700
_cell_length_b   7.76082559
_cell_length_c   4.24007000
_cell_angle_alpha   90.00000000
_cell_angle_beta   90.00000000
_cell_angle_gamma   120.00000912
_symmetry_Int_Tables_number   1
_chemical_formula_structural   Nd3In3SnPdRu
_chemical_formula_sum   'Nd3 In3 Sn1 Pd1 Ru1'
_cell_volume   221.16660150
_cell_formula_units_Z   1
loop_
 _symmetry_equiv_pos_site_id
 _symmetry_equiv_pos_as_xyz
  1  'x, y, z'
loop_
 _atom_site_type_symbol
 _atom_site_label
 _atom_site_symmetry_multiplicity
 _atom_site_fract_x
 _atom_site_fract_y
 _atom_site_fract_z
 _atom_site_occupancy
  Nd  Nd0  1  0.022528  0.597610  0.000000  1
  Nd  Nd1  1  0.402390  0.424918  0.000000  1
  Nd  Nd2  1  0.575082  0.977472  0.000000  1
  In  In3  1  0.743669  0.762567  0.500000  1
  In  In4  1  0.018898  0.256331  0.500000  1
  In  In5  1  0.237433  0.981102  0.500000  1
  Sn  Sn6  1  0.666667  0.333333  0.500000  1
  Pd  Pd7  1  0.000000  0.000000  0.000000  1
  Ru  Ru8  1  0.333333  0.666667  0.500000  1
