# generated using pymatgen
data_Ca2Sm3Bi3C
_symmetry_space_group_name_H-M   'P 1'
_cell_length_a   9.28448200
_cell_length_b   9.28448176
_cell_length_c   6.71600700
_cell_angle_alpha   90.00000000
_cell_angle_beta   90.00000000
_cell_angle_gamma   120.00000084
_symmetry_Int_Tables_number   1
_chemical_formula_structural   Ca2Sm3Bi3C
_chemical_formula_sum   'Ca4 Sm6 Bi6 C2'
_cell_volume   501.36858039
_cell_formula_units_Z   2
loop_
 _symmetry_equiv_pos_site_id
 _symmetry_equiv_pos_as_xyz
  1  'x, y, z'
loop_
 _atom_site_type_symbol
 _atom_site_label
 _atom_site_symmetry_multiplicity
 _atom_site_fract_x
 _atom_site_fract_y
 _atom_site_fract_z
 _atom_site_occupancy
  Ca  Ca0  1  0.666667  0.333333  0.000000  1
  Ca  Ca1  1  0.333333  0.666667  0.000000  1
  Ca  Ca2  1  0.333333  0.666667  0.500000  1
  Ca  Ca3  1  0.666667  0.333333  0.500000  1
  Sm  Sm4  1  0.789696  0.789696  0.750000  1
  Sm  Sm5  1  0.210304  0.000000  0.750000  1
  Sm  Sm6  1  0.000000  0.210304  0.750000  1
  Sm  Sm7  1  0.210304  0.210304  0.250000  1
  Sm  Sm8  1  0.789696  0.000000  0.250000  1
  Sm  Sm9  1  0.000000  0.789696  0.250000  1
  Bi  Bi10  1  0.402208  0.402208  0.750000  1
  Bi  Bi11  1  0.597792  0.000000  0.750000  1
  Bi  Bi12  1  0.000000  0.597792  0.750000  1
  Bi  Bi13  1  0.597792  0.597792  0.250000  1
  Bi  Bi14  1  0.402208  0.000000  0.250000  1
  Bi  Bi15  1  0.000000  0.402208  0.250000  1
  C  C16  1  0.000000  0.000000  0.000000  1
  C  C17  1  0.000000  0.000000  0.500000  1
