# generated using pymatgen
data_Eu2HoUN4
_symmetry_space_group_name_H-M   'P 1'
_cell_length_a   6.88236251
_cell_length_b   9.12568061
_cell_length_c   5.99192000
_cell_angle_alpha   29.16742445
_cell_angle_beta   54.95083674
_cell_angle_gamma   41.04246267
_symmetry_Int_Tables_number   1
_chemical_formula_structural   Eu2HoUN4
_chemical_formula_sum   'Eu2 Ho1 U1 N4'
_cell_volume   116.17543006
_cell_formula_units_Z   1
loop_
 _symmetry_equiv_pos_site_id
 _symmetry_equiv_pos_as_xyz
  1  'x, y, z'
loop_
 _atom_site_type_symbol
 _atom_site_label
 _atom_site_symmetry_multiplicity
 _atom_site_fract_x
 _atom_site_fract_y
 _atom_site_fract_z
 _atom_site_occupancy
  Eu  Eu0  1  0.750065  0.499995  0.000009  1
  Eu  Eu1  1  0.499982  0.000002  0.999972  1
  Ho  Ho2  1  0.249998  0.499939  0.000041  1
  U  U3  1  0.999953  0.000020  0.999997  1
  N  N4  1  0.491309  0.499968  0.517481  1
  N  N5  1  0.217331  0.000077  0.565126  1
  N  N6  1  0.008719  0.500037  0.482551  1
  N  N7  1  0.782642  0.999963  0.434822  1
