# generated using pymatgen
data_Pr5AsRhO12
_symmetry_space_group_name_H-M   'P 1'
_cell_length_a   7.10012798
_cell_length_b   7.10012719
_cell_length_c   7.62364800
_cell_angle_alpha   74.54261604
_cell_angle_beta   74.54261780
_cell_angle_gamma   50.66759359
_symmetry_Int_Tables_number   1
_chemical_formula_structural   Pr5AsRhO12
_chemical_formula_sum   'Pr5 As1 Rh1 O12'
_cell_volume   284.04786875
_cell_formula_units_Z   1
loop_
 _symmetry_equiv_pos_site_id
 _symmetry_equiv_pos_as_xyz
  1  'x, y, z'
loop_
 _atom_site_type_symbol
 _atom_site_label
 _atom_site_symmetry_multiplicity
 _atom_site_fract_x
 _atom_site_fract_y
 _atom_site_fract_z
 _atom_site_occupancy
  Pr  Pr0  1  0.303478  0.307894  0.357439  1
  Pr  Pr1  1  0.692106  0.696522  0.642561  1
  Pr  Pr2  1  0.693832  0.696940  0.163728  1
  Pr  Pr3  1  0.303060  0.306168  0.836272  1
  Pr  Pr4  1  0.993923  0.006077  0.500000  1
  As  As5  1  0.759820  0.240180  0.000000  1
  Rh  Rh6  1  0.247821  0.752179  0.000000  1
  O  O7  1  0.093372  0.598843  0.579025  1
  O  O8  1  0.984384  0.014330  0.168539  1
  O  O9  1  0.401157  0.906628  0.420975  1
  O  O10  1  0.519248  0.482136  0.167649  1
  O  O11  1  0.098540  0.576876  0.078063  1
  O  O12  1  0.902226  0.404825  0.423632  1
  O  O13  1  0.985670  0.015616  0.831461  1
  O  O14  1  0.595175  0.097773  0.576368  1
  O  O15  1  0.517864  0.480752  0.832351  1
  O  O16  1  0.591293  0.106094  0.075487  1
  O  O17  1  0.423124  0.901460  0.921937  1
  O  O18  1  0.893906  0.408707  0.924513  1
