# generated using pymatgen
data_HfZr3Si3AsRh4
_symmetry_space_group_name_H-M   'P 1'
_cell_length_a   3.94160500
_cell_length_b   6.60761452
_cell_length_c   7.54492901
_cell_angle_alpha   89.52459488
_cell_angle_beta   90.00000000
_cell_angle_gamma   90.00000000
_symmetry_Int_Tables_number   1
_chemical_formula_structural   HfZr3Si3AsRh4
_chemical_formula_sum   'Hf1 Zr3 Si3 As1 Rh4'
_cell_volume   196.49794227
_cell_formula_units_Z   1
loop_
 _symmetry_equiv_pos_site_id
 _symmetry_equiv_pos_as_xyz
  1  'x, y, z'
loop_
 _atom_site_type_symbol
 _atom_site_label
 _atom_site_symmetry_multiplicity
 _atom_site_fract_x
 _atom_site_fract_y
 _atom_site_fract_z
 _atom_site_occupancy
  Hf  Hf0  1  0.250000  0.021642  0.317327  1
  Zr  Zr1  1  0.250000  0.521345  0.183172  1
  Zr  Zr2  1  0.750000  0.474458  0.814191  1
  Zr  Zr3  1  0.750000  0.979985  0.683692  1
  Si  Si4  1  0.750000  0.228668  0.120192  1
  Si  Si5  1  0.250000  0.271976  0.614742  1
  Si  Si6  1  0.750000  0.727217  0.383816  1
  As  As7  1  0.250000  0.766072  0.877625  1
  Rh  Rh8  1  0.750000  0.858696  0.077501  1
  Rh  Rh9  1  0.250000  0.154503  0.940271  1
  Rh  Rh10  1  0.750000  0.350233  0.434132  1
  Rh  Rh11  1  0.250000  0.645204  0.553337  1
