# generated using pymatgen
data_Y4NbSi8Tc5
_symmetry_space_group_name_H-M   'P 1'
_cell_length_a   6.86839926
_cell_length_b   6.76723076
_cell_length_c   6.85341782
_cell_angle_alpha   70.32639585
_cell_angle_beta   90.06247273
_cell_angle_gamma   90.12001053
_symmetry_Int_Tables_number   1
_chemical_formula_structural   Y4NbSi8Tc5
_chemical_formula_sum   'Y4 Nb1 Si8 Tc5'
_cell_volume   299.95151700
_cell_formula_units_Z   1
loop_
 _symmetry_equiv_pos_site_id
 _symmetry_equiv_pos_as_xyz
  1  'x, y, z'
loop_
 _atom_site_type_symbol
 _atom_site_label
 _atom_site_symmetry_multiplicity
 _atom_site_fract_x
 _atom_site_fract_y
 _atom_site_fract_z
 _atom_site_occupancy
  Y  Y0  1  0.169728  0.938584  0.193649  1
  Y  Y1  1  0.330455  0.438151  0.194650  1
  Y  Y2  1  0.831998  0.059376  0.812593  1
  Y  Y3  1  0.667393  0.561330  0.807686  1
  Nb  Nb4  1  0.660942  0.745784  0.248248  1
  Si  Si5  1  0.547703  0.131280  0.093741  1
  Si  Si6  1  0.356117  0.624005  0.516457  1
  Si  Si7  1  0.869618  0.875099  0.495856  1
  Si  Si8  1  0.050481  0.381925  0.894213  1
  Si  Si9  1  0.138397  0.131781  0.511942  1
  Si  Si10  1  0.636501  0.358921  0.492307  1
  Si  Si11  1  0.958170  0.622037  0.093687  1
  Si  Si12  1  0.448677  0.878114  0.894671  1
  Tc  Tc13  1  0.843215  0.247537  0.234474  1
  Tc  Tc14  1  0.340897  0.251484  0.763333  1
  Tc  Tc15  1  0.152363  0.759772  0.754814  1
  Tc  Tc16  1  0.500223  0.996231  0.496750  1
  Tc  Tc17  1  0.997120  0.498587  0.500929  1
