# generated using pymatgen
data_Ac3Y(GePt)4
_symmetry_space_group_name_H-M   'P 1'
_cell_length_a   4.37997900
_cell_length_b   8.70285196
_cell_length_c   7.60663000
_cell_angle_alpha   90.17362201
_cell_angle_beta   90.00000000
_cell_angle_gamma   90.00000000
_symmetry_Int_Tables_number   1
_chemical_formula_structural   Ac3Y(GePt)4
_chemical_formula_sum   'Ac3 Y1 Ge4 Pt4'
_cell_volume   289.95054011
_cell_formula_units_Z   1
loop_
 _symmetry_equiv_pos_site_id
 _symmetry_equiv_pos_as_xyz
  1  'x, y, z'
loop_
 _atom_site_type_symbol
 _atom_site_label
 _atom_site_symmetry_multiplicity
 _atom_site_fract_x
 _atom_site_fract_y
 _atom_site_fract_z
 _atom_site_occupancy
  Ac  Ac0  1  0.750000  0.998171  0.251670  1
  Ac  Ac1  1  0.250000  0.001633  0.747006  1
  Ac  Ac2  1  0.250000  0.501121  0.753945  1
  Y  Y3  1  0.750000  0.497799  0.247894  1
  Ge  Ge4  1  0.750000  0.755241  0.920204  1
  Ge  Ge5  1  0.250000  0.729081  0.410101  1
  Ge  Ge6  1  0.250000  0.261297  0.090055  1
  Ge  Ge7  1  0.750000  0.250801  0.579272  1
  Pt  Pt8  1  0.750000  0.257895  0.919846  1
  Pt  Pt9  1  0.250000  0.268359  0.416399  1
  Pt  Pt10  1  0.250000  0.736408  0.083722  1
  Pt  Pt11  1  0.750000  0.742196  0.579887  1
