# generated using pymatgen
data_Ba3PrEr2LuO9
_symmetry_space_group_name_H-M   'P 1'
_cell_length_a   9.21692924
_cell_length_b   9.21692895
_cell_length_c   9.21692807
_cell_angle_alpha   39.06901021
_cell_angle_beta   39.06901241
_cell_angle_gamma   39.06900727
_symmetry_Int_Tables_number   1
_chemical_formula_structural   Ba3PrEr2LuO9
_chemical_formula_sum   'Ba3 Pr1 Er2 Lu1 O9'
_cell_volume   279.74426545
_cell_formula_units_Z   1
loop_
 _symmetry_equiv_pos_site_id
 _symmetry_equiv_pos_as_xyz
  1  'x, y, z'
loop_
 _atom_site_type_symbol
 _atom_site_label
 _atom_site_symmetry_multiplicity
 _atom_site_fract_x
 _atom_site_fract_y
 _atom_site_fract_z
 _atom_site_occupancy
  Ba  Ba0  1  0.000309  0.000309  0.000309  1
  Ba  Ba1  1  0.832267  0.832267  0.832267  1
  Ba  Ba2  1  0.403658  0.403658  0.403658  1
  Pr  Pr3  1  0.572304  0.572304  0.572304  1
  Er  Er4  1  0.260237  0.260237  0.260237  1
  Er  Er5  1  0.700540  0.700540  0.700540  1
  Lu  Lu6  1  0.134954  0.134954  0.134954  1
  O  O7  1  0.434094  0.972457  0.525012  1
  O  O8  1  0.972457  0.525012  0.434094  1
  O  O9  1  0.525012  0.434094  0.972457  1
  O  O10  1  0.261776  0.897189  0.427261  1
  O  O11  1  0.897189  0.427261  0.261776  1
  O  O12  1  0.427261  0.261776  0.897189  1
  O  O13  1  0.411789  0.861850  0.978101  1
  O  O14  1  0.978101  0.411789  0.861850  1
  O  O15  1  0.861850  0.978101  0.411789  1
