# generated using pymatgen
data_SmHo16Tm3Sn16
_symmetry_space_group_name_H-M   'P 1'
_cell_length_a   8.00883800
_cell_length_b   8.13998001
_cell_length_c   15.40625437
_cell_angle_alpha   90.01186793
_cell_angle_beta   89.75216846
_cell_angle_gamma   89.94895582
_symmetry_Int_Tables_number   1
_chemical_formula_structural   SmHo16Tm3Sn16
_chemical_formula_sum   'Sm1 Ho16 Tm3 Sn16'
_cell_volume   1004.35134718
_cell_formula_units_Z   1
loop_
 _symmetry_equiv_pos_site_id
 _symmetry_equiv_pos_as_xyz
  1  'x, y, z'
loop_
 _atom_site_type_symbol
 _atom_site_label
 _atom_site_symmetry_multiplicity
 _atom_site_fract_x
 _atom_site_fract_y
 _atom_site_fract_z
 _atom_site_occupancy
  Sm  Sm0  1  0.018383  0.179305  0.904006  1
  Ho  Ho1  1  0.366730  0.837094  0.876858  1
  Ho  Ho2  1  0.867987  0.663377  0.621760  1
  Ho  Ho3  1  0.631584  0.162800  0.377374  1
  Ho  Ho4  1  0.133649  0.337599  0.123087  1
  Ho  Ho5  1  0.633690  0.163048  0.123205  1
  Ho  Ho6  1  0.131775  0.337153  0.377599  1
  Ho  Ho7  1  0.368789  0.836956  0.622283  1
  Ho  Ho8  1  0.867253  0.662736  0.877247  1
  Ho  Ho9  1  0.521661  0.322091  0.902998  1
  Ho  Ho10  1  0.022926  0.178618  0.597633  1
  Ho  Ho11  1  0.477714  0.678446  0.402708  1
  Ho  Ho12  1  0.979339  0.820225  0.097119  1
  Ho  Ho13  1  0.478684  0.678898  0.097195  1
  Ho  Ho14  1  0.977773  0.821551  0.402856  1
  Ho  Ho15  1  0.522231  0.321769  0.596332  1
  Ho  Ho16  1  0.198399  0.503185  0.749358  1
  Tm  Tm17  1  0.698317  0.996324  0.749185  1
  Tm  Tm18  1  0.801648  0.496716  0.250339  1
  Tm  Tm19  1  0.301837  0.003271  0.250456  1
  Sn  Sn20  1  0.296038  0.034977  0.043026  1
  Sn  Sn21  1  0.792122  0.463683  0.458185  1
  Sn  Sn22  1  0.708130  0.964717  0.541477  1
  Sn  Sn23  1  0.207861  0.538550  0.959010  1
  Sn  Sn24  1  0.702357  0.959803  0.959353  1
  Sn  Sn25  1  0.207755  0.536284  0.541336  1
  Sn  Sn26  1  0.292313  0.036058  0.458403  1
  Sn  Sn27  1  0.793104  0.463648  0.041831  1
  Sn  Sn28  1  0.564859  0.619172  0.749826  1
  Sn  Sn29  1  0.064398  0.880093  0.749479  1
  Sn  Sn30  1  0.435701  0.381731  0.250222  1
  Sn  Sn31  1  0.935941  0.118658  0.250338  1
  Sn  Sn32  1  0.332911  0.148978  0.749481  1
  Sn  Sn33  1  0.828709  0.352200  0.748412  1
  Sn  Sn34  1  0.668937  0.850578  0.249927  1
  Sn  Sn35  1  0.168494  0.649707  0.250098  1
