# generated using pymatgen
data_CaSm(B2Rh3)3
_symmetry_space_group_name_H-M   'P 1'
_cell_length_a   5.64787301
_cell_length_b   5.64881942
_cell_length_c   8.55279200
_cell_angle_alpha   90.00089338
_cell_angle_beta   89.99838546
_cell_angle_gamma   120.00022590
_symmetry_Int_Tables_number   1
_chemical_formula_structural   CaSm(B2Rh3)3
_chemical_formula_sum   'Ca1 Sm1 B6 Rh9'
_cell_volume   236.30894856
_cell_formula_units_Z   1
loop_
 _symmetry_equiv_pos_site_id
 _symmetry_equiv_pos_as_xyz
  1  'x, y, z'
loop_
 _atom_site_type_symbol
 _atom_site_label
 _atom_site_symmetry_multiplicity
 _atom_site_fract_x
 _atom_site_fract_y
 _atom_site_fract_z
 _atom_site_occupancy
  Ca  Ca0  1  0.000048  0.000011  0.284488  1
  Sm  Sm1  1  0.999961  0.000000  0.702879  1
  B  B2  1  0.333341  0.666687  0.002750  1
  B  B3  1  0.666626  0.333313  0.002750  1
  B  B4  1  0.333352  0.666698  0.331772  1
  B  B5  1  0.666621  0.333301  0.331773  1
  B  B6  1  0.666623  0.333313  0.667741  1
  B  B7  1  0.333333  0.666689  0.667741  1
  Rh  Rh8  1  0.500050  0.999996  0.165475  1
  Rh  Rh9  1  0.500037  0.500000  0.165485  1
  Rh  Rh10  1  0.000028  0.499985  0.165470  1
  Rh  Rh11  1  0.499944  0.000001  0.836725  1
  Rh  Rh12  1  0.499947  0.500008  0.836725  1
  Rh  Rh13  1  0.999937  0.499985  0.836725  1
  Rh  Rh14  1  0.500035  0.000006  0.500496  1
  Rh  Rh15  1  0.499999  0.499986  0.500504  1
  Rh  Rh16  1  0.000018  0.500020  0.500504  1
