# generated using pymatgen
data_Th4SiPPd28
_symmetry_space_group_name_H-M   'P 1'
_cell_length_a   9.01992800
_cell_length_b   9.01992800
_cell_length_c   7.08893700
_cell_angle_alpha   90.00000000
_cell_angle_beta   90.00000000
_cell_angle_gamma   90.00000000
_symmetry_Int_Tables_number   1
_chemical_formula_structural   Th4SiPPd28
_chemical_formula_sum   'Th4 Si1 P1 Pd28'
_cell_volume   576.74954225
_cell_formula_units_Z   1
loop_
 _symmetry_equiv_pos_site_id
 _symmetry_equiv_pos_as_xyz
  1  'x, y, z'
loop_
 _atom_site_type_symbol
 _atom_site_label
 _atom_site_symmetry_multiplicity
 _atom_site_fract_x
 _atom_site_fract_y
 _atom_site_fract_z
 _atom_site_occupancy
  Th  Th0  1  0.500000  0.000000  0.931811  1
  Th  Th1  1  0.000000  0.500000  0.068764  1
  Th  Th2  1  0.000000  0.000000  0.500352  1
  Th  Th3  1  0.500000  0.500000  0.500352  1
  Si  Si4  1  0.000000  0.500000  0.555049  1
  P  P5  1  0.500000  0.000000  0.444588  1
  Pd  Pd6  1  0.337094  0.837094  0.613940  1
  Pd  Pd7  1  0.337094  0.162906  0.613940  1
  Pd  Pd8  1  0.662906  0.837094  0.613940  1
  Pd  Pd9  1  0.662906  0.162906  0.613940  1
  Pd  Pd10  1  0.164483  0.664483  0.384877  1
  Pd  Pd11  1  0.164483  0.335517  0.384877  1
  Pd  Pd12  1  0.835517  0.664483  0.384877  1
  Pd  Pd13  1  0.835517  0.335517  0.384877  1
  Pd  Pd14  1  0.500000  0.771745  0.257921  1
  Pd  Pd15  1  0.500000  0.228255  0.257921  1
  Pd  Pd16  1  0.271745  0.000000  0.257921  1
  Pd  Pd17  1  0.728255  0.000000  0.257921  1
  Pd  Pd18  1  0.000000  0.729276  0.743304  1
  Pd  Pd19  1  0.000000  0.270724  0.743304  1
  Pd  Pd20  1  0.229276  0.500000  0.743304  1
  Pd  Pd21  1  0.770724  0.500000  0.743304  1
  Pd  Pd22  1  0.500000  0.348122  0.852060  1
  Pd  Pd23  1  0.500000  0.651878  0.852060  1
  Pd  Pd24  1  0.848122  0.000000  0.852060  1
  Pd  Pd25  1  0.151878  0.000000  0.852060  1
  Pd  Pd26  1  0.000000  0.150633  0.147763  1
  Pd  Pd27  1  0.000000  0.849367  0.147763  1
  Pd  Pd28  1  0.650633  0.500000  0.147763  1
  Pd  Pd29  1  0.349367  0.500000  0.147763  1
  Pd  Pd30  1  0.249438  0.749438  0.999907  1
  Pd  Pd31  1  0.249438  0.250562  0.999907  1
  Pd  Pd32  1  0.750562  0.749438  0.999907  1
  Pd  Pd33  1  0.750562  0.250562  0.999907  1
