# generated using pymatgen
data_Pm2IrOs3
_symmetry_space_group_name_H-M   'P 1'
_cell_length_a   5.31563839
_cell_length_b   5.55699726
_cell_length_c   5.31563800
_cell_angle_alpha   61.42665832
_cell_angle_beta   60.00000245
_cell_angle_gamma   61.42665416
_symmetry_Int_Tables_number   1
_chemical_formula_structural   Pm2IrOs3
_chemical_formula_sum   'Pm2 Ir1 Os3'
_cell_volume   113.36317238
_cell_formula_units_Z   1
loop_
 _symmetry_equiv_pos_site_id
 _symmetry_equiv_pos_as_xyz
  1  'x, y, z'
loop_
 _atom_site_type_symbol
 _atom_site_label
 _atom_site_symmetry_multiplicity
 _atom_site_fract_x
 _atom_site_fract_y
 _atom_site_fract_z
 _atom_site_occupancy
  Pm  Pm0  1  0.748183  0.755452  0.748183  1
  Pm  Pm1  1  0.501817  0.494548  0.501817  1
  Ir  Ir2  1  0.125000  0.625000  0.125000  1
  Os  Os3  1  0.125000  0.125000  0.125000  1
  Os  Os4  1  0.625000  0.125000  0.125000  1
  Os  Os5  1  0.125000  0.125000  0.625000  1
