# generated using pymatgen
data_LiNd3Tl2InPd2
_symmetry_space_group_name_H-M   'P 1'
_cell_length_a   7.87776300
_cell_length_b   7.91359481
_cell_length_c   4.02137700
_cell_angle_alpha   90.00000000
_cell_angle_beta   90.00000000
_cell_angle_gamma   119.85032746
_symmetry_Int_Tables_number   1
_chemical_formula_structural   LiNd3Tl2InPd2
_chemical_formula_sum   'Li1 Nd3 Tl2 In1 Pd2'
_cell_volume   217.43786304
_cell_formula_units_Z   1
loop_
 _symmetry_equiv_pos_site_id
 _symmetry_equiv_pos_as_xyz
  1  'x, y, z'
loop_
 _atom_site_type_symbol
 _atom_site_label
 _atom_site_symmetry_multiplicity
 _atom_site_fract_x
 _atom_site_fract_y
 _atom_site_fract_z
 _atom_site_occupancy
  Li  Li0  1  0.000267  0.000000  0.000000  1
  Nd  Nd1  1  0.000958  0.582814  0.000000  1
  Nd  Nd2  1  0.418144  0.417186  0.000000  1
  Nd  Nd3  1  0.581119  0.000000  0.000000  1
  Tl  Tl4  1  0.752853  0.750330  0.500000  1
  Tl  Tl5  1  0.002523  0.249670  0.500000  1
  In  In6  1  0.250362  0.000000  0.500000  1
  Pd  Pd7  1  0.332311  0.670848  0.500000  1
  Pd  Pd8  1  0.661464  0.329152  0.500000  1
