# generated using pymatgen
data_Y2Fe2Co9As7Ru
_symmetry_space_group_name_H-M   'P 1'
_cell_length_a   3.77274100
_cell_length_b   9.36288339
_cell_length_c   9.37939033
_cell_angle_alpha   119.66789950
_cell_angle_beta   90.00000000
_cell_angle_gamma   90.00000000
_symmetry_Int_Tables_number   1
_chemical_formula_structural   Y2Fe2Co9As7Ru
_chemical_formula_sum   'Y2 Fe2 Co9 As7 Ru1'
_cell_volume   287.88265087
_cell_formula_units_Z   1
loop_
 _symmetry_equiv_pos_site_id
 _symmetry_equiv_pos_as_xyz
  1  'x, y, z'
loop_
 _atom_site_type_symbol
 _atom_site_label
 _atom_site_symmetry_multiplicity
 _atom_site_fract_x
 _atom_site_fract_y
 _atom_site_fract_z
 _atom_site_occupancy
  Y  Y0  1  0.000000  0.664391  0.330403  1
  Y  Y1  1  0.500000  0.332086  0.666325  1
  Fe  Fe2  1  0.500000  0.781781  0.900739  1
  Fe  Fe3  1  0.500000  0.120996  0.218976  1
  Co  Co4  1  0.000000  0.569307  0.941452  1
  Co  Co5  1  0.000000  0.373436  0.432693  1
  Co  Co6  1  0.000000  0.058315  0.628302  1
  Co  Co7  1  0.000000  0.879673  0.158636  1
  Co  Co8  1  0.000000  0.279537  0.121608  1
  Co  Co9  1  0.000000  0.843007  0.721725  1
  Co  Co10  1  0.500000  0.949835  0.382557  1
  Co  Co11  1  0.500000  0.434114  0.052555  1
  Co  Co12  1  0.500000  0.618442  0.567922  1
  As  As13  1  0.000000  0.999716  0.001218  1
  As  As14  1  0.500000  0.709377  0.112756  1
  As  As15  1  0.500000  0.404551  0.292913  1
  As  As16  1  0.500000  0.881747  0.589511  1
  As  As17  1  0.000000  0.588434  0.703277  1
  As  As18  1  0.000000  0.115580  0.410929  1
  As  As19  1  0.000000  0.298363  0.886199  1
  Ru  Ru20  1  0.500000  0.097313  0.879302  1
