# generated using pymatgen
data_TbDyHo2SiBr6
_symmetry_space_group_name_H-M   'P 1'
_cell_length_a   4.05033300
_cell_length_b   13.22215925
_cell_length_c   13.99094304
_cell_angle_alpha   90.09932180
_cell_angle_beta   90.00000000
_cell_angle_gamma   90.00000000
_symmetry_Int_Tables_number   1
_chemical_formula_structural   TbDyHo2SiBr6
_chemical_formula_sum   'Tb2 Dy2 Ho4 Si2 Br12'
_cell_volume   749.27190721
_cell_formula_units_Z   2
loop_
 _symmetry_equiv_pos_site_id
 _symmetry_equiv_pos_as_xyz
  1  'x, y, z'
loop_
 _atom_site_type_symbol
 _atom_site_label
 _atom_site_symmetry_multiplicity
 _atom_site_fract_x
 _atom_site_fract_y
 _atom_site_fract_z
 _atom_site_occupancy
  Tb  Tb0  1  0.000000  0.618612  0.921173  1
  Tb  Tb1  1  0.000000  0.381388  0.078827  1
  Dy  Dy2  1  0.000000  0.118028  0.578464  1
  Dy  Dy3  1  0.000000  0.881972  0.421536  1
  Ho  Ho4  1  0.500000  0.117671  0.341691  1
  Ho  Ho5  1  0.500000  0.882329  0.658309  1
  Ho  Ho6  1  0.500000  0.617977  0.158598  1
  Ho  Ho7  1  0.500000  0.382023  0.841402  1
  Si  Si8  1  0.500000  0.000000  0.500000  1
  Si  Si9  1  0.500000  0.500000  0.000000  1
  Br  Br10  1  0.500000  0.242500  0.164488  1
  Br  Br11  1  0.500000  0.757500  0.835512  1
  Br  Br12  1  0.500000  0.744411  0.336403  1
  Br  Br13  1  0.500000  0.255589  0.663597  1
  Br  Br14  1  0.000000  0.254474  0.410663  1
  Br  Br15  1  0.000000  0.745526  0.589337  1
  Br  Br16  1  0.000000  0.754912  0.090454  1
  Br  Br17  1  0.000000  0.245088  0.909546  1
  Br  Br18  1  0.000000  0.002663  0.243645  1
  Br  Br19  1  0.000000  0.997337  0.756355  1
  Br  Br20  1  0.000000  0.503971  0.257255  1
  Br  Br21  1  0.000000  0.496029  0.742745  1
