# generated using pymatgen
data_Ho20Ru5Au7
_symmetry_space_group_name_H-M   'P 1'
_cell_length_a   6.35731478
_cell_length_b   11.18251549
_cell_length_c   11.18251578
_cell_angle_alpha   90.53700003
_cell_angle_beta   89.59187042
_cell_angle_gamma   89.59187433
_symmetry_Int_Tables_number   1
_chemical_formula_structural   Ho20Ru5Au7
_chemical_formula_sum   'Ho20 Ru5 Au7'
_cell_volume   794.89803576
_cell_formula_units_Z   1
loop_
 _symmetry_equiv_pos_site_id
 _symmetry_equiv_pos_as_xyz
  1  'x, y, z'
loop_
 _atom_site_type_symbol
 _atom_site_label
 _atom_site_symmetry_multiplicity
 _atom_site_fract_x
 _atom_site_fract_y
 _atom_site_fract_z
 _atom_site_occupancy
  Ho  Ho0  1  0.355559  0.829401  0.552438  1
  Ho  Ho1  1  0.858334  0.656151  0.549489  1
  Ho  Ho2  1  0.855204  0.831795  0.947100  1
  Ho  Ho3  1  0.354492  0.665655  0.947362  1
  Ho  Ho4  1  0.853491  0.543332  0.824545  1
  Ho  Ho5  1  0.358905  0.950704  0.833224  1
  Ho  Ho6  1  0.367089  0.542278  0.660810  1
  Ho  Ho7  1  0.859271  0.945207  0.665758  1
  Ho  Ho8  1  0.646509  0.175455  0.456669  1
  Ho  Ho9  1  0.132911  0.339190  0.457723  1
  Ho  Ho10  1  0.141095  0.166776  0.049296  1
  Ho  Ho11  1  0.640729  0.334242  0.054793  1
  Ho  Ho12  1  0.144441  0.447563  0.170599  1
  Ho  Ho13  1  0.644796  0.052900  0.168205  1
  Ho  Ho14  1  0.641666  0.450512  0.343849  1
  Ho  Ho15  1  0.145508  0.052638  0.334345  1
  Ho  Ho16  1  0.500521  0.751218  0.247996  1
  Ho  Ho17  1  0.999479  0.752004  0.248782  1
  Ho  Ho18  1  0.998420  0.252439  0.741663  1
  Ho  Ho19  1  0.501580  0.258337  0.747561  1
  Ru  Ru20  1  0.750000  0.401341  0.598659  1
  Ru  Ru21  1  0.112050  0.748794  0.749499  1
  Ru  Ru22  1  0.609460  0.748877  0.749013  1
  Ru  Ru23  1  0.890540  0.250987  0.251123  1
  Ru  Ru24  1  0.387950  0.250501  0.251206  1
  Au  Au25  1  0.250000  0.906246  0.093754  1
  Au  Au26  1  0.752851  0.594379  0.092316  1
  Au  Au27  1  0.747149  0.907684  0.405621  1
  Au  Au28  1  0.250000  0.596331  0.403669  1
  Au  Au29  1  0.750000  0.097058  0.902942  1
  Au  Au30  1  0.245518  0.406958  0.906955  1
  Au  Au31  1  0.254482  0.093045  0.593042  1
