# generated using pymatgen
data_DyMn5P3
_symmetry_space_group_name_H-M   'P 1'
_cell_length_a   3.58846300
_cell_length_b   10.72427000
_cell_length_c   12.22030400
_cell_angle_alpha   90.00000000
_cell_angle_beta   90.00000000
_cell_angle_gamma   90.00000000
_symmetry_Int_Tables_number   1
_chemical_formula_structural   DyMn5P3
_chemical_formula_sum   'Dy4 Mn20 P12'
_cell_volume   470.28185433
_cell_formula_units_Z   4
loop_
 _symmetry_equiv_pos_site_id
 _symmetry_equiv_pos_as_xyz
  1  'x, y, z'
loop_
 _atom_site_type_symbol
 _atom_site_label
 _atom_site_symmetry_multiplicity
 _atom_site_fract_x
 _atom_site_fract_y
 _atom_site_fract_z
 _atom_site_occupancy
  Dy  Dy0  1  0.250000  0.585860  0.705937  1
  Dy  Dy1  1  0.750000  0.414140  0.294063  1
  Dy  Dy2  1  0.750000  0.085860  0.794063  1
  Dy  Dy3  1  0.250000  0.914140  0.205937  1
  Mn  Mn4  1  0.250000  0.410019  0.493201  1
  Mn  Mn5  1  0.750000  0.712935  0.320729  1
  Mn  Mn6  1  0.750000  0.787065  0.820729  1
  Mn  Mn7  1  0.250000  0.287065  0.679271  1
  Mn  Mn8  1  0.250000  0.618611  0.193468  1
  Mn  Mn9  1  0.750000  0.381389  0.806532  1
  Mn  Mn10  1  0.750000  0.118611  0.306532  1
  Mn  Mn11  1  0.250000  0.881389  0.693468  1
  Mn  Mn12  1  0.250000  0.034453  0.434309  1
  Mn  Mn13  1  0.750000  0.965547  0.565691  1
  Mn  Mn14  1  0.750000  0.534453  0.065691  1
  Mn  Mn15  1  0.250000  0.465547  0.934309  1
  Mn  Mn16  1  0.750000  0.910019  0.006799  1
  Mn  Mn17  1  0.250000  0.089981  0.993201  1
  Mn  Mn18  1  0.250000  0.716313  0.983104  1
  Mn  Mn19  1  0.750000  0.283687  0.016896  1
  Mn  Mn20  1  0.750000  0.216313  0.516896  1
  Mn  Mn21  1  0.250000  0.783687  0.483104  1
  Mn  Mn22  1  0.250000  0.212935  0.179271  1
  Mn  Mn23  1  0.750000  0.589981  0.506799  1
  P  P24  1  0.250000  0.591641  0.383852  1
  P  P25  1  0.750000  0.408359  0.616148  1
  P  P26  1  0.750000  0.091641  0.116148  1
  P  P27  1  0.250000  0.908359  0.883852  1
  P  P28  1  0.750000  0.764150  0.625339  1
  P  P29  1  0.250000  0.235850  0.374661  1
  P  P30  1  0.250000  0.411484  0.115130  1
  P  P31  1  0.750000  0.588516  0.884870  1
  P  P32  1  0.750000  0.911484  0.384870  1
  P  P33  1  0.250000  0.088516  0.615130  1
  P  P34  1  0.250000  0.264150  0.874661  1
  P  P35  1  0.750000  0.735850  0.125339  1
