# generated using pymatgen
data_Pr6HoPBr12
_symmetry_space_group_name_H-M   'P 1'
_cell_length_a   9.53899204
_cell_length_b   9.53899153
_cell_length_c   9.53899300
_cell_angle_alpha   107.69148983
_cell_angle_beta   107.69148885
_cell_angle_gamma   107.69146492
_symmetry_Int_Tables_number   1
_chemical_formula_structural   Pr6HoPBr12
_chemical_formula_sum   'Pr6 Ho1 P1 Br12'
_cell_volume   708.78122752
_cell_formula_units_Z   1
loop_
 _symmetry_equiv_pos_site_id
 _symmetry_equiv_pos_as_xyz
  1  'x, y, z'
loop_
 _atom_site_type_symbol
 _atom_site_label
 _atom_site_symmetry_multiplicity
 _atom_site_fract_x
 _atom_site_fract_y
 _atom_site_fract_z
 _atom_site_occupancy
  Pr  Pr0  1  0.105856  0.314526  0.028758  1
  Pr  Pr1  1  0.314526  0.028759  0.105855  1
  Pr  Pr2  1  0.028759  0.105855  0.314527  1
  Pr  Pr3  1  0.971242  0.894145  0.685474  1
  Pr  Pr4  1  0.685474  0.971242  0.894145  1
  Pr  Pr5  1  0.894144  0.685474  0.971242  1
  Ho  Ho6  1  0.500000  0.500000  0.500000  1
  P  P7  1  0.000000  0.000000  0.000000  1
  Br  Br8  1  0.223327  0.685919  0.075235  1
  Br  Br9  1  0.469585  0.390763  0.175578  1
  Br  Br10  1  0.685920  0.075235  0.223327  1
  Br  Br11  1  0.924766  0.776673  0.314081  1
  Br  Br12  1  0.175578  0.469585  0.390763  1
  Br  Br13  1  0.390763  0.175578  0.469585  1
  Br  Br14  1  0.609237  0.824422  0.530416  1
  Br  Br15  1  0.824423  0.530415  0.609237  1
  Br  Br16  1  0.075235  0.223327  0.685920  1
  Br  Br17  1  0.314081  0.924766  0.776673  1
  Br  Br18  1  0.530415  0.609237  0.824423  1
  Br  Br19  1  0.776673  0.314081  0.924765  1
