# generated using pymatgen
data_Mg4Co4As6Ir2Ru
_symmetry_space_group_name_H-M   'P 1'
_cell_length_a   6.89198837
_cell_length_b   6.88033262
_cell_length_c   6.88033116
_cell_angle_alpha   109.97375232
_cell_angle_beta   109.18675343
_cell_angle_gamma   109.18676120
_symmetry_Int_Tables_number   1
_chemical_formula_structural   Mg4Co4As6Ir2Ru
_chemical_formula_sum   'Mg4 Co4 As6 Ir2 Ru1'
_cell_volume   251.34846625
_cell_formula_units_Z   1
loop_
 _symmetry_equiv_pos_site_id
 _symmetry_equiv_pos_as_xyz
  1  'x, y, z'
loop_
 _atom_site_type_symbol
 _atom_site_label
 _atom_site_symmetry_multiplicity
 _atom_site_fract_x
 _atom_site_fract_y
 _atom_site_fract_z
 _atom_site_occupancy
  Mg  Mg0  1  0.000000  0.995858  0.498540  1
  Mg  Mg1  1  0.500000  0.000796  0.999204  1
  Mg  Mg2  1  0.000000  0.501460  0.004142  1
  Mg  Mg3  1  0.500000  0.500796  0.499204  1
  Co  Co4  1  0.247284  0.496887  0.750397  1
  Co  Co5  1  0.752716  0.249603  0.503113  1
  Co  Co6  1  0.500000  0.253509  0.746491  1
  Co  Co7  1  0.500000  0.753509  0.246491  1
  As  As8  1  0.673009  0.681922  0.991086  1
  As  As9  1  0.307708  0.317189  0.990520  1
  As  As10  1  0.000000  0.676896  0.694069  1
  As  As11  1  0.000000  0.305931  0.323104  1
  As  As12  1  0.692292  0.009480  0.682811  1
  As  As13  1  0.326991  0.008914  0.318078  1
  Ir  Ir14  1  0.743942  0.495602  0.248340  1
  Ir  Ir15  1  0.256058  0.751660  0.504398  1
  Ru  Ru16  1  0.000000  0.999990  0.000010  1
