# generated using pymatgen
data_AcSmP7Ru12
_symmetry_space_group_name_H-M   'P 1'
_cell_length_a   9.52898100
_cell_length_b   9.52898058
_cell_length_c   3.98335700
_cell_angle_alpha   90.00000000
_cell_angle_beta   90.00000000
_cell_angle_gamma   119.99999705
_symmetry_Int_Tables_number   1
_chemical_formula_structural   AcSmP7Ru12
_chemical_formula_sum   'Ac1 Sm1 P7 Ru12'
_cell_volume   313.23679983
_cell_formula_units_Z   1
loop_
 _symmetry_equiv_pos_site_id
 _symmetry_equiv_pos_as_xyz
  1  'x, y, z'
loop_
 _atom_site_type_symbol
 _atom_site_label
 _atom_site_symmetry_multiplicity
 _atom_site_fract_x
 _atom_site_fract_y
 _atom_site_fract_z
 _atom_site_occupancy
  Ac  Ac0  1  0.333333  0.666667  0.000000  1
  Sm  Sm1  1  0.666667  0.333333  0.500000  1
  P  P2  1  0.611584  0.717571  0.500000  1
  P  P3  1  0.000000  0.000000  0.000000  1
  P  P4  1  0.282429  0.894014  0.500000  1
  P  P5  1  0.105986  0.388416  0.500000  1
  P  P6  1  0.890443  0.572445  0.000000  1
  P  P7  1  0.427555  0.317998  0.000000  1
  P  P8  1  0.682002  0.109557  0.000000  1
  Ru  Ru9  1  0.561700  0.958663  0.500000  1
  Ru  Ru10  1  0.396965  0.438300  0.500000  1
  Ru  Ru11  1  0.914332  0.117186  0.500000  1
  Ru  Ru12  1  0.202854  0.085668  0.500000  1
  Ru  Ru13  1  0.882814  0.797146  0.500000  1
  Ru  Ru14  1  0.730477  0.893175  0.000000  1
  Ru  Ru15  1  0.106825  0.837302  0.000000  1
  Ru  Ru16  1  0.162698  0.269523  0.000000  1
  Ru  Ru17  1  0.419342  0.070189  0.000000  1
  Ru  Ru18  1  0.929811  0.349154  0.000000  1
  Ru  Ru19  1  0.650846  0.580658  0.000000  1
  Ru  Ru20  1  0.041337  0.603035  0.500000  1
