# generated using pymatgen
data_NdDy4Zr3(P3Ir4)4
_symmetry_space_group_name_H-M   'P 1'
_cell_length_a   12.89034100
_cell_length_b   12.89034232
_cell_length_c   3.99387100
_cell_angle_alpha   90.00000000
_cell_angle_beta   90.00000000
_cell_angle_gamma   119.99999919
_symmetry_Int_Tables_number   1
_chemical_formula_structural   NdDy4Zr3(P3Ir4)4
_chemical_formula_sum   'Nd1 Dy4 Zr3 P12 Ir16'
_cell_volume   574.71631421
_cell_formula_units_Z   1
loop_
 _symmetry_equiv_pos_site_id
 _symmetry_equiv_pos_as_xyz
  1  'x, y, z'
loop_
 _atom_site_type_symbol
 _atom_site_label
 _atom_site_symmetry_multiplicity
 _atom_site_fract_x
 _atom_site_fract_y
 _atom_site_fract_z
 _atom_site_occupancy
  Nd  Nd0  1  0.333333  0.666667  0.500000  1
  Dy  Dy1  1  0.666667  0.333333  0.500000  1
  Dy  Dy2  1  0.000172  0.814983  0.000000  1
  Dy  Dy3  1  0.185017  0.185189  0.000000  1
  Dy  Dy4  1  0.814811  0.999828  0.000000  1
  Zr  Zr5  1  0.999206  0.448461  0.500000  1
  Zr  Zr6  1  0.551539  0.550745  0.500000  1
  Zr  Zr7  1  0.449255  0.000794  0.500000  1
  P  P8  1  0.000365  0.649308  0.500000  1
  P  P9  1  0.350692  0.351057  0.500000  1
  P  P10  1  0.648943  0.999635  0.500000  1
  P  P11  1  0.519082  0.686650  0.000000  1
  P  P12  1  0.313350  0.832432  0.000000  1
  P  P13  1  0.167568  0.480918  0.000000  1
  P  P14  1  0.482939  0.169617  0.000000  1
  P  P15  1  0.686678  0.517061  0.000000  1
  P  P16  1  0.830383  0.313322  0.000000  1
  P  P17  1  0.999587  0.175501  0.500000  1
  P  P18  1  0.824499  0.824086  0.500000  1
  P  P19  1  0.175914  0.000413  0.500000  1
  Ir  Ir20  1  0.511017  0.867501  0.000000  1
  Ir  Ir21  1  0.132499  0.643517  0.000000  1
  Ir  Ir22  1  0.356483  0.488983  0.000000  1
  Ir  Ir23  1  0.492892  0.356270  0.000000  1
  Ir  Ir24  1  0.863379  0.507108  0.000000  1
  Ir  Ir25  1  0.643730  0.136621  0.000000  1
  Ir  Ir26  1  0.999439  0.278385  0.000000  1
  Ir  Ir27  1  0.721615  0.721054  0.000000  1
  Ir  Ir28  1  0.278946  0.000561  0.000000  1
  Ir  Ir29  1  0.630187  0.807440  0.500000  1
  Ir  Ir30  1  0.192560  0.822747  0.500000  1
  Ir  Ir31  1  0.177253  0.369813  0.500000  1
  Ir  Ir32  1  0.370800  0.178428  0.500000  1
  Ir  Ir33  1  0.807628  0.629200  0.500000  1
  Ir  Ir34  1  0.821572  0.192372  0.500000  1
  Ir  Ir35  1  0.000000  0.000000  0.500000  1
