# generated using pymatgen
data_Y2IrOs3
_symmetry_space_group_name_H-M   'P 1'
_cell_length_a   5.28810200
_cell_length_b   5.28810229
_cell_length_c   9.03164100
_cell_angle_alpha   90.00000000
_cell_angle_beta   90.00000000
_cell_angle_gamma   119.99999821
_symmetry_Int_Tables_number   1
_chemical_formula_structural   Y2IrOs3
_chemical_formula_sum   'Y4 Ir2 Os6'
_cell_volume   218.72427034
_cell_formula_units_Z   2
loop_
 _symmetry_equiv_pos_site_id
 _symmetry_equiv_pos_as_xyz
  1  'x, y, z'
loop_
 _atom_site_type_symbol
 _atom_site_label
 _atom_site_symmetry_multiplicity
 _atom_site_fract_x
 _atom_site_fract_y
 _atom_site_fract_z
 _atom_site_occupancy
  Y  Y0  1  0.333333  0.666667  0.432113  1
  Y  Y1  1  0.666667  0.333333  0.567887  1
  Y  Y2  1  0.666667  0.333333  0.932113  1
  Y  Y3  1  0.333333  0.666667  0.067887  1
  Ir  Ir4  1  0.000000  0.000000  0.500000  1
  Ir  Ir5  1  0.000000  0.000000  0.000000  1
  Os  Os6  1  0.829432  0.170568  0.250000  1
  Os  Os7  1  0.829432  0.658865  0.250000  1
  Os  Os8  1  0.341135  0.170568  0.250000  1
  Os  Os9  1  0.170568  0.829432  0.750000  1
  Os  Os10  1  0.170568  0.341135  0.750000  1
  Os  Os11  1  0.658865  0.829432  0.750000  1
