# generated using pymatgen
data_Tb8Tm4Ga2TcNi3
_symmetry_space_group_name_H-M   'P 1'
_cell_length_a   8.32796166
_cell_length_b   8.32814646
_cell_length_c   8.32796231
_cell_angle_alpha   112.75055814
_cell_angle_beta   109.90814509
_cell_angle_gamma   105.82810264
_symmetry_Int_Tables_number   1
_chemical_formula_structural   Tb8Tm4Ga2TcNi3
_chemical_formula_sum   'Tb8 Tm4 Ga2 Tc1 Ni3'
_cell_volume   443.01099680
_cell_formula_units_Z   1
loop_
 _symmetry_equiv_pos_site_id
 _symmetry_equiv_pos_as_xyz
  1  'x, y, z'
loop_
 _atom_site_type_symbol
 _atom_site_label
 _atom_site_symmetry_multiplicity
 _atom_site_fract_x
 _atom_site_fract_y
 _atom_site_fract_z
 _atom_site_occupancy
  Tb  Tb0  1  0.442739  0.249410  0.193355  1
  Tb  Tb1  1  0.572868  0.767856  0.804952  1
  Tb  Tb2  1  0.037095  0.232144  0.805011  1
  Tb  Tb3  1  0.943945  0.750590  0.193328  1
  Tb  Tb4  1  0.186665  0.279697  0.466360  1
  Tb  Tb5  1  0.825627  0.721491  0.547104  1
  Tb  Tb6  1  0.186664  0.720303  0.906968  1
  Tb  Tb7  1  0.825612  0.278509  0.104135  1
  Tm  Tm8  1  0.325906  0.640958  0.309087  1
  Tm  Tm9  1  0.668127  0.359042  0.684945  1
  Tm  Tm10  1  0.325918  0.016887  0.685002  1
  Tm  Tm11  1  0.668115  0.983113  0.309031  1
  Ga  Ga12  1  0.493300  0.500000  0.993300  1
  Ga  Ga13  1  0.017256  0.000000  0.017256  1
  Tc  Tc14  1  0.328080  0.000000  0.328080  1
  Ni  Ni15  1  0.652073  0.000000  0.652073  1
  Ni  Ni16  1  0.118079  0.618290  0.500222  1
  Ni  Ni17  1  0.881932  0.381710  0.499789  1
