# generated using pymatgen
data_LiDyEr(Co3P2)3
_symmetry_space_group_name_H-M   'P 1'
_cell_length_a   3.66026800
_cell_length_b   10.23293400
_cell_length_c   11.79018200
_cell_angle_alpha   90.00000000
_cell_angle_beta   90.00000000
_cell_angle_gamma   90.00000000
_symmetry_Int_Tables_number   1
_chemical_formula_structural   LiDyEr(Co3P2)3
_chemical_formula_sum   'Li2 Dy2 Er2 Co18 P12'
_cell_volume   441.60457827
_cell_formula_units_Z   2
loop_
 _symmetry_equiv_pos_site_id
 _symmetry_equiv_pos_as_xyz
  1  'x, y, z'
loop_
 _atom_site_type_symbol
 _atom_site_label
 _atom_site_symmetry_multiplicity
 _atom_site_fract_x
 _atom_site_fract_y
 _atom_site_fract_z
 _atom_site_occupancy
  Li  Li0  1  0.250000  0.702530  0.990893  1
  Li  Li1  1  0.250000  0.797470  0.490893  1
  Dy  Dy2  1  0.750000  0.420162  0.297601  1
  Dy  Dy3  1  0.750000  0.079838  0.797601  1
  Er  Er4  1  0.250000  0.579178  0.702276  1
  Er  Er5  1  0.250000  0.920822  0.202276  1
  Co  Co6  1  0.750000  0.288448  0.008630  1
  Co  Co7  1  0.750000  0.211552  0.508630  1
  Co  Co8  1  0.250000  0.404157  0.487457  1
  Co  Co9  1  0.250000  0.095843  0.987457  1
  Co  Co10  1  0.750000  0.591010  0.515181  1
  Co  Co11  1  0.750000  0.908990  0.015181  1
  Co  Co12  1  0.250000  0.223964  0.174506  1
  Co  Co13  1  0.250000  0.276036  0.674506  1
  Co  Co14  1  0.750000  0.779484  0.826283  1
  Co  Co15  1  0.750000  0.720516  0.326283  1
  Co  Co16  1  0.250000  0.880278  0.698561  1
  Co  Co17  1  0.250000  0.619722  0.198561  1
  Co  Co18  1  0.750000  0.120615  0.299664  1
  Co  Co19  1  0.750000  0.379385  0.799664  1
  Co  Co20  1  0.250000  0.463582  0.931344  1
  Co  Co21  1  0.250000  0.036418  0.431344  1
  Co  Co22  1  0.750000  0.533520  0.066155  1
  Co  Co23  1  0.750000  0.966480  0.566155  1
  P  P24  1  0.250000  0.422579  0.111893  1
  P  P25  1  0.250000  0.077421  0.611893  1
  P  P26  1  0.750000  0.577001  0.883700  1
  P  P27  1  0.750000  0.922999  0.383700  1
  P  P28  1  0.250000  0.268101  0.866848  1
  P  P29  1  0.250000  0.231899  0.366848  1
  P  P30  1  0.750000  0.730481  0.138302  1
  P  P31  1  0.750000  0.769519  0.638302  1
  P  P32  1  0.250000  0.601580  0.393310  1
  P  P33  1  0.250000  0.898420  0.893310  1
  P  P34  1  0.750000  0.396044  0.607398  1
  P  P35  1  0.750000  0.103956  0.107398  1
