# generated using pymatgen
data_Ce5CdPb3
_symmetry_space_group_name_H-M   'P 1'
_cell_length_a   9.69575900
_cell_length_b   9.69575873
_cell_length_c   6.67738500
_cell_angle_alpha   90.00000000
_cell_angle_beta   90.00000000
_cell_angle_gamma   120.00000434
_symmetry_Int_Tables_number   1
_chemical_formula_structural   Ce5CdPb3
_chemical_formula_sum   'Ce10 Cd2 Pb6'
_cell_volume   543.62652851
_cell_formula_units_Z   2
loop_
 _symmetry_equiv_pos_site_id
 _symmetry_equiv_pos_as_xyz
  1  'x, y, z'
loop_
 _atom_site_type_symbol
 _atom_site_label
 _atom_site_symmetry_multiplicity
 _atom_site_fract_x
 _atom_site_fract_y
 _atom_site_fract_z
 _atom_site_occupancy
  Ce  Ce0  1  0.666667  0.333333  0.500000  1
  Ce  Ce1  1  0.333333  0.666667  0.500000  1
  Ce  Ce2  1  0.333333  0.666667  0.000000  1
  Ce  Ce3  1  0.666667  0.333333  0.000000  1
  Ce  Ce4  1  0.705571  0.705571  0.250000  1
  Ce  Ce5  1  0.294429  0.000000  0.250000  1
  Ce  Ce6  1  0.000000  0.294429  0.250000  1
  Ce  Ce7  1  0.294429  0.294429  0.750000  1
  Ce  Ce8  1  0.705571  0.000000  0.750000  1
  Ce  Ce9  1  0.000000  0.705571  0.750000  1
  Cd  Cd10  1  0.000000  0.000000  0.500000  1
  Cd  Cd11  1  0.000000  0.000000  0.000000  1
  Pb  Pb12  1  0.364518  0.364518  0.250000  1
  Pb  Pb13  1  0.635482  0.000000  0.250000  1
  Pb  Pb14  1  0.000000  0.635482  0.250000  1
  Pb  Pb15  1  0.635482  0.635482  0.750000  1
  Pb  Pb16  1  0.364518  0.000000  0.750000  1
  Pb  Pb17  1  0.000000  0.364518  0.750000  1
