# generated using pymatgen
data_Ba4GaP3Pt3Rh
_symmetry_space_group_name_H-M   'P 1'
_cell_length_a   6.66866766
_cell_length_b   6.66866777
_cell_length_c   6.66866850
_cell_angle_alpha   90.41771766
_cell_angle_beta   89.58228401
_cell_angle_gamma   90.41772278
_symmetry_Int_Tables_number   1
_chemical_formula_structural   Ba4GaP3Pt3Rh
_chemical_formula_sum   'Ba4 Ga1 P3 Pt3 Rh1'
_cell_volume   296.53968788
_cell_formula_units_Z   1
loop_
 _symmetry_equiv_pos_site_id
 _symmetry_equiv_pos_as_xyz
  1  'x, y, z'
loop_
 _atom_site_type_symbol
 _atom_site_label
 _atom_site_symmetry_multiplicity
 _atom_site_fract_x
 _atom_site_fract_y
 _atom_site_fract_z
 _atom_site_occupancy
  Ba  Ba0  1  0.630919  0.376955  0.867783  1
  Ba  Ba1  1  0.367783  0.869081  0.623045  1
  Ba  Ba2  1  0.123045  0.132217  0.130919  1
  Ba  Ba3  1  0.875217  0.624783  0.375217  1
  Ga  Ga4  1  0.591924  0.908076  0.091924  1
  P  P5  1  0.088410  0.582748  0.904658  1
  P  P6  1  0.917252  0.095342  0.588410  1
  P  P7  1  0.404658  0.411590  0.417252  1
  Pt  Pt8  1  0.657708  0.170502  0.360666  1
  Pt  Pt9  1  0.860666  0.842292  0.829498  1
  Pt  Pt10  1  0.329498  0.639334  0.157708  1
  Rh  Rh11  1  0.152920  0.347080  0.652920  1
