# generated using pymatgen
data_Rb4Ho6SiI18
_symmetry_space_group_name_H-M   'P 1'
_cell_length_a   12.04580484
_cell_length_b   12.04580524
_cell_length_c   11.76535900
_cell_angle_alpha   77.43925115
_cell_angle_beta   77.43924586
_cell_angle_gamma   117.47963872
_symmetry_Int_Tables_number   1
_chemical_formula_structural   Rb4Ho6SiI18
_chemical_formula_sum   'Rb4 Ho6 Si1 I18'
_cell_volume   1375.13767832
_cell_formula_units_Z   1
loop_
 _symmetry_equiv_pos_site_id
 _symmetry_equiv_pos_as_xyz
  1  'x, y, z'
loop_
 _atom_site_type_symbol
 _atom_site_label
 _atom_site_symmetry_multiplicity
 _atom_site_fract_x
 _atom_site_fract_y
 _atom_site_fract_z
 _atom_site_occupancy
  Rb  Rb0  1  0.769462  0.444720  0.679501  1
  Rb  Rb1  1  0.555280  0.230538  0.320499  1
  Rb  Rb2  1  0.230538  0.555280  0.320499  1
  Rb  Rb3  1  0.444720  0.769462  0.679501  1
  Ho  Ho4  1  0.135500  0.135500  0.154065  1
  Ho  Ho5  1  0.864500  0.864500  0.845935  1
  Ho  Ho6  1  0.944893  0.743660  0.161581  1
  Ho  Ho7  1  0.256340  0.055107  0.838419  1
  Ho  Ho8  1  0.055107  0.256340  0.838419  1
  Ho  Ho9  1  0.743660  0.944893  0.161581  1
  Si  Si10  1  0.000000  0.000000  0.000000  1
  I  I11  1  0.803349  0.592173  0.009780  1
  I  I12  1  0.407828  0.196651  0.990220  1
  I  I13  1  0.196651  0.407828  0.990220  1
  I  I14  1  0.592172  0.803349  0.009780  1
  I  I15  1  0.209940  0.790060  0.000000  1
  I  I16  1  0.790060  0.209940  0.000000  1
  I  I17  1  0.325216  0.325216  0.667454  1
  I  I18  1  0.674784  0.674784  0.332546  1
  I  I19  1  0.886283  0.478712  0.334989  1
  I  I20  1  0.521288  0.113717  0.665011  1
  I  I21  1  0.113717  0.521288  0.665011  1
  I  I22  1  0.478712  0.886283  0.334989  1
  I  I23  1  0.274658  0.274658  0.308372  1
  I  I24  1  0.725342  0.725342  0.691628  1
  I  I25  1  0.082489  0.873613  0.324180  1
  I  I26  1  0.126387  0.917511  0.675820  1
  I  I27  1  0.917511  0.126387  0.675820  1
  I  I28  1  0.873613  0.082489  0.324180  1
