# generated using pymatgen
data_Tm20Cd3Os2Pd3
_symmetry_space_group_name_H-M   'P 1'
_cell_length_a   9.32481200
_cell_length_b   9.32481193
_cell_length_c   9.39635600
_cell_angle_alpha   90.00000000
_cell_angle_beta   90.00000000
_cell_angle_gamma   120.00000024
_symmetry_Int_Tables_number   1
_chemical_formula_structural   Tm20Cd3Os2Pd3
_chemical_formula_sum   'Tm20 Cd3 Os2 Pd3'
_cell_volume   707.57138196
_cell_formula_units_Z   1
loop_
 _symmetry_equiv_pos_site_id
 _symmetry_equiv_pos_as_xyz
  1  'x, y, z'
loop_
 _atom_site_type_symbol
 _atom_site_label
 _atom_site_symmetry_multiplicity
 _atom_site_fract_x
 _atom_site_fract_y
 _atom_site_fract_z
 _atom_site_occupancy
  Tm  Tm0  1  0.000000  0.000000  0.450716  1
  Tm  Tm1  1  0.000000  0.000000  0.049284  1
  Tm  Tm2  1  0.208346  0.791654  0.442022  1
  Tm  Tm3  1  0.208346  0.416692  0.442022  1
  Tm  Tm4  1  0.583308  0.791654  0.442022  1
  Tm  Tm5  1  0.792771  0.207229  0.555518  1
  Tm  Tm6  1  0.792771  0.585541  0.555518  1
  Tm  Tm7  1  0.414459  0.207229  0.555518  1
  Tm  Tm8  1  0.792771  0.207229  0.944482  1
  Tm  Tm9  1  0.792771  0.585541  0.944482  1
  Tm  Tm10  1  0.414459  0.207229  0.944482  1
  Tm  Tm11  1  0.208346  0.791654  0.057978  1
  Tm  Tm12  1  0.208346  0.416692  0.057978  1
  Tm  Tm13  1  0.583308  0.791654  0.057978  1
  Tm  Tm14  1  0.539667  0.460333  0.250000  1
  Tm  Tm15  1  0.539667  0.079335  0.250000  1
  Tm  Tm16  1  0.920665  0.460333  0.250000  1
  Tm  Tm17  1  0.460229  0.539771  0.750000  1
  Tm  Tm18  1  0.460229  0.920460  0.750000  1
  Tm  Tm19  1  0.079540  0.539771  0.750000  1
  Cd  Cd20  1  0.108247  0.891753  0.750000  1
  Cd  Cd21  1  0.108247  0.216490  0.750000  1
  Cd  Cd22  1  0.783510  0.891753  0.750000  1
  Os  Os23  1  0.333333  0.666667  0.250000  1
  Os  Os24  1  0.666667  0.333333  0.750000  1
  Pd  Pd25  1  0.869463  0.130537  0.250000  1
  Pd  Pd26  1  0.869463  0.738927  0.250000  1
  Pd  Pd27  1  0.261073  0.130537  0.250000  1
