# generated using pymatgen
data_Pr8Sc11Si16Au
_symmetry_space_group_name_H-M   'P 1'
_cell_length_a   7.18975111
_cell_length_b   7.56640073
_cell_length_c   14.26394000
_cell_angle_alpha   90.00000000
_cell_angle_beta   90.00000000
_cell_angle_gamma   90.26295484
_symmetry_Int_Tables_number   1
_chemical_formula_structural   Pr8Sc11Si16Au
_chemical_formula_sum   'Pr8 Sc11 Si16 Au1'
_cell_volume   775.95783889
_cell_formula_units_Z   1
loop_
 _symmetry_equiv_pos_site_id
 _symmetry_equiv_pos_as_xyz
  1  'x, y, z'
loop_
 _atom_site_type_symbol
 _atom_site_label
 _atom_site_symmetry_multiplicity
 _atom_site_fract_x
 _atom_site_fract_y
 _atom_site_fract_z
 _atom_site_occupancy
  Pr  Pr0  1  0.012425  0.173343  0.402534  1
  Pr  Pr1  1  0.511305  0.329946  0.402508  1
  Pr  Pr2  1  0.492151  0.682678  0.898150  1
  Pr  Pr3  1  0.492151  0.682678  0.601850  1
  Pr  Pr4  1  0.979757  0.827911  0.602674  1
  Pr  Pr5  1  0.979757  0.827911  0.897326  1
  Pr  Pr6  1  0.511305  0.329946  0.097492  1
  Pr  Pr7  1  0.012425  0.173343  0.097466  1
  Sc  Sc8  1  0.336128  0.172466  0.625643  1
  Sc  Sc9  1  0.671884  0.822177  0.374162  1
  Sc  Sc10  1  0.171587  0.676622  0.375870  1
  Sc  Sc11  1  0.826558  0.313515  0.874189  1
  Sc  Sc12  1  0.826558  0.313515  0.625811  1
  Sc  Sc13  1  0.840558  0.502022  0.250000  1
  Sc  Sc14  1  0.340128  0.997850  0.250000  1
  Sc  Sc15  1  0.336128  0.172466  0.874357  1
  Sc  Sc16  1  0.171587  0.676622  0.124130  1
  Sc  Sc17  1  0.671884  0.822177  0.125838  1
  Sc  Sc18  1  0.157948  0.493695  0.750000  1
  Si  Si19  1  0.279574  0.883980  0.750000  1
  Si  Si20  1  0.467109  0.623588  0.250000  1
  Si  Si21  1  0.043834  0.123864  0.750000  1
  Si  Si22  1  0.530636  0.387205  0.750000  1
  Si  Si23  1  0.152887  0.465686  0.541404  1
  Si  Si24  1  0.967163  0.873907  0.250000  1
  Si  Si25  1  0.710352  0.117236  0.250000  1
  Si  Si26  1  0.850190  0.536535  0.037383  1
  Si  Si27  1  0.348863  0.963202  0.038863  1
  Si  Si28  1  0.152887  0.465686  0.958596  1
  Si  Si29  1  0.653561  0.041575  0.531024  1
  Si  Si30  1  0.348863  0.963202  0.461137  1
  Si  Si31  1  0.850190  0.536535  0.462617  1
  Si  Si32  1  0.792683  0.591927  0.750000  1
  Si  Si33  1  0.209848  0.385517  0.250000  1
  Si  Si34  1  0.653561  0.041575  0.968976  1
  Au  Au35  1  0.645575  0.007900  0.750000  1
