# generated using pymatgen
data_Sr3Zn3(Ni5B)2
_symmetry_space_group_name_H-M   'P 1'
_cell_length_a   5.24568900
_cell_length_b   5.24396743
_cell_length_c   10.97635400
_cell_angle_alpha   90.00001093
_cell_angle_beta   89.99882038
_cell_angle_gamma   119.95416653
_symmetry_Int_Tables_number   1
_chemical_formula_structural   Sr3Zn3(Ni5B)2
_chemical_formula_sum   'Sr3 Zn3 Ni10 B2'
_cell_volume   261.60838183
_cell_formula_units_Z   1
loop_
 _symmetry_equiv_pos_site_id
 _symmetry_equiv_pos_as_xyz
  1  'x, y, z'
loop_
 _atom_site_type_symbol
 _atom_site_label
 _atom_site_symmetry_multiplicity
 _atom_site_fract_x
 _atom_site_fract_y
 _atom_site_fract_z
 _atom_site_occupancy
  Sr  Sr0  1  0.000007  0.000042  0.999515  1
  Sr  Sr1  1  0.000012  0.999978  0.663810  1
  Sr  Sr2  1  0.999937  0.000031  0.326901  1
  Zn  Zn3  1  0.666577  0.333241  0.685652  1
  Zn  Zn4  1  0.333431  0.666684  0.684591  1
  Zn  Zn5  1  0.333459  0.666816  0.314931  1
  Ni  Ni6  1  0.502165  0.497757  0.499062  1
  Ni  Ni7  1  0.502124  0.004175  0.499088  1
  Ni  Ni8  1  0.995667  0.497756  0.499074  1
  Ni  Ni9  1  0.666579  0.333208  0.318392  1
  Ni  Ni10  1  0.499503  0.500535  0.875875  1
  Ni  Ni11  1  0.499482  0.998994  0.875947  1
  Ni  Ni12  1  0.001025  0.500549  0.875871  1
  Ni  Ni13  1  0.502073  0.497972  0.126208  1
  Ni  Ni14  1  0.502083  0.004199  0.126074  1
  Ni  Ni15  1  0.995859  0.497978  0.126195  1
  B  B16  1  0.666770  0.333439  0.000336  1
  B  B17  1  0.333244  0.666647  0.002477  1
