# generated using pymatgen
data_Y3Th2In4PdPt
_symmetry_space_group_name_H-M   'P 1'
_cell_length_a   3.80875600
_cell_length_b   8.14094272
_cell_length_c   18.28582730
_cell_angle_alpha   90.10932503
_cell_angle_beta   90.00000000
_cell_angle_gamma   90.00000000
_symmetry_Int_Tables_number   1
_chemical_formula_structural   Y3Th2In4PdPt
_chemical_formula_sum   'Y6 Th4 In8 Pd2 Pt2'
_cell_volume   566.98513558
_cell_formula_units_Z   2
loop_
 _symmetry_equiv_pos_site_id
 _symmetry_equiv_pos_as_xyz
  1  'x, y, z'
loop_
 _atom_site_type_symbol
 _atom_site_label
 _atom_site_symmetry_multiplicity
 _atom_site_fract_x
 _atom_site_fract_y
 _atom_site_fract_z
 _atom_site_occupancy
  Y  Y0  1  0.500000  0.115116  0.583252  1
  Y  Y1  1  0.500000  0.884884  0.416748  1
  Y  Y2  1  0.500000  0.384372  0.082435  1
  Y  Y3  1  0.500000  0.615628  0.917565  1
  Y  Y4  1  0.500000  0.000000  0.000000  1
  Y  Y5  1  0.500000  0.500000  0.500000  1
  Th  Th6  1  0.500000  0.233915  0.782144  1
  Th  Th7  1  0.500000  0.766085  0.217856  1
  Th  Th8  1  0.500000  0.259851  0.282983  1
  Th  Th9  1  0.500000  0.740149  0.717017  1
  In  In10  1  0.000000  0.085025  0.145053  1
  In  In11  1  0.000000  0.914975  0.854947  1
  In  In12  1  0.000000  0.417134  0.645827  1
  In  In13  1  0.000000  0.582866  0.354173  1
  In  In14  1  0.000000  0.206452  0.437369  1
  In  In15  1  0.000000  0.793548  0.562631  1
  In  In16  1  0.000000  0.294220  0.936707  1
  In  In17  1  0.000000  0.705780  0.063293  1
  Pd  Pd18  1  0.000000  0.475389  0.197983  1
  Pd  Pd19  1  0.000000  0.524611  0.802017  1
  Pt  Pt20  1  0.000000  0.024892  0.698119  1
  Pt  Pt21  1  0.000000  0.975108  0.301881  1
