# generated using pymatgen
data_Tb2Dy3Si12Ir19
_symmetry_space_group_name_H-M   'P 1'
_cell_length_a   12.83526600
_cell_length_b   12.83526650
_cell_length_c   3.98825400
_cell_angle_alpha   90.00000000
_cell_angle_beta   90.00000000
_cell_angle_gamma   119.99999871
_symmetry_Int_Tables_number   1
_chemical_formula_structural   Tb2Dy3Si12Ir19
_chemical_formula_sum   'Tb2 Dy3 Si12 Ir19'
_cell_volume   569.01433916
_cell_formula_units_Z   1
loop_
 _symmetry_equiv_pos_site_id
 _symmetry_equiv_pos_as_xyz
  1  'x, y, z'
loop_
 _atom_site_type_symbol
 _atom_site_label
 _atom_site_symmetry_multiplicity
 _atom_site_fract_x
 _atom_site_fract_y
 _atom_site_fract_z
 _atom_site_occupancy
  Tb  Tb0  1  0.333333  0.666667  0.500000  1
  Tb  Tb1  1  0.666667  0.333333  0.500000  1
  Dy  Dy2  1  0.000000  0.815190  0.000000  1
  Dy  Dy3  1  0.184810  0.184810  0.000000  1
  Dy  Dy4  1  0.815190  0.000000  0.000000  1
  Si  Si5  1  0.000000  0.632380  0.500000  1
  Si  Si6  1  0.367620  0.367620  0.500000  1
  Si  Si7  1  0.632380  0.000000  0.500000  1
  Si  Si8  1  0.518948  0.687576  0.000000  1
  Si  Si9  1  0.312424  0.831372  0.000000  1
  Si  Si10  1  0.168628  0.481052  0.000000  1
  Si  Si11  1  0.481052  0.168628  0.000000  1
  Si  Si12  1  0.687576  0.518948  0.000000  1
  Si  Si13  1  0.831372  0.312424  0.000000  1
  Si  Si14  1  0.000000  0.181625  0.500000  1
  Si  Si15  1  0.818375  0.818375  0.500000  1
  Si  Si16  1  0.181625  0.000000  0.500000  1
  Ir  Ir17  1  0.512619  0.873791  0.000000  1
  Ir  Ir18  1  0.126209  0.638828  0.000000  1
  Ir  Ir19  1  0.361172  0.487381  0.000000  1
  Ir  Ir20  1  0.487381  0.361172  0.000000  1
  Ir  Ir21  1  0.873791  0.512619  0.000000  1
  Ir  Ir22  1  0.638828  0.126209  0.000000  1
  Ir  Ir23  1  0.000000  0.447572  0.500000  1
  Ir  Ir24  1  0.552428  0.552428  0.500000  1
  Ir  Ir25  1  0.447572  0.000000  0.500000  1
  Ir  Ir26  1  0.000000  0.283140  0.000000  1
  Ir  Ir27  1  0.716860  0.716860  0.000000  1
  Ir  Ir28  1  0.283140  0.000000  0.000000  1
  Ir  Ir29  1  0.623203  0.805596  0.500000  1
  Ir  Ir30  1  0.194404  0.817607  0.500000  1
  Ir  Ir31  1  0.182393  0.376797  0.500000  1
  Ir  Ir32  1  0.376797  0.182393  0.500000  1
  Ir  Ir33  1  0.805596  0.623203  0.500000  1
  Ir  Ir34  1  0.817607  0.194404  0.500000  1
  Ir  Ir35  1  0.000000  0.000000  0.500000  1
