# generated using pymatgen
data_Tb3DyAl4PdRh3
_symmetry_space_group_name_H-M   'P 1'
_cell_length_a   4.28731800
_cell_length_b   6.89539801
_cell_length_c   7.93414400
_cell_angle_alpha   89.99769833
_cell_angle_beta   90.00000000
_cell_angle_gamma   90.00000000
_symmetry_Int_Tables_number   1
_chemical_formula_structural   Tb3DyAl4PdRh3
_chemical_formula_sum   'Tb3 Dy1 Al4 Pd1 Rh3'
_cell_volume   234.55522632
_cell_formula_units_Z   1
loop_
 _symmetry_equiv_pos_site_id
 _symmetry_equiv_pos_as_xyz
  1  'x, y, z'
loop_
 _atom_site_type_symbol
 _atom_site_label
 _atom_site_symmetry_multiplicity
 _atom_site_fract_x
 _atom_site_fract_y
 _atom_site_fract_z
 _atom_site_occupancy
  Tb  Tb0  1  0.250000  0.467143  0.183434  1
  Tb  Tb1  1  0.750000  0.540294  0.819083  1
  Tb  Tb2  1  0.250000  0.965001  0.320545  1
  Dy  Dy3  1  0.750000  0.032249  0.677005  1
  Al  Al4  1  0.250000  0.859494  0.938083  1
  Al  Al5  1  0.750000  0.135119  0.064084  1
  Al  Al6  1  0.750000  0.637057  0.438264  1
  Al  Al7  1  0.250000  0.364988  0.560256  1
  Pd  Pd8  1  0.250000  0.231264  0.879378  1
  Rh  Rh9  1  0.250000  0.736528  0.619777  1
  Rh  Rh10  1  0.750000  0.265691  0.382553  1
  Rh  Rh11  1  0.750000  0.765174  0.117538  1
