# generated using pymatgen
data_Er8Ta5Ti7Ge16
_symmetry_space_group_name_H-M   'P 1'
_cell_length_a   7.00868322
_cell_length_b   7.10975445
_cell_length_c   13.44350613
_cell_angle_alpha   90.00078285
_cell_angle_beta   90.01564073
_cell_angle_gamma   89.77753906
_symmetry_Int_Tables_number   1
_chemical_formula_structural   Er8Ta5Ti7Ge16
_chemical_formula_sum   'Er8 Ta5 Ti7 Ge16'
_cell_volume   669.88506064
_cell_formula_units_Z   1
loop_
 _symmetry_equiv_pos_site_id
 _symmetry_equiv_pos_as_xyz
  1  'x, y, z'
loop_
 _atom_site_type_symbol
 _atom_site_label
 _atom_site_symmetry_multiplicity
 _atom_site_fract_x
 _atom_site_fract_y
 _atom_site_fract_z
 _atom_site_occupancy
  Er  Er0  1  0.496239  0.325678  0.095735  1
  Er  Er1  1  0.996773  0.173966  0.404212  1
  Er  Er2  1  0.504288  0.674509  0.595795  1
  Er  Er3  1  0.003277  0.824838  0.904200  1
  Er  Er4  1  0.504407  0.674689  0.904589  1
  Er  Er5  1  0.004893  0.827270  0.595646  1
  Er  Er6  1  0.495685  0.324918  0.404788  1
  Er  Er7  1  0.996188  0.174627  0.095543  1
  Ta  Ta8  1  0.665406  0.010427  0.749210  1
  Ta  Ta9  1  0.168711  0.487489  0.749256  1
  Ta  Ta10  1  0.332969  0.990200  0.249635  1
  Ta  Ta11  1  0.833027  0.511173  0.250253  1
  Ta  Ta12  1  0.340679  0.172144  0.627537  1
  Ti  Ti13  1  0.840478  0.328471  0.626299  1
  Ti  Ti14  1  0.337551  0.169558  0.874223  1
  Ti  Ti15  1  0.159669  0.670820  0.126808  1
  Ti  Ti16  1  0.659890  0.829130  0.372924  1
  Ti  Ti17  1  0.158198  0.670805  0.372988  1
  Ti  Ti18  1  0.659343  0.829344  0.126548  1
  Ti  Ti19  1  0.841367  0.329529  0.873666  1
  Ge  Ge20  1  0.807802  0.636811  0.749294  1
  Ge  Ge21  1  0.305581  0.860789  0.750741  1
  Ge  Ge22  1  0.193446  0.363185  0.249846  1
  Ge  Ge23  1  0.693442  0.137128  0.250073  1
  Ge  Ge24  1  0.542928  0.375166  0.752476  1
  Ge  Ge25  1  0.037968  0.125388  0.750862  1
  Ge  Ge26  1  0.459386  0.627128  0.249749  1
  Ge  Ge27  1  0.959847  0.873854  0.249845  1
  Ge  Ge28  1  0.674961  0.039545  0.541527  1
  Ge  Ge29  1  0.175406  0.459313  0.957813  1
  Ge  Ge30  1  0.325331  0.959616  0.042327  1
  Ge  Ge31  1  0.824303  0.539161  0.457628  1
  Ge  Ge32  1  0.325477  0.957801  0.457239  1
  Ge  Ge33  1  0.824607  0.541285  0.042516  1
  Ge  Ge34  1  0.674891  0.041094  0.957665  1
  Ge  Ge35  1  0.175589  0.463148  0.540545  1
