# generated using pymatgen
data_Ba6DyYIn2O12
_symmetry_space_group_name_H-M   'P 1'
_cell_length_a   7.31219965
_cell_length_b   7.31219982
_cell_length_c   7.31220101
_cell_angle_alpha   92.98702339
_cell_angle_beta   92.98702445
_cell_angle_gamma   92.98703458
_symmetry_Int_Tables_number   1
_chemical_formula_structural   Ba6DyYIn2O12
_chemical_formula_sum   'Ba6 Dy1 Y1 In2 O12'
_cell_volume   389.31940628
_cell_formula_units_Z   1
loop_
 _symmetry_equiv_pos_site_id
 _symmetry_equiv_pos_as_xyz
  1  'x, y, z'
loop_
 _atom_site_type_symbol
 _atom_site_label
 _atom_site_symmetry_multiplicity
 _atom_site_fract_x
 _atom_site_fract_y
 _atom_site_fract_z
 _atom_site_occupancy
  Ba  Ba0  1  0.250000  0.887695  0.612305  1
  Ba  Ba1  1  0.887695  0.612305  0.250000  1
  Ba  Ba2  1  0.750000  0.112219  0.387781  1
  Ba  Ba3  1  0.387781  0.750000  0.112219  1
  Ba  Ba4  1  0.112219  0.387781  0.750000  1
  Ba  Ba5  1  0.612305  0.250000  0.887695  1
  Dy  Dy6  1  0.750000  0.750000  0.750000  1
  Y  Y7  1  0.250000  0.250000  0.250000  1
  In  In8  1  0.500129  0.500129  0.500129  1
  In  In9  1  0.999871  0.999871  0.999871  1
  O  O10  1  0.598681  0.790190  0.468309  1
  O  O11  1  0.468309  0.598681  0.790190  1
  O  O12  1  0.790190  0.468309  0.598681  1
  O  O13  1  0.901319  0.031691  0.709810  1
  O  O14  1  0.709810  0.901319  0.031691  1
  O  O15  1  0.031691  0.709810  0.901319  1
  O  O16  1  0.401873  0.209965  0.532395  1
  O  O17  1  0.532395  0.401873  0.209965  1
  O  O18  1  0.209965  0.532395  0.401873  1
  O  O19  1  0.098127  0.967605  0.290035  1
  O  O20  1  0.967605  0.290035  0.098127  1
  O  O21  1  0.290035  0.098127  0.967605  1
