# generated using pymatgen
data_Ho2Er3Os2C7
_symmetry_space_group_name_H-M   'P 1'
_cell_length_a   8.12514136
_cell_length_b   8.12219286
_cell_length_c   3.49366900
_cell_angle_alpha   90.00000000
_cell_angle_beta   90.00000000
_cell_angle_gamma   121.81123597
_symmetry_Int_Tables_number   1
_chemical_formula_structural   Ho2Er3Os2C7
_chemical_formula_sum   'Ho2 Er3 Os2 C7'
_cell_volume   195.92833928
_cell_formula_units_Z   1
loop_
 _symmetry_equiv_pos_site_id
 _symmetry_equiv_pos_as_xyz
  1  'x, y, z'
loop_
 _atom_site_type_symbol
 _atom_site_label
 _atom_site_symmetry_multiplicity
 _atom_site_fract_x
 _atom_site_fract_y
 _atom_site_fract_z
 _atom_site_occupancy
  Ho  Ho0  1  0.500181  0.500214  0.000000  1
  Ho  Ho1  1  0.076792  0.337100  0.500000  1
  Er  Er2  1  0.922436  0.662044  0.500000  1
  Er  Er3  1  0.661732  0.922611  0.500000  1
  Er  Er4  1  0.338303  0.077318  0.500000  1
  Os  Os5  1  0.713971  0.285930  0.000000  1
  Os  Os6  1  0.285789  0.714340  0.000000  1
  C  C7  1  0.631296  0.368726  0.500000  1
  C  C8  1  0.368843  0.631699  0.500000  1
  C  C9  1  0.000254  0.999816  0.000000  1
  C  C10  1  0.172743  0.171339  0.000000  1
  C  C11  1  0.827754  0.827953  0.000000  1
  C  C12  1  0.999808  0.500748  0.000000  1
  C  C13  1  0.500097  0.000162  0.000000  1
