# generated using pymatgen
data_K4MnMo3N8
_symmetry_space_group_name_H-M   'P 1'
_cell_length_a   5.91591900
_cell_length_b   8.15090500
_cell_length_c   12.00623000
_cell_angle_alpha   90.00000000
_cell_angle_beta   90.00000000
_cell_angle_gamma   90.00000000
_symmetry_Int_Tables_number   1
_chemical_formula_structural   K4MnMo3N8
_chemical_formula_sum   'K8 Mn2 Mo6 N16'
_cell_volume   578.94153626
_cell_formula_units_Z   2
loop_
 _symmetry_equiv_pos_site_id
 _symmetry_equiv_pos_as_xyz
  1  'x, y, z'
loop_
 _atom_site_type_symbol
 _atom_site_label
 _atom_site_symmetry_multiplicity
 _atom_site_fract_x
 _atom_site_fract_y
 _atom_site_fract_z
 _atom_site_occupancy
  K  K0  1  0.750000  0.176233  0.000000  1
  K  K1  1  0.250000  0.823767  0.500000  1
  K  K2  1  0.250000  0.897061  0.000000  1
  K  K3  1  0.750000  0.102939  0.500000  1
  K  K4  1  0.674915  0.394683  0.279053  1
  K  K5  1  0.174915  0.605317  0.220947  1
  K  K6  1  0.325085  0.605317  0.779053  1
  K  K7  1  0.825085  0.394683  0.720947  1
  Mn  Mn8  1  0.250000  0.358569  0.000000  1
  Mn  Mn9  1  0.750000  0.641431  0.500000  1
  Mo  Mo10  1  0.750000  0.615791  0.000000  1
  Mo  Mo11  1  0.250000  0.384209  0.500000  1
  Mo  Mo12  1  0.187148  0.116413  0.248906  1
  Mo  Mo13  1  0.687148  0.883587  0.251094  1
  Mo  Mo14  1  0.812852  0.883587  0.748906  1
  Mo  Mo15  1  0.312852  0.116413  0.751094  1
  N  N16  1  0.865431  0.078226  0.256526  1
  N  N17  1  0.365431  0.921774  0.243474  1
  N  N18  1  0.134569  0.921774  0.756526  1
  N  N19  1  0.634569  0.078226  0.743474  1
  N  N20  1  0.275381  0.250882  0.369001  1
  N  N21  1  0.775381  0.749118  0.130999  1
  N  N22  1  0.724619  0.749118  0.869001  1
  N  N23  1  0.224619  0.250882  0.630999  1
  N  N24  1  0.765702  0.767612  0.618588  1
  N  N25  1  0.265702  0.232388  0.881412  1
  N  N26  1  0.234298  0.232388  0.118588  1
  N  N27  1  0.734298  0.767612  0.381412  1
  N  N28  1  0.506498  0.514928  0.509735  1
  N  N29  1  0.006498  0.485072  0.990265  1
  N  N30  1  0.493502  0.485072  0.009735  1
  N  N31  1  0.993502  0.514928  0.490265  1
