# generated using pymatgen
data_Tb4Al17GaIr6
_symmetry_space_group_name_H-M   'P 1'
_cell_length_a   7.55123565
_cell_length_b   7.55123572
_cell_length_c   9.50781300
_cell_angle_alpha   90.00000000
_cell_angle_beta   90.00000000
_cell_angle_gamma   119.37841213
_symmetry_Int_Tables_number   1
_chemical_formula_structural   Tb4Al17GaIr6
_chemical_formula_sum   'Tb4 Al17 Ga1 Ir6'
_cell_volume   472.42578737
_cell_formula_units_Z   1
loop_
 _symmetry_equiv_pos_site_id
 _symmetry_equiv_pos_as_xyz
  1  'x, y, z'
loop_
 _atom_site_type_symbol
 _atom_site_label
 _atom_site_symmetry_multiplicity
 _atom_site_fract_x
 _atom_site_fract_y
 _atom_site_fract_z
 _atom_site_occupancy
  Tb  Tb0  1  0.993894  0.673710  0.250000  1
  Tb  Tb1  1  0.005067  0.328659  0.750000  1
  Tb  Tb2  1  0.673710  0.993894  0.250000  1
  Tb  Tb3  1  0.328659  0.005067  0.750000  1
  Al  Al4  1  0.869905  0.869905  0.750000  1
  Al  Al5  1  0.001432  0.335534  0.072721  1
  Al  Al6  1  0.998473  0.664453  0.926447  1
  Al  Al7  1  0.998473  0.664453  0.573553  1
  Al  Al8  1  0.335534  0.001432  0.427279  1
  Al  Al9  1  0.001432  0.335534  0.427279  1
  Al  Al10  1  0.664453  0.998473  0.573553  1
  Al  Al11  1  0.664453  0.998473  0.926447  1
  Al  Al12  1  0.335534  0.001432  0.072721  1
  Al  Al13  1  0.333479  0.333479  0.552984  1
  Al  Al14  1  0.665699  0.665699  0.449640  1
  Al  Al15  1  0.665699  0.665699  0.050360  1
  Al  Al16  1  0.333479  0.333479  0.947016  1
  Al  Al17  1  0.338315  0.548772  0.250000  1
  Al  Al18  1  0.660964  0.451916  0.750000  1
  Al  Al19  1  0.548772  0.338315  0.250000  1
  Al  Al20  1  0.451916  0.660964  0.750000  1
  Ga  Ga21  1  0.134129  0.134129  0.250000  1
  Ir  Ir22  1  0.671139  0.327828  0.000217  1
  Ir  Ir23  1  0.327828  0.671139  0.000217  1
  Ir  Ir24  1  0.327828  0.671139  0.499783  1
  Ir  Ir25  1  0.671139  0.327828  0.499783  1
  Ir  Ir26  1  0.999298  0.999298  0.997669  1
  Ir  Ir27  1  0.999298  0.999298  0.502331  1
