# generated using pymatgen
data_K2Cu3PbF12
_symmetry_space_group_name_H-M   'P 1'
_cell_length_a   6.92933800
_cell_length_b   8.18130704
_cell_length_c   10.73327081
_cell_angle_alpha   100.92058411
_cell_angle_beta   90.00000000
_cell_angle_gamma   90.00000000
_symmetry_Int_Tables_number   1
_chemical_formula_structural   K2Cu3PbF12
_chemical_formula_sum   'K4 Cu6 Pb2 F24'
_cell_volume   597.46116022
_cell_formula_units_Z   2
loop_
 _symmetry_equiv_pos_site_id
 _symmetry_equiv_pos_as_xyz
  1  'x, y, z'
loop_
 _atom_site_type_symbol
 _atom_site_label
 _atom_site_symmetry_multiplicity
 _atom_site_fract_x
 _atom_site_fract_y
 _atom_site_fract_z
 _atom_site_occupancy
  K  K0  1  0.489970  0.702323  0.409151  1
  K  K1  1  0.010030  0.202323  0.909151  1
  K  K2  1  0.510030  0.297677  0.590849  1
  K  K3  1  0.989970  0.797677  0.090849  1
  Cu  Cu4  1  0.500000  0.000000  0.000000  1
  Cu  Cu5  1  0.000000  0.500000  0.500000  1
  Cu  Cu6  1  0.211274  0.742577  0.762374  1
  Cu  Cu7  1  0.288726  0.242577  0.262374  1
  Cu  Cu8  1  0.788726  0.257423  0.237626  1
  Cu  Cu9  1  0.711274  0.757423  0.737626  1
  Pb  Pb10  1  0.500000  0.500000  0.000000  1
  Pb  Pb11  1  0.000000  0.000000  0.500000  1
  F  F12  1  0.272334  0.915791  0.904212  1
  F  F13  1  0.227666  0.415791  0.404212  1
  F  F14  1  0.727666  0.084209  0.095788  1
  F  F15  1  0.772334  0.584209  0.595788  1
  F  F16  1  0.836917  0.460945  0.353462  1
  F  F17  1  0.663083  0.960945  0.853462  1
  F  F18  1  0.163083  0.539055  0.646538  1
  F  F19  1  0.336917  0.039055  0.146538  1
  F  F20  1  0.451263  0.750785  0.675260  1
  F  F21  1  0.048737  0.250785  0.175260  1
  F  F22  1  0.548737  0.249215  0.324740  1
  F  F23  1  0.951263  0.749215  0.824740  1
  F  F24  1  0.727146  0.927142  0.557649  1
  F  F25  1  0.772854  0.427142  0.057649  1
  F  F26  1  0.272855  0.072858  0.442351  1
  F  F27  1  0.227145  0.572858  0.942351  1
  F  F28  1  0.391374  0.505845  0.184298  1
  F  F29  1  0.108626  0.005845  0.684298  1
  F  F30  1  0.608626  0.494155  0.815702  1
  F  F31  1  0.891374  0.994155  0.315702  1
  F  F32  1  0.405213  0.251047  0.945103  1
  F  F33  1  0.094787  0.751047  0.445103  1
  F  F34  1  0.594787  0.748953  0.054897  1
  F  F35  1  0.905213  0.248953  0.554897  1
