# generated using pymatgen
data_Ac2Nd(CdAu)3
_symmetry_space_group_name_H-M   'P 1'
_cell_length_a   8.02627926
_cell_length_b   8.02627862
_cell_length_c   4.32195100
_cell_angle_alpha   90.00000000
_cell_angle_beta   90.00000000
_cell_angle_gamma   119.88195010
_symmetry_Int_Tables_number   1
_chemical_formula_structural   Ac2Nd(CdAu)3
_chemical_formula_sum   'Ac2 Nd1 Cd3 Au3'
_cell_volume   241.40949882
_cell_formula_units_Z   1
loop_
 _symmetry_equiv_pos_site_id
 _symmetry_equiv_pos_as_xyz
  1  'x, y, z'
loop_
 _atom_site_type_symbol
 _atom_site_label
 _atom_site_symmetry_multiplicity
 _atom_site_fract_x
 _atom_site_fract_y
 _atom_site_fract_z
 _atom_site_occupancy
  Ac  Ac0  1  0.592915  0.001598  0.000000  1
  Ac  Ac1  1  0.001598  0.592915  0.000000  1
  Nd  Nd2  1  0.405854  0.405854  0.000000  1
  Cd  Cd3  1  0.246803  0.006885  0.500000  1
  Cd  Cd4  1  0.006885  0.246803  0.500000  1
  Cd  Cd5  1  0.746634  0.746634  0.500000  1
  Au  Au6  1  0.335801  0.659541  0.500000  1
  Au  Au7  1  0.659541  0.335801  0.500000  1
  Au  Au8  1  0.003968  0.003968  0.000000  1
