# generated using pymatgen
data_LaPr3(Pd2Pb)2
_symmetry_space_group_name_H-M   'P 1'
_cell_length_a   7.99297208
_cell_length_b   7.99297208
_cell_length_c   3.94530700
_cell_angle_alpha   90.00000000
_cell_angle_beta   90.00000000
_cell_angle_gamma   90.26320476
_symmetry_Int_Tables_number   1
_chemical_formula_structural   LaPr3(Pd2Pb)2
_chemical_formula_sum   'La1 Pr3 Pd4 Pb2'
_cell_volume   252.05354675
_cell_formula_units_Z   1
loop_
 _symmetry_equiv_pos_site_id
 _symmetry_equiv_pos_as_xyz
  1  'x, y, z'
loop_
 _atom_site_type_symbol
 _atom_site_label
 _atom_site_symmetry_multiplicity
 _atom_site_fract_x
 _atom_site_fract_y
 _atom_site_fract_z
 _atom_site_occupancy
  La  La0  1  0.321968  0.821968  0.500000  1
  Pr  Pr1  1  0.678036  0.178036  0.500000  1
  Pr  Pr2  1  0.177600  0.321919  0.500000  1
  Pr  Pr3  1  0.821919  0.677600  0.500000  1
  Pd  Pd4  1  0.375492  0.124091  0.000000  1
  Pd  Pd5  1  0.125010  0.625010  0.000000  1
  Pd  Pd6  1  0.624091  0.875492  0.000000  1
  Pd  Pd7  1  0.875827  0.375827  0.000000  1
  Pb  Pb8  1  0.999675  0.000382  0.000000  1
  Pb  Pb9  1  0.500382  0.499675  0.000000  1
