# generated using pymatgen
data_YbSmMg(Si3Pd10)2
_symmetry_space_group_name_H-M   'P 1'
_cell_length_a   8.68566515
_cell_length_b   8.68566507
_cell_length_c   8.68566500
_cell_angle_alpha   60.00000409
_cell_angle_beta   60.00000438
_cell_angle_gamma   60.00000043
_symmetry_Int_Tables_number   1
_chemical_formula_structural   YbSmMg(Si3Pd10)2
_chemical_formula_sum   'Yb1 Sm1 Mg1 Si6 Pd20'
_cell_volume   463.33410335
_cell_formula_units_Z   1
loop_
 _symmetry_equiv_pos_site_id
 _symmetry_equiv_pos_as_xyz
  1  'x, y, z'
loop_
 _atom_site_type_symbol
 _atom_site_label
 _atom_site_symmetry_multiplicity
 _atom_site_fract_x
 _atom_site_fract_y
 _atom_site_fract_z
 _atom_site_occupancy
  Yb  Yb0  1  0.750000  0.750000  0.750000  1
  Sm  Sm1  1  0.250000  0.250000  0.250000  1
  Mg  Mg2  1  0.000000  0.000000  0.000000  1
  Si  Si3  1  0.732426  0.267574  0.267574  1
  Si  Si4  1  0.267574  0.732426  0.732426  1
  Si  Si5  1  0.267574  0.732426  0.267574  1
  Si  Si6  1  0.732426  0.267574  0.732426  1
  Si  Si7  1  0.267574  0.267574  0.732426  1
  Si  Si8  1  0.732426  0.732426  0.267574  1
  Pd  Pd9  1  0.384315  0.384315  0.384315  1
  Pd  Pd10  1  0.616523  0.616523  0.616523  1
  Pd  Pd11  1  0.384315  0.384315  0.847057  1
  Pd  Pd12  1  0.384315  0.847057  0.384315  1
  Pd  Pd13  1  0.616523  0.616523  0.150430  1
  Pd  Pd14  1  0.616523  0.150430  0.616523  1
  Pd  Pd15  1  0.847057  0.384315  0.384315  1
  Pd  Pd16  1  0.150430  0.616523  0.616523  1
  Pd  Pd17  1  0.342897  0.000181  0.000181  1
  Pd  Pd18  1  0.656740  0.000181  0.000181  1
  Pd  Pd19  1  0.000181  0.342897  0.656740  1
  Pd  Pd20  1  0.000181  0.656740  0.342897  1
  Pd  Pd21  1  0.000181  0.342897  0.000181  1
  Pd  Pd22  1  0.656740  0.000181  0.342897  1
  Pd  Pd23  1  0.000181  0.656740  0.000181  1
  Pd  Pd24  1  0.342897  0.000181  0.656740  1
  Pd  Pd25  1  0.000181  0.000181  0.342897  1
  Pd  Pd26  1  0.000181  0.000181  0.656740  1
  Pd  Pd27  1  0.656740  0.342897  0.000181  1
  Pd  Pd28  1  0.342897  0.656740  0.000181  1
