# generated using pymatgen
data_La2Th2(Ga8Pt3)3
_symmetry_space_group_name_H-M   'P 1'
_cell_length_a   7.67930292
_cell_length_b   7.69161891
_cell_length_c   13.39949588
_cell_angle_alpha   84.49170079
_cell_angle_beta   79.00368204
_cell_angle_gamma   59.97450096
_symmetry_Int_Tables_number   1
_chemical_formula_structural   La2Th2(Ga8Pt3)3
_chemical_formula_sum   'La2 Th2 Ga24 Pt9'
_cell_volume   672.66512746
_cell_formula_units_Z   1
loop_
 _symmetry_equiv_pos_site_id
 _symmetry_equiv_pos_as_xyz
  1  'x, y, z'
loop_
 _atom_site_type_symbol
 _atom_site_label
 _atom_site_symmetry_multiplicity
 _atom_site_fract_x
 _atom_site_fract_y
 _atom_site_fract_z
 _atom_site_occupancy
  La  La0  1  0.732051  0.498221  0.809595  1
  La  La1  1  0.267949  0.501779  0.190405  1
  Th  Th2  1  0.396135  0.168295  0.807639  1
  Th  Th3  1  0.603865  0.831705  0.192361  1
  Ga  Ga4  1  0.688203  0.832795  0.940666  1
  Ga  Ga5  1  0.311797  0.167205  0.059334  1
  Ga  Ga6  1  0.144895  0.833421  0.559855  1
  Ga  Ga7  1  0.855105  0.166579  0.440145  1
  Ga  Ga8  1  0.480633  0.166744  0.556455  1
  Ga  Ga9  1  0.519367  0.833256  0.443545  1
  Ga  Ga10  1  0.217334  0.167501  0.329815  1
  Ga  Ga11  1  0.782666  0.832499  0.670185  1
  Ga  Ga12  1  0.439106  0.506261  0.668824  1
  Ga  Ga13  1  0.560894  0.493739  0.331176  1
  Ga  Ga14  1  0.107841  0.162008  0.668002  1
  Ga  Ga15  1  0.892159  0.837992  0.331998  1
  Ga  Ga16  1  0.351631  0.502094  0.941283  1
  Ga  Ga17  1  0.648369  0.497906  0.058717  1
  Ga  Ga18  1  0.017613  0.165770  0.947490  1
  Ga  Ga19  1  0.982387  0.834230  0.052510  1
  Ga  Ga20  1  0.186253  0.499511  0.442796  1
  Ga  Ga21  1  0.813747  0.500489  0.557204  1
  Ga  Ga22  1  0.738093  0.162402  0.182614  1
  Ga  Ga23  1  0.261907  0.837598  0.817386  1
  Ga  Ga24  1  0.063856  0.633524  0.816181  1
  Ga  Ga25  1  0.936144  0.366476  0.183819  1
  Ga  Ga26  1  0.862381  0.035296  0.816221  1
  Ga  Ga27  1  0.137619  0.964704  0.183779  1
  Pt  Pt28  1  0.121483  0.495423  0.638153  1
  Pt  Pt29  1  0.878517  0.504577  0.361847  1
  Pt  Pt30  1  0.659018  0.168788  0.998946  1
  Pt  Pt31  1  0.340982  0.831212  0.001054  1
  Pt  Pt32  1  0.542762  0.164657  0.361637  1
  Pt  Pt33  1  0.457238  0.835343  0.638363  1
  Pt  Pt34  1  0.781762  0.169890  0.637092  1
  Pt  Pt35  1  0.218238  0.830110  0.362908  1
  Pt  Pt36  1  0.000000  0.500000  0.000000  1
