# generated using pymatgen
data_AcCoC2
_symmetry_space_group_name_H-M   'P 1'
_cell_length_a   3.99817052
_cell_length_b   3.99817044
_cell_length_c   7.56839882
_cell_angle_alpha   80.81061772
_cell_angle_beta   80.81061908
_cell_angle_gamma   90.06133762
_symmetry_Int_Tables_number   1
_chemical_formula_structural   AcCoC2
_chemical_formula_sum   'Ac2 Co2 C4'
_cell_volume   117.85428013
_cell_formula_units_Z   2
loop_
 _symmetry_equiv_pos_site_id
 _symmetry_equiv_pos_as_xyz
  1  'x, y, z'
loop_
 _atom_site_type_symbol
 _atom_site_label
 _atom_site_symmetry_multiplicity
 _atom_site_fract_x
 _atom_site_fract_y
 _atom_site_fract_z
 _atom_site_occupancy
  Ac  Ac0  1  0.924287  0.080023  0.502349  1
  Ac  Ac1  1  0.080023  0.924287  0.002349  1
  Co  Co2  1  0.370965  0.515847  0.695323  1
  Co  Co3  1  0.515847  0.370965  0.195323  1
  C  C4  1  0.843585  0.491664  0.774623  1
  C  C5  1  0.491664  0.843585  0.274623  1
  C  C6  1  0.596505  0.443123  0.924706  1
  C  C7  1  0.443123  0.596505  0.424706  1
