# generated using pymatgen
data_Tb2Fe7Co3Ni2P7
_symmetry_space_group_name_H-M   'P 1'
_cell_length_a   3.64681400
_cell_length_b   9.00602370
_cell_length_c   9.01842284
_cell_angle_alpha   119.90589313
_cell_angle_beta   90.00000000
_cell_angle_gamma   90.00000000
_symmetry_Int_Tables_number   1
_chemical_formula_structural   Tb2Fe7Co3Ni2P7
_chemical_formula_sum   'Tb2 Fe7 Co3 Ni2 P7'
_cell_volume   256.75504038
_cell_formula_units_Z   1
loop_
 _symmetry_equiv_pos_site_id
 _symmetry_equiv_pos_as_xyz
  1  'x, y, z'
loop_
 _atom_site_type_symbol
 _atom_site_label
 _atom_site_symmetry_multiplicity
 _atom_site_fract_x
 _atom_site_fract_y
 _atom_site_fract_z
 _atom_site_occupancy
  Tb  Tb0  1  0.000000  0.666803  0.333154  1
  Tb  Tb1  1  0.500000  0.334466  0.666255  1
  Fe  Fe2  1  0.000000  0.571942  0.629208  1
  Fe  Fe3  1  0.000000  0.881240  0.729072  1
  Fe  Fe4  1  0.000000  0.274328  0.156011  1
  Fe  Fe5  1  0.000000  0.844006  0.119007  1
  Fe  Fe6  1  0.500000  0.121771  0.903851  1
  Fe  Fe7  1  0.500000  0.096349  0.217762  1
  Fe  Fe8  1  0.500000  0.775827  0.875830  1
  Co  Co9  1  0.500000  0.948643  0.565405  1
  Co  Co10  1  0.500000  0.435320  0.385299  1
  Co  Co11  1  0.500000  0.613543  0.048693  1
  Ni  Ni12  1  0.000000  0.371733  0.937363  1
  Ni  Ni13  1  0.000000  0.061898  0.432289  1
  P  P14  1  0.000000  0.108076  0.702035  1
  P  P15  1  0.000000  0.302102  0.409432  1
  P  P16  1  0.000000  0.596707  0.887187  1
  P  P17  1  0.500000  0.711560  0.601475  1
  P  P18  1  0.500000  0.399896  0.114566  1
  P  P19  1  0.500000  0.883941  0.284416  1
  P  P20  1  0.000000  0.999851  0.001689  1
