# generated using pymatgen
data_Tb2MgB2Rh5
_symmetry_space_group_name_H-M   'P 1'
_cell_length_a   9.66262500
_cell_length_b   9.66262500
_cell_length_c   3.19106500
_cell_angle_alpha   90.00000000
_cell_angle_beta   90.00000000
_cell_angle_gamma   90.00000000
_symmetry_Int_Tables_number   1
_chemical_formula_structural   Tb2MgB2Rh5
_chemical_formula_sum   'Tb4 Mg2 B4 Rh10'
_cell_volume   297.93800196
_cell_formula_units_Z   2
loop_
 _symmetry_equiv_pos_site_id
 _symmetry_equiv_pos_as_xyz
  1  'x, y, z'
loop_
 _atom_site_type_symbol
 _atom_site_label
 _atom_site_symmetry_multiplicity
 _atom_site_fract_x
 _atom_site_fract_y
 _atom_site_fract_z
 _atom_site_occupancy
  Tb  Tb0  1  0.675820  0.175820  0.000000  1
  Tb  Tb1  1  0.324180  0.824180  0.000000  1
  Tb  Tb2  1  0.175820  0.324180  0.000000  1
  Tb  Tb3  1  0.824180  0.675820  0.000000  1
  Mg  Mg4  1  0.000000  0.000000  0.000000  1
  Mg  Mg5  1  0.500000  0.500000  0.000000  1
  B  B6  1  0.121803  0.621803  0.000000  1
  B  B7  1  0.878197  0.378197  0.000000  1
  B  B8  1  0.621803  0.878197  0.000000  1
  B  B9  1  0.378197  0.121803  0.000000  1
  Rh  Rh10  1  0.500000  0.000000  0.500000  1
  Rh  Rh11  1  0.000000  0.500000  0.500000  1
  Rh  Rh12  1  0.224929  0.070090  0.500000  1
  Rh  Rh13  1  0.775071  0.929910  0.500000  1
  Rh  Rh14  1  0.070090  0.775071  0.500000  1
  Rh  Rh15  1  0.724929  0.429910  0.500000  1
  Rh  Rh16  1  0.929910  0.224929  0.500000  1
  Rh  Rh17  1  0.275071  0.570090  0.500000  1
  Rh  Rh18  1  0.570090  0.724929  0.500000  1
  Rh  Rh19  1  0.429910  0.275071  0.500000  1
