# generated using pymatgen
data_Na4DySi10P2Ir19
_symmetry_space_group_name_H-M   'P 1'
_cell_length_a   12.77824993
_cell_length_b   12.74449387
_cell_length_c   3.96566200
_cell_angle_alpha   90.00000000
_cell_angle_beta   90.00000000
_cell_angle_gamma   119.80423549
_symmetry_Int_Tables_number   1
_chemical_formula_structural   Na4DySi10P2Ir19
_chemical_formula_sum   'Na4 Dy1 Si10 P2 Ir19'
_cell_volume   560.39420462
_cell_formula_units_Z   1
loop_
 _symmetry_equiv_pos_site_id
 _symmetry_equiv_pos_as_xyz
  1  'x, y, z'
loop_
 _atom_site_type_symbol
 _atom_site_label
 _atom_site_symmetry_multiplicity
 _atom_site_fract_x
 _atom_site_fract_y
 _atom_site_fract_z
 _atom_site_occupancy
  Na  Na0  1  0.333159  0.666837  0.500000  1
  Na  Na1  1  0.666294  0.333158  0.500000  1
  Na  Na2  1  0.000236  0.815185  0.000000  1
  Na  Na3  1  0.183400  0.184086  0.000000  1
  Dy  Dy4  1  0.823535  0.000661  0.000000  1
  Si  Si5  1  0.999547  0.630728  0.500000  1
  Si  Si6  1  0.369117  0.370012  0.500000  1
  Si  Si7  1  0.630671  0.000290  0.500000  1
  Si  Si8  1  0.517362  0.684439  0.000000  1
  Si  Si9  1  0.312479  0.832427  0.000000  1
  Si  Si10  1  0.167689  0.480955  0.000000  1
  Si  Si11  1  0.480141  0.167177  0.000000  1
  Si  Si12  1  0.686256  0.518642  0.000000  1
  Si  Si13  1  0.832860  0.314603  0.000000  1
  Si  Si14  1  0.003811  0.180337  0.500000  1
  P  P15  1  0.818222  0.817845  0.500000  1
  P  P16  1  0.183143  0.002369  0.500000  1
  Ir  Ir17  1  0.513155  0.872851  0.000000  1
  Ir  Ir18  1  0.124952  0.640512  0.000000  1
  Ir  Ir19  1  0.359799  0.485367  0.000000  1
  Ir  Ir20  1  0.485919  0.360001  0.000000  1
  Ir  Ir21  1  0.873799  0.515094  0.000000  1
  Ir  Ir22  1  0.640112  0.126006  0.000000  1
  Ir  Ir23  1  0.997049  0.444384  0.500000  1
  Ir  Ir24  1  0.554023  0.555735  0.500000  1
  Ir  Ir25  1  0.445357  0.998690  0.500000  1
  Ir  Ir26  1  0.998697  0.280660  0.000000  1
  Ir  Ir27  1  0.718800  0.721061  0.000000  1
  Ir  Ir28  1  0.279182  0.000766  0.000000  1
  Ir  Ir29  1  0.626972  0.808970  0.500000  1
  Ir  Ir30  1  0.193312  0.818620  0.500000  1
  Ir  Ir31  1  0.183607  0.378735  0.500000  1
  Ir  Ir32  1  0.376423  0.182551  0.500000  1
  Ir  Ir33  1  0.806800  0.625536  0.500000  1
  Ir  Ir34  1  0.816782  0.191694  0.500000  1
  Ir  Ir35  1  0.997339  0.993014  0.500000  1
