# generated using pymatgen
data_Dy3Zn2In3Rh
_symmetry_space_group_name_H-M   'P 1'
_cell_length_a   7.79206300
_cell_length_b   7.79206354
_cell_length_c   3.81086000
_cell_angle_alpha   90.00000000
_cell_angle_beta   90.00000000
_cell_angle_gamma   119.99999231
_symmetry_Int_Tables_number   1
_chemical_formula_structural   Dy3Zn2In3Rh
_chemical_formula_sum   'Dy3 Zn2 In3 Rh1'
_cell_volume   200.38195086
_cell_formula_units_Z   1
loop_
 _symmetry_equiv_pos_site_id
 _symmetry_equiv_pos_as_xyz
  1  'x, y, z'
loop_
 _atom_site_type_symbol
 _atom_site_label
 _atom_site_symmetry_multiplicity
 _atom_site_fract_x
 _atom_site_fract_y
 _atom_site_fract_z
 _atom_site_occupancy
  Dy  Dy0  1  0.026687  0.612133  0.500000  1
  Dy  Dy1  1  0.585446  0.973313  0.500000  1
  Dy  Dy2  1  0.387867  0.414554  0.500000  1
  Zn  Zn3  1  0.000000  0.000000  0.500000  1
  Zn  Zn4  1  0.666667  0.333333  0.000000  1
  In  In5  1  0.992884  0.260958  0.000000  1
  In  In6  1  0.268075  0.007116  0.000000  1
  In  In7  1  0.739042  0.731925  0.000000  1
  Rh  Rh8  1  0.333333  0.666667  0.000000  1
