# generated using pymatgen
data_Y9Tm(SnBi)3
_symmetry_space_group_name_H-M   'P 1'
_cell_length_a   9.07101144
_cell_length_b   9.08236516
_cell_length_c   6.49546703
_cell_angle_alpha   90.00170233
_cell_angle_beta   89.98958831
_cell_angle_gamma   119.99012125
_symmetry_Int_Tables_number   1
_chemical_formula_structural   Y9Tm(SnBi)3
_chemical_formula_sum   'Y9 Tm1 Sn3 Bi3'
_cell_volume   463.48843606
_cell_formula_units_Z   1
loop_
 _symmetry_equiv_pos_site_id
 _symmetry_equiv_pos_as_xyz
  1  'x, y, z'
loop_
 _atom_site_type_symbol
 _atom_site_label
 _atom_site_symmetry_multiplicity
 _atom_site_fract_x
 _atom_site_fract_y
 _atom_site_fract_z
 _atom_site_occupancy
  Y  Y0  1  0.759019  0.753223  0.249996  1
  Y  Y1  1  0.005558  0.246442  0.250192  1
  Y  Y2  1  0.764681  0.005939  0.749775  1
  Y  Y3  1  0.236685  0.999815  0.250151  1
  Y  Y4  1  0.671550  0.337848  0.498679  1
  Y  Y5  1  0.999791  0.755356  0.750020  1
  Y  Y6  1  0.325881  0.659308  0.001373  1
  Y  Y7  1  0.238421  0.244042  0.749919  1
  Y  Y8  1  0.671845  0.338162  0.001364  1
  Tm  Tm9  1  0.324913  0.658292  0.498378  1
  Sn  Sn10  1  0.998311  0.393054  0.749290  1
  Sn  Sn11  1  0.392752  0.390643  0.250638  1
  Sn  Sn12  1  0.002152  0.608853  0.250808  1
  Bi  Bi13  1  0.608266  0.611541  0.749355  1
  Bi  Bi14  1  0.391485  0.999622  0.749351  1
  Bi  Bi15  1  0.608689  0.997861  0.250713  1
