# generated using pymatgen
data_Y8Cu3Si12Ir
_symmetry_space_group_name_H-M   'P 1'
_cell_length_a   8.04784200
_cell_length_b   8.04784097
_cell_length_c   8.14808900
_cell_angle_alpha   90.00000000
_cell_angle_beta   90.00000000
_cell_angle_gamma   119.99999603
_symmetry_Int_Tables_number   1
_chemical_formula_structural   Y8Cu3Si12Ir
_chemical_formula_sum   'Y8 Cu3 Si12 Ir1'
_cell_volume   457.03055943
_cell_formula_units_Z   1
loop_
 _symmetry_equiv_pos_site_id
 _symmetry_equiv_pos_as_xyz
  1  'x, y, z'
loop_
 _atom_site_type_symbol
 _atom_site_label
 _atom_site_symmetry_multiplicity
 _atom_site_fract_x
 _atom_site_fract_y
 _atom_site_fract_z
 _atom_site_occupancy
  Y  Y0  1  0.498932  0.997865  0.251717  1
  Y  Y1  1  0.498514  0.997029  0.748273  1
  Y  Y2  1  0.002135  0.501068  0.251717  1
  Y  Y3  1  0.002971  0.501486  0.748273  1
  Y  Y4  1  0.498932  0.501068  0.251717  1
  Y  Y5  1  0.498514  0.501486  0.748273  1
  Y  Y6  1  0.000000  0.000000  0.248777  1
  Y  Y7  1  0.000000  0.000000  0.751176  1
  Cu  Cu8  1  0.333333  0.666667  0.001218  1
  Cu  Cu9  1  0.666667  0.333333  0.998850  1
  Cu  Cu10  1  0.666667  0.333333  0.500504  1
  Si  Si11  1  0.169059  0.338117  0.999860  1
  Si  Si12  1  0.831111  0.662222  0.000145  1
  Si  Si13  1  0.661883  0.830941  0.999860  1
  Si  Si14  1  0.831706  0.663412  0.500220  1
  Si  Si15  1  0.337778  0.168889  0.000145  1
  Si  Si16  1  0.167071  0.334141  0.499730  1
  Si  Si17  1  0.169059  0.830941  0.999860  1
  Si  Si18  1  0.336588  0.168294  0.500220  1
  Si  Si19  1  0.831111  0.168889  0.000145  1
  Si  Si20  1  0.665859  0.832929  0.499730  1
  Si  Si21  1  0.831706  0.168294  0.500220  1
  Si  Si22  1  0.167071  0.832929  0.499730  1
  Ir  Ir23  1  0.333333  0.666667  0.499641  1
