# generated using pymatgen
data_Ho5Er6TmIr4
_symmetry_space_group_name_H-M   'P 1'
_cell_length_a   6.34845182
_cell_length_b   7.21982245
_cell_length_c   9.11905979
_cell_angle_alpha   89.99411892
_cell_angle_beta   90.09843021
_cell_angle_gamma   90.05355888
_symmetry_Int_Tables_number   1
_chemical_formula_structural   Ho5Er6TmIr4
_chemical_formula_sum   'Ho5 Er6 Tm1 Ir4'
_cell_volume   417.96852286
_cell_formula_units_Z   1
loop_
 _symmetry_equiv_pos_site_id
 _symmetry_equiv_pos_as_xyz
  1  'x, y, z'
loop_
 _atom_site_type_symbol
 _atom_site_label
 _atom_site_symmetry_multiplicity
 _atom_site_fract_x
 _atom_site_fract_y
 _atom_site_fract_z
 _atom_site_occupancy
  Ho  Ho0  1  0.328122  0.677471  0.061949  1
  Ho  Ho1  1  0.870678  0.533556  0.250154  1
  Ho  Ho2  1  0.629379  0.034117  0.249900  1
  Ho  Ho3  1  0.129242  0.466026  0.749838  1
  Ho  Ho4  1  0.370926  0.966346  0.749915  1
  Er  Er5  1  0.171779  0.177423  0.437804  1
  Er  Er6  1  0.671599  0.322564  0.561967  1
  Er  Er7  1  0.828475  0.822938  0.937645  1
  Er  Er8  1  0.671825  0.322459  0.937629  1
  Er  Er9  1  0.828732  0.822774  0.561965  1
  Er  Er10  1  0.328577  0.677190  0.438278  1
  Tm  Tm11  1  0.171580  0.177081  0.062524  1
  Ir  Ir12  1  0.044684  0.883719  0.250521  1
  Ir  Ir13  1  0.453893  0.382827  0.250277  1
  Ir  Ir14  1  0.954799  0.116766  0.750404  1
  Ir  Ir15  1  0.545712  0.616741  0.749230  1
