# generated using pymatgen
data_Dy3Ti(P3Ir4)2
_symmetry_space_group_name_H-M   'P 1'
_cell_length_a   3.97374100
_cell_length_b   11.21184300
_cell_length_c   12.83654600
_cell_angle_alpha   90.00000000
_cell_angle_beta   90.00000000
_cell_angle_gamma   90.00000000
_symmetry_Int_Tables_number   1
_chemical_formula_structural   Dy3Ti(P3Ir4)2
_chemical_formula_sum   'Dy6 Ti2 P12 Ir16'
_cell_volume   571.90612323
_cell_formula_units_Z   2
loop_
 _symmetry_equiv_pos_site_id
 _symmetry_equiv_pos_as_xyz
  1  'x, y, z'
loop_
 _atom_site_type_symbol
 _atom_site_label
 _atom_site_symmetry_multiplicity
 _atom_site_fract_x
 _atom_site_fract_y
 _atom_site_fract_z
 _atom_site_occupancy
  Dy  Dy0  1  0.000000  0.500000  0.519061  1
  Dy  Dy1  1  0.500000  0.000000  0.480939  1
  Dy  Dy2  1  0.500000  0.817978  0.202314  1
  Dy  Dy3  1  0.500000  0.182022  0.202314  1
  Dy  Dy4  1  0.000000  0.682022  0.797686  1
  Dy  Dy5  1  0.000000  0.317978  0.797686  1
  Ti  Ti6  1  0.500000  0.500000  0.157373  1
  Ti  Ti7  1  0.000000  0.000000  0.842627  1
  P  P8  1  0.500000  0.500000  0.877691  1
  P  P9  1  0.000000  0.000000  0.122309  1
  P  P10  1  0.500000  0.500000  0.350066  1
  P  P11  1  0.000000  0.000000  0.649934  1
  P  P12  1  0.500000  0.313241  0.617477  1
  P  P13  1  0.500000  0.686759  0.617477  1
  P  P14  1  0.000000  0.186759  0.382523  1
  P  P15  1  0.000000  0.813241  0.382523  1
  P  P16  1  0.500000  0.845445  0.888302  1
  P  P17  1  0.500000  0.154555  0.888302  1
  P  P18  1  0.000000  0.654555  0.111698  1
  P  P19  1  0.000000  0.345445  0.111698  1
  Ir  Ir20  1  0.500000  0.500000  0.698761  1
  Ir  Ir21  1  0.000000  0.000000  0.301239  1
  Ir  Ir22  1  0.000000  0.500000  0.989136  1
  Ir  Ir23  1  0.500000  0.000000  0.010864  1
  Ir  Ir24  1  0.500000  0.331239  0.984934  1
  Ir  Ir25  1  0.500000  0.668761  0.984934  1
  Ir  Ir26  1  0.000000  0.168761  0.015066  1
  Ir  Ir27  1  0.000000  0.831239  0.015066  1
  Ir  Ir28  1  0.500000  0.292418  0.430721  1
  Ir  Ir29  1  0.500000  0.707582  0.430721  1
  Ir  Ir30  1  0.000000  0.207582  0.569279  1
  Ir  Ir31  1  0.000000  0.792418  0.569279  1
  Ir  Ir32  1  0.500000  0.872813  0.710764  1
  Ir  Ir33  1  0.500000  0.127187  0.710764  1
  Ir  Ir34  1  0.000000  0.627187  0.289236  1
  Ir  Ir35  1  0.000000  0.372813  0.289236  1
