# generated using pymatgen
data_Ni2Sn5Ir4
_symmetry_space_group_name_H-M   'P 1'
_cell_length_a   6.88376807
_cell_length_b   6.88376901
_cell_length_c   9.90514775
_cell_angle_alpha   78.52602145
_cell_angle_beta   78.52601881
_cell_angle_gamma   62.27933281
_symmetry_Int_Tables_number   1
_chemical_formula_structural   Ni2Sn5Ir4
_chemical_formula_sum   'Ni4 Sn10 Ir8'
_cell_volume   404.11941882
_cell_formula_units_Z   2
loop_
 _symmetry_equiv_pos_site_id
 _symmetry_equiv_pos_as_xyz
  1  'x, y, z'
loop_
 _atom_site_type_symbol
 _atom_site_label
 _atom_site_symmetry_multiplicity
 _atom_site_fract_x
 _atom_site_fract_y
 _atom_site_fract_z
 _atom_site_occupancy
  Ni  Ni0  1  0.802229  0.805219  0.894854  1
  Ni  Ni1  1  0.194781  0.197771  0.605146  1
  Ni  Ni2  1  0.156673  0.843327  0.750000  1
  Ni  Ni3  1  0.840438  0.159562  0.250000  1
  Sn  Sn4  1  0.767501  0.449959  0.031778  1
  Sn  Sn5  1  0.550041  0.232499  0.468222  1
  Sn  Sn6  1  0.234036  0.555015  0.966250  1
  Sn  Sn7  1  0.444985  0.765964  0.533750  1
  Sn  Sn8  1  0.363239  0.044518  0.850476  1
  Sn  Sn9  1  0.955482  0.636761  0.649524  1
  Sn  Sn10  1  0.636317  0.951217  0.143779  1
  Sn  Sn11  1  0.048783  0.363683  0.356221  1
  Sn  Sn12  1  0.804522  0.195478  0.750000  1
  Sn  Sn13  1  0.196569  0.803431  0.250000  1
  Ir  Ir14  1  0.378566  0.412367  0.702701  1
  Ir  Ir15  1  0.587633  0.621434  0.797299  1
  Ir  Ir16  1  0.621497  0.582695  0.296993  1
  Ir  Ir17  1  0.417305  0.378503  0.203007  1
  Ir  Ir18  1  0.195513  0.193204  0.100012  1
  Ir  Ir19  1  0.806796  0.804487  0.399988  1
  Ir  Ir20  1  0.005051  0.007956  0.501175  1
  Ir  Ir21  1  0.992044  0.994949  0.998825  1
