# generated using pymatgen
data_Ho6Lu10MgCo4Ag3
_symmetry_space_group_name_H-M   'P 1'
_cell_length_a   9.30393645
_cell_length_b   9.30271673
_cell_length_c   9.30271600
_cell_angle_alpha   59.99999547
_cell_angle_beta   60.00433206
_cell_angle_gamma   60.00432743
_symmetry_Int_Tables_number   1
_chemical_formula_structural   Ho6Lu10MgCo4Ag3
_chemical_formula_sum   'Ho6 Lu10 Mg1 Co4 Ag3'
_cell_volume   569.37671311
_cell_formula_units_Z   1
loop_
 _symmetry_equiv_pos_site_id
 _symmetry_equiv_pos_as_xyz
  1  'x, y, z'
loop_
 _atom_site_type_symbol
 _atom_site_label
 _atom_site_symmetry_multiplicity
 _atom_site_fract_x
 _atom_site_fract_y
 _atom_site_fract_z
 _atom_site_occupancy
  Ho  Ho0  1  0.936725  0.561645  0.561645  1
  Ho  Ho1  1  0.561102  0.938389  0.938389  1
  Ho  Ho2  1  0.561102  0.938389  0.562122  1
  Ho  Ho3  1  0.936725  0.561645  0.939985  1
  Ho  Ho4  1  0.561102  0.562122  0.938389  1
  Ho  Ho5  1  0.936725  0.939985  0.561645  1
  Lu  Lu6  1  0.346087  0.345448  0.345448  1
  Lu  Lu7  1  0.346087  0.345448  0.963019  1
  Lu  Lu8  1  0.346087  0.963019  0.345448  1
  Lu  Lu9  1  0.952079  0.349307  0.349307  1
  Lu  Lu10  1  0.811218  0.187793  0.187793  1
  Lu  Lu11  1  0.184888  0.814666  0.814666  1
  Lu  Lu12  1  0.184888  0.814666  0.185781  1
  Lu  Lu13  1  0.811218  0.187793  0.813197  1
  Lu  Lu14  1  0.184888  0.185781  0.814666  1
  Lu  Lu15  1  0.811218  0.813197  0.187793  1
  Mg  Mg16  1  0.287142  0.570952  0.570952  1
  Co  Co17  1  0.138702  0.142622  0.142622  1
  Co  Co18  1  0.138702  0.142622  0.576055  1
  Co  Co19  1  0.138702  0.576055  0.142622  1
  Co  Co20  1  0.575507  0.141498  0.141498  1
  Ag  Ag21  1  0.583036  0.582439  0.582439  1
  Ag  Ag22  1  0.583036  0.582439  0.252086  1
  Ag  Ag23  1  0.583036  0.252086  0.582439  1
