# generated using pymatgen
data_NaVGaF6
_symmetry_space_group_name_H-M   'P 1'
_cell_length_a   9.06380500
_cell_length_b   9.06380392
_cell_length_c   4.87469100
_cell_angle_alpha   90.00000000
_cell_angle_beta   90.00000000
_cell_angle_gamma   119.99999300
_symmetry_Int_Tables_number   1
_chemical_formula_structural   NaVGaF6
_chemical_formula_sum   'Na3 V3 Ga3 F18'
_cell_volume   346.81574760
_cell_formula_units_Z   3
loop_
 _symmetry_equiv_pos_site_id
 _symmetry_equiv_pos_as_xyz
  1  'x, y, z'
loop_
 _atom_site_type_symbol
 _atom_site_label
 _atom_site_symmetry_multiplicity
 _atom_site_fract_x
 _atom_site_fract_y
 _atom_site_fract_z
 _atom_site_occupancy
  Na  Na0  1  0.300417  0.000000  0.500000  1
  Na  Na1  1  0.000000  0.300417  0.500000  1
  Na  Na2  1  0.699583  0.699583  0.500000  1
  V  V3  1  0.641509  0.000000  0.000000  1
  V  V4  1  0.000000  0.641509  0.000000  1
  V  V5  1  0.358491  0.358491  0.000000  1
  Ga  Ga6  1  0.000000  0.000000  0.000000  1
  Ga  Ga7  1  0.333333  0.666667  0.504031  1
  Ga  Ga8  1  0.666667  0.333333  0.495969  1
  F  F9  1  0.086043  0.879984  0.787251  1
  F  F10  1  0.120016  0.206059  0.787251  1
  F  F11  1  0.793941  0.913957  0.787251  1
  F  F12  1  0.206059  0.120016  0.212749  1
  F  F13  1  0.913957  0.793941  0.212749  1
  F  F14  1  0.879984  0.086043  0.212749  1
  F  F15  1  0.444025  0.575614  0.732135  1
  F  F16  1  0.424386  0.868412  0.732135  1
  F  F17  1  0.131588  0.555975  0.732135  1
  F  F18  1  0.868412  0.424386  0.267865  1
  F  F19  1  0.555975  0.131588  0.267865  1
  F  F20  1  0.575614  0.444025  0.267865  1
  F  F21  1  0.215038  0.748857  0.275884  1
  F  F22  1  0.251143  0.466181  0.275884  1
  F  F23  1  0.533819  0.784962  0.275884  1
  F  F24  1  0.466181  0.251143  0.724116  1
  F  F25  1  0.784962  0.533819  0.724116  1
  F  F26  1  0.748857  0.215038  0.724116  1
