# generated using pymatgen
data_Er3ZrIn2Ir3
_symmetry_space_group_name_H-M   'P 1'
_cell_length_a   7.37548238
_cell_length_b   7.17105442
_cell_length_c   4.20010200
_cell_angle_alpha   90.00000000
_cell_angle_beta   90.00000000
_cell_angle_gamma   119.08726509
_symmetry_Int_Tables_number   1
_chemical_formula_structural   Er3ZrIn2Ir3
_chemical_formula_sum   'Er3 Zr1 In2 Ir3'
_cell_volume   194.12668287
_cell_formula_units_Z   1
loop_
 _symmetry_equiv_pos_site_id
 _symmetry_equiv_pos_as_xyz
  1  'x, y, z'
loop_
 _atom_site_type_symbol
 _atom_site_label
 _atom_site_symmetry_multiplicity
 _atom_site_fract_x
 _atom_site_fract_y
 _atom_site_fract_z
 _atom_site_occupancy
  Er  Er0  1  0.580695  0.585897  0.000000  1
  Er  Er1  1  0.419305  0.005202  0.000000  1
  Er  Er2  1  0.000000  0.395183  0.000000  1
  Zr  Zr3  1  0.000000  0.753181  0.500000  1
  In  In4  1  0.253993  0.252911  0.500000  1
  In  In5  1  0.746007  0.998917  0.500000  1
  Ir  Ir6  1  0.000000  0.983380  0.000000  1
  Ir  Ir7  1  0.678557  0.351943  0.500000  1
  Ir  Ir8  1  0.321443  0.673386  0.500000  1
