# generated using pymatgen
data_Be8Ni4BW12C
_symmetry_space_group_name_H-M   'P 1'
_cell_length_a   7.57003422
_cell_length_b   7.57003340
_cell_length_c   7.57003400
_cell_angle_alpha   59.99999739
_cell_angle_beta   60.00000094
_cell_angle_gamma   59.99999455
_symmetry_Int_Tables_number   1
_chemical_formula_structural   Be8Ni4BW12C
_chemical_formula_sum   'Be8 Ni4 B1 W12 C1'
_cell_volume   306.74567438
_cell_formula_units_Z   1
loop_
 _symmetry_equiv_pos_site_id
 _symmetry_equiv_pos_as_xyz
  1  'x, y, z'
loop_
 _atom_site_type_symbol
 _atom_site_label
 _atom_site_symmetry_multiplicity
 _atom_site_fract_x
 _atom_site_fract_y
 _atom_site_fract_z
 _atom_site_occupancy
  Be  Be0  1  0.421183  0.421183  0.736451  1
  Be  Be1  1  0.421183  0.736451  0.421183  1
  Be  Be2  1  0.736451  0.421183  0.421183  1
  Be  Be3  1  0.421183  0.421183  0.421183  1
  Be  Be4  1  0.828190  0.828190  0.515431  1
  Be  Be5  1  0.828190  0.515431  0.828190  1
  Be  Be6  1  0.515431  0.828190  0.828190  1
  Be  Be7  1  0.828190  0.828190  0.828190  1
  Ni  Ni8  1  0.624787  0.624787  0.125639  1
  Ni  Ni9  1  0.624787  0.125639  0.624787  1
  Ni  Ni10  1  0.125639  0.624787  0.624787  1
  Ni  Ni11  1  0.624787  0.624787  0.624787  1
  B  B12  1  0.250000  0.250000  0.250000  1
  W  W13  1  0.047740  0.047740  0.452260  1
  W  W14  1  0.452260  0.047740  0.452260  1
  W  W15  1  0.047740  0.452260  0.452260  1
  W  W16  1  0.452260  0.452260  0.047740  1
  W  W17  1  0.047740  0.452260  0.047740  1
  W  W18  1  0.452260  0.047740  0.047740  1
  W  W19  1  0.200177  0.200177  0.799823  1
  W  W20  1  0.799823  0.200177  0.799823  1
  W  W21  1  0.200177  0.799823  0.799823  1
  W  W22  1  0.799823  0.799823  0.200177  1
  W  W23  1  0.200177  0.799823  0.200177  1
  W  W24  1  0.799823  0.200177  0.200177  1
  C  C25  1  0.000000  0.000000  0.000000  1
