# generated using pymatgen
data_U3Al12Si2Ru
_symmetry_space_group_name_H-M   'P 1'
_cell_length_a   9.44756100
_cell_length_b   9.44755917
_cell_length_c   4.08051500
_cell_angle_alpha   90.00000000
_cell_angle_beta   90.00000000
_cell_angle_gamma   120.00000292
_symmetry_Int_Tables_number   1
_chemical_formula_structural   U3Al12Si2Ru
_chemical_formula_sum   'U3 Al12 Si2 Ru1'
_cell_volume   315.41687355
_cell_formula_units_Z   1
loop_
 _symmetry_equiv_pos_site_id
 _symmetry_equiv_pos_as_xyz
  1  'x, y, z'
loop_
 _atom_site_type_symbol
 _atom_site_label
 _atom_site_symmetry_multiplicity
 _atom_site_fract_x
 _atom_site_fract_y
 _atom_site_fract_z
 _atom_site_occupancy
  U  U0  1  0.000000  0.409972  0.000000  1
  U  U1  1  0.590028  0.590028  0.000000  1
  U  U2  1  0.409972  0.000000  0.000000  1
  Al  Al3  1  0.000000  0.742027  0.000000  1
  Al  Al4  1  0.257973  0.257973  0.000000  1
  Al  Al5  1  0.742027  0.000000  0.000000  1
  Al  Al6  1  0.000000  0.170068  0.500000  1
  Al  Al7  1  0.829932  0.829932  0.500000  1
  Al  Al8  1  0.170068  0.000000  0.500000  1
  Al  Al9  1  0.293517  0.471379  0.500000  1
  Al  Al10  1  0.177861  0.706483  0.500000  1
  Al  Al11  1  0.528621  0.822139  0.500000  1
  Al  Al12  1  0.822139  0.528621  0.500000  1
  Al  Al13  1  0.706483  0.177861  0.500000  1
  Al  Al14  1  0.471379  0.293517  0.500000  1
  Si  Si15  1  0.666667  0.333333  0.000000  1
  Si  Si16  1  0.333333  0.666667  0.000000  1
  Ru  Ru17  1  0.000000  0.000000  0.000000  1
