# generated using pymatgen
data_CuBi3Ru3PtO14
_symmetry_space_group_name_H-M   'P 1'
_cell_length_a   7.39794500
_cell_length_b   7.39794545
_cell_length_c   7.17245278
_cell_angle_alpha   58.95446148
_cell_angle_beta   58.95445859
_cell_angle_gamma   60.00001009
_symmetry_Int_Tables_number   1
_chemical_formula_structural   CuBi3Ru3PtO14
_chemical_formula_sum   'Cu1 Bi3 Ru3 Pt1 O14'
_cell_volume   273.10380568
_cell_formula_units_Z   1
loop_
 _symmetry_equiv_pos_site_id
 _symmetry_equiv_pos_as_xyz
  1  'x, y, z'
loop_
 _atom_site_type_symbol
 _atom_site_label
 _atom_site_symmetry_multiplicity
 _atom_site_fract_x
 _atom_site_fract_y
 _atom_site_fract_z
 _atom_site_occupancy
  Cu  Cu0  1  0.125000  0.125000  0.625000  1
  Bi  Bi1  1  0.125000  0.625000  0.125000  1
  Bi  Bi2  1  0.625000  0.125000  0.125000  1
  Bi  Bi3  1  0.125000  0.125000  0.125000  1
  Ru  Ru4  1  0.625000  0.125000  0.625000  1
  Ru  Ru5  1  0.125000  0.625000  0.625000  1
  Ru  Ru6  1  0.625000  0.625000  0.625000  1
  Pt  Pt7  1  0.625000  0.625000  0.125000  1
  O  O8  1  0.235082  0.235082  0.294753  1
  O  O9  1  0.014918  0.014918  0.955247  1
  O  O10  1  0.559397  0.944881  0.550840  1
  O  O11  1  0.289207  0.712219  0.286354  1
  O  O12  1  0.537781  0.537781  0.963646  1
  O  O13  1  0.944881  0.559397  0.550840  1
  O  O14  1  0.537781  0.960793  0.963646  1
  O  O15  1  0.944881  0.944881  0.550840  1
  O  O16  1  0.960793  0.537781  0.963646  1
  O  O17  1  0.712219  0.289207  0.286354  1
  O  O18  1  0.305119  0.690603  0.699160  1
  O  O19  1  0.690603  0.305119  0.699160  1
  O  O20  1  0.305119  0.305119  0.699160  1
  O  O21  1  0.712219  0.712219  0.286354  1
