# generated using pymatgen
data_Tb5YbPrRuI12
_symmetry_space_group_name_H-M   'P 1'
_cell_length_a   9.91941432
_cell_length_b   9.88474993
_cell_length_c   9.85030199
_cell_angle_alpha   106.84084999
_cell_angle_beta   106.81884500
_cell_angle_gamma   107.34558877
_symmetry_Int_Tables_number   1
_chemical_formula_structural   Tb5YbPrRuI12
_chemical_formula_sum   'Tb5 Yb1 Pr1 Ru1 I12'
_cell_volume   804.29802171
_cell_formula_units_Z   1
loop_
 _symmetry_equiv_pos_site_id
 _symmetry_equiv_pos_as_xyz
  1  'x, y, z'
loop_
 _atom_site_type_symbol
 _atom_site_label
 _atom_site_symmetry_multiplicity
 _atom_site_fract_x
 _atom_site_fract_y
 _atom_site_fract_z
 _atom_site_occupancy
  Tb  Tb0  1  0.976942  0.905759  0.706361  1
  Tb  Tb1  1  0.694254  0.972497  0.901805  1
  Tb  Tb2  1  0.094948  0.290521  0.024285  1
  Tb  Tb3  1  0.024035  0.098097  0.294887  1
  Tb  Tb4  1  0.306149  0.026228  0.098570  1
  Yb  Yb5  1  0.499474  0.500669  0.498234  1
  Pr  Pr6  1  0.902716  0.698091  0.976302  1
  Ru  Ru7  1  0.999752  0.998305  0.000715  1
  I  I8  1  0.623638  0.848823  0.545446  1
  I  I9  1  0.533202  0.618706  0.840793  1
  I  I10  1  0.844818  0.543437  0.612418  1
  I  I11  1  0.376609  0.153585  0.455276  1
  I  I12  1  0.456027  0.379875  0.152322  1
  I  I13  1  0.152984  0.456602  0.376468  1
  I  I14  1  0.681784  0.074849  0.226407  1
  I  I15  1  0.234799  0.685422  0.077446  1
  I  I16  1  0.073996  0.225278  0.684752  1
  I  I17  1  0.318994  0.927631  0.774423  1
  I  I18  1  0.775321  0.311624  0.924629  1
  I  I19  1  0.929561  0.784002  0.328461  1
