# generated using pymatgen
data_Nd8YTm11Si16
_symmetry_space_group_name_H-M   'P 1'
_cell_length_a   7.71420051
_cell_length_b   7.71522970
_cell_length_c   14.19488722
_cell_angle_alpha   90.04884231
_cell_angle_beta   90.04146844
_cell_angle_gamma   89.99718383
_symmetry_Int_Tables_number   1
_chemical_formula_structural   Nd8YTm11Si16
_chemical_formula_sum   'Nd8 Y1 Tm11 Si16'
_cell_volume   844.83414449
_cell_formula_units_Z   1
loop_
 _symmetry_equiv_pos_site_id
 _symmetry_equiv_pos_as_xyz
  1  'x, y, z'
loop_
 _atom_site_type_symbol
 _atom_site_label
 _atom_site_symmetry_multiplicity
 _atom_site_fract_x
 _atom_site_fract_y
 _atom_site_fract_z
 _atom_site_occupancy
  Nd  Nd0  1  0.642523  0.992717  0.459278  1
  Nd  Nd1  1  0.357494  0.007140  0.958953  1
  Nd  Nd2  1  0.992832  0.642581  0.540898  1
  Nd  Nd3  1  0.492708  0.857720  0.209187  1
  Nd  Nd4  1  0.507259  0.142522  0.709145  1
  Nd  Nd5  1  0.857507  0.492721  0.790735  1
  Nd  Nd6  1  0.142376  0.507237  0.291087  1
  Nd  Nd7  1  0.006853  0.357499  0.040785  1
  Y  Y8  1  0.492821  0.359965  0.124194  1
  Tm  Tm9  1  0.993298  0.140262  0.625764  1
  Tm  Tm10  1  0.859953  0.006604  0.874042  1
  Tm  Tm11  1  0.140081  0.993141  0.374335  1
  Tm  Tm12  1  0.506711  0.640231  0.624187  1
  Tm  Tm13  1  0.359707  0.493358  0.875648  1
  Tm  Tm14  1  0.640278  0.506742  0.375916  1
  Tm  Tm15  1  0.006827  0.859814  0.125860  1
  Tm  Tm16  1  0.318251  0.318301  0.500038  1
  Tm  Tm17  1  0.181762  0.818338  0.749986  1
  Tm  Tm18  1  0.818644  0.181476  0.250167  1
  Tm  Tm19  1  0.682063  0.682332  0.999820  1
  Si  Si20  1  0.289309  0.937705  0.561796  1
  Si  Si21  1  0.711387  0.061216  0.061431  1
  Si  Si22  1  0.937754  0.289220  0.438273  1
  Si  Si23  1  0.437474  0.209960  0.312520  1
  Si  Si24  1  0.562208  0.789350  0.811715  1
  Si  Si25  1  0.210688  0.437714  0.688203  1
  Si  Si26  1  0.790427  0.563165  0.188632  1
  Si  Si27  1  0.062224  0.710850  0.938217  1
  Si  Si28  1  0.795862  0.849050  0.687693  1
  Si  Si29  1  0.202935  0.150095  0.188211  1
  Si  Si30  1  0.849073  0.795653  0.312262  1
  Si  Si31  1  0.349059  0.704202  0.437784  1
  Si  Si32  1  0.651556  0.295497  0.936929  1
  Si  Si33  1  0.704198  0.349053  0.562317  1
  Si  Si34  1  0.294905  0.652407  0.061760  1
  Si  Si35  1  0.150993  0.204163  0.812231  1
