# generated using pymatgen
data_Sc4Re5Os3
_symmetry_space_group_name_H-M   'P 1'
_cell_length_a   5.26351228
_cell_length_b   5.26351058
_cell_length_c   8.68756300
_cell_angle_alpha   90.00000000
_cell_angle_beta   90.00000000
_cell_angle_gamma   120.98961850
_symmetry_Int_Tables_number   1
_chemical_formula_structural   Sc4Re5Os3
_chemical_formula_sum   'Sc4 Re5 Os3'
_cell_volume   206.32980817
_cell_formula_units_Z   1
loop_
 _symmetry_equiv_pos_site_id
 _symmetry_equiv_pos_as_xyz
  1  'x, y, z'
loop_
 _atom_site_type_symbol
 _atom_site_label
 _atom_site_symmetry_multiplicity
 _atom_site_fract_x
 _atom_site_fract_y
 _atom_site_fract_z
 _atom_site_occupancy
  Sc  Sc0  1  0.334876  0.665124  0.434427  1
  Sc  Sc1  1  0.665753  0.334247  0.563876  1
  Sc  Sc2  1  0.665753  0.334247  0.936124  1
  Sc  Sc3  1  0.334876  0.665124  0.065573  1
  Re  Re4  1  0.170727  0.343955  0.750000  1
  Re  Re5  1  0.173152  0.826848  0.750000  1
  Re  Re6  1  0.340893  0.172117  0.250000  1
  Re  Re7  1  0.827883  0.659107  0.250000  1
  Re  Re8  1  0.656045  0.829273  0.750000  1
  Os  Os9  1  0.003044  0.996956  0.000109  1
  Os  Os10  1  0.823955  0.176045  0.250000  1
  Os  Os11  1  0.003044  0.996956  0.499891  1
