# generated using pymatgen
data_Sm(Al3Ni)3
_symmetry_space_group_name_H-M   'P 1'
_cell_length_a   10.13220100
_cell_length_b   10.13220101
_cell_length_c   10.13219890
_cell_angle_alpha   42.35672682
_cell_angle_beta   42.35672835
_cell_angle_gamma   42.35672936
_symmetry_Int_Tables_number   1
_chemical_formula_structural   Sm(Al3Ni)3
_chemical_formula_sum   'Sm2 Al18 Ni6'
_cell_volume   427.42062109
_cell_formula_units_Z   2
loop_
 _symmetry_equiv_pos_site_id
 _symmetry_equiv_pos_as_xyz
  1  'x, y, z'
loop_
 _atom_site_type_symbol
 _atom_site_label
 _atom_site_symmetry_multiplicity
 _atom_site_fract_x
 _atom_site_fract_y
 _atom_site_fract_z
 _atom_site_occupancy
  Sm  Sm0  1  0.166902  0.166902  0.166902  1
  Sm  Sm1  1  0.833098  0.833098  0.833098  1
  Al  Al2  1  0.051653  0.051653  0.051653  1
  Al  Al3  1  0.706434  0.500000  0.293566  1
  Al  Al4  1  0.665567  0.334433  0.000000  1
  Al  Al5  1  0.102612  0.430930  0.759652  1
  Al  Al6  1  0.430930  0.759652  0.102612  1
  Al  Al7  1  0.386551  0.386551  0.386551  1
  Al  Al8  1  0.334433  0.000000  0.665567  1
  Al  Al9  1  0.613449  0.613449  0.613449  1
  Al  Al10  1  0.240348  0.569070  0.897388  1
  Al  Al11  1  0.569070  0.897388  0.240348  1
  Al  Al12  1  0.500000  0.293566  0.706434  1
  Al  Al13  1  0.759652  0.102612  0.430930  1
  Al  Al14  1  0.948347  0.948347  0.948347  1
  Al  Al15  1  0.293566  0.706434  0.500000  1
  Al  Al16  1  0.000000  0.665567  0.334433  1
  Al  Al17  1  0.717971  0.717971  0.717971  1
  Al  Al18  1  0.282029  0.282029  0.282029  1
  Al  Al19  1  0.897388  0.240348  0.569070  1
  Ni  Ni20  1  0.243169  0.921581  0.582054  1
  Ni  Ni21  1  0.921581  0.582054  0.243169  1
  Ni  Ni22  1  0.756831  0.417946  0.078419  1
  Ni  Ni23  1  0.078419  0.756831  0.417946  1
  Ni  Ni24  1  0.417946  0.078419  0.756831  1
  Ni  Ni25  1  0.582054  0.243169  0.921581  1
