# generated using pymatgen
data_DyNb8NiS16
_symmetry_space_group_name_H-M   'P 1'
_cell_length_a   6.72767100
_cell_length_b   6.72767039
_cell_length_c   12.78104500
_cell_angle_alpha   90.00000000
_cell_angle_beta   90.00000000
_cell_angle_gamma   120.00000792
_symmetry_Int_Tables_number   1
_chemical_formula_structural   DyNb8NiS16
_chemical_formula_sum   'Dy1 Nb8 Ni1 S16'
_cell_volume   500.98694849
_cell_formula_units_Z   1
loop_
 _symmetry_equiv_pos_site_id
 _symmetry_equiv_pos_as_xyz
  1  'x, y, z'
loop_
 _atom_site_type_symbol
 _atom_site_label
 _atom_site_symmetry_multiplicity
 _atom_site_fract_x
 _atom_site_fract_y
 _atom_site_fract_z
 _atom_site_occupancy
  Dy  Dy0  1  0.000000  0.000000  0.500000  1
  Nb  Nb1  1  0.505788  0.494212  0.770948  1
  Nb  Nb2  1  0.011573  0.505788  0.229052  1
  Nb  Nb3  1  0.494212  0.988427  0.229052  1
  Nb  Nb4  1  0.505788  0.011573  0.770948  1
  Nb  Nb5  1  0.988427  0.494212  0.770948  1
  Nb  Nb6  1  0.494212  0.505788  0.229052  1
  Nb  Nb7  1  0.000000  0.000000  0.770189  1
  Nb  Nb8  1  0.000000  0.000000  0.229811  1
  Ni  Ni9  1  0.000000  0.000000  0.000000  1
  S  S10  1  0.831421  0.168579  0.352761  1
  S  S11  1  0.831421  0.662841  0.352761  1
  S  S12  1  0.337159  0.168579  0.352761  1
  S  S13  1  0.665651  0.832825  0.890367  1
  S  S14  1  0.168579  0.337159  0.647239  1
  S  S15  1  0.167175  0.832825  0.890367  1
  S  S16  1  0.167175  0.334349  0.890367  1
  S  S17  1  0.832825  0.167175  0.109633  1
  S  S18  1  0.334349  0.167175  0.109633  1
  S  S19  1  0.662841  0.831421  0.647239  1
  S  S20  1  0.333333  0.666667  0.104528  1
  S  S21  1  0.666667  0.333333  0.643814  1
  S  S22  1  0.666667  0.333333  0.895472  1
  S  S23  1  0.333333  0.666667  0.356186  1
  S  S24  1  0.832825  0.665651  0.109633  1
  S  S25  1  0.168579  0.831421  0.647239  1
