# generated using pymatgen
data_NaSr2Cd2Bi3
_symmetry_space_group_name_H-M   'P 1'
_cell_length_a   4.93875800
_cell_length_b   13.03072800
_cell_length_c   16.78112900
_cell_angle_alpha   90.00000000
_cell_angle_beta   90.00000000
_cell_angle_gamma   90.00000000
_symmetry_Int_Tables_number   1
_chemical_formula_structural   NaSr2Cd2Bi3
_chemical_formula_sum   'Na4 Sr8 Cd8 Bi12'
_cell_volume   1079.95982946
_cell_formula_units_Z   4
loop_
 _symmetry_equiv_pos_site_id
 _symmetry_equiv_pos_as_xyz
  1  'x, y, z'
loop_
 _atom_site_type_symbol
 _atom_site_label
 _atom_site_symmetry_multiplicity
 _atom_site_fract_x
 _atom_site_fract_y
 _atom_site_fract_z
 _atom_site_occupancy
  Na  Na0  1  0.250000  0.399913  0.543585  1
  Na  Na1  1  0.750000  0.100087  0.043585  1
  Na  Na2  1  0.250000  0.899913  0.956415  1
  Na  Na3  1  0.750000  0.600087  0.456415  1
  Sr  Sr4  1  0.250000  0.361277  0.278751  1
  Sr  Sr5  1  0.750000  0.138723  0.778751  1
  Sr  Sr6  1  0.250000  0.861277  0.221249  1
  Sr  Sr7  1  0.750000  0.638723  0.721249  1
  Sr  Sr8  1  0.250000  0.103812  0.425381  1
  Sr  Sr9  1  0.750000  0.396188  0.925381  1
  Sr  Sr10  1  0.250000  0.603812  0.074619  1
  Sr  Sr11  1  0.750000  0.896188  0.574619  1
  Cd  Cd12  1  0.250000  0.301141  0.074458  1
  Cd  Cd13  1  0.750000  0.198859  0.574458  1
  Cd  Cd14  1  0.250000  0.801141  0.425542  1
  Cd  Cd15  1  0.750000  0.698859  0.925542  1
  Cd  Cd16  1  0.250000  0.363797  0.781276  1
  Cd  Cd17  1  0.750000  0.136203  0.281276  1
  Cd  Cd18  1  0.250000  0.863797  0.718724  1
  Cd  Cd19  1  0.750000  0.636203  0.218724  1
  Bi  Bi20  1  0.250000  0.116170  0.184928  1
  Bi  Bi21  1  0.750000  0.383830  0.684928  1
  Bi  Bi22  1  0.250000  0.616170  0.315072  1
  Bi  Bi23  1  0.750000  0.883830  0.815072  1
  Bi  Bi24  1  0.250000  0.696983  0.582780  1
  Bi  Bi25  1  0.750000  0.803017  0.082780  1
  Bi  Bi26  1  0.250000  0.196983  0.917220  1
  Bi  Bi27  1  0.750000  0.303017  0.417220  1
  Bi  Bi28  1  0.250000  0.078066  0.631816  1
  Bi  Bi29  1  0.750000  0.421934  0.131816  1
  Bi  Bi30  1  0.250000  0.578066  0.868184  1
  Bi  Bi31  1  0.750000  0.921934  0.368184  1
