# generated using pymatgen
data_Dy19Ho(IrRu)6
_symmetry_space_group_name_H-M   'P 1'
_cell_length_a   10.83621554
_cell_length_b   10.83173600
_cell_length_c   6.39824200
_cell_angle_alpha   89.99999999
_cell_angle_beta   89.94340190
_cell_angle_gamma   90.00068751
_symmetry_Int_Tables_number   1
_chemical_formula_structural   Dy19Ho(IrRu)6
_chemical_formula_sum   'Dy19 Ho1 Ir6 Ru6'
_cell_volume   750.99345486
_cell_formula_units_Z   1
loop_
 _symmetry_equiv_pos_site_id
 _symmetry_equiv_pos_as_xyz
  1  'x, y, z'
loop_
 _atom_site_type_symbol
 _atom_site_label
 _atom_site_symmetry_multiplicity
 _atom_site_fract_x
 _atom_site_fract_y
 _atom_site_fract_z
 _atom_site_occupancy
  Dy  Dy0  1  0.292978  0.086246  0.378480  1
  Dy  Dy1  1  0.292960  0.913760  0.878488  1
  Dy  Dy2  1  0.707856  0.086406  0.877481  1
  Dy  Dy3  1  0.707850  0.913592  0.377490  1
  Dy  Dy4  1  0.587415  0.793424  0.878610  1
  Dy  Dy5  1  0.587390  0.206626  0.378677  1
  Dy  Dy6  1  0.413604  0.793508  0.377749  1
  Dy  Dy7  1  0.413586  0.206445  0.877678  1
  Dy  Dy8  1  0.206413  0.413605  0.621518  1
  Dy  Dy9  1  0.206365  0.586409  0.121577  1
  Dy  Dy10  1  0.793328  0.412657  0.122028  1
  Dy  Dy11  1  0.793280  0.587329  0.621967  1
  Dy  Dy12  1  0.913478  0.707240  0.121586  1
  Dy  Dy13  1  0.913464  0.292774  0.621591  1
  Dy  Dy14  1  0.086046  0.707813  0.622571  1
  Dy  Dy15  1  0.086045  0.292170  0.122567  1
  Dy  Dy16  1  0.998536  0.000673  0.499797  1
  Dy  Dy17  1  0.998539  0.999323  0.999780  1
  Dy  Dy18  1  0.499912  0.500327  0.000181  1
  Ho  Ho19  1  0.499892  0.499676  0.500184  1
  Ir  Ir20  1  0.153870  0.153564  0.750248  1
  Ir  Ir21  1  0.153851  0.846420  0.250249  1
  Ir  Ir22  1  0.652253  0.348124  0.749412  1
  Ir  Ir23  1  0.652279  0.651848  0.249934  1
  Ir  Ir24  1  0.347490  0.346989  0.250658  1
  Ir  Ir25  1  0.347518  0.653040  0.750152  1
  Ru  Ru26  1  0.847170  0.152914  0.249703  1
  Ru  Ru27  1  0.847150  0.847105  0.749700  1
  Ru  Ru28  1  0.500200  0.000246  0.122690  1
  Ru  Ru29  1  0.500197  0.999758  0.622642  1
  Ru  Ru30  1  0.999543  0.500328  0.877279  1
  Ru  Ru31  1  0.999539  0.499663  0.377332  1
