# generated using pymatgen
data_Er3Th11Os6
_symmetry_space_group_name_H-M   'P 1'
_cell_length_a   9.88991092
_cell_length_b   9.95521597
_cell_length_c   6.36376405
_cell_angle_alpha   90.05706905
_cell_angle_beta   89.99955703
_cell_angle_gamma   120.13865932
_symmetry_Int_Tables_number   1
_chemical_formula_structural   Er3Th11Os6
_chemical_formula_sum   'Er3 Th11 Os6'
_cell_volume   541.84987445
_cell_formula_units_Z   1
loop_
 _symmetry_equiv_pos_site_id
 _symmetry_equiv_pos_as_xyz
  1  'x, y, z'
loop_
 _atom_site_type_symbol
 _atom_site_label
 _atom_site_symmetry_multiplicity
 _atom_site_fract_x
 _atom_site_fract_y
 _atom_site_fract_z
 _atom_site_occupancy
  Er  Er0  1  0.460269  0.536772  0.299413  1
  Er  Er1  1  0.073860  0.536193  0.301658  1
  Er  Er2  1  0.927531  0.463512  0.800781  1
  Th  Th3  1  0.252531  0.128414  0.508877  1
  Th  Th4  1  0.541113  0.080336  0.796607  1
  Th  Th5  1  0.745570  0.872251  0.012313  1
  Th  Th6  1  0.667509  0.334198  0.274420  1
  Th  Th7  1  0.126117  0.869523  0.008575  1
  Th  Th8  1  0.459734  0.917316  0.296897  1
  Th  Th9  1  0.538129  0.465454  0.801235  1
  Th  Th10  1  0.874640  0.130472  0.510847  1
  Th  Th11  1  0.126024  0.256185  0.013804  1
  Th  Th12  1  0.872954  0.745247  0.509049  1
  Th  Th13  1  0.332275  0.664716  0.770416  1
  Os  Os14  1  0.812932  0.628188  0.047990  1
  Os  Os15  1  0.814364  0.184641  0.046022  1
  Os  Os16  1  0.629615  0.813635  0.545637  1
  Os  Os17  1  0.371871  0.187101  0.042986  1
  Os  Os18  1  0.186062  0.369892  0.551680  1
  Os  Os19  1  0.186900  0.815955  0.544792  1
