# generated using pymatgen
data_Ta12Al7Co4SiC4
_symmetry_space_group_name_H-M   'P 1'
_cell_length_a   8.19151923
_cell_length_b   8.19151941
_cell_length_c   8.19151911
_cell_angle_alpha   60.01526389
_cell_angle_beta   60.01525956
_cell_angle_gamma   60.01526695
_symmetry_Int_Tables_number   1
_chemical_formula_structural   Ta12Al7Co4SiC4
_chemical_formula_sum   'Ta12 Al7 Co4 Si1 C4'
_cell_volume   388.80211864
_cell_formula_units_Z   1
loop_
 _symmetry_equiv_pos_site_id
 _symmetry_equiv_pos_as_xyz
  1  'x, y, z'
loop_
 _atom_site_type_symbol
 _atom_site_label
 _atom_site_symmetry_multiplicity
 _atom_site_fract_x
 _atom_site_fract_y
 _atom_site_fract_z
 _atom_site_occupancy
  Ta  Ta0  1  0.312108  0.937665  0.937665  1
  Ta  Ta1  1  0.939466  0.313485  0.313485  1
  Ta  Ta2  1  0.937665  0.312108  0.937665  1
  Ta  Ta3  1  0.937665  0.937665  0.312108  1
  Ta  Ta4  1  0.313485  0.939466  0.313485  1
  Ta  Ta5  1  0.313485  0.313485  0.939466  1
  Ta  Ta6  1  0.063792  0.686303  0.063792  1
  Ta  Ta7  1  0.686709  0.063480  0.686709  1
  Ta  Ta8  1  0.686303  0.063792  0.063792  1
  Ta  Ta9  1  0.063792  0.063792  0.686303  1
  Ta  Ta10  1  0.063480  0.686709  0.686709  1
  Ta  Ta11  1  0.686709  0.686709  0.063480  1
  Al  Al12  1  0.293751  0.293751  0.620645  1
  Al  Al13  1  0.620645  0.293751  0.293751  1
  Al  Al14  1  0.293751  0.620645  0.293751  1
  Al  Al15  1  0.706503  0.706503  0.706503  1
  Al  Al16  1  0.706681  0.706681  0.379680  1
  Al  Al17  1  0.706681  0.379680  0.706681  1
  Al  Al18  1  0.379680  0.706681  0.706681  1
  Co  Co19  1  0.499757  0.499757  0.499757  1
  Co  Co20  1  0.495068  0.495068  0.005302  1
  Co  Co21  1  0.005302  0.495068  0.495068  1
  Co  Co22  1  0.495068  0.005302  0.495068  1
  Si  Si23  1  0.292665  0.292665  0.292665  1
  C  C24  1  0.999491  0.999491  0.999491  1
  C  C25  1  0.000117  0.000117  0.500066  1
  C  C26  1  0.500066  0.000117  0.000117  1
  C  C27  1  0.000117  0.500066  0.000117  1
