# generated using pymatgen
data_TbPa(AlAu)4
_symmetry_space_group_name_H-M   'P 1'
_cell_length_a   4.33406300
_cell_length_b   4.33406300
_cell_length_c   10.55852400
_cell_angle_alpha   90.00000000
_cell_angle_beta   90.00000000
_cell_angle_gamma   90.00000000
_symmetry_Int_Tables_number   1
_chemical_formula_structural   TbPa(AlAu)4
_chemical_formula_sum   'Tb1 Pa1 Al4 Au4'
_cell_volume   198.33239271
_cell_formula_units_Z   1
loop_
 _symmetry_equiv_pos_site_id
 _symmetry_equiv_pos_as_xyz
  1  'x, y, z'
loop_
 _atom_site_type_symbol
 _atom_site_label
 _atom_site_symmetry_multiplicity
 _atom_site_fract_x
 _atom_site_fract_y
 _atom_site_fract_z
 _atom_site_occupancy
  Tb  Tb0  1  0.500000  0.000000  0.756919  1
  Pa  Pa1  1  0.000000  0.500000  0.249085  1
  Al  Al2  1  0.000000  0.000000  0.497569  1
  Al  Al3  1  0.500000  0.500000  0.497569  1
  Al  Al4  1  0.000000  0.500000  0.865615  1
  Al  Al5  1  0.500000  0.000000  0.132589  1
  Au  Au6  1  0.000000  0.000000  0.002273  1
  Au  Au7  1  0.500000  0.500000  0.002273  1
  Au  Au8  1  0.000000  0.500000  0.630917  1
  Au  Au9  1  0.500000  0.000000  0.365190  1
