# generated using pymatgen
data_TbHo4Lu7(GaCo2)2
_symmetry_space_group_name_H-M   'P 1'
_cell_length_a   8.13871985
_cell_length_b   8.13871955
_cell_length_c   8.14539518
_cell_angle_alpha   112.11507265
_cell_angle_beta   109.59936612
_cell_angle_gamma   106.70875471
_symmetry_Int_Tables_number   1
_chemical_formula_structural   TbHo4Lu7(GaCo2)2
_chemical_formula_sum   'Tb1 Ho4 Lu7 Ga2 Co4'
_cell_volume   414.59652336
_cell_formula_units_Z   1
loop_
 _symmetry_equiv_pos_site_id
 _symmetry_equiv_pos_as_xyz
  1  'x, y, z'
loop_
 _atom_site_type_symbol
 _atom_site_label
 _atom_site_symmetry_multiplicity
 _atom_site_fract_x
 _atom_site_fract_y
 _atom_site_fract_z
 _atom_site_occupancy
  Tb  Tb0  1  0.818752  0.781906  0.600658  1
  Ho  Ho1  1  0.041512  0.739857  0.299689  1
  Ho  Ho2  1  0.959636  0.263478  0.698969  1
  Ho  Ho3  1  0.559829  0.258176  0.299689  1
  Ho  Ho4  1  0.435494  0.739334  0.698969  1
  Lu  Lu5  1  0.672782  0.863069  0.187672  1
  Lu  Lu6  1  0.324603  0.514889  0.187672  1
  Lu  Lu7  1  0.327655  0.138455  0.811472  1
  Lu  Lu8  1  0.673017  0.483816  0.811472  1
  Lu  Lu9  1  0.180993  0.220294  0.401286  1
  Lu  Lu10  1  0.819355  0.219786  0.039143  1
  Lu  Lu11  1  0.181610  0.779269  0.960879  1
  Ga  Ga12  1  0.998623  0.497603  0.496226  1
  Ga  Ga13  1  0.501266  0.999673  0.500940  1
  Co  Co14  1  0.658893  0.497537  0.156430  1
  Co  Co15  1  0.340106  0.499469  0.839574  1
  Co  Co16  1  0.886973  0.885729  0.004630  1
  Co  Co17  1  0.118902  0.117657  0.004630  1
