# generated using pymatgen
data_YI16
_symmetry_space_group_name_H-M   'P 1'
_cell_length_a   8.98135156
_cell_length_b   10.51523796
_cell_length_c   13.94035160
_cell_angle_alpha   102.22232650
_cell_angle_beta   93.46308306
_cell_angle_gamma   122.05155515
_symmetry_Int_Tables_number   1
_chemical_formula_structural   YI16
_chemical_formula_sum   'Y1 I16'
_cell_volume   1066.58990800
_cell_formula_units_Z   1
loop_
 _symmetry_equiv_pos_site_id
 _symmetry_equiv_pos_as_xyz
  1  'x, y, z'
loop_
 _atom_site_type_symbol
 _atom_site_label
 _atom_site_symmetry_multiplicity
 _atom_site_fract_x
 _atom_site_fract_y
 _atom_site_fract_z
 _atom_site_occupancy
  Y  Y0  1  0.000000  0.000000  0.000000  1
  I  I1  1  0.768662  0.941707  0.160459  1
  I  I2  1  0.231338  0.058293  0.839541  1
  I  I3  1  0.324524  0.203243  0.169594  1
  I  I4  1  0.675476  0.796757  0.830406  1
  I  I5  1  0.982150  0.278582  0.982929  1
  I  I6  1  0.017850  0.721418  0.017071  1
  I  I7  1  0.352813  0.480282  0.304196  1
  I  I8  1  0.647187  0.519718  0.695804  1
  I  I9  1  0.937477  0.593029  0.263084  1
  I  I10  1  0.062523  0.406971  0.736916  1
  I  I11  1  0.398231  0.834516  0.085432  1
  I  I12  1  0.601769  0.165484  0.914568  1
  I  I13  1  0.603473  0.254250  0.553357  1
  I  I14  1  0.396527  0.745750  0.446643  1
  I  I15  1  0.790991  0.429774  0.401503  1
  I  I16  1  0.209009  0.570226  0.598497  1
