# generated using pymatgen
data_La9Sm(Sn5Pd2)4
_symmetry_space_group_name_H-M   'P 1'
_cell_length_a   14.40598316
_cell_length_b   14.40598316
_cell_length_c   4.72206800
_cell_angle_alpha   90.00000000
_cell_angle_beta   90.00000000
_cell_angle_gamma   90.01721341
_symmetry_Int_Tables_number   1
_chemical_formula_structural   La9Sm(Sn5Pd2)4
_chemical_formula_sum   'La9 Sm1 Sn20 Pd8'
_cell_volume   979.98182883
_cell_formula_units_Z   1
loop_
 _symmetry_equiv_pos_site_id
 _symmetry_equiv_pos_as_xyz
  1  'x, y, z'
loop_
 _atom_site_type_symbol
 _atom_site_label
 _atom_site_symmetry_multiplicity
 _atom_site_fract_x
 _atom_site_fract_y
 _atom_site_fract_z
 _atom_site_occupancy
  La  La0  1  0.500036  0.499907  0.000000  1
  La  La1  1  0.999907  0.000036  0.000000  1
  La  La2  1  0.321343  0.821343  0.500000  1
  La  La3  1  0.178645  0.321285  0.500000  1
  La  La4  1  0.821285  0.678645  0.500000  1
  La  La5  1  0.890152  0.390152  0.500000  1
  La  La6  1  0.109340  0.609340  0.500000  1
  La  La7  1  0.390898  0.109712  0.500000  1
  La  La8  1  0.609712  0.890898  0.500000  1
  Sm  Sm9  1  0.677945  0.177945  0.500000  1
  Sn  Sn10  1  0.570171  0.070171  0.000000  1
  Sn  Sn11  1  0.431728  0.931728  0.000000  1
  Sn  Sn12  1  0.068747  0.431201  0.000000  1
  Sn  Sn13  1  0.931201  0.568747  0.000000  1
  Sn  Sn14  1  0.653883  0.699143  0.000000  1
  Sn  Sn15  1  0.346263  0.300640  0.000000  1
  Sn  Sn16  1  0.153862  0.800818  0.000000  1
  Sn  Sn17  1  0.844660  0.198990  0.000000  1
  Sn  Sn18  1  0.300818  0.653862  0.000000  1
  Sn  Sn19  1  0.698990  0.344660  0.000000  1
  Sn  Sn20  1  0.199143  0.153883  0.000000  1
  Sn  Sn21  1  0.800640  0.846263  0.000000  1
  Sn  Sn22  1  0.662113  0.501341  0.500000  1
  Sn  Sn23  1  0.337612  0.499170  0.500000  1
  Sn  Sn24  1  0.162244  0.999172  0.500000  1
  Sn  Sn25  1  0.837034  0.002269  0.500000  1
  Sn  Sn26  1  0.499172  0.662244  0.500000  1
  Sn  Sn27  1  0.502269  0.337034  0.500000  1
  Sn  Sn28  1  0.001341  0.162113  0.500000  1
  Sn  Sn29  1  0.999170  0.837612  0.500000  1
  Pd  Pd30  1  0.745185  0.528492  0.000000  1
  Pd  Pd31  1  0.254660  0.470859  0.000000  1
  Pd  Pd32  1  0.245388  0.970915  0.000000  1
  Pd  Pd33  1  0.754218  0.029960  0.000000  1
  Pd  Pd34  1  0.470915  0.745388  0.000000  1
  Pd  Pd35  1  0.529960  0.254218  0.000000  1
  Pd  Pd36  1  0.028492  0.245185  0.000000  1
  Pd  Pd37  1  0.970859  0.754660  0.000000  1
