# generated using pymatgen
data_Lu4Nb2B4(IrRu)5
_symmetry_space_group_name_H-M   'P 1'
_cell_length_a   9.65275113
_cell_length_b   9.67307213
_cell_length_c   3.10981600
_cell_angle_alpha   90.00000000
_cell_angle_beta   90.00000000
_cell_angle_gamma   90.01882022
_symmetry_Int_Tables_number   1
_chemical_formula_structural   Lu4Nb2B4(IrRu)5
_chemical_formula_sum   'Lu4 Nb2 B4 Ir5 Ru5'
_cell_volume   290.36897112
_cell_formula_units_Z   1
loop_
 _symmetry_equiv_pos_site_id
 _symmetry_equiv_pos_as_xyz
  1  'x, y, z'
loop_
 _atom_site_type_symbol
 _atom_site_label
 _atom_site_symmetry_multiplicity
 _atom_site_fract_x
 _atom_site_fract_y
 _atom_site_fract_z
 _atom_site_occupancy
  Lu  Lu0  1  0.824895  0.674981  0.000000  1
  Lu  Lu1  1  0.173480  0.322808  0.000000  1
  Lu  Lu2  1  0.325705  0.828942  0.000000  1
  Lu  Lu3  1  0.675013  0.173458  0.000000  1
  Nb  Nb4  1  0.505715  0.497962  0.000000  1
  Nb  Nb5  1  0.999120  0.000000  0.000000  1
  B  B6  1  0.623704  0.885804  0.000000  1
  B  B7  1  0.375508  0.114708  0.000000  1
  B  B8  1  0.119047  0.616919  0.000000  1
  B  B9  1  0.877299  0.383351  0.000000  1
  Ir  Ir10  1  0.570083  0.720519  0.500000  1
  Ir  Ir11  1  0.428084  0.280245  0.500000  1
  Ir  Ir12  1  0.072729  0.779148  0.500000  1
  Ir  Ir13  1  0.928181  0.220707  0.500000  1
  Ir  Ir14  1  0.282423  0.570291  0.500000  1
  Ru  Ru15  1  0.718478  0.429782  0.500000  1
  Ru  Ru16  1  0.217714  0.070626  0.500000  1
  Ru  Ru17  1  0.781897  0.928483  0.500000  1
  Ru  Ru18  1  0.500411  0.001008  0.500000  1
  Ru  Ru19  1  0.000512  0.500257  0.500000  1
