# generated using pymatgen
data_Tb2Pa(Ni3P2)3
_symmetry_space_group_name_H-M   'P 1'
_cell_length_a   3.80164600
_cell_length_b   10.48547900
_cell_length_c   12.31193800
_cell_angle_alpha   90.00000000
_cell_angle_beta   90.00000000
_cell_angle_gamma   90.00000000
_symmetry_Int_Tables_number   1
_chemical_formula_structural   Tb2Pa(Ni3P2)3
_chemical_formula_sum   'Tb4 Pa2 Ni18 P12'
_cell_volume   490.77944887
_cell_formula_units_Z   2
loop_
 _symmetry_equiv_pos_site_id
 _symmetry_equiv_pos_as_xyz
  1  'x, y, z'
loop_
 _atom_site_type_symbol
 _atom_site_label
 _atom_site_symmetry_multiplicity
 _atom_site_fract_x
 _atom_site_fract_y
 _atom_site_fract_z
 _atom_site_occupancy
  Tb  Tb0  1  0.500000  0.814440  0.205815  1
  Tb  Tb1  1  0.500000  0.185560  0.205815  1
  Tb  Tb2  1  0.000000  0.685560  0.794185  1
  Tb  Tb3  1  0.000000  0.314440  0.794185  1
  Pa  Pa4  1  0.000000  0.500000  0.522580  1
  Pa  Pa5  1  0.500000  0.000000  0.477420  1
  Ni  Ni6  1  0.500000  0.500000  0.154923  1
  Ni  Ni7  1  0.000000  0.000000  0.845077  1
  Ni  Ni8  1  0.500000  0.500000  0.695669  1
  Ni  Ni9  1  0.000000  0.000000  0.304331  1
  Ni  Ni10  1  0.000000  0.500000  0.982405  1
  Ni  Ni11  1  0.500000  0.000000  0.017595  1
  Ni  Ni12  1  0.500000  0.332739  0.994075  1
  Ni  Ni13  1  0.500000  0.667261  0.994075  1
  Ni  Ni14  1  0.000000  0.167261  0.005925  1
  Ni  Ni15  1  0.000000  0.832739  0.005925  1
  Ni  Ni16  1  0.500000  0.304641  0.428880  1
  Ni  Ni17  1  0.500000  0.695359  0.428880  1
  Ni  Ni18  1  0.000000  0.195359  0.571120  1
  Ni  Ni19  1  0.000000  0.804641  0.571120  1
  Ni  Ni20  1  0.500000  0.879729  0.711068  1
  Ni  Ni21  1  0.500000  0.120271  0.711068  1
  Ni  Ni22  1  0.000000  0.620271  0.288932  1
  Ni  Ni23  1  0.000000  0.379729  0.288932  1
  P  P24  1  0.500000  0.500000  0.875449  1
  P  P25  1  0.000000  0.000000  0.124551  1
  P  P26  1  0.500000  0.500000  0.339740  1
  P  P27  1  0.000000  0.000000  0.660260  1
  P  P28  1  0.500000  0.309334  0.614001  1
  P  P29  1  0.500000  0.690666  0.614001  1
  P  P30  1  0.000000  0.190666  0.385999  1
  P  P31  1  0.000000  0.809334  0.385999  1
  P  P32  1  0.500000  0.848940  0.894067  1
  P  P33  1  0.500000  0.151060  0.894067  1
  P  P34  1  0.000000  0.651060  0.105933  1
  P  P35  1  0.000000  0.348940  0.105933  1
