# generated using pymatgen
data_SmErNCl3
_symmetry_space_group_name_H-M   'P 1'
_cell_length_a   8.44485660
_cell_length_b   8.44485640
_cell_length_c   10.80673353
_cell_angle_alpha   59.92399024
_cell_angle_beta   59.92399029
_cell_angle_gamma   26.58615360
_symmetry_Int_Tables_number   1
_chemical_formula_structural   SmErNCl3
_chemical_formula_sum   'Sm2 Er2 N2 Cl6'
_cell_volume   295.67016655
_cell_formula_units_Z   2
loop_
 _symmetry_equiv_pos_site_id
 _symmetry_equiv_pos_as_xyz
  1  'x, y, z'
loop_
 _atom_site_type_symbol
 _atom_site_label
 _atom_site_symmetry_multiplicity
 _atom_site_fract_x
 _atom_site_fract_y
 _atom_site_fract_z
 _atom_site_occupancy
  Sm  Sm0  1  0.862835  0.862835  0.291619  1
  Sm  Sm1  1  0.137165  0.137165  0.708381  1
  Er  Er2  1  0.582618  0.582618  0.044372  1
  Er  Er3  1  0.417382  0.417382  0.955628  1
  N  N4  1  0.426197  0.426197  0.153137  1
  N  N5  1  0.573803  0.573803  0.846863  1
  Cl  Cl6  1  0.049999  0.049999  0.243519  1
  Cl  Cl7  1  0.950001  0.950001  0.756481  1
  Cl  Cl8  1  0.663969  0.663969  0.486031  1
  Cl  Cl9  1  0.336031  0.336031  0.513969  1
  Cl  Cl10  1  0.783402  0.783402  0.107857  1
  Cl  Cl11  1  0.216598  0.216598  0.892143  1
