# generated using pymatgen
data_NaCoAs3Rh4
_symmetry_space_group_name_H-M   'P 1'
_cell_length_a   3.86597400
_cell_length_b   11.16628100
_cell_length_c   12.93829300
_cell_angle_alpha   90.00000000
_cell_angle_beta   90.00000000
_cell_angle_gamma   90.00000000
_symmetry_Int_Tables_number   1
_chemical_formula_structural   NaCoAs3Rh4
_chemical_formula_sum   'Na4 Co4 As12 Rh16'
_cell_volume   558.52737446
_cell_formula_units_Z   4
loop_
 _symmetry_equiv_pos_site_id
 _symmetry_equiv_pos_as_xyz
  1  'x, y, z'
loop_
 _atom_site_type_symbol
 _atom_site_label
 _atom_site_symmetry_multiplicity
 _atom_site_fract_x
 _atom_site_fract_y
 _atom_site_fract_z
 _atom_site_occupancy
  Na  Na0  1  0.250000  0.584701  0.708671  1
  Na  Na1  1  0.250000  0.915299  0.208671  1
  Na  Na2  1  0.750000  0.415299  0.291329  1
  Na  Na3  1  0.750000  0.084701  0.791329  1
  Co  Co4  1  0.250000  0.466340  0.934910  1
  Co  Co5  1  0.250000  0.033660  0.434910  1
  Co  Co6  1  0.750000  0.533660  0.065090  1
  Co  Co7  1  0.750000  0.966340  0.565090  1
  As  As8  1  0.250000  0.421296  0.107142  1
  As  As9  1  0.250000  0.078704  0.607142  1
  As  As10  1  0.750000  0.578704  0.892858  1
  As  As11  1  0.750000  0.921296  0.392858  1
  As  As12  1  0.250000  0.270993  0.873149  1
  As  As13  1  0.250000  0.229007  0.373149  1
  As  As14  1  0.750000  0.729007  0.126851  1
  As  As15  1  0.750000  0.770993  0.626851  1
  As  As16  1  0.250000  0.599363  0.388533  1
  As  As17  1  0.250000  0.900637  0.888533  1
  As  As18  1  0.750000  0.400637  0.611467  1
  As  As19  1  0.750000  0.099363  0.111467  1
  Rh  Rh20  1  0.250000  0.711676  0.987687  1
  Rh  Rh21  1  0.250000  0.788324  0.487687  1
  Rh  Rh22  1  0.750000  0.288324  0.012313  1
  Rh  Rh23  1  0.750000  0.211676  0.512313  1
  Rh  Rh24  1  0.250000  0.407450  0.485780  1
  Rh  Rh25  1  0.250000  0.092550  0.985780  1
  Rh  Rh26  1  0.750000  0.592550  0.514220  1
  Rh  Rh27  1  0.750000  0.907450  0.014220  1
  Rh  Rh28  1  0.250000  0.223616  0.179654  1
  Rh  Rh29  1  0.250000  0.276384  0.679654  1
  Rh  Rh30  1  0.750000  0.776384  0.820346  1
  Rh  Rh31  1  0.750000  0.723616  0.320346  1
  Rh  Rh32  1  0.250000  0.887138  0.697652  1
  Rh  Rh33  1  0.250000  0.612862  0.197652  1
  Rh  Rh34  1  0.750000  0.112862  0.302348  1
  Rh  Rh35  1  0.750000  0.387138  0.802348  1
