# generated using pymatgen
data_CeDy3Tm4(CdIr)2
_symmetry_space_group_name_H-M   'P 1'
_cell_length_a   9.58900050
_cell_length_b   9.58900101
_cell_length_c   9.61540800
_cell_angle_alpha   59.90886039
_cell_angle_beta   59.90885861
_cell_angle_gamma   59.87313387
_symmetry_Int_Tables_number   1
_chemical_formula_structural   CeDy3Tm4(CdIr)2
_chemical_formula_sum   'Ce2 Dy6 Tm8 Cd4 Ir4'
_cell_volume   623.71011964
_cell_formula_units_Z   2
loop_
 _symmetry_equiv_pos_site_id
 _symmetry_equiv_pos_as_xyz
  1  'x, y, z'
loop_
 _atom_site_type_symbol
 _atom_site_label
 _atom_site_symmetry_multiplicity
 _atom_site_fract_x
 _atom_site_fract_y
 _atom_site_fract_z
 _atom_site_occupancy
  Ce  Ce0  1  0.596439  0.596439  0.599321  1
  Ce  Ce1  1  0.596439  0.596439  0.207800  1
  Dy  Dy2  1  0.189707  0.811818  0.811901  1
  Dy  Dy3  1  0.811818  0.189707  0.186574  1
  Dy  Dy4  1  0.811818  0.189707  0.811901  1
  Dy  Dy5  1  0.189707  0.811818  0.186574  1
  Dy  Dy6  1  0.812494  0.812494  0.187506  1
  Dy  Dy7  1  0.191124  0.191124  0.808876  1
  Tm  Tm8  1  0.601901  0.198340  0.599880  1
  Tm  Tm9  1  0.198340  0.601901  0.599880  1
  Tm  Tm10  1  0.062982  0.437404  0.438548  1
  Tm  Tm11  1  0.437404  0.062982  0.061066  1
  Tm  Tm12  1  0.437404  0.062982  0.438548  1
  Tm  Tm13  1  0.062982  0.437404  0.061066  1
  Tm  Tm14  1  0.436227  0.436227  0.063773  1
  Tm  Tm15  1  0.062699  0.062699  0.437301  1
  Cd  Cd16  1  0.830535  0.830535  0.830225  1
  Cd  Cd17  1  0.830535  0.830535  0.508705  1
  Cd  Cd18  1  0.830536  0.505653  0.831906  1
  Cd  Cd19  1  0.505653  0.830536  0.831906  1
  Ir  Ir20  1  0.392459  0.392459  0.392258  1
  Ir  Ir21  1  0.392459  0.392459  0.822826  1
  Ir  Ir22  1  0.394510  0.823826  0.390832  1
  Ir  Ir23  1  0.823826  0.394510  0.390832  1
