# generated using pymatgen
data_Ce3Nd13(CdRu)4
_symmetry_space_group_name_H-M   'P 1'
_cell_length_a   9.94088465
_cell_length_b   9.94088413
_cell_length_c   9.86394461
_cell_angle_alpha   59.74163605
_cell_angle_beta   59.74162980
_cell_angle_gamma   59.99999721
_symmetry_Int_Tables_number   1
_chemical_formula_structural   Ce3Nd13(CdRu)4
_chemical_formula_sum   'Ce3 Nd13 Cd4 Ru4'
_cell_volume   686.56010672
_cell_formula_units_Z   1
loop_
 _symmetry_equiv_pos_site_id
 _symmetry_equiv_pos_as_xyz
  1  'x, y, z'
loop_
 _atom_site_type_symbol
 _atom_site_label
 _atom_site_symmetry_multiplicity
 _atom_site_fract_x
 _atom_site_fract_y
 _atom_site_fract_z
 _atom_site_occupancy
  Ce  Ce0  1  0.342399  0.976581  0.338622  1
  Ce  Ce1  1  0.976581  0.342399  0.338622  1
  Ce  Ce2  1  0.342399  0.342399  0.338622  1
  Nd  Nd3  1  0.561833  0.561833  0.939202  1
  Nd  Nd4  1  0.937131  0.561833  0.939202  1
  Nd  Nd5  1  0.561833  0.937131  0.939202  1
  Nd  Nd6  1  0.940595  0.940595  0.558442  1
  Nd  Nd7  1  0.560369  0.940595  0.558442  1
  Nd  Nd8  1  0.940595  0.560369  0.558442  1
  Nd  Nd9  1  0.190105  0.190105  0.810284  1
  Nd  Nd10  1  0.809505  0.190105  0.810284  1
  Nd  Nd11  1  0.190104  0.809506  0.810284  1
  Nd  Nd12  1  0.808361  0.808362  0.191182  1
  Nd  Nd13  1  0.192096  0.808361  0.191181  1
  Nd  Nd14  1  0.808361  0.192097  0.191182  1
  Nd  Nd15  1  0.349002  0.349002  0.952994  1
  Cd  Cd16  1  0.579301  0.579301  0.262097  1
  Cd  Cd17  1  0.580849  0.261627  0.576675  1
  Cd  Cd18  1  0.261627  0.580849  0.576675  1
  Cd  Cd19  1  0.580849  0.580849  0.576675  1
  Ru  Ru20  1  0.145425  0.145425  0.563726  1
  Ru  Ru21  1  0.137607  0.565464  0.159322  1
  Ru  Ru22  1  0.565464  0.137607  0.159322  1
  Ru  Ru23  1  0.137607  0.137607  0.159322  1
