# generated using pymatgen
data_AcAl3Pt
_symmetry_space_group_name_H-M   'P 1'
_cell_length_a   6.21223079
_cell_length_b   6.21223042
_cell_length_c   6.21223106
_cell_angle_alpha   137.58326908
_cell_angle_beta   137.58326544
_cell_angle_gamma   61.54184387
_symmetry_Int_Tables_number   1
_chemical_formula_structural   AcAl3Pt
_chemical_formula_sum   'Ac1 Al3 Pt1'
_cell_volume   107.83250998
_cell_formula_units_Z   1
loop_
 _symmetry_equiv_pos_site_id
 _symmetry_equiv_pos_as_xyz
  1  'x, y, z'
loop_
 _atom_site_type_symbol
 _atom_site_label
 _atom_site_symmetry_multiplicity
 _atom_site_fract_x
 _atom_site_fract_y
 _atom_site_fract_z
 _atom_site_occupancy
  Ac  Ac0  1  0.195004  0.195004  0.000000  1
  Al  Al1  1  0.600036  0.600036  0.000000  1
  Al  Al2  1  0.944929  0.444929  0.500001  1
  Al  Al3  1  0.444929  0.944929  0.500001  1
  Pt  Pt4  1  0.834424  0.834424  0.000000  1
