# generated using pymatgen
data_Cs3Na2ZrAsP2
_symmetry_space_group_name_H-M   'P 1'
_cell_length_a   10.99334516
_cell_length_b   10.99403437
_cell_length_c   16.61356804
_cell_angle_alpha   89.98307184
_cell_angle_beta   90.01029033
_cell_angle_gamma   142.80262513
_symmetry_Int_Tables_number   1
_chemical_formula_structural   Cs3Na2ZrAsP2
_chemical_formula_sum   'Cs12 Na8 Zr4 As4 P8'
_cell_volume   1213.92299661
_cell_formula_units_Z   4
loop_
 _symmetry_equiv_pos_site_id
 _symmetry_equiv_pos_as_xyz
  1  'x, y, z'
loop_
 _atom_site_type_symbol
 _atom_site_label
 _atom_site_symmetry_multiplicity
 _atom_site_fract_x
 _atom_site_fract_y
 _atom_site_fract_z
 _atom_site_occupancy
  Cs  Cs0  1  0.950466  0.608259  0.825733  1
  Cs  Cs1  1  0.550986  0.891815  0.324606  1
  Cs  Cs2  1  0.390975  0.049855  0.176004  1
  Cs  Cs3  1  0.052305  0.390688  0.175620  1
  Cs  Cs4  1  0.890969  0.550637  0.326252  1
  Cs  Cs5  1  0.449003  0.109541  0.674492  1
  Cs  Cs6  1  0.608594  0.947982  0.826081  1
  Cs  Cs7  1  0.285409  0.284423  0.314495  1
  Cs  Cs8  1  0.782771  0.786682  0.185148  1
  Cs  Cs9  1  0.214842  0.218808  0.814732  1
  Cs  Cs10  1  0.717573  0.716545  0.685244  1
  Cs  Cs11  1  0.108790  0.448960  0.676108  1
  Na  Na12  1  0.919668  0.080046  0.000244  1
  Na  Na13  1  0.578137  0.419511  0.498740  1
  Na  Na14  1  0.078473  0.921272  0.000233  1
  Na  Na15  1  0.419292  0.578370  0.498696  1
  Na  Na16  1  0.755701  0.244275  0.000529  1
  Na  Na17  1  0.745706  0.253734  0.498413  1
  Na  Na18  1  0.247310  0.752575  0.000525  1
  Na  Na19  1  0.254050  0.745589  0.498403  1
  Zr  Zr20  1  0.583440  0.416423  0.000604  1
  Zr  Zr21  1  0.918121  0.087553  0.497778  1
  Zr  Zr22  1  0.413899  0.585689  0.000561  1
  Zr  Zr23  1  0.087443  0.918167  0.497809  1
  As  As24  1  0.873097  0.561124  0.093911  1
  As  As25  1  0.438372  0.126649  0.907514  1
  As  As26  1  0.626329  0.938438  0.591982  1
  As  As27  1  0.938556  0.625919  0.591395  1
  P  P28  1  0.130375  0.439627  0.912375  1
  P  P29  1  0.559663  0.869124  0.088948  1
  P  P30  1  0.368903  0.059791  0.410247  1
  P  P31  1  0.197085  0.197327  0.577994  1
  P  P32  1  0.695181  0.696075  0.920454  1
  P  P33  1  0.303377  0.304254  0.080497  1
  P  P34  1  0.059676  0.368519  0.409591  1
  P  P35  1  0.805462  0.805756  0.418042  1
