# generated using pymatgen
data_Ho4Zr3ScPt4
_symmetry_space_group_name_H-M   'P 1'
_cell_length_a   4.68942100
_cell_length_b   7.03926055
_cell_length_c   8.29865772
_cell_angle_alpha   88.89384287
_cell_angle_beta   90.00000000
_cell_angle_gamma   90.00000000
_symmetry_Int_Tables_number   1
_chemical_formula_structural   Ho4Zr3ScPt4
_chemical_formula_sum   'Ho4 Zr3 Sc1 Pt4'
_cell_volume   273.88810790
_cell_formula_units_Z   1
loop_
 _symmetry_equiv_pos_site_id
 _symmetry_equiv_pos_as_xyz
  1  'x, y, z'
loop_
 _atom_site_type_symbol
 _atom_site_label
 _atom_site_symmetry_multiplicity
 _atom_site_fract_x
 _atom_site_fract_y
 _atom_site_fract_z
 _atom_site_occupancy
  Ho  Ho0  1  0.250000  0.980889  0.324397  1
  Ho  Ho1  1  0.250000  0.486203  0.177797  1
  Ho  Ho2  1  0.750000  0.015763  0.676506  1
  Ho  Ho3  1  0.750000  0.515516  0.818207  1
  Zr  Zr4  1  0.250000  0.855948  0.920863  1
  Zr  Zr5  1  0.250000  0.353930  0.575876  1
  Zr  Zr6  1  0.750000  0.147286  0.081230  1
  Sc  Sc7  1  0.750000  0.645623  0.421835  1
  Pt  Pt8  1  0.250000  0.235050  0.907627  1
  Pt  Pt9  1  0.250000  0.735324  0.599060  1
  Pt  Pt10  1  0.750000  0.765357  0.091177  1
  Pt  Pt11  1  0.750000  0.263112  0.405424  1
