# generated using pymatgen
data_Dy5Mn2O12
_symmetry_space_group_name_H-M   'P 1'
_cell_length_a   6.81364710
_cell_length_b   6.81370018
_cell_length_c   7.24894105
_cell_angle_alpha   74.52111571
_cell_angle_beta   74.52120112
_cell_angle_gamma   50.09939360
_symmetry_Int_Tables_number   1
_chemical_formula_structural   Dy5Mn2O12
_chemical_formula_sum   'Dy5 Mn2 O12'
_cell_volume   246.72261755
_cell_formula_units_Z   1
loop_
 _symmetry_equiv_pos_site_id
 _symmetry_equiv_pos_as_xyz
  1  'x, y, z'
loop_
 _atom_site_type_symbol
 _atom_site_label
 _atom_site_symmetry_multiplicity
 _atom_site_fract_x
 _atom_site_fract_y
 _atom_site_fract_z
 _atom_site_occupancy
  Dy  Dy0  1  0.305041  0.305027  0.356308  1
  Dy  Dy1  1  0.694959  0.694973  0.643692  1
  Dy  Dy2  1  0.307579  0.307550  0.835365  1
  Dy  Dy3  1  0.692421  0.692450  0.164635  1
  Dy  Dy4  1  0.000000  0.000000  0.500000  1
  Mn  Mn5  1  0.754565  0.245462  0.999998  1
  Mn  Mn6  1  0.245435  0.754538  0.000002  1
  O  O7  1  0.901508  0.421599  0.918765  1
  O  O8  1  0.421580  0.901499  0.918771  1
  O  O9  1  0.098492  0.578401  0.081235  1
  O  O10  1  0.578420  0.098501  0.081229  1
  O  O11  1  0.096927  0.598011  0.574480  1
  O  O12  1  0.598012  0.096923  0.574481  1
  O  O13  1  0.903073  0.401989  0.425520  1
  O  O14  1  0.401988  0.903077  0.425519  1
  O  O15  1  0.999856  0.999863  0.821692  1
  O  O16  1  0.000144  0.000137  0.178308  1
  O  O17  1  0.500002  0.499996  0.820019  1
  O  O18  1  0.499998  0.500004  0.179981  1
