# generated using pymatgen
data_OsClF5
_symmetry_space_group_name_H-M   'P 1'
_cell_length_a   5.56308300
_cell_length_b   9.08714200
_cell_length_c   10.58293800
_cell_angle_alpha   90.00000000
_cell_angle_beta   90.00000000
_cell_angle_gamma   90.00000000
_symmetry_Int_Tables_number   1
_chemical_formula_structural   OsClF5
_chemical_formula_sum   'Os4 Cl4 F20'
_cell_volume   534.99423971
_cell_formula_units_Z   4
loop_
 _symmetry_equiv_pos_site_id
 _symmetry_equiv_pos_as_xyz
  1  'x, y, z'
loop_
 _atom_site_type_symbol
 _atom_site_label
 _atom_site_symmetry_multiplicity
 _atom_site_fract_x
 _atom_site_fract_y
 _atom_site_fract_z
 _atom_site_occupancy
  Os  Os0  1  0.591881  0.750000  0.126701  1
  Os  Os1  1  0.091881  0.250000  0.373299  1
  Os  Os2  1  0.408119  0.250000  0.873299  1
  Os  Os3  1  0.908119  0.750000  0.626701  1
  Cl  Cl4  1  0.587370  0.750000  0.750379  1
  Cl  Cl5  1  0.087370  0.250000  0.749621  1
  Cl  Cl6  1  0.412630  0.250000  0.249621  1
  Cl  Cl7  1  0.912630  0.750000  0.250379  1
  F  F8  1  0.277751  0.104561  0.979158  1
  F  F9  1  0.777751  0.895439  0.520842  1
  F  F10  1  0.722249  0.604561  0.020842  1
  F  F11  1  0.222249  0.395439  0.479158  1
  F  F12  1  0.060838  0.605258  0.725471  1
  F  F13  1  0.560838  0.394742  0.774529  1
  F  F14  1  0.939162  0.105258  0.274529  1
  F  F15  1  0.439162  0.894742  0.225471  1
  F  F16  1  0.939162  0.394742  0.274529  1
  F  F17  1  0.439162  0.605258  0.225471  1
  F  F18  1  0.060838  0.894742  0.725471  1
  F  F19  1  0.560838  0.105258  0.774529  1
  F  F20  1  0.185246  0.750000  0.521308  1
  F  F21  1  0.685246  0.250000  0.978692  1
  F  F22  1  0.814754  0.250000  0.478692  1
  F  F23  1  0.314754  0.750000  0.021308  1
  F  F24  1  0.777751  0.604561  0.520842  1
  F  F25  1  0.277751  0.395439  0.979158  1
  F  F26  1  0.222249  0.104561  0.479158  1
  F  F27  1  0.722249  0.895439  0.020842  1
