# generated using pymatgen
data_Tb4Nd3Ho3(In2Pt)4
_symmetry_space_group_name_H-M   'P 1'
_cell_length_a   3.68196800
_cell_length_b   8.23548439
_cell_length_c   18.42732205
_cell_angle_alpha   89.86333923
_cell_angle_beta   90.00000000
_cell_angle_gamma   90.00000000
_symmetry_Int_Tables_number   1
_chemical_formula_structural   Tb4Nd3Ho3(In2Pt)4
_chemical_formula_sum   'Tb4 Nd3 Ho3 In8 Pt4'
_cell_volume   558.76622737
_cell_formula_units_Z   1
loop_
 _symmetry_equiv_pos_site_id
 _symmetry_equiv_pos_as_xyz
  1  'x, y, z'
loop_
 _atom_site_type_symbol
 _atom_site_label
 _atom_site_symmetry_multiplicity
 _atom_site_fract_x
 _atom_site_fract_y
 _atom_site_fract_z
 _atom_site_occupancy
  Tb  Tb0  1  0.000000  0.617507  0.084575  1
  Tb  Tb1  1  0.000000  0.242424  0.218760  1
  Tb  Tb2  1  0.000000  0.756657  0.780763  1
  Tb  Tb3  1  0.000000  0.256347  0.719381  1
  Nd  Nd4  1  0.000000  0.742141  0.281885  1
  Nd  Nd5  1  0.000000  0.999310  0.999226  1
  Nd  Nd6  1  0.000000  0.500779  0.500254  1
  Ho  Ho7  1  0.000000  0.119357  0.414778  1
  Ho  Ho8  1  0.000000  0.882977  0.587285  1
  Ho  Ho9  1  0.000000  0.382401  0.913071  1
  In  In10  1  0.500000  0.416844  0.349072  1
  In  In11  1  0.500000  0.578658  0.651256  1
  In  In12  1  0.500000  0.078490  0.848916  1
  In  In13  1  0.500000  0.924083  0.150218  1
  In  In14  1  0.500000  0.296320  0.066435  1
  In  In15  1  0.500000  0.700992  0.931946  1
  In  In16  1  0.500000  0.201448  0.567547  1
  In  In17  1  0.500000  0.802098  0.435442  1
  Pt  Pt18  1  0.500000  0.034291  0.304632  1
  Pt  Pt19  1  0.500000  0.973822  0.696509  1
  Pt  Pt20  1  0.500000  0.473293  0.803693  1
  Pt  Pt21  1  0.500000  0.519762  0.194357  1
