# generated using pymatgen
data_Nd3Sm9(Si7Br3)2
_symmetry_space_group_name_H-M   'P 1'
_cell_length_a   4.05021300
_cell_length_b   11.64692964
_cell_length_c   16.35264459
_cell_angle_alpha   90.20683433
_cell_angle_beta   90.00000000
_cell_angle_gamma   90.00000000
_symmetry_Int_Tables_number   1
_chemical_formula_structural   Nd3Sm9(Si7Br3)2
_chemical_formula_sum   'Nd3 Sm9 Si14 Br6'
_cell_volume   771.39085022
_cell_formula_units_Z   1
loop_
 _symmetry_equiv_pos_site_id
 _symmetry_equiv_pos_as_xyz
  1  'x, y, z'
loop_
 _atom_site_type_symbol
 _atom_site_label
 _atom_site_symmetry_multiplicity
 _atom_site_fract_x
 _atom_site_fract_y
 _atom_site_fract_z
 _atom_site_occupancy
  Nd  Nd0  1  0.000000  0.935327  0.621137  1
  Nd  Nd1  1  0.500000  0.064463  0.119642  1
  Nd  Nd2  1  0.000000  0.935111  0.379857  1
  Sm  Sm3  1  0.500000  0.343122  0.499599  1
  Sm  Sm4  1  0.000000  0.657312  0.000118  1
  Sm  Sm5  1  0.500000  0.360767  0.757321  1
  Sm  Sm6  1  0.000000  0.639592  0.743047  1
  Sm  Sm7  1  0.500000  0.360885  0.241706  1
  Sm  Sm8  1  0.000000  0.638581  0.257634  1
  Sm  Sm9  1  0.500000  0.066622  0.880129  1
  Sm  Sm10  1  0.500000  0.355902  0.999435  1
  Sm  Sm11  1  0.000000  0.643134  0.500216  1
  Si  Si12  1  0.000000  0.150649  0.999117  1
  Si  Si13  1  0.500000  0.848012  0.500420  1
  Si  Si14  1  0.500000  0.570189  0.876320  1
  Si  Si15  1  0.000000  0.429705  0.623922  1
  Si  Si16  1  0.500000  0.570463  0.123501  1
  Si  Si17  1  0.000000  0.429103  0.375817  1
  Si  Si18  1  0.000000  0.253108  0.871937  1
  Si  Si19  1  0.500000  0.745872  0.627871  1
  Si  Si20  1  0.000000  0.253714  0.126719  1
  Si  Si21  1  0.500000  0.745621  0.372806  1
  Si  Si22  1  0.000000  0.458779  0.876907  1
  Si  Si23  1  0.500000  0.540931  0.623185  1
  Si  Si24  1  0.500000  0.540473  0.377217  1
  Si  Si25  1  0.000000  0.459021  0.122236  1
  Br  Br26  1  0.500000  0.111976  0.694624  1
  Br  Br27  1  0.000000  0.890852  0.808687  1
  Br  Br28  1  0.000000  0.142091  0.501008  1
  Br  Br29  1  0.500000  0.859173  0.998147  1
  Br  Br30  1  0.500000  0.113241  0.307310  1
  Br  Br31  1  0.000000  0.886208  0.192408  1
