# generated using pymatgen
data_SrAcZn8
_symmetry_space_group_name_H-M   'P 1'
_cell_length_a   6.24448298
_cell_length_b   6.24448403
_cell_length_c   6.16318600
_cell_angle_alpha   90.00000000
_cell_angle_beta   90.00000000
_cell_angle_gamma   119.80839865
_symmetry_Int_Tables_number   1
_chemical_formula_structural   SrAcZn8
_chemical_formula_sum   'Sr1 Ac1 Zn8'
_cell_volume   208.52791995
_cell_formula_units_Z   1
loop_
 _symmetry_equiv_pos_site_id
 _symmetry_equiv_pos_as_xyz
  1  'x, y, z'
loop_
 _atom_site_type_symbol
 _atom_site_label
 _atom_site_symmetry_multiplicity
 _atom_site_fract_x
 _atom_site_fract_y
 _atom_site_fract_z
 _atom_site_occupancy
  Sr  Sr0  1  0.734830  0.265170  0.250000  1
  Ac  Ac1  1  0.263152  0.736848  0.750000  1
  Zn  Zn2  1  0.854081  0.145919  0.750000  1
  Zn  Zn3  1  0.149486  0.850514  0.250000  1
  Zn  Zn4  1  0.609770  0.390230  0.750000  1
  Zn  Zn5  1  0.388534  0.611466  0.250000  1
  Zn  Zn6  1  0.783223  0.783150  0.005347  1
  Zn  Zn7  1  0.783223  0.783150  0.494653  1
  Zn  Zn8  1  0.216850  0.216777  0.005347  1
  Zn  Zn9  1  0.216850  0.216777  0.494653  1
