# generated using pymatgen
data_Y2Ho6Re(B8Ru)3
_symmetry_space_group_name_H-M   'P 1'
_cell_length_a   3.66219300
_cell_length_b   9.13384672
_cell_length_c   11.52052500
_cell_angle_alpha   90.12876657
_cell_angle_beta   90.00000000
_cell_angle_gamma   90.00000000
_symmetry_Int_Tables_number   1
_chemical_formula_structural   Y2Ho6Re(B8Ru)3
_chemical_formula_sum   'Y2 Ho6 Re1 B24 Ru3'
_cell_volume   385.35954570
_cell_formula_units_Z   1
loop_
 _symmetry_equiv_pos_site_id
 _symmetry_equiv_pos_as_xyz
  1  'x, y, z'
loop_
 _atom_site_type_symbol
 _atom_site_label
 _atom_site_symmetry_multiplicity
 _atom_site_fract_x
 _atom_site_fract_y
 _atom_site_fract_z
 _atom_site_occupancy
  Y  Y0  1  0.000000  0.322855  0.415096  1
  Y  Y1  1  0.000000  0.680087  0.587983  1
  Ho  Ho2  1  0.000000  0.822788  0.083424  1
  Ho  Ho3  1  0.000000  0.176136  0.913502  1
  Ho  Ho4  1  0.000000  0.943047  0.370902  1
  Ho  Ho5  1  0.000000  0.056547  0.627833  1
  Ho  Ho6  1  0.000000  0.442568  0.128542  1
  Ho  Ho7  1  0.000000  0.555962  0.872533  1
  Re  Re8  1  0.000000  0.862587  0.821442  1
  B  B9  1  0.500000  0.554204  0.433051  1
  B  B10  1  0.500000  0.446111  0.567306  1
  B  B11  1  0.500000  0.053721  0.067412  1
  B  B12  1  0.500000  0.947151  0.933316  1
  B  B13  1  0.500000  0.748530  0.419170  1
  B  B14  1  0.500000  0.251848  0.580597  1
  B  B15  1  0.500000  0.248056  0.080672  1
  B  B16  1  0.500000  0.751318  0.919434  1
  B  B17  1  0.500000  0.790326  0.265697  1
  B  B18  1  0.500000  0.209208  0.733336  1
  B  B19  1  0.500000  0.290634  0.234041  1
  B  B20  1  0.500000  0.708445  0.766096  1
  B  B21  1  0.500000  0.631019  0.185176  1
  B  B22  1  0.500000  0.368263  0.814493  1
  B  B23  1  0.500000  0.131531  0.314737  1
  B  B24  1  0.500000  0.869034  0.685525  1
  B  B25  1  0.500000  0.983389  0.212371  1
  B  B26  1  0.500000  0.017977  0.787409  1
  B  B27  1  0.500000  0.483460  0.287848  1
  B  B28  1  0.500000  0.516478  0.712805  1
  B  B29  1  0.500000  0.605523  0.030015  1
  B  B30  1  0.500000  0.392381  0.970851  1
  B  B31  1  0.500000  0.107023  0.469910  1
  B  B32  1  0.500000  0.893888  0.528651  1
  Ru  Ru33  1  0.000000  0.637950  0.320847  1
  Ru  Ru34  1  0.000000  0.362164  0.678764  1
  Ru  Ru35  1  0.000000  0.137790  0.179213  1
