# generated using pymatgen
data_Nd4Gd6CoRh3
_symmetry_space_group_name_H-M   'P 1'
_cell_length_a   8.90191637
_cell_length_b   8.94863251
_cell_length_c   7.07849300
_cell_angle_alpha   84.12311830
_cell_angle_beta   84.23572133
_cell_angle_gamma   42.54513724
_symmetry_Int_Tables_number   1
_chemical_formula_structural   Nd4Gd6CoRh3
_chemical_formula_sum   'Nd4 Gd6 Co1 Rh3'
_cell_volume   379.00823651
_cell_formula_units_Z   1
loop_
 _symmetry_equiv_pos_site_id
 _symmetry_equiv_pos_as_xyz
  1  'x, y, z'
loop_
 _atom_site_type_symbol
 _atom_site_label
 _atom_site_symmetry_multiplicity
 _atom_site_fract_x
 _atom_site_fract_y
 _atom_site_fract_z
 _atom_site_occupancy
  Nd  Nd0  1  0.004925  0.805096  0.922635  1
  Nd  Nd1  1  0.207036  0.981822  0.576141  1
  Nd  Nd2  1  0.984216  0.207776  0.075417  1
  Nd  Nd3  1  0.787988  0.021246  0.412159  1
  Gd  Gd4  1  0.361348  0.212622  0.823563  1
  Gd  Gd5  1  0.789981  0.644123  0.684519  1
  Gd  Gd6  1  0.645129  0.787925  0.185793  1
  Gd  Gd7  1  0.218913  0.350429  0.313858  1
  Gd  Gd8  1  0.573500  0.422802  0.754438  1
  Gd  Gd9  1  0.426863  0.569781  0.247375  1
  Co  Co10  1  0.585418  0.188927  0.077836  1
  Rh  Rh11  1  0.187838  0.587819  0.573391  1
  Rh  Rh12  1  0.419008  0.804490  0.925538  1
  Rh  Rh13  1  0.807836  0.415143  0.427336  1
