# generated using pymatgen
data_Ca3La(Nd4Ga3)4
_symmetry_space_group_name_H-M   'P 1'
_cell_length_a   7.94446300
_cell_length_b   7.94446300
_cell_length_c   14.63750600
_cell_angle_alpha   90.00000000
_cell_angle_beta   90.00000000
_cell_angle_gamma   90.00000000
_symmetry_Int_Tables_number   1
_chemical_formula_structural   Ca3La(Nd4Ga3)4
_chemical_formula_sum   'Ca3 La1 Nd16 Ga12'
_cell_volume   923.83876058
_cell_formula_units_Z   1
loop_
 _symmetry_equiv_pos_site_id
 _symmetry_equiv_pos_as_xyz
  1  'x, y, z'
loop_
 _atom_site_type_symbol
 _atom_site_label
 _atom_site_symmetry_multiplicity
 _atom_site_fract_x
 _atom_site_fract_y
 _atom_site_fract_z
 _atom_site_occupancy
  Ca  Ca0  1  0.000000  0.500000  0.736350  1
  Ca  Ca1  1  0.000000  0.500000  0.239231  1
  Ca  Ca2  1  0.500000  0.000000  0.256500  1
  La  La3  1  0.500000  0.000000  0.784575  1
  Nd  Nd4  1  0.818962  0.833694  0.603009  1
  Nd  Nd5  1  0.176569  0.833668  0.101340  1
  Nd  Nd6  1  0.167401  0.822000  0.396188  1
  Nd  Nd7  1  0.832599  0.178000  0.396188  1
  Nd  Nd8  1  0.678000  0.667401  0.396188  1
  Nd  Nd9  1  0.666306  0.318962  0.603009  1
  Nd  Nd10  1  0.333694  0.681038  0.603009  1
  Nd  Nd11  1  0.666332  0.676569  0.101340  1
  Nd  Nd12  1  0.678663  0.339869  0.897673  1
  Nd  Nd13  1  0.839869  0.821337  0.897673  1
  Nd  Nd14  1  0.322000  0.332599  0.396188  1
  Nd  Nd15  1  0.181038  0.166306  0.603009  1
  Nd  Nd16  1  0.823431  0.166332  0.101340  1
  Nd  Nd17  1  0.321337  0.660131  0.897673  1
  Nd  Nd18  1  0.333668  0.323431  0.101340  1
  Nd  Nd19  1  0.160131  0.178663  0.897673  1
  Ga  Ga20  1  0.617692  0.382723  0.249230  1
  Ga  Ga21  1  0.118052  0.882533  0.748476  1
  Ga  Ga22  1  0.382533  0.381948  0.748476  1
  Ga  Ga23  1  0.382308  0.617277  0.249230  1
  Ga  Ga24  1  0.882723  0.882308  0.249230  1
  Ga  Ga25  1  0.617467  0.618052  0.748476  1
  Ga  Ga26  1  0.000000  0.500000  0.503358  1
  Ga  Ga27  1  0.881948  0.117467  0.748476  1
  Ga  Ga28  1  0.500000  0.000000  0.492349  1
  Ga  Ga29  1  0.500000  0.000000  0.000764  1
  Ga  Ga30  1  0.117277  0.117692  0.249230  1
  Ga  Ga31  1  0.000000  0.500000  0.003214  1
