# generated using pymatgen
data_Nd16Cd4CoPdPt2
_symmetry_space_group_name_H-M   'P 1'
_cell_length_a   9.96902997
_cell_length_b   9.96902945
_cell_length_c   9.95997550
_cell_angle_alpha   60.08130730
_cell_angle_beta   60.08130529
_cell_angle_gamma   60.12915512
_symmetry_Int_Tables_number   1
_chemical_formula_structural   Nd16Cd4CoPdPt2
_chemical_formula_sum   'Nd16 Cd4 Co1 Pd1 Pt2'
_cell_volume   701.46312226
_cell_formula_units_Z   1
loop_
 _symmetry_equiv_pos_site_id
 _symmetry_equiv_pos_as_xyz
  1  'x, y, z'
loop_
 _atom_site_type_symbol
 _atom_site_label
 _atom_site_symmetry_multiplicity
 _atom_site_fract_x
 _atom_site_fract_y
 _atom_site_fract_z
 _atom_site_occupancy
  Nd  Nd0  1  0.351580  0.351580  0.350288  1
  Nd  Nd1  1  0.345533  0.345533  0.952891  1
  Nd  Nd2  1  0.346322  0.951450  0.344680  1
  Nd  Nd3  1  0.951450  0.346322  0.344680  1
  Nd  Nd4  1  0.819708  0.189643  0.189117  1
  Nd  Nd5  1  0.190582  0.807671  0.809664  1
  Nd  Nd6  1  0.189643  0.819708  0.189117  1
  Nd  Nd7  1  0.807671  0.190582  0.809664  1
  Nd  Nd8  1  0.189675  0.189675  0.821209  1
  Nd  Nd9  1  0.808783  0.808783  0.190152  1
  Nd  Nd10  1  0.938081  0.563503  0.562014  1
  Nd  Nd11  1  0.562678  0.935598  0.935357  1
  Nd  Nd12  1  0.563503  0.938081  0.562014  1
  Nd  Nd13  1  0.935598  0.562678  0.935357  1
  Nd  Nd14  1  0.562361  0.562361  0.937985  1
  Nd  Nd15  1  0.935308  0.935308  0.562065  1
  Cd  Cd16  1  0.579875  0.579875  0.579899  1
  Cd  Cd17  1  0.581174  0.581174  0.257904  1
  Cd  Cd18  1  0.581001  0.258031  0.581234  1
  Cd  Cd19  1  0.258031  0.581001  0.581234  1
  Co  Co20  1  0.142699  0.142699  0.142935  1
  Pd  Pd21  1  0.143720  0.143720  0.571454  1
  Pt  Pt22  1  0.143646  0.571375  0.144540  1
  Pt  Pt23  1  0.571375  0.143646  0.144540  1
