# generated using pymatgen
data_Er4Sc(SiHg)2
_symmetry_space_group_name_H-M   'P 1'
_cell_length_a   8.68509790
_cell_length_b   8.68509774
_cell_length_c   7.35806500
_cell_angle_alpha   90.00000000
_cell_angle_beta   90.00000000
_cell_angle_gamma   129.97774425
_symmetry_Int_Tables_number   1
_chemical_formula_structural   Er4Sc(SiHg)2
_chemical_formula_sum   'Er8 Sc2 Si4 Hg4'
_cell_volume   425.31285730
_cell_formula_units_Z   2
loop_
 _symmetry_equiv_pos_site_id
 _symmetry_equiv_pos_as_xyz
  1  'x, y, z'
loop_
 _atom_site_type_symbol
 _atom_site_label
 _atom_site_symmetry_multiplicity
 _atom_site_fract_x
 _atom_site_fract_y
 _atom_site_fract_z
 _atom_site_occupancy
  Er  Er0  1  0.053579  0.307387  0.324883  1
  Er  Er1  1  0.946421  0.692613  0.675117  1
  Er  Er2  1  0.446421  0.192613  0.824883  1
  Er  Er3  1  0.807387  0.553579  0.175117  1
  Er  Er4  1  0.553579  0.807387  0.175117  1
  Er  Er5  1  0.192613  0.446421  0.824883  1
  Er  Er6  1  0.692613  0.946421  0.675117  1
  Er  Er7  1  0.307387  0.053579  0.324883  1
  Sc  Sc8  1  0.000000  0.000000  0.000000  1
  Sc  Sc9  1  0.500000  0.500000  0.500000  1
  Si  Si10  1  0.377288  0.377288  0.125432  1
  Si  Si11  1  0.622712  0.622712  0.874568  1
  Si  Si12  1  0.122712  0.122712  0.625432  1
  Si  Si13  1  0.877288  0.877288  0.374568  1
  Hg  Hg14  1  0.783222  0.216778  0.000000  1
  Hg  Hg15  1  0.216779  0.783222  0.000000  1
  Hg  Hg16  1  0.716778  0.283222  0.500000  1
  Hg  Hg17  1  0.283222  0.716778  0.500000  1
