# generated using pymatgen
data_Ho5CoPd2
_symmetry_space_group_name_H-M   'P 1'
_cell_length_a   7.82738200
_cell_length_b   8.22182700
_cell_length_c   11.72100500
_cell_angle_alpha   90.00000000
_cell_angle_beta   90.00000000
_cell_angle_gamma   90.00000000
_symmetry_Int_Tables_number   1
_chemical_formula_structural   Ho5CoPd2
_chemical_formula_sum   'Ho20 Co4 Pd8'
_cell_volume   754.30973857
_cell_formula_units_Z   4
loop_
 _symmetry_equiv_pos_site_id
 _symmetry_equiv_pos_as_xyz
  1  'x, y, z'
loop_
 _atom_site_type_symbol
 _atom_site_label
 _atom_site_symmetry_multiplicity
 _atom_site_fract_x
 _atom_site_fract_y
 _atom_site_fract_z
 _atom_site_occupancy
  Ho  Ho0  1  0.164490  0.750000  0.214056  1
  Ho  Ho1  1  0.664490  0.250000  0.285944  1
  Ho  Ho2  1  0.835510  0.250000  0.785944  1
  Ho  Ho3  1  0.335510  0.750000  0.714056  1
  Ho  Ho4  1  0.462040  0.750000  0.003855  1
  Ho  Ho5  1  0.962040  0.250000  0.496145  1
  Ho  Ho6  1  0.537960  0.250000  0.996145  1
  Ho  Ho7  1  0.037960  0.750000  0.503855  1
  Ho  Ho8  1  0.629800  0.750000  0.305872  1
  Ho  Ho9  1  0.129800  0.250000  0.194128  1
  Ho  Ho10  1  0.370200  0.250000  0.694128  1
  Ho  Ho11  1  0.870200  0.750000  0.805872  1
  Ho  Ho12  1  0.828027  0.965916  0.080905  1
  Ho  Ho13  1  0.328027  0.034084  0.419095  1
  Ho  Ho14  1  0.171973  0.465916  0.919095  1
  Ho  Ho15  1  0.671973  0.534084  0.580905  1
  Ho  Ho16  1  0.171973  0.034084  0.919095  1
  Ho  Ho17  1  0.671973  0.965916  0.580905  1
  Ho  Ho18  1  0.828027  0.534084  0.080905  1
  Ho  Ho19  1  0.328027  0.465916  0.419095  1
  Co  Co20  1  0.436694  0.750000  0.495400  1
  Co  Co21  1  0.936694  0.250000  0.004600  1
  Co  Co22  1  0.563306  0.250000  0.504600  1
  Co  Co23  1  0.063306  0.750000  0.995400  1
  Pd  Pd24  1  0.935177  0.983056  0.329476  1
  Pd  Pd25  1  0.435177  0.016944  0.170524  1
  Pd  Pd26  1  0.064823  0.483056  0.670524  1
  Pd  Pd27  1  0.564823  0.516944  0.829476  1
  Pd  Pd28  1  0.064823  0.016944  0.670524  1
  Pd  Pd29  1  0.564823  0.983056  0.829476  1
  Pd  Pd30  1  0.935177  0.516944  0.329476  1
  Pd  Pd31  1  0.435177  0.483056  0.170524  1
