# generated using pymatgen
data_Pr3Al12Os3Au
_symmetry_space_group_name_H-M   'P 1'
_cell_length_a   9.01511915
_cell_length_b   8.97663256
_cell_length_c   9.73066523
_cell_angle_alpha   90.00000149
_cell_angle_beta   89.82328988
_cell_angle_gamma   119.85887827
_symmetry_Int_Tables_number   1
_chemical_formula_structural   Pr3Al12Os3Au
_chemical_formula_sum   'Pr6 Al24 Os6 Au2'
_cell_volume   682.92209599
_cell_formula_units_Z   2
loop_
 _symmetry_equiv_pos_site_id
 _symmetry_equiv_pos_as_xyz
  1  'x, y, z'
loop_
 _atom_site_type_symbol
 _atom_site_label
 _atom_site_symmetry_multiplicity
 _atom_site_fract_x
 _atom_site_fract_y
 _atom_site_fract_z
 _atom_site_occupancy
  Pr  Pr0  1  0.190564  0.382546  0.253417  1
  Pr  Pr1  1  0.809436  0.617454  0.746583  1
  Pr  Pr2  1  0.619867  0.809933  0.247527  1
  Pr  Pr3  1  0.380133  0.190067  0.752473  1
  Pr  Pr4  1  0.190564  0.808018  0.253417  1
  Pr  Pr5  1  0.809436  0.191982  0.746583  1
  Al  Al6  1  0.322321  0.661161  0.019247  1
  Al  Al7  1  0.677679  0.338839  0.980753  1
  Al  Al8  1  0.666037  0.333018  0.519740  1
  Al  Al9  1  0.333963  0.666982  0.480260  1
  Al  Al10  1  0.164255  0.328352  0.573377  1
  Al  Al11  1  0.835745  0.671648  0.426623  1
  Al  Al12  1  0.671333  0.835666  0.568441  1
  Al  Al13  1  0.849099  0.676458  0.079353  1
  Al  Al14  1  0.328667  0.164334  0.431559  1
  Al  Al15  1  0.150901  0.323542  0.920647  1
  Al  Al16  1  0.164255  0.835903  0.573377  1
  Al  Al17  1  0.319178  0.159589  0.081872  1
  Al  Al18  1  0.835745  0.164097  0.426623  1
  Al  Al19  1  0.680822  0.840411  0.918128  1
  Al  Al20  1  0.849099  0.172642  0.079353  1
  Al  Al21  1  0.150901  0.827358  0.920647  1
  Al  Al22  1  0.566002  0.129223  0.257061  1
  Al  Al23  1  0.433998  0.870777  0.742939  1
  Al  Al24  1  0.876768  0.438384  0.250255  1
  Al  Al25  1  0.123232  0.561616  0.749745  1
  Al  Al26  1  0.566002  0.436779  0.257061  1
  Al  Al27  1  0.433998  0.563221  0.742939  1
  Al  Al28  1  0.997569  0.998785  0.251159  1
  Al  Al29  1  0.002431  0.001215  0.748841  1
  Os  Os30  1  0.000000  0.500000  0.000000  1
  Os  Os31  1  0.500000  0.000000  0.500000  1
  Os  Os32  1  0.000000  0.500000  0.500000  1
  Os  Os33  1  0.500000  0.500000  0.500000  1
  Os  Os34  1  0.000000  0.000000  0.000000  1
  Os  Os35  1  0.000000  0.000000  0.500000  1
  Au  Au36  1  0.500000  0.000000  0.000000  1
  Au  Au37  1  0.500000  0.500000  0.000000  1
