# generated using pymatgen
data_Y9HoIn6
_symmetry_space_group_name_H-M   'P 1'
_cell_length_a   6.04574948
_cell_length_b   9.19250143
_cell_length_c   9.19250100
_cell_angle_alpha   83.79208295
_cell_angle_beta   70.80152893
_cell_angle_gamma   70.80153264
_symmetry_Int_Tables_number   1
_chemical_formula_structural   Y9HoIn6
_chemical_formula_sum   'Y9 Ho1 In6'
_cell_volume   455.63370549
_cell_formula_units_Z   1
loop_
 _symmetry_equiv_pos_site_id
 _symmetry_equiv_pos_as_xyz
  1  'x, y, z'
loop_
 _atom_site_type_symbol
 _atom_site_label
 _atom_site_symmetry_multiplicity
 _atom_site_fract_x
 _atom_site_fract_y
 _atom_site_fract_z
 _atom_site_occupancy
  Y  Y0  1  0.719070  0.862439  0.699347  1
  Y  Y1  1  0.280894  0.137573  0.300648  1
  Y  Y2  1  0.780930  0.300653  0.137561  1
  Y  Y3  1  0.219106  0.699352  0.862427  1
  Y  Y4  1  0.581150  0.699406  0.137536  1
  Y  Y5  1  0.418954  0.300597  0.862447  1
  Y  Y6  1  0.081046  0.137553  0.699403  1
  Y  Y7  1  0.918850  0.862464  0.300594  1
  Y  Y8  1  0.750000  0.499956  0.500044  1
  Ho  Ho9  1  0.250000  0.500041  0.499959  1
  In  In10  1  0.162058  0.500078  0.176226  1
  In  In11  1  0.838603  0.499893  0.823761  1
  In  In12  1  0.337942  0.823774  0.499922  1
  In  In13  1  0.661397  0.176239  0.500107  1
  In  In14  1  0.250000  0.999826  0.000174  1
  In  In15  1  0.750000  0.000156  0.999844  1
