# generated using pymatgen
data_V4Co2PtS12
_symmetry_space_group_name_H-M   'P 1'
_cell_length_a   6.78238578
_cell_length_b   6.78238572
_cell_length_c   18.21659050
_cell_angle_alpha   69.77768963
_cell_angle_beta   69.77769041
_cell_angle_gamma   26.93000069
_symmetry_Int_Tables_number   1
_chemical_formula_structural   V4Co2PtS12
_chemical_formula_sum   'V4 Co2 Pt1 S12'
_cell_volume   354.73894773
_cell_formula_units_Z   1
loop_
 _symmetry_equiv_pos_site_id
 _symmetry_equiv_pos_as_xyz
  1  'x, y, z'
loop_
 _atom_site_type_symbol
 _atom_site_label
 _atom_site_symmetry_multiplicity
 _atom_site_fract_x
 _atom_site_fract_y
 _atom_site_fract_z
 _atom_site_occupancy
  V  V0  1  0.625998  0.625998  0.845827  1
  V  V1  1  0.374002  0.374002  0.154173  1
  V  V2  1  0.744684  0.744684  0.589365  1
  V  V3  1  0.255316  0.255316  0.410635  1
  Co  Co4  1  0.234588  0.234588  0.713909  1
  Co  Co5  1  0.765412  0.765412  0.286091  1
  Pt  Pt6  1  0.000000  0.000000  0.000000  1
  S  S7  1  0.983313  0.983313  0.876438  1
  S  S8  1  0.016687  0.016687  0.123562  1
  S  S9  1  0.632293  0.632293  0.399036  1
  S  S10  1  0.367707  0.367707  0.600964  1
  S  S11  1  0.141131  0.141131  0.548145  1
  S  S12  1  0.858869  0.858869  0.451855  1
  S  S13  1  0.805317  0.805317  0.764943  1
  S  S14  1  0.194683  0.194683  0.235057  1
  S  S15  1  0.184123  0.184123  0.920285  1
  S  S16  1  0.815877  0.815877  0.079715  1
  S  S17  1  0.613449  0.613449  0.715666  1
  S  S18  1  0.386551  0.386551  0.284334  1
