# generated using pymatgen
data_ScTi5(SiRu2)6
_symmetry_space_group_name_H-M   'P 1'
_cell_length_a   4.26286903
_cell_length_b   6.03586204
_cell_length_c   12.77778800
_cell_angle_alpha   89.99983392
_cell_angle_beta   90.00123257
_cell_angle_gamma   89.98712597
_symmetry_Int_Tables_number   1
_chemical_formula_structural   ScTi5(SiRu2)6
_chemical_formula_sum   'Sc1 Ti5 Si6 Ru12'
_cell_volume   328.77361838
_cell_formula_units_Z   1
loop_
 _symmetry_equiv_pos_site_id
 _symmetry_equiv_pos_as_xyz
  1  'x, y, z'
loop_
 _atom_site_type_symbol
 _atom_site_label
 _atom_site_symmetry_multiplicity
 _atom_site_fract_x
 _atom_site_fract_y
 _atom_site_fract_z
 _atom_site_occupancy
  Sc  Sc0  1  0.000000  0.500000  0.000000  1
  Ti  Ti1  1  0.499867  0.000001  0.167312  1
  Ti  Ti2  1  0.999862  0.499999  0.333783  1
  Ti  Ti3  1  0.500000  0.000000  0.500000  1
  Ti  Ti4  1  0.000138  0.500001  0.666218  1
  Ti  Ti5  1  0.500134  0.999999  0.832689  1
  Si  Si6  1  0.000000  0.000000  0.000000  1
  Si  Si7  1  0.499876  0.500002  0.166993  1
  Si  Si8  1  0.999839  0.000001  0.333631  1
  Si  Si9  1  0.500000  0.500000  0.500000  1
  Si  Si10  1  0.000161  0.999999  0.666368  1
  Si  Si11  1  0.500124  0.499998  0.833007  1
  Ru  Ru12  1  0.499911  0.242292  0.000000  1
  Ru  Ru13  1  0.500089  0.757709  0.000000  1
  Ru  Ru14  1  0.999950  0.247012  0.170695  1
  Ru  Ru15  1  0.999826  0.752992  0.170698  1
  Ru  Ru16  1  0.499825  0.250554  0.334830  1
  Ru  Ru17  1  0.499924  0.749459  0.334831  1
  Ru  Ru18  1  0.000112  0.249558  0.499999  1
  Ru  Ru19  1  0.999888  0.750442  0.500001  1
  Ru  Ru20  1  0.500077  0.250541  0.665168  1
  Ru  Ru21  1  0.500176  0.749446  0.665169  1
  Ru  Ru22  1  0.000172  0.247009  0.829303  1
  Ru  Ru23  1  0.000048  0.752989  0.829306  1
