# generated using pymatgen
data_Y10Si16Au
_symmetry_space_group_name_H-M   'P 1'
_cell_length_a   11.13936702
_cell_length_b   11.13589822
_cell_length_c   11.13936516
_cell_angle_alpha   144.65827370
_cell_angle_beta   136.41822748
_cell_angle_gamma   57.31487340
_symmetry_Int_Tables_number   1
_chemical_formula_structural   Y10Si16Au
_chemical_formula_sum   'Y10 Si16 Au1'
_cell_volume   546.53042349
_cell_formula_units_Z   1
loop_
 _symmetry_equiv_pos_site_id
 _symmetry_equiv_pos_as_xyz
  1  'x, y, z'
loop_
 _atom_site_type_symbol
 _atom_site_label
 _atom_site_symmetry_multiplicity
 _atom_site_fract_x
 _atom_site_fract_y
 _atom_site_fract_z
 _atom_site_occupancy
  Y  Y0  1  0.755047  0.755045  0.501981  1
  Y  Y1  1  0.455596  0.962871  0.010589  1
  Y  Y2  1  0.855413  0.359621  0.014253  1
  Y  Y3  1  0.952282  0.962871  0.507275  1
  Y  Y4  1  0.154363  0.168431  0.516991  1
  Y  Y5  1  0.345368  0.359621  0.504207  1
  Y  Y6  1  0.253063  0.755045  0.999999  1
  Y  Y7  1  0.550227  0.565471  0.502365  1
  Y  Y8  1  0.063104  0.565471  0.015244  1
  Y  Y9  1  0.651439  0.168431  0.014067  1
  Si  Si10  1  0.202938  0.584545  0.381606  1
  Si  Si11  1  0.996066  0.062164  0.066099  1
  Si  Si12  1  0.699772  0.276930  0.577158  1
  Si  Si13  1  0.807118  0.223558  0.416440  1
  Si  Si14  1  0.903417  0.545639  0.642222  1
  Si  Si15  1  0.417165  0.864879  0.447715  1
  Si  Si16  1  0.105484  0.705619  0.600135  1
  Si  Si17  1  0.303504  0.897893  0.594388  1
  Si  Si18  1  0.584390  0.037978  0.453587  1
  Si  Si19  1  0.000651  0.421190  0.420538  1
  Si  Si20  1  0.824130  0.889454  0.065326  1
  Si  Si21  1  0.403370  0.494638  0.091267  1
  Si  Si22  1  0.117904  0.070838  0.952935  1
  Si  Si23  1  0.289219  0.237942  0.948725  1
  Si  Si24  1  0.503030  0.387342  0.884313  1
  Si  Si25  1  0.599080  0.700338  0.101258  1
  Au  Au26  1  0.706863  0.637677  0.930815  1
