# generated using pymatgen
data_Dy3Y17Ir11Os
_symmetry_space_group_name_H-M   'P 1'
_cell_length_a   10.90505000
_cell_length_b   10.90478100
_cell_length_c   6.41206500
_cell_angle_alpha   90.00000000
_cell_angle_beta   90.00000000
_cell_angle_gamma   90.00019966
_symmetry_Int_Tables_number   1
_chemical_formula_structural   Dy3Y17Ir11Os
_chemical_formula_sum   'Dy3 Y17 Ir11 Os1'
_cell_volume   762.50470088
_cell_formula_units_Z   1
loop_
 _symmetry_equiv_pos_site_id
 _symmetry_equiv_pos_as_xyz
  1  'x, y, z'
loop_
 _atom_site_type_symbol
 _atom_site_label
 _atom_site_symmetry_multiplicity
 _atom_site_fract_x
 _atom_site_fract_y
 _atom_site_fract_z
 _atom_site_occupancy
  Dy  Dy0  1  0.000000  0.000000  0.999257  1
  Dy  Dy1  1  0.500000  0.500000  0.999267  1
  Dy  Dy2  1  0.500000  0.500000  0.499403  1
  Y  Y3  1  0.292629  0.087376  0.376615  1
  Y  Y4  1  0.293098  0.912780  0.880354  1
  Y  Y5  1  0.706902  0.087220  0.880354  1
  Y  Y6  1  0.707371  0.912624  0.376615  1
  Y  Y7  1  0.587205  0.793136  0.880418  1
  Y  Y8  1  0.587360  0.207393  0.376599  1
  Y  Y9  1  0.412640  0.792607  0.376599  1
  Y  Y10  1  0.412795  0.206864  0.880418  1
  Y  Y11  1  0.208888  0.411569  0.621474  1
  Y  Y12  1  0.208796  0.588088  0.121125  1
  Y  Y13  1  0.791204  0.411912  0.121125  1
  Y  Y14  1  0.791112  0.588431  0.621474  1
  Y  Y15  1  0.911892  0.708831  0.121196  1
  Y  Y16  1  0.911552  0.291145  0.621458  1
  Y  Y17  1  0.088448  0.708855  0.621458  1
  Y  Y18  1  0.088108  0.291169  0.121196  1
  Y  Y19  1  0.000000  0.000000  0.499380  1
  Ir  Ir20  1  0.847861  0.153618  0.249591  1
  Ir  Ir21  1  0.847802  0.846723  0.750495  1
  Ir  Ir22  1  0.152198  0.153277  0.750495  1
  Ir  Ir23  1  0.152139  0.846382  0.249591  1
  Ir  Ir24  1  0.652961  0.348155  0.749894  1
  Ir  Ir25  1  0.653256  0.651828  0.250207  1
  Ir  Ir26  1  0.346744  0.348172  0.250207  1
  Ir  Ir27  1  0.347039  0.651845  0.749894  1
  Ir  Ir28  1  0.500000  0.000000  0.624491  1
  Ir  Ir29  1  0.000000  0.500000  0.876311  1
  Ir  Ir30  1  0.000000  0.500000  0.376672  1
  Os  Os31  1  0.500000  0.000000  0.126362  1
