# generated using pymatgen
data_Tm12Al2Fe2Tc
_symmetry_space_group_name_H-M   'P 1'
_cell_length_a   8.16095985
_cell_length_b   8.16099901
_cell_length_c   8.16096129
_cell_angle_alpha   109.12039063
_cell_angle_beta   109.20658406
_cell_angle_gamma   110.08827407
_symmetry_Int_Tables_number   1
_chemical_formula_structural   Tm12Al2Fe2Tc
_chemical_formula_sum   'Tm12 Al2 Fe2 Tc1'
_cell_volume   418.37617720
_cell_formula_units_Z   1
loop_
 _symmetry_equiv_pos_site_id
 _symmetry_equiv_pos_as_xyz
  1  'x, y, z'
loop_
 _atom_site_type_symbol
 _atom_site_label
 _atom_site_symmetry_multiplicity
 _atom_site_fract_x
 _atom_site_fract_y
 _atom_site_fract_z
 _atom_site_occupancy
  Tm  Tm0  1  0.192436  0.435134  0.242698  1
  Tm  Tm1  1  0.807564  0.564866  0.757302  1
  Tm  Tm2  1  0.192435  0.949745  0.757309  1
  Tm  Tm3  1  0.950040  0.192491  0.757525  1
  Tm  Tm4  1  0.807565  0.050255  0.242691  1
  Tm  Tm5  1  0.049960  0.807509  0.242475  1
  Tm  Tm6  1  0.434966  0.192491  0.242453  1
  Tm  Tm7  1  0.565034  0.807509  0.757547  1
  Tm  Tm8  1  0.306892  0.306946  0.613863  1
  Tm  Tm9  1  0.693108  0.693054  0.386137  1
  Tm  Tm10  1  0.693083  0.306946  0.000054  1
  Tm  Tm11  1  0.306917  0.693054  0.999946  1
  Al  Al12  1  0.000000  0.500000  0.500000  1
  Al  Al13  1  0.500000  0.000000  0.500000  1
  Fe  Fe14  1  0.382564  0.382580  0.000016  1
  Fe  Fe15  1  0.617436  0.617420  0.999984  1
  Tc  Tc16  1  0.000000  0.000000  0.000000  1
