# generated using pymatgen
data_SrY3Tc4F28
_symmetry_space_group_name_H-M   'P 1'
_cell_length_a   5.66832737
_cell_length_b   9.04382853
_cell_length_c   12.23166959
_cell_angle_alpha   62.68931638
_cell_angle_beta   89.91133996
_cell_angle_gamma   89.91021170
_symmetry_Int_Tables_number   1
_chemical_formula_structural   SrY3Tc4F28
_chemical_formula_sum   'Sr1 Y3 Tc4 F28'
_cell_volume   557.14108760
_cell_formula_units_Z   1
loop_
 _symmetry_equiv_pos_site_id
 _symmetry_equiv_pos_as_xyz
  1  'x, y, z'
loop_
 _atom_site_type_symbol
 _atom_site_label
 _atom_site_symmetry_multiplicity
 _atom_site_fract_x
 _atom_site_fract_y
 _atom_site_fract_z
 _atom_site_occupancy
  Sr  Sr0  1  0.258663  0.818579  0.265591  1
  Y  Y1  1  0.739903  0.185432  0.735319  1
  Y  Y2  1  0.765182  0.190196  0.234125  1
  Y  Y3  1  0.240823  0.815032  0.765093  1
  Tc  Tc4  1  0.754089  0.724659  0.038393  1
  Tc  Tc5  1  0.239856  0.278525  0.951424  1
  Tc  Tc6  1  0.257892  0.268109  0.459525  1
  Tc  Tc7  1  0.740526  0.722693  0.551092  1
  F  F8  1  0.933898  0.700327  0.431297  1
  F  F9  1  0.052245  0.288521  0.580921  1
  F  F10  1  0.442988  0.298103  0.071388  1
  F  F11  1  0.554628  0.707098  0.913991  1
  F  F12  1  0.475972  0.724265  0.126917  1
  F  F13  1  0.515548  0.271462  0.855407  1
  F  F14  1  0.977364  0.268734  0.366737  1
  F  F15  1  0.019462  0.730950  0.644322  1
  F  F16  1  0.943546  0.739259  0.162586  1
  F  F17  1  0.037150  0.258282  0.827162  1
  F  F18  1  0.462208  0.248269  0.336299  1
  F  F19  1  0.543461  0.744910  0.676406  1
  F  F20  1  0.767834  0.481354  0.134185  1
  F  F21  1  0.229470  0.522049  0.855972  1
  F  F22  1  0.273864  0.504913  0.365392  1
  F  F23  1  0.734533  0.479039  0.646930  1
  F  F24  1  0.955032  0.285832  0.040261  1
  F  F25  1  0.045221  0.720237  0.949515  1
  F  F26  1  0.457290  0.710596  0.470312  1
  F  F27  1  0.543831  0.275093  0.550406  1
  F  F28  1  0.739923  0.962087  0.456271  1
  F  F29  1  0.257479  0.025221  0.555385  1
  F  F30  1  0.241634  0.041327  0.039582  1
  F  F31  1  0.755865  0.967415  0.944741  1
  F  F32  1  0.608459  0.984262  0.227066  1
  F  F33  1  0.424359  0.026269  0.767653  1
  F  F34  1  0.084847  0.055890  0.269351  1
  F  F35  1  0.924955  0.975009  0.732981  1
