# generated using pymatgen
data_DyTm2Sc3FeBi2
_symmetry_space_group_name_H-M   'P 1'
_cell_length_a   7.94428500
_cell_length_b   7.93824185
_cell_length_c   4.14224200
_cell_angle_alpha   90.00000000
_cell_angle_beta   90.00000000
_cell_angle_gamma   120.02518166
_symmetry_Int_Tables_number   1
_chemical_formula_structural   DyTm2Sc3FeBi2
_chemical_formula_sum   'Dy1 Tm2 Sc3 Fe1 Bi2'
_cell_volume   226.16999315
_cell_formula_units_Z   1
loop_
 _symmetry_equiv_pos_site_id
 _symmetry_equiv_pos_as_xyz
  1  'x, y, z'
loop_
 _atom_site_type_symbol
 _atom_site_label
 _atom_site_symmetry_multiplicity
 _atom_site_fract_x
 _atom_site_fract_y
 _atom_site_fract_z
 _atom_site_occupancy
  Dy  Dy0  1  0.614653  0.000000  0.000000  1
  Tm  Tm1  1  0.999750  0.615974  0.000000  1
  Tm  Tm2  1  0.383776  0.384026  0.000000  1
  Sc  Sc3  1  0.222521  0.000000  0.500000  1
  Sc  Sc4  1  0.000780  0.222845  0.500000  1
  Sc  Sc5  1  0.777936  0.777155  0.500000  1
  Fe  Fe6  1  0.001576  0.000000  0.000000  1
  Bi  Bi7  1  0.332220  0.665433  0.500000  1
  Bi  Bi8  1  0.666789  0.334567  0.500000  1
