# generated using pymatgen
data_Tb7Ho3Cd3Rh
_symmetry_space_group_name_H-M   'P 1'
_cell_length_a   9.60133561
_cell_length_b   9.60732384
_cell_length_c   9.83350800
_cell_angle_alpha   90.00000000
_cell_angle_beta   90.02043265
_cell_angle_gamma   120.02063212
_symmetry_Int_Tables_number   1
_chemical_formula_structural   Tb7Ho3Cd3Rh
_chemical_formula_sum   'Tb14 Ho6 Cd6 Rh2'
_cell_volume   785.38539726
_cell_formula_units_Z   2
loop_
 _symmetry_equiv_pos_site_id
 _symmetry_equiv_pos_as_xyz
  1  'x, y, z'
loop_
 _atom_site_type_symbol
 _atom_site_label
 _atom_site_symmetry_multiplicity
 _atom_site_fract_x
 _atom_site_fract_y
 _atom_site_fract_z
 _atom_site_occupancy
  Tb  Tb0  1  0.542632  0.456838  0.248959  1
  Tb  Tb1  1  0.542632  0.085795  0.248959  1
  Tb  Tb2  1  0.914413  0.457206  0.249542  1
  Tb  Tb3  1  0.456624  0.543017  0.751234  1
  Tb  Tb4  1  0.456624  0.913607  0.751234  1
  Tb  Tb5  1  0.086806  0.543402  0.750788  1
  Tb  Tb6  1  0.208680  0.791289  0.438766  1
  Tb  Tb7  1  0.208680  0.417392  0.438766  1
  Tb  Tb8  1  0.582132  0.791067  0.438791  1
  Tb  Tb9  1  0.791413  0.208639  0.560495  1
  Tb  Tb10  1  0.791413  0.582775  0.560495  1
  Tb  Tb11  1  0.417736  0.208867  0.561213  1
  Tb  Tb12  1  0.790665  0.208676  0.939402  1
  Tb  Tb13  1  0.790665  0.581988  0.939402  1
  Ho  Ho14  1  0.000038  0.000019  0.500368  1
  Ho  Ho15  1  0.000640  0.000321  0.000084  1
  Ho  Ho16  1  0.417434  0.208716  0.939554  1
  Ho  Ho17  1  0.209740  0.790711  0.060775  1
  Ho  Ho18  1  0.209740  0.419029  0.060775  1
  Ho  Ho19  1  0.581356  0.790679  0.060880  1
  Cd  Cd20  1  0.885802  0.114177  0.249793  1
  Cd  Cd21  1  0.885802  0.771625  0.249793  1
  Cd  Cd22  1  0.228446  0.114222  0.249637  1
  Cd  Cd23  1  0.114461  0.885911  0.750372  1
  Cd  Cd24  1  0.114461  0.228552  0.750372  1
  Cd  Cd25  1  0.771453  0.885726  0.750281  1
  Rh  Rh26  1  0.333305  0.666653  0.248545  1
  Rh  Rh27  1  0.666209  0.333103  0.750728  1
