# generated using pymatgen
data_Ta8SiB4Mo2As
_symmetry_space_group_name_H-M   'P 1'
_cell_length_a   7.28198256
_cell_length_b   7.28198280
_cell_length_c   7.28196977
_cell_angle_alpha   129.68102168
_cell_angle_beta   129.68101882
_cell_angle_gamma   73.91732145
_symmetry_Int_Tables_number   1
_chemical_formula_structural   Ta8SiB4Mo2As
_chemical_formula_sum   'Ta8 Si1 B4 Mo2 As1'
_cell_volume   223.07736355
_cell_formula_units_Z   1
loop_
 _symmetry_equiv_pos_site_id
 _symmetry_equiv_pos_as_xyz
  1  'x, y, z'
loop_
 _atom_site_type_symbol
 _atom_site_label
 _atom_site_symmetry_multiplicity
 _atom_site_fract_x
 _atom_site_fract_y
 _atom_site_fract_z
 _atom_site_occupancy
  Ta  Ta0  1  0.807154  0.973908  0.504306  1
  Ta  Ta1  1  0.302848  0.807154  0.833245  1
  Ta  Ta2  1  0.197153  0.030399  0.504308  1
  Ta  Ta3  1  0.526092  0.692846  0.495694  1
  Ta  Ta4  1  0.030397  0.526092  0.833245  1
  Ta  Ta5  1  0.692846  0.197152  0.166755  1
  Ta  Ta6  1  0.973908  0.469603  0.166755  1
  Ta  Ta7  1  0.469601  0.302847  0.495692  1
  Si  Si8  1  0.250000  0.250000  0.000000  1
  B  B9  1  0.380378  0.880378  0.260755  1
  B  B10  1  0.880378  0.619622  0.500000  1
  B  B11  1  0.619622  0.119622  0.739245  1
  B  B12  1  0.119622  0.380378  0.500000  1
  Mo  Mo13  1  0.000842  0.000843  0.000001  1
  Mo  Mo14  1  0.499157  0.499158  0.999999  1
  As  As15  1  0.750000  0.750000  0.000000  1
