# generated using pymatgen
data_Tm20IrPt11
_symmetry_space_group_name_H-M   'P 1'
_cell_length_a   10.88056300
_cell_length_b   10.88056300
_cell_length_c   6.39735300
_cell_angle_alpha   90.00000000
_cell_angle_beta   90.00000000
_cell_angle_gamma   90.00000000
_symmetry_Int_Tables_number   1
_chemical_formula_structural   Tm20IrPt11
_chemical_formula_sum   'Tm20 Ir1 Pt11'
_cell_volume   757.36119819
_cell_formula_units_Z   1
loop_
 _symmetry_equiv_pos_site_id
 _symmetry_equiv_pos_as_xyz
  1  'x, y, z'
loop_
 _atom_site_type_symbol
 _atom_site_label
 _atom_site_symmetry_multiplicity
 _atom_site_fract_x
 _atom_site_fract_y
 _atom_site_fract_z
 _atom_site_occupancy
  Tm  Tm0  1  0.292376  0.087645  0.377450  1
  Tm  Tm1  1  0.292343  0.912018  0.876892  1
  Tm  Tm2  1  0.707657  0.087982  0.876892  1
  Tm  Tm3  1  0.707624  0.912355  0.377450  1
  Tm  Tm4  1  0.587982  0.792343  0.876892  1
  Tm  Tm5  1  0.587645  0.207624  0.377450  1
  Tm  Tm6  1  0.412355  0.792376  0.377450  1
  Tm  Tm7  1  0.412018  0.207657  0.876892  1
  Tm  Tm8  1  0.206357  0.412824  0.620421  1
  Tm  Tm9  1  0.206726  0.587237  0.126278  1
  Tm  Tm10  1  0.793274  0.412763  0.126278  1
  Tm  Tm11  1  0.793643  0.587176  0.620421  1
  Tm  Tm12  1  0.912763  0.706726  0.126278  1
  Tm  Tm13  1  0.912824  0.293643  0.620421  1
  Tm  Tm14  1  0.087176  0.706357  0.620421  1
  Tm  Tm15  1  0.087237  0.293274  0.126278  1
  Tm  Tm16  1  0.000000  0.000000  0.500357  1
  Tm  Tm17  1  0.000000  0.000000  0.999930  1
  Tm  Tm18  1  0.500000  0.500000  0.999930  1
  Tm  Tm19  1  0.500000  0.500000  0.500357  1
  Ir  Ir20  1  0.000000  0.500000  0.379963  1
  Pt  Pt21  1  0.845913  0.153237  0.249701  1
  Pt  Pt22  1  0.846140  0.846545  0.749981  1
  Pt  Pt23  1  0.153860  0.153455  0.749981  1
  Pt  Pt24  1  0.154087  0.846763  0.249701  1
  Pt  Pt25  1  0.653455  0.346140  0.749981  1
  Pt  Pt26  1  0.653237  0.654087  0.249701  1
  Pt  Pt27  1  0.346763  0.345913  0.249701  1
  Pt  Pt28  1  0.346545  0.653860  0.749981  1
  Pt  Pt29  1  0.500000  0.000000  0.117920  1
  Pt  Pt30  1  0.500000  0.000000  0.618182  1
  Pt  Pt31  1  0.000000  0.500000  0.880466  1
