# generated using pymatgen
data_Lu4Mg3ZnIr4
_symmetry_space_group_name_H-M   'P 1'
_cell_length_a   4.02277000
_cell_length_b   6.98151512
_cell_length_c   8.33748146
_cell_angle_alpha   89.95518595
_cell_angle_beta   90.00000000
_cell_angle_gamma   90.00000000
_symmetry_Int_Tables_number   1
_chemical_formula_structural   Lu4Mg3ZnIr4
_chemical_formula_sum   'Lu4 Mg3 Zn1 Ir4'
_cell_volume   234.15834176
_cell_formula_units_Z   1
loop_
 _symmetry_equiv_pos_site_id
 _symmetry_equiv_pos_as_xyz
  1  'x, y, z'
loop_
 _atom_site_type_symbol
 _atom_site_label
 _atom_site_symmetry_multiplicity
 _atom_site_fract_x
 _atom_site_fract_y
 _atom_site_fract_z
 _atom_site_occupancy
  Lu  Lu0  1  0.250000  0.539191  0.170479  1
  Lu  Lu1  1  0.750000  0.451845  0.831833  1
  Lu  Lu2  1  0.750000  0.960998  0.676068  1
  Lu  Lu3  1  0.250000  0.042842  0.324689  1
  Mg  Mg4  1  0.250000  0.634601  0.559635  1
  Mg  Mg5  1  0.750000  0.364948  0.440946  1
  Mg  Mg6  1  0.750000  0.870763  0.055289  1
  Zn  Zn7  1  0.250000  0.133737  0.939956  1
  Ir  Ir8  1  0.250000  0.749529  0.869542  1
  Ir  Ir9  1  0.750000  0.249180  0.129068  1
  Ir  Ir10  1  0.750000  0.754959  0.367738  1
  Ir  Ir11  1  0.250000  0.247408  0.634756  1
