# generated using pymatgen
data_Cs6LaYBr12
_symmetry_space_group_name_H-M   'P 1'
_cell_length_a   10.09274913
_cell_length_b   10.10686228
_cell_length_c   8.38745200
_cell_angle_alpha   90.00000000
_cell_angle_beta   90.00000000
_cell_angle_gamma   90.16993949
_symmetry_Int_Tables_number   1
_chemical_formula_structural   Cs6LaYBr12
_chemical_formula_sum   'Cs6 La1 Y1 Br12'
_cell_volume   855.56687900
_cell_formula_units_Z   1
loop_
 _symmetry_equiv_pos_site_id
 _symmetry_equiv_pos_as_xyz
  1  'x, y, z'
loop_
 _atom_site_type_symbol
 _atom_site_label
 _atom_site_symmetry_multiplicity
 _atom_site_fract_x
 _atom_site_fract_y
 _atom_site_fract_z
 _atom_site_occupancy
  Cs  Cs0  1  0.000000  0.000000  0.500000  1
  Cs  Cs1  1  0.000000  0.000000  0.000000  1
  Cs  Cs2  1  0.237182  0.585679  0.500000  1
  Cs  Cs3  1  0.762818  0.414321  0.500000  1
  Cs  Cs4  1  0.414764  0.231761  0.000000  1
  Cs  Cs5  1  0.585236  0.768239  0.000000  1
  La  La6  1  0.000000  0.500000  0.000000  1
  Y  Y7  1  0.500000  0.000000  0.500000  1
  Br  Br8  1  0.690256  0.057419  0.738403  1
  Br  Br9  1  0.309744  0.942581  0.738403  1
  Br  Br10  1  0.939758  0.698830  0.248033  1
  Br  Br11  1  0.060242  0.301170  0.248033  1
  Br  Br12  1  0.309744  0.942581  0.261597  1
  Br  Br13  1  0.690256  0.057419  0.261597  1
  Br  Br14  1  0.060242  0.301170  0.751967  1
  Br  Br15  1  0.939758  0.698830  0.751967  1
  Br  Br16  1  0.568866  0.731523  0.500000  1
  Br  Br17  1  0.431134  0.268477  0.500000  1
  Br  Br18  1  0.281678  0.570493  0.000000  1
  Br  Br19  1  0.718322  0.429507  0.000000  1
