# generated using pymatgen
data_Sc20Si3Bi8As
_symmetry_space_group_name_H-M   'P 1'
_cell_length_a   11.28140211
_cell_length_b   8.70491500
_cell_length_c   7.55881106
_cell_angle_alpha   90.00000000
_cell_angle_beta   90.01546076
_cell_angle_gamma   90.00000000
_symmetry_Int_Tables_number   1
_chemical_formula_structural   Sc20Si3Bi8As
_chemical_formula_sum   'Sc20 Si3 Bi8 As1'
_cell_volume   742.30278229
_cell_formula_units_Z   1
loop_
 _symmetry_equiv_pos_site_id
 _symmetry_equiv_pos_as_xyz
  1  'x, y, z'
loop_
 _atom_site_type_symbol
 _atom_site_label
 _atom_site_symmetry_multiplicity
 _atom_site_fract_x
 _atom_site_fract_y
 _atom_site_fract_z
 _atom_site_occupancy
  Sc  Sc0  1  0.059273  0.556717  0.820191  1
  Sc  Sc1  1  0.560808  0.945133  0.682428  1
  Sc  Sc2  1  0.940724  0.056184  0.179787  1
  Sc  Sc3  1  0.439991  0.439708  0.320181  1
  Sc  Sc4  1  0.940724  0.443816  0.179787  1
  Sc  Sc5  1  0.439991  0.060292  0.320181  1
  Sc  Sc6  1  0.059273  0.943283  0.820191  1
  Sc  Sc7  1  0.560808  0.554867  0.682428  1
  Sc  Sc8  1  0.002101  0.750000  0.461399  1
  Sc  Sc9  1  0.502244  0.750000  0.034860  1
  Sc  Sc10  1  0.998273  0.250000  0.539059  1
  Sc  Sc11  1  0.497722  0.250000  0.961235  1
  Sc  Sc12  1  0.207981  0.750000  0.162927  1
  Sc  Sc13  1  0.714747  0.750000  0.332176  1
  Sc  Sc14  1  0.788196  0.250000  0.833718  1
  Sc  Sc15  1  0.288419  0.250000  0.665982  1
  Sc  Sc16  1  0.291778  0.750000  0.643430  1
  Sc  Sc17  1  0.791949  0.750000  0.857856  1
  Sc  Sc18  1  0.706860  0.250000  0.358503  1
  Sc  Sc19  1  0.207604  0.250000  0.141717  1
  Si  Si20  1  0.973350  0.750000  0.090120  1
  Si  Si21  1  0.523817  0.250000  0.589765  1
  Si  Si22  1  0.024495  0.250000  0.909727  1
  Bi  Bi23  1  0.325238  0.510757  0.933512  1
  Bi  Bi24  1  0.825150  0.989692  0.566633  1
  Bi  Bi25  1  0.674588  0.010776  0.067292  1
  Bi  Bi26  1  0.175328  0.490021  0.433057  1
  Bi  Bi27  1  0.674588  0.489224  0.067292  1
  Bi  Bi28  1  0.175328  0.009979  0.433057  1
  Bi  Bi29  1  0.325238  0.989243  0.933512  1
  Bi  Bi30  1  0.825150  0.510308  0.566633  1
  As  As31  1  0.478268  0.750000  0.411363  1
