# generated using pymatgen
data_Sm2GdMg3Sn2Pt
_symmetry_space_group_name_H-M   'P 1'
_cell_length_a   7.51934300
_cell_length_b   7.51934296
_cell_length_c   4.54951600
_cell_angle_alpha   90.00000000
_cell_angle_beta   90.00000000
_cell_angle_gamma   119.99789724
_symmetry_Int_Tables_number   1
_chemical_formula_structural   Sm2GdMg3Sn2Pt
_chemical_formula_sum   'Sm2 Gd1 Mg3 Sn2 Pt1'
_cell_volume   222.77416250
_cell_formula_units_Z   1
loop_
 _symmetry_equiv_pos_site_id
 _symmetry_equiv_pos_as_xyz
  1  'x, y, z'
loop_
 _atom_site_type_symbol
 _atom_site_label
 _atom_site_symmetry_multiplicity
 _atom_site_fract_x
 _atom_site_fract_y
 _atom_site_fract_z
 _atom_site_occupancy
  Sm  Sm0  1  0.399021  0.999930  0.000000  1
  Sm  Sm1  1  0.999930  0.399021  0.000000  1
  Gd  Gd2  1  0.601231  0.601231  0.000000  1
  Mg  Mg3  1  0.999999  0.770311  0.500000  1
  Mg  Mg4  1  0.229649  0.229649  0.500000  1
  Mg  Mg5  1  0.770311  0.999999  0.500000  1
  Sn  Sn6  1  0.333301  0.666762  0.500000  1
  Sn  Sn7  1  0.666762  0.333301  0.500000  1
  Pt  Pt8  1  0.999796  0.999796  0.000000  1
