# generated using pymatgen
data_KLi4CrTe8
_symmetry_space_group_name_H-M   'P 1'
_cell_length_a   11.66691935
_cell_length_b   11.66691863
_cell_length_c   10.72615368
_cell_angle_alpha   75.34416534
_cell_angle_beta   75.34416580
_cell_angle_gamma   15.20486535
_symmetry_Int_Tables_number   1
_chemical_formula_structural   KLi4CrTe8
_chemical_formula_sum   'K1 Li4 Cr1 Te8'
_cell_volume   370.23418581
_cell_formula_units_Z   1
loop_
 _symmetry_equiv_pos_site_id
 _symmetry_equiv_pos_as_xyz
  1  'x, y, z'
loop_
 _atom_site_type_symbol
 _atom_site_label
 _atom_site_symmetry_multiplicity
 _atom_site_fract_x
 _atom_site_fract_y
 _atom_site_fract_z
 _atom_site_occupancy
  K  K0  1  0.500000  0.500000  0.500000  1
  Li  Li1  1  0.336802  0.336802  0.986272  1
  Li  Li2  1  0.663198  0.663198  0.013728  1
  Li  Li3  1  0.288470  0.288470  0.360850  1
  Li  Li4  1  0.711530  0.711530  0.639150  1
  Cr  Cr5  1  0.000000  0.000000  0.000000  1
  Te  Te6  1  0.583184  0.583184  0.824912  1
  Te  Te7  1  0.416816  0.416816  0.175088  1
  Te  Te8  1  0.069696  0.069696  0.178238  1
  Te  Te9  1  0.930304  0.930304  0.821762  1
  Te  Te10  1  0.151114  0.151114  0.485217  1
  Te  Te11  1  0.848886  0.848886  0.514783  1
  Te  Te12  1  0.253185  0.253185  0.820782  1
  Te  Te13  1  0.746815  0.746815  0.179218  1
