# generated using pymatgen
data_LiMg3(SnPd5)2
_symmetry_space_group_name_H-M   'P 1'
_cell_length_a   4.21296300
_cell_length_b   5.58543538
_cell_length_c   10.94486403
_cell_angle_alpha   90.49674160
_cell_angle_beta   90.00000000
_cell_angle_gamma   90.00000000
_symmetry_Int_Tables_number   1
_chemical_formula_structural   LiMg3(SnPd5)2
_chemical_formula_sum   'Li1 Mg3 Sn2 Pd10'
_cell_volume   257.53646197
_cell_formula_units_Z   1
loop_
 _symmetry_equiv_pos_site_id
 _symmetry_equiv_pos_as_xyz
  1  'x, y, z'
loop_
 _atom_site_type_symbol
 _atom_site_label
 _atom_site_symmetry_multiplicity
 _atom_site_fract_x
 _atom_site_fract_y
 _atom_site_fract_z
 _atom_site_occupancy
  Li  Li0  1  0.500000  0.173946  0.140763  1
  Mg  Mg1  1  0.500000  0.827475  0.860643  1
  Mg  Mg2  1  0.500000  0.326852  0.640393  1
  Mg  Mg3  1  0.500000  0.672872  0.357555  1
  Sn  Sn4  1  0.000000  0.000351  0.498877  1
  Sn  Sn5  1  0.000000  0.493463  0.003993  1
  Pd  Pd6  1  0.500000  0.193807  0.384726  1
  Pd  Pd7  1  0.500000  0.805830  0.612928  1
  Pd  Pd8  1  0.500000  0.306678  0.886469  1
  Pd  Pd9  1  0.500000  0.699897  0.112774  1
  Pd  Pd10  1  0.000000  0.421722  0.244861  1
  Pd  Pd11  1  0.000000  0.576145  0.756264  1
  Pd  Pd12  1  0.000000  0.075067  0.744633  1
  Pd  Pd13  1  0.000000  0.925955  0.254258  1
  Pd  Pd14  1  0.000000  0.999790  0.000981  1
  Pd  Pd15  1  0.000000  0.500150  0.499880  1
