# generated using pymatgen
data_Y4ZnCo
_symmetry_space_group_name_H-M   'P 1'
_cell_length_a   9.41804639
_cell_length_b   9.42327854
_cell_length_c   9.41931101
_cell_angle_alpha   60.01785204
_cell_angle_beta   59.99980612
_cell_angle_gamma   60.01372330
_symmetry_Int_Tables_number   1
_chemical_formula_structural   Y4ZnCo
_chemical_formula_sum   'Y16 Zn4 Co4'
_cell_volume   591.24836039
_cell_formula_units_Z   4
loop_
 _symmetry_equiv_pos_site_id
 _symmetry_equiv_pos_as_xyz
  1  'x, y, z'
loop_
 _atom_site_type_symbol
 _atom_site_label
 _atom_site_symmetry_multiplicity
 _atom_site_fract_x
 _atom_site_fract_y
 _atom_site_fract_z
 _atom_site_occupancy
  Y  Y0  1  0.600574  0.599820  0.600416  1
  Y  Y1  1  0.600572  0.599814  0.199194  1
  Y  Y2  1  0.600263  0.199533  0.600098  1
  Y  Y3  1  0.199114  0.599893  0.600494  1
  Y  Y4  1  0.060141  0.439756  0.439774  1
  Y  Y5  1  0.439859  0.060468  0.059819  1
  Y  Y6  1  0.439856  0.060474  0.439853  1
  Y  Y7  1  0.060137  0.439760  0.060331  1
  Y  Y8  1  0.439798  0.439778  0.060214  1
  Y  Y9  1  0.059756  0.060578  0.439834  1
  Y  Y10  1  0.187119  0.812903  0.812865  1
  Y  Y11  1  0.812894  0.187086  0.187129  1
  Y  Y12  1  0.812892  0.187087  0.812892  1
  Y  Y13  1  0.187120  0.812902  0.187115  1
  Y  Y14  1  0.812862  0.812898  0.187120  1
  Y  Y15  1  0.187132  0.187079  0.812897  1
  Zn  Zn16  1  0.826384  0.826380  0.826379  1
  Zn  Zn17  1  0.826383  0.826377  0.520862  1
  Zn  Zn18  1  0.826387  0.520846  0.826382  1
  Zn  Zn19  1  0.520858  0.826382  0.826380  1
  Co  Co20  1  0.391900  0.391908  0.391898  1
  Co  Co21  1  0.391899  0.391905  0.824294  1
  Co  Co22  1  0.391844  0.824459  0.391846  1
  Co  Co23  1  0.824254  0.391917  0.391914  1
