# generated using pymatgen
data_Yb3Y4Ho(ReC2)4
_symmetry_space_group_name_H-M   'P 1'
_cell_length_a   5.13324900
_cell_length_b   6.55490822
_cell_length_c   10.05265464
_cell_angle_alpha   89.33314003
_cell_angle_beta   90.00000000
_cell_angle_gamma   90.00000000
_symmetry_Int_Tables_number   1
_chemical_formula_structural   Yb3Y4Ho(ReC2)4
_chemical_formula_sum   'Yb3 Y4 Ho1 Re4 C8'
_cell_volume   338.22857238
_cell_formula_units_Z   1
loop_
 _symmetry_equiv_pos_site_id
 _symmetry_equiv_pos_as_xyz
  1  'x, y, z'
loop_
 _atom_site_type_symbol
 _atom_site_label
 _atom_site_symmetry_multiplicity
 _atom_site_fract_x
 _atom_site_fract_y
 _atom_site_fract_z
 _atom_site_occupancy
  Yb  Yb0  1  0.750000  0.461673  0.777404  1
  Yb  Yb1  1  0.750000  0.961276  0.723894  1
  Yb  Yb2  1  0.250000  0.037671  0.277883  1
  Y  Y3  1  0.250000  0.688291  0.554513  1
  Y  Y4  1  0.750000  0.314266  0.446299  1
  Y  Y5  1  0.250000  0.182723  0.945503  1
  Y  Y6  1  0.250000  0.537080  0.221720  1
  Ho  Ho7  1  0.750000  0.819307  0.054120  1
  Re  Re8  1  0.250000  0.720616  0.861433  1
  Re  Re9  1  0.750000  0.277525  0.138847  1
  Re  Re10  1  0.750000  0.776318  0.359896  1
  Re  Re11  1  0.250000  0.225353  0.638249  1
  C  C12  1  0.250000  0.455200  0.759375  1
  C  C13  1  0.750000  0.545511  0.238308  1
  C  C14  1  0.750000  0.044419  0.259992  1
  C  C15  1  0.250000  0.955723  0.740583  1
  C  C16  1  0.250000  0.809435  0.042274  1
  C  C17  1  0.750000  0.177816  0.961632  1
  C  C18  1  0.750000  0.686495  0.539991  1
  C  C19  1  0.250000  0.323298  0.458084  1
