# generated using pymatgen
data_Hf3Fe2Co6P6Ru
_symmetry_space_group_name_H-M   'P 1'
_cell_length_a   11.91961305
_cell_length_b   11.94886606
_cell_length_c   3.64165100
_cell_angle_alpha   90.00000000
_cell_angle_beta   90.00000000
_cell_angle_gamma   120.22261916
_symmetry_Int_Tables_number   1
_chemical_formula_structural   Hf3Fe2Co6P6Ru
_chemical_formula_sum   'Hf6 Fe4 Co12 P12 Ru2'
_cell_volume   448.16629532
_cell_formula_units_Z   2
loop_
 _symmetry_equiv_pos_site_id
 _symmetry_equiv_pos_as_xyz
  1  'x, y, z'
loop_
 _atom_site_type_symbol
 _atom_site_label
 _atom_site_symmetry_multiplicity
 _atom_site_fract_x
 _atom_site_fract_y
 _atom_site_fract_z
 _atom_site_occupancy
  Hf  Hf0  1  0.820562  0.817732  0.500000  1
  Hf  Hf1  1  0.003752  0.175163  0.500000  1
  Hf  Hf2  1  0.332810  0.666633  0.000000  1
  Hf  Hf3  1  0.665721  0.332321  0.000000  1
  Hf  Hf4  1  0.999481  0.555545  0.000000  1
  Hf  Hf5  1  0.179512  0.999408  0.500000  1
  Fe  Fe6  1  0.624370  0.823419  0.000000  1
  Fe  Fe7  1  0.376824  0.198940  0.000000  1
  Fe  Fe8  1  0.999714  0.720861  0.500000  1
  Fe  Fe9  1  0.282856  0.283423  0.500000  1
  Co  Co10  1  0.869888  0.350657  0.500000  1
  Co  Co11  1  0.718020  0.999746  0.500000  1
  Co  Co12  1  0.815503  0.627233  0.000000  1
  Co  Co13  1  0.184245  0.811736  0.000000  1
  Co  Co14  1  0.358370  0.873357  0.500000  1
  Co  Co15  1  0.128765  0.479837  0.500000  1
  Co  Co16  1  0.641182  0.514757  0.500000  1
  Co  Co17  1  0.000015  0.001218  0.000000  1
  Co  Co18  1  0.514434  0.645259  0.500000  1
  Co  Co19  1  0.485786  0.130143  0.500000  1
  Co  Co20  1  0.196334  0.371414  0.000000  1
  Co  Co21  1  0.805075  0.174092  0.000000  1
  P  P22  1  0.000326  0.345274  0.000000  1
  P  P23  1  0.825491  0.516968  0.500000  1
  P  P24  1  0.684665  0.165488  0.500000  1
  P  P25  1  0.179842  0.175561  0.000000  1
  P  P26  1  0.639900  0.646197  0.000000  1
  P  P27  1  0.821960  0.996338  0.000000  1
  P  P28  1  0.517852  0.832455  0.500000  1
  P  P29  1  0.173646  0.691003  0.500000  1
  P  P30  1  0.359237  0.006162  0.000000  1
  P  P31  1  0.480736  0.313634  0.500000  1
  P  P32  1  0.000266  0.824684  0.000000  1
  P  P33  1  0.314971  0.480728  0.500000  1
  Ru  Ru34  1  0.447008  0.450153  0.000000  1
  Ru  Ru35  1  0.550880  0.002459  0.000000  1
