# generated using pymatgen
data_Yb5(InN2)2
_symmetry_space_group_name_H-M   'P 1'
_cell_length_a   6.24759003
_cell_length_b   6.24759118
_cell_length_c   14.68145600
_cell_angle_alpha   90.00000000
_cell_angle_beta   90.00000000
_cell_angle_gamma   134.20855914
_symmetry_Int_Tables_number   1
_chemical_formula_structural   Yb5(InN2)2
_chemical_formula_sum   'Yb10 In4 N8'
_cell_volume   410.76758131
_cell_formula_units_Z   2
loop_
 _symmetry_equiv_pos_site_id
 _symmetry_equiv_pos_as_xyz
  1  'x, y, z'
loop_
 _atom_site_type_symbol
 _atom_site_label
 _atom_site_symmetry_multiplicity
 _atom_site_fract_x
 _atom_site_fract_y
 _atom_site_fract_z
 _atom_site_occupancy
  Yb  Yb0  1  0.373384  0.626616  0.324989  1
  Yb  Yb1  1  0.126616  0.873384  0.824989  1
  Yb  Yb2  1  0.626616  0.373384  0.675011  1
  Yb  Yb3  1  0.500000  0.500000  0.000000  1
  Yb  Yb4  1  0.231963  0.768037  0.075311  1
  Yb  Yb5  1  0.731963  0.268037  0.424689  1
  Yb  Yb6  1  0.268037  0.731963  0.575311  1
  Yb  Yb7  1  0.000000  0.000000  0.500000  1
  Yb  Yb8  1  0.873384  0.126616  0.175011  1
  Yb  Yb9  1  0.768037  0.231963  0.924689  1
  In  In10  1  0.905956  0.094044  0.695787  1
  In  In11  1  0.094044  0.905956  0.304213  1
  In  In12  1  0.405956  0.594044  0.804213  1
  In  In13  1  0.594044  0.405956  0.195787  1
  N  N14  1  0.091783  0.908217  0.653186  1
  N  N15  1  0.195954  0.804046  0.428112  1
  N  N16  1  0.804046  0.195954  0.571888  1
  N  N17  1  0.591783  0.408217  0.846814  1
  N  N18  1  0.408217  0.591783  0.153186  1
  N  N19  1  0.304046  0.695954  0.928112  1
  N  N20  1  0.908217  0.091783  0.346814  1
  N  N21  1  0.695954  0.304046  0.071888  1
