# generated using pymatgen
data_TbLu11Os4
_symmetry_space_group_name_H-M   'P 1'
_cell_length_a   7.31996140
_cell_length_b   8.82227700
_cell_length_c   6.17987974
_cell_angle_alpha   90.00000000
_cell_angle_beta   89.87421033
_cell_angle_gamma   90.00000000
_symmetry_Int_Tables_number   1
_chemical_formula_structural   TbLu11Os4
_chemical_formula_sum   'Tb1 Lu11 Os4'
_cell_volume   399.08780493
_cell_formula_units_Z   1
loop_
 _symmetry_equiv_pos_site_id
 _symmetry_equiv_pos_as_xyz
  1  'x, y, z'
loop_
 _atom_site_type_symbol
 _atom_site_label
 _atom_site_symmetry_multiplicity
 _atom_site_fract_x
 _atom_site_fract_y
 _atom_site_fract_z
 _atom_site_occupancy
  Tb  Tb0  1  0.539692  0.250000  0.872599  1
  Lu  Lu1  1  0.674964  0.061338  0.335892  1
  Lu  Lu2  1  0.173688  0.438315  0.166955  1
  Lu  Lu3  1  0.324017  0.563149  0.664847  1
  Lu  Lu4  1  0.826884  0.937192  0.833786  1
  Lu  Lu5  1  0.324017  0.936851  0.664847  1
  Lu  Lu6  1  0.826884  0.562808  0.833786  1
  Lu  Lu7  1  0.674964  0.438662  0.335892  1
  Lu  Lu8  1  0.173688  0.061685  0.166955  1
  Lu  Lu9  1  0.039831  0.250000  0.627488  1
  Lu  Lu10  1  0.459806  0.750000  0.127875  1
  Lu  Lu11  1  0.959720  0.750000  0.371480  1
  Os  Os12  1  0.885031  0.250000  0.039722  1
  Os  Os13  1  0.381490  0.250000  0.457834  1
  Os  Os14  1  0.117620  0.750000  0.962394  1
  Os  Os15  1  0.617704  0.750000  0.537650  1
