# generated using pymatgen
data_Sr6TiRu3O14
_symmetry_space_group_name_H-M   'P 1'
_cell_length_a   10.77373061
_cell_length_b   10.77372708
_cell_length_c   5.56780209
_cell_angle_alpha   90.00524058
_cell_angle_beta   90.00520534
_cell_angle_gamma   149.98767770
_symmetry_Int_Tables_number   1
_chemical_formula_structural   Sr6TiRu3O14
_chemical_formula_sum   'Sr6 Ti1 Ru3 O14'
_cell_volume   323.25673709
_cell_formula_units_Z   1
loop_
 _symmetry_equiv_pos_site_id
 _symmetry_equiv_pos_as_xyz
  1  'x, y, z'
loop_
 _atom_site_type_symbol
 _atom_site_label
 _atom_site_symmetry_multiplicity
 _atom_site_fract_x
 _atom_site_fract_y
 _atom_site_fract_z
 _atom_site_occupancy
  Sr  Sr0  1  0.187138  0.812859  0.000000  1
  Sr  Sr1  1  0.815691  0.184308  0.999999  1
  Sr  Sr2  1  0.315779  0.684220  0.500001  1
  Sr  Sr3  1  0.997916  0.002091  0.999999  1
  Sr  Sr4  1  0.687242  0.312754  0.500000  1
  Sr  Sr5  1  0.497966  0.502033  0.500001  1
  Ti  Ti6  1  0.901761  0.098239  0.500000  1
  Ru  Ru7  1  0.403406  0.596596  0.000000  1
  Ru  Ru8  1  0.597186  0.402810  0.999999  1
  Ru  Ru9  1  0.096829  0.903179  0.500004  1
  O  O10  1  0.166297  0.359634  0.268630  1
  O  O11  1  0.300764  0.109380  0.206242  1
  O  O12  1  0.640366  0.833703  0.731369  1
  O  O13  1  0.389039  0.197908  0.704930  1
  O  O14  1  0.806924  0.193077  0.500000  1
  O  O15  1  0.802089  0.610958  0.295068  1
  O  O16  1  0.196075  0.803920  0.499998  1
  O  O17  1  0.695973  0.304031  0.000001  1
  O  O18  1  0.672668  0.866054  0.236287  1
  O  O19  1  0.306062  0.693940  0.000002  1
  O  O20  1  0.999106  0.000895  0.500000  1
  O  O21  1  0.890618  0.699235  0.793758  1
  O  O22  1  0.499158  0.500843  0.999999  1
  O  O23  1  0.133946  0.327334  0.763714  1
