# generated using pymatgen
data_Zr8Ti2CuSb6P
_symmetry_space_group_name_H-M   'P 1'
_cell_length_a   8.55222100
_cell_length_b   8.55222056
_cell_length_c   5.78232500
_cell_angle_alpha   90.00000000
_cell_angle_beta   90.00000000
_cell_angle_gamma   119.99999011
_symmetry_Int_Tables_number   1
_chemical_formula_structural   Zr8Ti2CuSb6P
_chemical_formula_sum   'Zr8 Ti2 Cu1 Sb6 P1'
_cell_volume   366.26125611
_cell_formula_units_Z   1
loop_
 _symmetry_equiv_pos_site_id
 _symmetry_equiv_pos_as_xyz
  1  'x, y, z'
loop_
 _atom_site_type_symbol
 _atom_site_label
 _atom_site_symmetry_multiplicity
 _atom_site_fract_x
 _atom_site_fract_y
 _atom_site_fract_z
 _atom_site_occupancy
  Zr  Zr0  1  0.333333  0.666667  0.500000  1
  Zr  Zr1  1  0.666667  0.333333  0.500000  1
  Zr  Zr2  1  0.740422  0.740422  0.742926  1
  Zr  Zr3  1  0.259578  0.000000  0.742926  1
  Zr  Zr4  1  0.000000  0.259578  0.742926  1
  Zr  Zr5  1  0.259578  0.259578  0.257074  1
  Zr  Zr6  1  0.740422  0.000000  0.257074  1
  Zr  Zr7  1  0.000000  0.740422  0.257074  1
  Ti  Ti8  1  0.666667  0.333333  0.000000  1
  Ti  Ti9  1  0.333333  0.666667  0.000000  1
  Cu  Cu10  1  0.000000  0.000000  0.000000  1
  Sb  Sb11  1  0.394355  0.394355  0.761372  1
  Sb  Sb12  1  0.605645  0.000000  0.761372  1
  Sb  Sb13  1  0.000000  0.605645  0.761372  1
  Sb  Sb14  1  0.605645  0.605645  0.238628  1
  Sb  Sb15  1  0.394355  0.000000  0.238628  1
  Sb  Sb16  1  0.000000  0.394355  0.238628  1
  P  P17  1  0.000000  0.000000  0.500000  1
