# generated using pymatgen
data_Tm8Lu6Sc6Si15Ru
_symmetry_space_group_name_H-M   'P 1'
_cell_length_a   7.10308518
_cell_length_b   7.53409105
_cell_length_c   14.06084774
_cell_angle_alpha   90.15388195
_cell_angle_beta   90.11282273
_cell_angle_gamma   90.28050692
_symmetry_Int_Tables_number   1
_chemical_formula_structural   Tm8Lu6Sc6Si15Ru
_chemical_formula_sum   'Tm8 Lu6 Sc6 Si15 Ru1'
_cell_volume   752.45714162
_cell_formula_units_Z   1
loop_
 _symmetry_equiv_pos_site_id
 _symmetry_equiv_pos_as_xyz
  1  'x, y, z'
loop_
 _atom_site_type_symbol
 _atom_site_label
 _atom_site_symmetry_multiplicity
 _atom_site_fract_x
 _atom_site_fract_y
 _atom_site_fract_z
 _atom_site_occupancy
  Tm  Tm0  1  0.013049  0.181434  0.093804  1
  Tm  Tm1  1  0.988592  0.824675  0.907474  1
  Tm  Tm2  1  0.486647  0.681129  0.905150  1
  Tm  Tm3  1  0.987506  0.825392  0.595986  1
  Tm  Tm4  1  0.513573  0.319203  0.094942  1
  Tm  Tm5  1  0.015312  0.182969  0.402218  1
  Tm  Tm6  1  0.514447  0.319322  0.402763  1
  Tm  Tm7  1  0.487025  0.680099  0.596196  1
  Lu  Lu8  1  0.311357  0.172201  0.629573  1
  Lu  Lu9  1  0.675824  0.825199  0.373126  1
  Lu  Lu10  1  0.174876  0.677928  0.372938  1
  Lu  Lu11  1  0.674670  0.824573  0.124124  1
  Lu  Lu12  1  0.835821  0.317699  0.629271  1
  Lu  Lu13  1  0.311623  0.172572  0.873208  1
  Sc  Sc14  1  0.157401  0.513645  0.752012  1
  Sc  Sc15  1  0.841540  0.489285  0.247842  1
  Sc  Sc16  1  0.341020  0.012429  0.248283  1
  Sc  Sc17  1  0.669315  0.991008  0.751859  1
  Sc  Sc18  1  0.835588  0.321087  0.871913  1
  Sc  Sc19  1  0.174465  0.677538  0.125939  1
  Si  Si20  1  0.977599  0.896099  0.247225  1
  Si  Si21  1  0.474869  0.600342  0.246865  1
  Si  Si22  1  0.525404  0.399708  0.753060  1
  Si  Si23  1  0.283840  0.860150  0.750881  1
  Si  Si24  1  0.715550  0.137128  0.248601  1
  Si  Si25  1  0.216053  0.365490  0.247808  1
  Si  Si26  1  0.778304  0.631280  0.752063  1
  Si  Si27  1  0.160271  0.471760  0.538516  1
  Si  Si28  1  0.842988  0.531784  0.461141  1
  Si  Si29  1  0.343156  0.970220  0.459557  1
  Si  Si30  1  0.846288  0.529915  0.037990  1
  Si  Si31  1  0.653282  0.031986  0.539807  1
  Si  Si32  1  0.157329  0.473897  0.963135  1
  Si  Si33  1  0.659673  0.036654  0.959651  1
  Si  Si34  1  0.339633  0.965382  0.040917  1
  Ru  Ru35  1  0.016109  0.088821  0.754164  1
