# generated using pymatgen
data_Dy2Er5Lu3(In2Pt)4
_symmetry_space_group_name_H-M   'P 1'
_cell_length_a   3.60093500
_cell_length_b   8.10792100
_cell_length_c   18.12456701
_cell_angle_alpha   90.00278864
_cell_angle_beta   90.00000000
_cell_angle_gamma   90.00000000
_symmetry_Int_Tables_number   1
_chemical_formula_structural   Dy2Er5Lu3(In2Pt)4
_chemical_formula_sum   'Dy2 Er5 Lu3 In8 Pt4'
_cell_volume   529.16660695
_cell_formula_units_Z   1
loop_
 _symmetry_equiv_pos_site_id
 _symmetry_equiv_pos_as_xyz
  1  'x, y, z'
loop_
 _atom_site_type_symbol
 _atom_site_label
 _atom_site_symmetry_multiplicity
 _atom_site_fract_x
 _atom_site_fract_y
 _atom_site_fract_z
 _atom_site_occupancy
  Dy  Dy0  1  0.000000  0.000117  0.999953  1
  Dy  Dy1  1  0.000000  0.500035  0.500000  1
  Er  Er2  1  0.000000  0.616829  0.085426  1
  Er  Er3  1  0.000000  0.243055  0.220641  1
  Er  Er4  1  0.000000  0.756835  0.779468  1
  Er  Er5  1  0.000000  0.256830  0.720479  1
  Er  Er6  1  0.000000  0.743276  0.279556  1
  Lu  Lu7  1  0.000000  0.116410  0.414029  1
  Lu  Lu8  1  0.000000  0.883597  0.585971  1
  Lu  Lu9  1  0.000000  0.383631  0.913938  1
  In  In10  1  0.500000  0.422287  0.351186  1
  In  In11  1  0.500000  0.577641  0.648882  1
  In  In12  1  0.500000  0.077562  0.851102  1
  In  In13  1  0.500000  0.923284  0.149088  1
  In  In14  1  0.500000  0.293170  0.066319  1
  In  In15  1  0.500000  0.706113  0.933291  1
  In  In16  1  0.500000  0.205846  0.566319  1
  In  In17  1  0.500000  0.794117  0.433663  1
  Pt  Pt18  1  0.500000  0.025506  0.304338  1
  Pt  Pt19  1  0.500000  0.974552  0.695644  1
  Pt  Pt20  1  0.500000  0.474462  0.804236  1
  Pt  Pt21  1  0.500000  0.524842  0.196471  1
