# generated using pymatgen
data_Cs4SbAsCl12
_symmetry_space_group_name_H-M   'P 1'
_cell_length_a   10.74767566
_cell_length_b   10.74769737
_cell_length_c   13.10351530
_cell_angle_alpha   114.21158773
_cell_angle_beta   114.21280020
_cell_angle_gamma   90.00000396
_symmetry_Int_Tables_number   1
_chemical_formula_structural   Cs4SbAsCl12
_chemical_formula_sum   'Cs8 Sb2 As2 Cl24'
_cell_volume   1233.02974026
_cell_formula_units_Z   2
loop_
 _symmetry_equiv_pos_site_id
 _symmetry_equiv_pos_as_xyz
  1  'x, y, z'
loop_
 _atom_site_type_symbol
 _atom_site_label
 _atom_site_symmetry_multiplicity
 _atom_site_fract_x
 _atom_site_fract_y
 _atom_site_fract_z
 _atom_site_occupancy
  Cs  Cs0  1  0.221286  0.000024  0.000020  1
  Cs  Cs1  1  0.778714  0.999976  0.999980  1
  Cs  Cs2  1  0.221286  0.499996  0.000020  1
  Cs  Cs3  1  0.778714  0.500004  0.999980  1
  Cs  Cs4  1  0.000000  0.278720  0.499999  1
  Cs  Cs5  1  0.000000  0.721279  0.499999  1
  Cs  Cs6  1  0.500000  0.278724  0.499999  1
  Cs  Cs7  1  0.500000  0.721275  0.499999  1
  Sb  Sb8  1  0.624995  0.875000  0.249999  1
  Sb  Sb9  1  0.375005  0.125000  0.750002  1
  As  As10  1  0.124980  0.375000  0.250000  1
  As  As11  1  0.875020  0.625000  0.750001  1
  Cl  Cl12  1  0.006975  0.257011  0.014022  1
  Cl  Cl13  1  0.511651  0.761661  0.023321  1
  Cl  Cl14  1  0.356212  0.371882  0.243764  1
  Cl  Cl15  1  0.887529  0.371894  0.243789  1
  Cl  Cl16  1  0.624195  0.099887  0.248391  1
  Cl  Cl17  1  0.624195  0.648504  0.248391  1
  Cl  Cl18  1  0.400109  0.875802  0.251604  1
  Cl  Cl19  1  0.851498  0.875806  0.251613  1
  Cl  Cl20  1  0.128111  0.143765  0.256223  1
  Cl  Cl21  1  0.128111  0.612458  0.256223  1
  Cl  Cl22  1  0.738346  0.988340  0.476678  1
  Cl  Cl23  1  0.243002  0.492990  0.485980  1
  Cl  Cl24  1  0.756998  0.507010  0.514020  1
  Cl  Cl25  1  0.261655  0.011661  0.523322  1
  Cl  Cl26  1  0.871889  0.387542  0.743776  1
  Cl  Cl27  1  0.871889  0.856234  0.743776  1
  Cl  Cl28  1  0.148502  0.124194  0.748388  1
  Cl  Cl29  1  0.599891  0.124198  0.748397  1
  Cl  Cl30  1  0.375805  0.351495  0.751608  1
  Cl  Cl31  1  0.375805  0.900113  0.751608  1
  Cl  Cl32  1  0.112472  0.628106  0.756211  1
  Cl  Cl33  1  0.643788  0.628118  0.756236  1
  Cl  Cl34  1  0.488349  0.238339  0.976678  1
  Cl  Cl35  1  0.993025  0.742989  0.985978  1
