# generated using pymatgen
data_Yb4Ga2Pd3Pt
_symmetry_space_group_name_H-M   'P 1'
_cell_length_a   5.68506155
_cell_length_b   5.66339803
_cell_length_c   7.82328595
_cell_angle_alpha   77.76081614
_cell_angle_beta   77.79164418
_cell_angle_gamma   59.20976020
_symmetry_Int_Tables_number   1
_chemical_formula_structural   Yb4Ga2Pd3Pt
_chemical_formula_sum   'Yb4 Ga2 Pd3 Pt1'
_cell_volume   209.86660958
_cell_formula_units_Z   1
loop_
 _symmetry_equiv_pos_site_id
 _symmetry_equiv_pos_as_xyz
  1  'x, y, z'
loop_
 _atom_site_type_symbol
 _atom_site_label
 _atom_site_symmetry_multiplicity
 _atom_site_fract_x
 _atom_site_fract_y
 _atom_site_fract_z
 _atom_site_occupancy
  Yb  Yb0  1  0.785781  0.512081  0.351735  1
  Yb  Yb1  1  0.492123  0.211679  0.151993  1
  Yb  Yb2  1  0.211477  0.488826  0.646825  1
  Yb  Yb3  1  0.512592  0.788473  0.849982  1
  Ga  Ga4  1  0.142383  0.857796  0.250676  1
  Ga  Ga5  1  0.852394  0.142328  0.750292  1
  Pd  Pd6  1  0.004738  0.738071  0.003041  1
  Pd  Pd7  1  0.261274  0.998920  0.498112  1
  Pd  Pd8  1  0.998411  0.259696  0.994517  1
  Pt  Pt9  1  0.738827  0.002129  0.502827  1
