# generated using pymatgen
data_VTeO3F
_symmetry_space_group_name_H-M   'P 1'
_cell_length_a   5.21785700
_cell_length_b   5.16338190
_cell_length_c   13.04414856
_cell_angle_alpha   74.43661454
_cell_angle_beta   90.00000000
_cell_angle_gamma   90.00000000
_symmetry_Int_Tables_number   1
_chemical_formula_structural   VTeO3F
_chemical_formula_sum   'V4 Te4 O12 F4'
_cell_volume   338.54713718
_cell_formula_units_Z   4
loop_
 _symmetry_equiv_pos_site_id
 _symmetry_equiv_pos_as_xyz
  1  'x, y, z'
loop_
 _atom_site_type_symbol
 _atom_site_label
 _atom_site_symmetry_multiplicity
 _atom_site_fract_x
 _atom_site_fract_y
 _atom_site_fract_z
 _atom_site_occupancy
  V  V0  1  0.754684  0.106376  0.928822  1
  V  V1  1  0.245316  0.893624  0.071178  1
  V  V2  1  0.254684  0.893624  0.571178  1
  V  V3  1  0.745316  0.106376  0.428822  1
  Te  Te4  1  0.814137  0.322047  0.169796  1
  Te  Te5  1  0.685863  0.322047  0.669796  1
  Te  Te6  1  0.314137  0.677953  0.330204  1
  Te  Te7  1  0.185863  0.677953  0.830204  1
  O  O8  1  0.392364  0.555023  0.662905  1
  O  O9  1  0.946055  0.132445  0.069549  1
  O  O10  1  0.930229  0.072961  0.295988  1
  O  O11  1  0.607636  0.444977  0.337095  1
  O  O12  1  0.053945  0.867555  0.930451  1
  O  O13  1  0.892364  0.444977  0.837095  1
  O  O14  1  0.430229  0.927039  0.204012  1
  O  O15  1  0.107636  0.555023  0.162905  1
  O  O16  1  0.553945  0.132445  0.569549  1
  O  O17  1  0.446055  0.867555  0.430451  1
  O  O18  1  0.069771  0.927039  0.704012  1
  O  O19  1  0.569771  0.072961  0.795988  1
  F  F20  1  0.442509  0.237963  0.989366  1
  F  F21  1  0.557491  0.762037  0.010634  1
  F  F22  1  0.057491  0.237963  0.489366  1
  F  F23  1  0.942509  0.762037  0.510634  1
