# generated using pymatgen
data_Lu20InBi7Sb4
_symmetry_space_group_name_H-M   'P 1'
_cell_length_a   8.03707934
_cell_length_b   9.34503739
_cell_length_c   11.68979528
_cell_angle_alpha   90.00814625
_cell_angle_beta   90.02372251
_cell_angle_gamma   90.06189002
_symmetry_Int_Tables_number   1
_chemical_formula_structural   Lu20InBi7Sb4
_chemical_formula_sum   'Lu20 In1 Bi7 Sb4'
_cell_volume   877.98260104
_cell_formula_units_Z   1
loop_
 _symmetry_equiv_pos_site_id
 _symmetry_equiv_pos_as_xyz
  1  'x, y, z'
loop_
 _atom_site_type_symbol
 _atom_site_label
 _atom_site_symmetry_multiplicity
 _atom_site_fract_x
 _atom_site_fract_y
 _atom_site_fract_z
 _atom_site_occupancy
  Lu  Lu0  1  0.188528  0.565630  0.444731  1
  Lu  Lu1  1  0.689399  0.935309  0.056631  1
  Lu  Lu2  1  0.810981  0.064831  0.556923  1
  Lu  Lu3  1  0.306287  0.437246  0.940964  1
  Lu  Lu4  1  0.812376  0.434340  0.560217  1
  Lu  Lu5  1  0.309409  0.065489  0.942424  1
  Lu  Lu6  1  0.187791  0.933776  0.442690  1
  Lu  Lu7  1  0.689911  0.565454  0.055865  1
  Lu  Lu8  1  0.024071  0.745205  0.987376  1
  Lu  Lu9  1  0.524786  0.750679  0.510704  1
  Lu  Lu10  1  0.973677  0.253530  0.006461  1
  Lu  Lu11  1  0.474379  0.249123  0.490162  1
  Lu  Lu12  1  0.185363  0.747098  0.718115  1
  Lu  Lu13  1  0.692379  0.743842  0.783780  1
  Lu  Lu14  1  0.812456  0.249752  0.283549  1
  Lu  Lu15  1  0.311264  0.250893  0.216269  1
  Lu  Lu16  1  0.848714  0.750940  0.285382  1
  Lu  Lu17  1  0.349006  0.749043  0.214921  1
  Lu  Lu18  1  0.141211  0.254458  0.716871  1
  Lu  Lu19  1  0.661227  0.254026  0.785480  1
  In  In20  1  0.942421  0.498175  0.824806  1
  Bi  Bi21  1  0.438033  0.003969  0.677710  1
  Bi  Bi22  1  0.062925  0.995981  0.173959  1
  Bi  Bi23  1  0.562269  0.503298  0.323800  1
  Bi  Bi24  1  0.060657  0.503889  0.178032  1
  Bi  Bi25  1  0.562748  0.996292  0.323484  1
  Bi  Bi26  1  0.937773  0.000948  0.824705  1
  Bi  Bi27  1  0.439710  0.495616  0.675585  1
  Sb  Sb28  1  0.902779  0.750142  0.542366  1
  Sb  Sb29  1  0.405282  0.751449  0.956681  1
  Sb  Sb30  1  0.097877  0.249424  0.456661  1
  Sb  Sb31  1  0.594313  0.250153  0.042697  1
