# generated using pymatgen
data_Pr18Er2Si15As
_symmetry_space_group_name_H-M   'P 1'
_cell_length_a   7.87210964
_cell_length_b   7.86900209
_cell_length_c   15.31294945
_cell_angle_alpha   89.95275930
_cell_angle_beta   89.69364625
_cell_angle_gamma   89.98574503
_symmetry_Int_Tables_number   1
_chemical_formula_structural   Pr18Er2Si15As
_chemical_formula_sum   'Pr18 Er2 Si15 As1'
_cell_volume   948.55665526
_cell_formula_units_Z   1
loop_
 _symmetry_equiv_pos_site_id
 _symmetry_equiv_pos_as_xyz
  1  'x, y, z'
loop_
 _atom_site_type_symbol
 _atom_site_label
 _atom_site_symmetry_multiplicity
 _atom_site_fract_x
 _atom_site_fract_y
 _atom_site_fract_z
 _atom_site_occupancy
  Pr  Pr0  1  0.803413  0.191535  0.751938  1
  Pr  Pr1  1  0.689303  0.691566  0.497903  1
  Pr  Pr2  1  0.379373  0.009457  0.443562  1
  Pr  Pr3  1  0.489576  0.878209  0.697423  1
  Pr  Pr4  1  0.511106  0.121791  0.195091  1
  Pr  Pr5  1  0.878221  0.486475  0.301877  1
  Pr  Pr6  1  0.122874  0.510788  0.805436  1
  Pr  Pr7  1  0.622851  0.986242  0.947920  1
  Pr  Pr8  1  0.007247  0.379722  0.552102  1
  Pr  Pr9  1  0.988541  0.621134  0.054374  1
  Pr  Pr10  1  0.129289  0.981407  0.878159  1
  Pr  Pr11  1  0.521237  0.627181  0.126545  1
  Pr  Pr12  1  0.478552  0.374373  0.629064  1
  Pr  Pr13  1  0.627991  0.521228  0.874555  1
  Pr  Pr14  1  0.372951  0.477527  0.371593  1
  Pr  Pr15  1  0.873774  0.020359  0.376378  1
  Pr  Pr16  1  0.979911  0.127163  0.123328  1
  Pr  Pr17  1  0.019823  0.873180  0.621854  1
  Er  Er18  1  0.311455  0.311800  0.000200  1
  Er  Er19  1  0.189080  0.809952  0.248633  1
  Si  Si20  1  0.328254  0.690396  0.955886  1
  Si  Si21  1  0.667900  0.306194  0.454340  1
  Si  Si22  1  0.692009  0.329351  0.045850  1
  Si  Si23  1  0.304338  0.668317  0.545284  1
  Si  Si24  1  0.810020  0.828668  0.205014  1
  Si  Si25  1  0.170985  0.190139  0.293338  1
  Si  Si26  1  0.835185  0.805379  0.796581  1
  Si  Si27  1  0.286153  0.921967  0.062848  1
  Si  Si28  1  0.573887  0.788715  0.308143  1
  Si  Si29  1  0.427371  0.213678  0.819398  1
  Si  Si30  1  0.788726  0.579706  0.689500  1
  Si  Si31  1  0.213176  0.422906  0.186822  1
  Si  Si32  1  0.708499  0.078149  0.560774  1
  Si  Si33  1  0.928327  0.289420  0.941547  1
  Si  Si34  1  0.081938  0.713808  0.435312  1
  As  As35  1  0.186663  0.172114  0.701426  1
