# generated using pymatgen
data_Tb2Dy(MgHg)3
_symmetry_space_group_name_H-M   'P 1'
_cell_length_a   7.74963006
_cell_length_b   7.74963016
_cell_length_c   4.29685100
_cell_angle_alpha   90.00000000
_cell_angle_beta   90.00000000
_cell_angle_gamma   119.98556127
_symmetry_Int_Tables_number   1
_chemical_formula_structural   Tb2Dy(MgHg)3
_chemical_formula_sum   'Tb2 Dy1 Mg3 Hg3'
_cell_volume   223.51467535
_cell_formula_units_Z   1
loop_
 _symmetry_equiv_pos_site_id
 _symmetry_equiv_pos_as_xyz
  1  'x, y, z'
loop_
 _atom_site_type_symbol
 _atom_site_label
 _atom_site_symmetry_multiplicity
 _atom_site_fract_x
 _atom_site_fract_y
 _atom_site_fract_z
 _atom_site_occupancy
  Tb  Tb0  1  0.412096  0.000004  0.000000  1
  Tb  Tb1  1  0.000004  0.412096  0.000000  1
  Dy  Dy2  1  0.587976  0.587976  0.000000  1
  Mg  Mg3  1  0.750709  0.999957  0.500000  1
  Mg  Mg4  1  0.249303  0.249303  0.500000  1
  Mg  Mg5  1  0.999957  0.750709  0.500000  1
  Hg  Hg6  1  0.999917  0.999917  0.000000  1
  Hg  Hg7  1  0.666624  0.333413  0.500000  1
  Hg  Hg8  1  0.333413  0.666625  0.500000  1
