# generated using pymatgen
data_Er6Zn22AgGe
_symmetry_space_group_name_H-M   'P 1'
_cell_length_a   9.06590881
_cell_length_b   9.06590853
_cell_length_c   9.06590900
_cell_angle_alpha   59.99999465
_cell_angle_beta   59.99999568
_cell_angle_gamma   59.99999819
_symmetry_Int_Tables_number   1
_chemical_formula_structural   Er6Zn22AgGe
_chemical_formula_sum   'Er6 Zn22 Ag1 Ge1'
_cell_volume   526.88883966
_cell_formula_units_Z   1
loop_
 _symmetry_equiv_pos_site_id
 _symmetry_equiv_pos_as_xyz
  1  'x, y, z'
loop_
 _atom_site_type_symbol
 _atom_site_label
 _atom_site_symmetry_multiplicity
 _atom_site_fract_x
 _atom_site_fract_y
 _atom_site_fract_z
 _atom_site_occupancy
  Er  Er0  1  0.716452  0.283548  0.283548  1
  Er  Er1  1  0.716452  0.283548  0.716452  1
  Er  Er2  1  0.716452  0.716452  0.283548  1
  Er  Er3  1  0.283548  0.716452  0.716452  1
  Er  Er4  1  0.283548  0.716452  0.283548  1
  Er  Er5  1  0.283548  0.283548  0.716452  1
  Zn  Zn6  1  0.623389  0.125537  0.125537  1
  Zn  Zn7  1  0.125537  0.623389  0.125537  1
  Zn  Zn8  1  0.125537  0.125537  0.623389  1
  Zn  Zn9  1  0.125537  0.125537  0.125537  1
  Zn  Zn10  1  0.376611  0.874463  0.874463  1
  Zn  Zn11  1  0.874463  0.376611  0.874463  1
  Zn  Zn12  1  0.874463  0.874463  0.376611  1
  Zn  Zn13  1  0.874463  0.874463  0.874463  1
  Zn  Zn14  1  0.500000  0.000000  0.000000  1
  Zn  Zn15  1  0.500000  0.000000  0.500000  1
  Zn  Zn16  1  0.500000  0.500000  0.000000  1
  Zn  Zn17  1  0.000000  0.500000  0.500000  1
  Zn  Zn18  1  0.000000  0.500000  0.000000  1
  Zn  Zn19  1  0.000000  0.000000  0.500000  1
  Zn  Zn20  1  0.004773  0.331742  0.331742  1
  Zn  Zn21  1  0.331742  0.004773  0.331742  1
  Zn  Zn22  1  0.331742  0.331742  0.004773  1
  Zn  Zn23  1  0.331742  0.331742  0.331742  1
  Zn  Zn24  1  0.995227  0.668258  0.668258  1
  Zn  Zn25  1  0.668258  0.995227  0.668258  1
  Zn  Zn26  1  0.668258  0.668258  0.995227  1
  Zn  Zn27  1  0.668258  0.668258  0.668258  1
  Ag  Ag28  1  0.000000  0.000000  0.000000  1
  Ge  Ge29  1  0.500000  0.500000  0.500000  1
