# generated using pymatgen
data_Sr8Mg7Si16Pd
_symmetry_space_group_name_H-M   'P 1'
_cell_length_a   4.38203400
_cell_length_b   11.38074403
_cell_length_c   14.41942604
_cell_angle_alpha   89.99163969
_cell_angle_beta   90.00000000
_cell_angle_gamma   90.00000000
_symmetry_Int_Tables_number   1
_chemical_formula_structural   Sr8Mg7Si16Pd
_chemical_formula_sum   'Sr8 Mg7 Si16 Pd1'
_cell_volume   719.10840948
_cell_formula_units_Z   1
loop_
 _symmetry_equiv_pos_site_id
 _symmetry_equiv_pos_as_xyz
  1  'x, y, z'
loop_
 _atom_site_type_symbol
 _atom_site_label
 _atom_site_symmetry_multiplicity
 _atom_site_fract_x
 _atom_site_fract_y
 _atom_site_fract_z
 _atom_site_occupancy
  Sr  Sr0  1  0.250000  0.520950  0.201633  1
  Sr  Sr1  1  0.250000  0.740360  0.938691  1
  Sr  Sr2  1  0.750000  0.260602  0.063554  1
  Sr  Sr3  1  0.750000  0.246458  0.559666  1
  Sr  Sr4  1  0.250000  0.754805  0.439216  1
  Sr  Sr5  1  0.250000  0.976084  0.695360  1
  Sr  Sr6  1  0.750000  0.026660  0.304215  1
  Sr  Sr7  1  0.750000  0.475793  0.801164  1
  Mg  Mg8  1  0.750000  0.550577  0.552139  1
  Mg  Mg9  1  0.750000  0.941553  0.059681  1
  Mg  Mg10  1  0.250000  0.058287  0.940677  1
  Mg  Mg11  1  0.250000  0.675553  0.688411  1
  Mg  Mg12  1  0.750000  0.326106  0.316596  1
  Mg  Mg13  1  0.750000  0.178574  0.809091  1
  Mg  Mg14  1  0.250000  0.820685  0.190232  1
  Si  Si15  1  0.750000  0.950985  0.867197  1
  Si  Si16  1  0.250000  0.448870  0.625552  1
  Si  Si17  1  0.750000  0.545594  0.368965  1
  Si  Si18  1  0.250000  0.035558  0.467099  1
  Si  Si19  1  0.250000  0.049043  0.132435  1
  Si  Si20  1  0.250000  0.274910  0.721305  1
  Si  Si21  1  0.750000  0.722232  0.278629  1
  Si  Si22  1  0.750000  0.772630  0.776796  1
  Si  Si23  1  0.250000  0.224600  0.395230  1
  Si  Si24  1  0.750000  0.969346  0.530374  1
  Si  Si25  1  0.750000  0.529803  0.033051  1
  Si  Si26  1  0.250000  0.469209  0.968138  1
  Si  Si27  1  0.250000  0.287429  0.891795  1
  Si  Si28  1  0.750000  0.784878  0.606543  1
  Si  Si29  1  0.750000  0.712780  0.107777  1
  Si  Si30  1  0.250000  0.225501  0.225020  1
  Pd  Pd31  1  0.250000  0.443586  0.443769  1
