# generated using pymatgen
data_Tm2Fe5Co3B8
_symmetry_space_group_name_H-M   'P 1'
_cell_length_a   6.91621130
_cell_length_b   6.90622579
_cell_length_c   3.81865416
_cell_angle_alpha   90.01815314
_cell_angle_beta   89.92202980
_cell_angle_gamma   89.83854844
_symmetry_Int_Tables_number   1
_chemical_formula_structural   Tm2Fe5Co3B8
_chemical_formula_sum   'Tm2 Fe5 Co3 B8'
_cell_volume   182.39679613
_cell_formula_units_Z   1
loop_
 _symmetry_equiv_pos_site_id
 _symmetry_equiv_pos_as_xyz
  1  'x, y, z'
loop_
 _atom_site_type_symbol
 _atom_site_label
 _atom_site_symmetry_multiplicity
 _atom_site_fract_x
 _atom_site_fract_y
 _atom_site_fract_z
 _atom_site_occupancy
  Tm  Tm0  1  0.999956  0.999124  0.998769  1
  Tm  Tm1  1  0.501332  0.500975  0.499931  1
  Fe  Fe2  1  0.117399  0.632176  0.389775  1
  Fe  Fe3  1  0.367441  0.117181  0.608133  1
  Fe  Fe4  1  0.633441  0.883674  0.608539  1
  Fe  Fe5  1  0.616630  0.133224  0.108544  1
  Fe  Fe6  1  0.383851  0.867790  0.107853  1
  Co  Co7  1  0.134680  0.381060  0.890108  1
  Co  Co8  1  0.863228  0.615839  0.889783  1
  Co  Co9  1  0.882590  0.364062  0.390031  1
  B  B10  1  0.665710  0.801895  0.107985  1
  B  B11  1  0.333137  0.195757  0.107408  1
  B  B12  1  0.299532  0.833098  0.605668  1
  B  B13  1  0.697157  0.165636  0.607501  1
  B  B14  1  0.838792  0.704929  0.395203  1
  B  B15  1  0.167022  0.302190  0.394794  1
  B  B16  1  0.200917  0.666658  0.893998  1
  B  B17  1  0.797185  0.334730  0.895978  1
