# generated using pymatgen
data_Tb3DyCo10(Ni5P6)2
_symmetry_space_group_name_H-M   'P 1'
_cell_length_a   3.68613200
_cell_length_b   10.28737800
_cell_length_c   11.81107700
_cell_angle_alpha   89.99868306
_cell_angle_beta   90.00000000
_cell_angle_gamma   90.00000000
_symmetry_Int_Tables_number   1
_chemical_formula_structural   Tb3DyCo10(Ni5P6)2
_chemical_formula_sum   'Tb3 Dy1 Co10 Ni10 P12'
_cell_volume   447.88351905
_cell_formula_units_Z   1
loop_
 _symmetry_equiv_pos_site_id
 _symmetry_equiv_pos_as_xyz
  1  'x, y, z'
loop_
 _atom_site_type_symbol
 _atom_site_label
 _atom_site_symmetry_multiplicity
 _atom_site_fract_x
 _atom_site_fract_y
 _atom_site_fract_z
 _atom_site_occupancy
  Tb  Tb0  1  0.250000  0.917966  0.203736  1
  Tb  Tb1  1  0.750000  0.417973  0.296697  1
  Tb  Tb2  1  0.750000  0.082047  0.796694  1
  Dy  Dy3  1  0.250000  0.582037  0.703740  1
  Co  Co4  1  0.750000  0.777768  0.824093  1
  Co  Co5  1  0.750000  0.722084  0.324179  1
  Co  Co6  1  0.250000  0.879801  0.697657  1
  Co  Co7  1  0.250000  0.620073  0.197617  1
  Co  Co8  1  0.750000  0.118794  0.302088  1
  Co  Co9  1  0.750000  0.381364  0.801966  1
  Co  Co10  1  0.250000  0.467617  0.933076  1
  Co  Co11  1  0.250000  0.032404  0.433225  1
  Co  Co12  1  0.750000  0.533221  0.067061  1
  Co  Co13  1  0.750000  0.966778  0.567038  1
  Ni  Ni14  1  0.250000  0.711651  0.988772  1
  Ni  Ni15  1  0.250000  0.788354  0.488775  1
  Ni  Ni16  1  0.750000  0.286074  0.009767  1
  Ni  Ni17  1  0.750000  0.213940  0.509793  1
  Ni  Ni18  1  0.250000  0.407932  0.486421  1
  Ni  Ni19  1  0.250000  0.092109  0.986369  1
  Ni  Ni20  1  0.750000  0.592569  0.514061  1
  Ni  Ni21  1  0.750000  0.907419  0.013824  1
  Ni  Ni22  1  0.250000  0.222897  0.176306  1
  Ni  Ni23  1  0.250000  0.277172  0.676338  1
  P  P24  1  0.250000  0.423860  0.112982  1
  P  P25  1  0.250000  0.076153  0.612964  1
  P  P26  1  0.750000  0.579617  0.886495  1
  P  P27  1  0.750000  0.920457  0.386760  1
  P  P28  1  0.250000  0.272997  0.867990  1
  P  P29  1  0.250000  0.226960  0.367988  1
  P  P30  1  0.750000  0.727610  0.134596  1
  P  P31  1  0.750000  0.772028  0.634721  1
  P  P32  1  0.250000  0.606387  0.387572  1
  P  P33  1  0.250000  0.893619  0.887598  1
  P  P34  1  0.750000  0.397844  0.610588  1
  P  P35  1  0.750000  0.102425  0.110459  1
