# generated using pymatgen
data_Ho3Er5Re2(TcB12)2
_symmetry_space_group_name_H-M   'P 1'
_cell_length_a   3.66372200
_cell_length_b   9.13655718
_cell_length_c   11.51475100
_cell_angle_alpha   90.05605163
_cell_angle_beta   90.00000000
_cell_angle_gamma   90.00000000
_symmetry_Int_Tables_number   1
_chemical_formula_structural   Ho3Er5Re2(TcB12)2
_chemical_formula_sum   'Ho3 Er5 Re2 Tc2 B24'
_cell_volume   385.44235149
_cell_formula_units_Z   1
loop_
 _symmetry_equiv_pos_site_id
 _symmetry_equiv_pos_as_xyz
  1  'x, y, z'
loop_
 _atom_site_type_symbol
 _atom_site_label
 _atom_site_symmetry_multiplicity
 _atom_site_fract_x
 _atom_site_fract_y
 _atom_site_fract_z
 _atom_site_occupancy
  Ho  Ho0  1  0.000000  0.323903  0.414004  1
  Ho  Ho1  1  0.000000  0.676112  0.585981  1
  Ho  Ho2  1  0.000000  0.823385  0.086101  1
  Er  Er3  1  0.000000  0.176577  0.913942  1
  Er  Er4  1  0.000000  0.942433  0.370018  1
  Er  Er5  1  0.000000  0.057588  0.630007  1
  Er  Er6  1  0.000000  0.443930  0.130313  1
  Er  Er7  1  0.000000  0.556001  0.869663  1
  Re  Re8  1  0.000000  0.138938  0.179277  1
  Re  Re9  1  0.000000  0.861198  0.820633  1
  Tc  Tc10  1  0.000000  0.639013  0.320659  1
  Tc  Tc11  1  0.000000  0.360907  0.679434  1
  B  B12  1  0.500000  0.553467  0.433040  1
  B  B13  1  0.500000  0.446526  0.566964  1
  B  B14  1  0.500000  0.053412  0.066718  1
  B  B15  1  0.500000  0.946774  0.933178  1
  B  B16  1  0.500000  0.749393  0.418930  1
  B  B17  1  0.500000  0.250601  0.581087  1
  B  B18  1  0.500000  0.249862  0.080792  1
  B  B19  1  0.500000  0.750131  0.919020  1
  B  B20  1  0.500000  0.792432  0.265485  1
  B  B21  1  0.500000  0.207490  0.734638  1
  B  B22  1  0.500000  0.292813  0.234617  1
  B  B23  1  0.500000  0.707189  0.765370  1
  B  B24  1  0.500000  0.631103  0.185539  1
  B  B25  1  0.500000  0.368778  0.814564  1
  B  B26  1  0.500000  0.130844  0.314750  1
  B  B27  1  0.500000  0.869184  0.685251  1
  B  B28  1  0.500000  0.981981  0.211974  1
  B  B29  1  0.500000  0.018201  0.788094  1
  B  B30  1  0.500000  0.482391  0.288106  1
  B  B31  1  0.500000  0.517600  0.711897  1
  B  B32  1  0.500000  0.600112  0.027893  1
  B  B33  1  0.500000  0.399720  0.972052  1
  B  B34  1  0.500000  0.099894  0.471981  1
  B  B35  1  0.500000  0.900115  0.528031  1
