# generated using pymatgen
data_Sm3InHg2Pt3
_symmetry_space_group_name_H-M   'P 1'
_cell_length_a   7.86540169
_cell_length_b   7.74973032
_cell_length_c   3.87877400
_cell_angle_alpha   90.00000000
_cell_angle_beta   90.00000000
_cell_angle_gamma   119.51470335
_symmetry_Int_Tables_number   1
_chemical_formula_structural   Sm3InHg2Pt3
_chemical_formula_sum   'Sm3 In1 Hg2 Pt3'
_cell_volume   205.74802478
_cell_formula_units_Z   1
loop_
 _symmetry_equiv_pos_site_id
 _symmetry_equiv_pos_as_xyz
  1  'x, y, z'
loop_
 _atom_site_type_symbol
 _atom_site_label
 _atom_site_symmetry_multiplicity
 _atom_site_fract_x
 _atom_site_fract_y
 _atom_site_fract_z
 _atom_site_occupancy
  Sm  Sm0  1  0.409381  0.403202  0.500000  1
  Sm  Sm1  1  0.000000  0.606564  0.500000  1
  Sm  Sm2  1  0.590619  0.993821  0.500000  1
  In  In3  1  0.000000  0.259753  0.000000  1
  Hg  Hg4  1  0.734435  0.737234  0.000000  1
  Hg  Hg5  1  0.265565  0.002797  0.000000  1
  Pt  Pt6  1  0.676086  0.330454  0.000000  1
  Pt  Pt7  1  0.323914  0.654368  0.000000  1
  Pt  Pt8  1  0.000000  0.011808  0.500000  1
