# generated using pymatgen
data_Er20Ir3Ru4Rh5
_symmetry_space_group_name_H-M   'P 1'
_cell_length_a   10.74321833
_cell_length_b   10.74330933
_cell_length_c   6.36959400
_cell_angle_alpha   90.00081911
_cell_angle_beta   90.00012173
_cell_angle_gamma   89.97159547
_symmetry_Int_Tables_number   1
_chemical_formula_structural   Er20Ir3Ru4Rh5
_chemical_formula_sum   'Er20 Ir3 Ru4 Rh5'
_cell_volume   735.16391190
_cell_formula_units_Z   1
loop_
 _symmetry_equiv_pos_site_id
 _symmetry_equiv_pos_as_xyz
  1  'x, y, z'
loop_
 _atom_site_type_symbol
 _atom_site_label
 _atom_site_symmetry_multiplicity
 _atom_site_fract_x
 _atom_site_fract_y
 _atom_site_fract_z
 _atom_site_occupancy
  Er  Er0  1  0.294139  0.087211  0.376519  1
  Er  Er1  1  0.294189  0.912714  0.876374  1
  Er  Er2  1  0.705884  0.086251  0.876469  1
  Er  Er3  1  0.705777  0.912711  0.376218  1
  Er  Er4  1  0.585717  0.793165  0.877532  1
  Er  Er5  1  0.585517  0.206148  0.376366  1
  Er  Er6  1  0.414135  0.793174  0.377130  1
  Er  Er7  1  0.413087  0.206263  0.877633  1
  Er  Er8  1  0.206827  0.414268  0.622494  1
  Er  Er9  1  0.206825  0.585861  0.122862  1
  Er  Er10  1  0.793856  0.414490  0.123629  1
  Er  Er11  1  0.793735  0.586905  0.622377  1
  Er  Er12  1  0.912788  0.705852  0.123487  1
  Er  Er13  1  0.913750  0.294119  0.623533  1
  Er  Er14  1  0.087298  0.705807  0.623621  1
  Er  Er15  1  0.087280  0.294228  0.123756  1
  Er  Er16  1  0.999957  0.000034  0.499937  1
  Er  Er17  1  0.999979  0.000050  0.000069  1
  Er  Er18  1  0.499827  0.500218  0.000213  1
  Er  Er19  1  0.499781  0.500171  0.499785  1
  Ir  Ir20  1  0.652832  0.652404  0.250080  1
  Ir  Ir21  1  0.347592  0.347170  0.249909  1
  Ir  Ir22  1  0.347158  0.652847  0.750000  1
  Ru  Ru23  1  0.500174  0.000358  0.122367  1
  Ru  Ru24  1  0.500167  0.000323  0.622550  1
  Ru  Ru25  1  0.999678  0.499833  0.877449  1
  Ru  Ru26  1  0.999643  0.499822  0.377635  1
  Rh  Rh27  1  0.847713  0.152295  0.250002  1
  Rh  Rh28  1  0.847978  0.847993  0.749931  1
  Rh  Rh29  1  0.152007  0.152022  0.750074  1
  Rh  Rh30  1  0.151949  0.848056  0.250001  1
  Rh  Rh31  1  0.652759  0.347237  0.750000  1
