# generated using pymatgen
data_Tm4Lu2Al24Ir5Ru3
_symmetry_space_group_name_H-M   'P 1'
_cell_length_a   8.77736256
_cell_length_b   8.78254208
_cell_length_c   9.49885602
_cell_angle_alpha   89.99686879
_cell_angle_beta   89.87401582
_cell_angle_gamma   120.03652132
_symmetry_Int_Tables_number   1
_chemical_formula_structural   Tm4Lu2Al24Ir5Ru3
_chemical_formula_sum   'Tm4 Lu2 Al24 Ir5 Ru3'
_cell_volume   633.90595781
_cell_formula_units_Z   1
loop_
 _symmetry_equiv_pos_site_id
 _symmetry_equiv_pos_as_xyz
  1  'x, y, z'
loop_
 _atom_site_type_symbol
 _atom_site_label
 _atom_site_symmetry_multiplicity
 _atom_site_fract_x
 _atom_site_fract_y
 _atom_site_fract_z
 _atom_site_occupancy
  Tm  Tm0  1  0.387432  0.193654  0.751332  1
  Tm  Tm1  1  0.612568  0.806346  0.248668  1
  Tm  Tm2  1  0.806307  0.611488  0.751289  1
  Tm  Tm3  1  0.193693  0.388512  0.248711  1
  Lu  Lu4  1  0.805759  0.195444  0.751311  1
  Lu  Lu5  1  0.194241  0.804556  0.248689  1
  Al  Al6  1  0.666840  0.333288  0.971235  1
  Al  Al7  1  0.333160  0.666712  0.028765  1
  Al  Al8  1  0.331538  0.665915  0.472272  1
  Al  Al9  1  0.668462  0.334085  0.527728  1
  Al  Al10  1  0.839006  0.164478  0.421270  1
  Al  Al11  1  0.160994  0.835522  0.578730  1
  Al  Al12  1  0.325827  0.162825  0.422067  1
  Al  Al13  1  0.163659  0.837026  0.922233  1
  Al  Al14  1  0.674173  0.837175  0.577933  1
  Al  Al15  1  0.836341  0.162974  0.077767  1
  Al  Al16  1  0.839184  0.674605  0.421077  1
  Al  Al17  1  0.673861  0.837031  0.921365  1
  Al  Al18  1  0.160816  0.325395  0.578923  1
  Al  Al19  1  0.326139  0.162969  0.078635  1
  Al  Al20  1  0.163538  0.326577  0.922039  1
  Al  Al21  1  0.836462  0.673423  0.077961  1
  Al  Al22  1  0.437368  0.562506  0.750995  1
  Al  Al23  1  0.562632  0.437494  0.249005  1
  Al  Al24  1  0.123833  0.561757  0.749641  1
  Al  Al25  1  0.876167  0.438243  0.250359  1
  Al  Al26  1  0.437626  0.875110  0.750980  1
  Al  Al27  1  0.562374  0.124890  0.249020  1
  Al  Al28  1  0.000157  0.000385  0.750162  1
  Al  Al29  1  0.999843  0.999615  0.249838  1
  Ir  Ir30  1  0.500000  0.500000  0.000000  1
  Ir  Ir31  1  0.000000  0.500000  0.000000  1
  Ir  Ir32  1  0.500000  0.500000  0.500000  1
  Ir  Ir33  1  0.500000  0.000000  0.000000  1
  Ir  Ir34  1  0.500000  0.000000  0.500000  1
  Ru  Ru35  1  0.000000  0.500000  0.500000  1
  Ru  Ru36  1  0.000000  0.000000  0.000000  1
  Ru  Ru37  1  0.000000  0.000000  0.500000  1
