# generated using pymatgen
data_YbDy3(SiPd2)4
_symmetry_space_group_name_H-M   'P 1'
_cell_length_a   5.56465101
_cell_length_b   6.97527000
_cell_length_c   7.33645602
_cell_angle_alpha   90.00000000
_cell_angle_beta   89.99254498
_cell_angle_gamma   90.00000000
_symmetry_Int_Tables_number   1
_chemical_formula_structural   YbDy3(SiPd2)4
_chemical_formula_sum   'Yb1 Dy3 Si4 Pd8'
_cell_volume   284.76412158
_cell_formula_units_Z   1
loop_
 _symmetry_equiv_pos_site_id
 _symmetry_equiv_pos_as_xyz
  1  'x, y, z'
loop_
 _atom_site_type_symbol
 _atom_site_label
 _atom_site_symmetry_multiplicity
 _atom_site_fract_x
 _atom_site_fract_y
 _atom_site_fract_z
 _atom_site_occupancy
  Yb  Yb0  1  0.356865  0.750000  0.028375  1
  Dy  Dy1  1  0.142667  0.750000  0.529149  1
  Dy  Dy2  1  0.641759  0.250000  0.970755  1
  Dy  Dy3  1  0.857685  0.250000  0.471448  1
  Si  Si4  1  0.644751  0.750000  0.378601  1
  Si  Si5  1  0.856728  0.750000  0.878822  1
  Si  Si6  1  0.356575  0.250000  0.621580  1
  Si  Si7  1  0.142125  0.250000  0.121192  1
  Pd  Pd8  1  0.906232  0.550941  0.176954  1
  Pd  Pd9  1  0.595624  0.948491  0.677808  1
  Pd  Pd10  1  0.092614  0.051019  0.822151  1
  Pd  Pd11  1  0.405951  0.447934  0.323126  1
  Pd  Pd12  1  0.092614  0.448981  0.822151  1
  Pd  Pd13  1  0.405951  0.052066  0.323126  1
  Pd  Pd14  1  0.906232  0.949059  0.176954  1
  Pd  Pd15  1  0.595624  0.551509  0.677808  1
