# generated using pymatgen
data_CaCu(ClO4)4
_symmetry_space_group_name_H-M   'P 1'
_cell_length_a   5.11039083
_cell_length_b   7.21026343
_cell_length_c   8.99722200
_cell_angle_alpha   90.05534682
_cell_angle_beta   89.89350072
_cell_angle_gamma   97.95406627
_symmetry_Int_Tables_number   1
_chemical_formula_structural   CaCu(ClO4)4
_chemical_formula_sum   'Ca1 Cu1 Cl4 O16'
_cell_volume   328.33288874
_cell_formula_units_Z   1
loop_
 _symmetry_equiv_pos_site_id
 _symmetry_equiv_pos_as_xyz
  1  'x, y, z'
loop_
 _atom_site_type_symbol
 _atom_site_label
 _atom_site_symmetry_multiplicity
 _atom_site_fract_x
 _atom_site_fract_y
 _atom_site_fract_z
 _atom_site_occupancy
  Ca  Ca0  1  0.500000  0.500000  0.500000  1
  Cu  Cu1  1  0.000000  0.000000  0.000000  1
  Cl  Cl2  1  0.601235  0.250891  0.160393  1
  Cl  Cl3  1  0.951018  0.231443  0.686483  1
  Cl  Cl4  1  0.398765  0.749109  0.839607  1
  Cl  Cl5  1  0.048982  0.768557  0.313517  1
  O  O6  1  0.623539  0.283398  0.321921  1
  O  O7  1  0.948602  0.210758  0.850391  1
  O  O8  1  0.376461  0.716602  0.678079  1
  O  O9  1  0.051398  0.789242  0.149609  1
  O  O10  1  0.323374  0.216406  0.121716  1
  O  O11  1  0.226513  0.265126  0.635757  1
  O  O12  1  0.676626  0.783594  0.878284  1
  O  O13  1  0.773487  0.734874  0.364243  1
  O  O14  1  0.717421  0.071572  0.133061  1
  O  O15  1  0.832131  0.402598  0.656114  1
  O  O16  1  0.282579  0.928428  0.866939  1
  O  O17  1  0.167869  0.597402  0.343886  1
  O  O18  1  0.742507  0.402878  0.079314  1
  O  O19  1  0.808384  0.071962  0.615282  1
  O  O20  1  0.257493  0.597122  0.920686  1
  O  O21  1  0.191616  0.928038  0.384718  1
