# generated using pymatgen
data_La16Cd4Co3Ru
_symmetry_space_group_name_H-M   'P 1'
_cell_length_a   10.02897622
_cell_length_b   9.98102868
_cell_length_c   9.98102900
_cell_angle_alpha   59.99999564
_cell_angle_beta   60.15802096
_cell_angle_gamma   60.15801599
_symmetry_Int_Tables_number   1
_chemical_formula_structural   La16Cd4Co3Ru
_chemical_formula_sum   'La16 Cd4 Co3 Ru1'
_cell_volume   708.15019931
_cell_formula_units_Z   1
loop_
 _symmetry_equiv_pos_site_id
 _symmetry_equiv_pos_as_xyz
  1  'x, y, z'
loop_
 _atom_site_type_symbol
 _atom_site_label
 _atom_site_symmetry_multiplicity
 _atom_site_fract_x
 _atom_site_fract_y
 _atom_site_fract_z
 _atom_site_occupancy
  La  La0  1  0.937999  0.944201  0.558900  1
  La  La1  1  0.560244  0.939734  0.560288  1
  La  La2  1  0.560244  0.939734  0.939734  1
  La  La3  1  0.684587  0.691229  0.312092  1
  La  La4  1  0.158785  0.152576  0.536061  1
  La  La5  1  0.310221  0.688712  0.688712  1
  La  La6  1  0.158785  0.152576  0.152576  1
  La  La7  1  0.535193  0.154935  0.154935  1
  La  La8  1  0.310221  0.688712  0.312355  1
  La  La9  1  0.310221  0.312355  0.688712  1
  La  La10  1  0.684587  0.312092  0.691229  1
  La  La11  1  0.937999  0.558900  0.558900  1
  La  La12  1  0.560244  0.560288  0.939734  1
  La  La13  1  0.158785  0.536061  0.152576  1
  La  La14  1  0.684587  0.312092  0.312092  1
  La  La15  1  0.937999  0.558900  0.944201  1
  Cd  Cd16  1  0.238344  0.920552  0.920552  1
  Cd  Cd17  1  0.919822  0.921357  0.921357  1
  Cd  Cd18  1  0.919822  0.921357  0.237463  1
  Cd  Cd19  1  0.919822  0.237463  0.921357  1
  Co  Co20  1  0.364001  0.359135  0.917728  1
  Co  Co21  1  0.364001  0.917728  0.359135  1
  Co  Co22  1  0.364001  0.359135  0.359135  1
  Ru  Ru23  1  0.919481  0.360173  0.360173  1
