# generated using pymatgen
data_Rb17Na(InSb4)2
_symmetry_space_group_name_H-M   'P 1'
_cell_length_a   10.99486531
_cell_length_b   11.14992716
_cell_length_c   11.69621500
_cell_angle_alpha   90.00000000
_cell_angle_beta   90.00000000
_cell_angle_gamma   120.46762705
_symmetry_Int_Tables_number   1
_chemical_formula_structural   Rb17Na(InSb4)2
_chemical_formula_sum   'Rb17 Na1 In2 Sb8'
_cell_volume   1235.86810206
_cell_formula_units_Z   1
loop_
 _symmetry_equiv_pos_site_id
 _symmetry_equiv_pos_as_xyz
  1  'x, y, z'
loop_
 _atom_site_type_symbol
 _atom_site_label
 _atom_site_symmetry_multiplicity
 _atom_site_fract_x
 _atom_site_fract_y
 _atom_site_fract_z
 _atom_site_occupancy
  Rb  Rb0  1  0.881820  0.120288  0.750000  1
  Rb  Rb1  1  0.767720  0.883859  0.250000  1
  Rb  Rb2  1  0.120851  0.240033  0.250000  1
  Rb  Rb3  1  0.120851  0.880818  0.250000  1
  Rb  Rb4  1  0.881820  0.761533  0.750000  1
  Rb  Rb5  1  0.208745  0.796577  0.952611  1
  Rb  Rb6  1  0.208745  0.412167  0.952611  1
  Rb  Rb7  1  0.582884  0.791441  0.955580  1
  Rb  Rb8  1  0.411645  0.205823  0.464218  1
  Rb  Rb9  1  0.791295  0.582430  0.043570  1
  Rb  Rb10  1  0.791295  0.208866  0.456430  1
  Rb  Rb11  1  0.791295  0.582430  0.456430  1
  Rb  Rb12  1  0.208745  0.796577  0.547389  1
  Rb  Rb13  1  0.582884  0.791441  0.544420  1
  Rb  Rb14  1  0.411645  0.205823  0.035782  1
  Rb  Rb15  1  0.791295  0.208866  0.043570  1
  Rb  Rb16  1  0.208745  0.412167  0.547389  1
  Na  Na17  1  0.237383  0.118692  0.750000  1
  In  In18  1  0.333556  0.666778  0.250000  1
  In  In19  1  0.666947  0.333473  0.750000  1
  Sb  Sb20  1  0.010434  0.005218  0.992705  1
  Sb  Sb21  1  0.029286  0.514643  0.250000  1
  Sb  Sb22  1  0.486545  0.967151  0.250000  1
  Sb  Sb23  1  0.503601  0.035120  0.750000  1
  Sb  Sb24  1  0.503601  0.468482  0.750000  1
  Sb  Sb25  1  0.010434  0.005218  0.507295  1
  Sb  Sb26  1  0.486545  0.519393  0.250000  1
  Sb  Sb27  1  0.969390  0.484695  0.750000  1
