# generated using pymatgen
data_Yb2ErSc(Pt2O7)2
_symmetry_space_group_name_H-M   'P 1'
_cell_length_a   7.19444139
_cell_length_b   7.19444203
_cell_length_c   7.14637138
_cell_angle_alpha   60.50799648
_cell_angle_beta   60.50799600
_cell_angle_gamma   60.48322101
_symmetry_Int_Tables_number   1
_chemical_formula_structural   Yb2ErSc(Pt2O7)2
_chemical_formula_sum   'Yb2 Er1 Sc1 Pt4 O14'
_cell_volume   264.51004839
_cell_formula_units_Z   1
loop_
 _symmetry_equiv_pos_site_id
 _symmetry_equiv_pos_as_xyz
  1  'x, y, z'
loop_
 _atom_site_type_symbol
 _atom_site_label
 _atom_site_symmetry_multiplicity
 _atom_site_fract_x
 _atom_site_fract_y
 _atom_site_fract_z
 _atom_site_occupancy
  Yb  Yb0  1  0.625000  0.125000  0.625000  1
  Yb  Yb1  1  0.125000  0.625000  0.625000  1
  Er  Er2  1  0.625000  0.625000  0.125000  1
  Sc  Sc3  1  0.625000  0.625000  0.625000  1
  Pt  Pt4  1  0.625000  0.125000  0.125000  1
  Pt  Pt5  1  0.125000  0.125000  0.125000  1
  Pt  Pt6  1  0.125000  0.625000  0.125000  1
  Pt  Pt7  1  0.125000  0.125000  0.625000  1
  O  O8  1  0.025415  0.462167  0.461564  1
  O  O9  1  0.786294  0.786294  0.217670  1
  O  O10  1  0.786890  0.220531  0.205395  1
  O  O11  1  0.029469  0.463110  0.044605  1
  O  O12  1  0.462167  0.025415  0.461564  1
  O  O13  1  0.737845  0.737845  0.749997  1
  O  O14  1  0.037560  0.037560  0.462440  1
  O  O15  1  0.787833  0.224585  0.788436  1
  O  O16  1  0.512155  0.512155  0.500003  1
  O  O17  1  0.212440  0.212440  0.787560  1
  O  O18  1  0.220531  0.786890  0.205395  1
  O  O19  1  0.463110  0.029469  0.044605  1
  O  O20  1  0.463706  0.463706  0.032330  1
  O  O21  1  0.224585  0.787833  0.788436  1
