# generated using pymatgen
data_TbEr4Pb3
_symmetry_space_group_name_H-M   'P 1'
_cell_length_a   9.01080837
_cell_length_b   9.01072681
_cell_length_c   6.57358400
_cell_angle_alpha   89.99920314
_cell_angle_beta   90.00113874
_cell_angle_gamma   119.93742117
_symmetry_Int_Tables_number   1
_chemical_formula_structural   TbEr4Pb3
_chemical_formula_sum   'Tb2 Er8 Pb6'
_cell_volume   462.51938578
_cell_formula_units_Z   2
loop_
 _symmetry_equiv_pos_site_id
 _symmetry_equiv_pos_as_xyz
  1  'x, y, z'
loop_
 _atom_site_type_symbol
 _atom_site_label
 _atom_site_symmetry_multiplicity
 _atom_site_fract_x
 _atom_site_fract_y
 _atom_site_fract_z
 _atom_site_occupancy
  Tb  Tb0  1  0.236924  0.999828  0.250007  1
  Tb  Tb1  1  0.999838  0.236926  0.249998  1
  Er  Er2  1  0.666695  0.333446  0.999854  1
  Er  Er3  1  0.333425  0.666693  0.999857  1
  Er  Er4  1  0.762715  0.762740  0.249993  1
  Er  Er5  1  0.666714  0.333422  0.500159  1
  Er  Er6  1  0.333396  0.666677  0.500134  1
  Er  Er7  1  0.763141  0.999820  0.750011  1
  Er  Er8  1  0.237188  0.237188  0.749996  1
  Er  Er9  1  0.999818  0.763128  0.749999  1
  Pb  Pb10  1  0.604680  0.999277  0.249992  1
  Pb  Pb11  1  0.999281  0.604679  0.250004  1
  Pb  Pb12  1  0.396310  0.396311  0.250001  1
  Pb  Pb13  1  0.394609  0.999987  0.749990  1
  Pb  Pb14  1  0.999988  0.394605  0.749990  1
  Pb  Pb15  1  0.605279  0.605270  0.750016  1
