# generated using pymatgen
data_LiTi2NbPt12
_symmetry_space_group_name_H-M   'P 1'
_cell_length_a   5.59855100
_cell_length_b   5.59855041
_cell_length_c   9.07962200
_cell_angle_alpha   90.00000000
_cell_angle_beta   90.00000000
_cell_angle_gamma   119.99999757
_symmetry_Int_Tables_number   1
_chemical_formula_structural   LiTi2NbPt12
_chemical_formula_sum   'Li1 Ti2 Nb1 Pt12'
_cell_volume   246.46181520
_cell_formula_units_Z   1
loop_
 _symmetry_equiv_pos_site_id
 _symmetry_equiv_pos_as_xyz
  1  'x, y, z'
loop_
 _atom_site_type_symbol
 _atom_site_label
 _atom_site_symmetry_multiplicity
 _atom_site_fract_x
 _atom_site_fract_y
 _atom_site_fract_z
 _atom_site_occupancy
  Li  Li0  1  0.333333  0.666667  0.249780  1
  Ti  Ti1  1  0.000000  0.000000  0.006070  1
  Ti  Ti2  1  0.666667  0.333333  0.751450  1
  Nb  Nb3  1  0.000000  0.000000  0.493783  1
  Pt  Pt4  1  0.501083  0.498917  0.501942  1
  Pt  Pt5  1  0.501083  0.002166  0.501942  1
  Pt  Pt6  1  0.997834  0.498917  0.501942  1
  Pt  Pt7  1  0.501110  0.498890  0.998017  1
  Pt  Pt8  1  0.501110  0.002219  0.998017  1
  Pt  Pt9  1  0.997781  0.498890  0.998017  1
  Pt  Pt10  1  0.831577  0.663154  0.248822  1
  Pt  Pt11  1  0.336846  0.168423  0.248822  1
  Pt  Pt12  1  0.831577  0.168423  0.248822  1
  Pt  Pt13  1  0.167495  0.334989  0.750858  1
  Pt  Pt14  1  0.665011  0.832505  0.750858  1
  Pt  Pt15  1  0.167495  0.832505  0.750858  1
