# generated using pymatgen
data_Y13Th3Mg2(ZnCo2)2
_symmetry_space_group_name_H-M   'P 1'
_cell_length_a   9.55608772
_cell_length_b   9.56730211
_cell_length_c   9.58249100
_cell_angle_alpha   59.94747272
_cell_angle_beta   59.90856266
_cell_angle_gamma   60.07336584
_symmetry_Int_Tables_number   1
_chemical_formula_structural   Y13Th3Mg2(ZnCo2)2
_chemical_formula_sum   'Y13 Th3 Mg2 Zn2 Co4'
_cell_volume   619.15481956
_cell_formula_units_Z   1
loop_
 _symmetry_equiv_pos_site_id
 _symmetry_equiv_pos_as_xyz
  1  'x, y, z'
loop_
 _atom_site_type_symbol
 _atom_site_label
 _atom_site_symmetry_multiplicity
 _atom_site_fract_x
 _atom_site_fract_y
 _atom_site_fract_z
 _atom_site_occupancy
  Y  Y0  1  0.951345  0.351802  0.348426  1
  Y  Y1  1  0.811225  0.187750  0.188563  1
  Y  Y2  1  0.187876  0.811404  0.812518  1
  Y  Y3  1  0.187876  0.811404  0.188201  1
  Y  Y4  1  0.811225  0.187750  0.812463  1
  Y  Y5  1  0.188171  0.186510  0.812659  1
  Y  Y6  1  0.809364  0.809618  0.190509  1
  Y  Y7  1  0.932064  0.562989  0.565687  1
  Y  Y8  1  0.562841  0.931887  0.940276  1
  Y  Y9  1  0.562841  0.931887  0.564996  1
  Y  Y10  1  0.932064  0.562989  0.939260  1
  Y  Y11  1  0.562965  0.563823  0.936606  1
  Y  Y12  1  0.936826  0.934980  0.564097  1
  Th  Th13  1  0.341659  0.345837  0.345017  1
  Th  Th14  1  0.341659  0.345837  0.967489  1
  Th  Th15  1  0.345049  0.962600  0.346176  1
  Mg  Mg16  1  0.580009  0.273831  0.573080  1
  Mg  Mg17  1  0.270446  0.580747  0.574404  1
  Zn  Zn18  1  0.583324  0.582600  0.580375  1
  Zn  Zn19  1  0.583324  0.582600  0.253700  1
  Co  Co20  1  0.151170  0.139999  0.141567  1
  Co  Co21  1  0.151170  0.139999  0.567264  1
  Co  Co22  1  0.151962  0.566758  0.140640  1
  Co  Co23  1  0.563540  0.144401  0.146030  1
