# generated using pymatgen
data_Yb19Y(SiSb2)4
_symmetry_space_group_name_H-M   'P 1'
_cell_length_a   7.95169118
_cell_length_b   9.47776960
_cell_length_c   12.54477100
_cell_angle_alpha   90.02109803
_cell_angle_beta   89.57653709
_cell_angle_gamma   89.89837426
_symmetry_Int_Tables_number   1
_chemical_formula_structural   Yb19Y(SiSb2)4
_chemical_formula_sum   'Yb19 Y1 Si4 Sb8'
_cell_volume   945.40046860
_cell_formula_units_Z   1
loop_
 _symmetry_equiv_pos_site_id
 _symmetry_equiv_pos_as_xyz
  1  'x, y, z'
loop_
 _atom_site_type_symbol
 _atom_site_label
 _atom_site_symmetry_multiplicity
 _atom_site_fract_x
 _atom_site_fract_y
 _atom_site_fract_z
 _atom_site_occupancy
  Yb  Yb0  1  0.447481  0.749715  0.000945  1
  Yb  Yb1  1  0.950171  0.248458  0.498977  1
  Yb  Yb2  1  0.552417  0.249599  0.000287  1
  Yb  Yb3  1  0.047358  0.753342  0.500558  1
  Yb  Yb4  1  0.651723  0.750087  0.298829  1
  Yb  Yb5  1  0.149534  0.248085  0.201226  1
  Yb  Yb6  1  0.350645  0.249316  0.700383  1
  Yb  Yb7  1  0.851909  0.750938  0.800557  1
  Yb  Yb8  1  0.323442  0.749354  0.720123  1
  Yb  Yb9  1  0.828212  0.249378  0.782516  1
  Yb  Yb10  1  0.676616  0.248730  0.279026  1
  Yb  Yb11  1  0.173385  0.751838  0.218618  1
  Yb  Yb12  1  0.822613  0.529017  0.074352  1
  Yb  Yb13  1  0.674219  0.974345  0.573819  1
  Yb  Yb14  1  0.177328  0.028471  0.925630  1
  Yb  Yb15  1  0.681413  0.528896  0.575880  1
  Yb  Yb16  1  0.177391  0.470626  0.925179  1
  Yb  Yb17  1  0.319736  0.029700  0.423860  1
  Yb  Yb18  1  0.822551  0.970708  0.074253  1
  Y  Y19  1  0.322588  0.473506  0.427726  1
  Si  Si20  1  0.062328  0.749217  0.989280  1
  Si  Si21  1  0.551994  0.255247  0.505951  1
  Si  Si22  1  0.938978  0.250049  0.010599  1
  Si  Si23  1  0.435600  0.745042  0.487582  1
  Sb  Sb24  1  0.441871  0.006503  0.169415  1
  Sb  Sb25  1  0.938159  0.991605  0.331975  1
  Sb  Sb26  1  0.560286  0.507247  0.831713  1
  Sb  Sb27  1  0.063942  0.491059  0.664853  1
  Sb  Sb28  1  0.558320  0.992916  0.829474  1
  Sb  Sb29  1  0.058816  0.006837  0.668311  1
  Sb  Sb30  1  0.441902  0.492780  0.175152  1
  Sb  Sb31  1  0.947072  0.507390  0.332952  1
