# generated using pymatgen
data_Na2TaCr3Se8
_symmetry_space_group_name_H-M   'P 1'
_cell_length_a   14.66682300
_cell_length_b   6.33068578
_cell_length_c   7.29845072
_cell_angle_alpha   89.99019175
_cell_angle_beta   90.00000000
_cell_angle_gamma   90.00000000
_symmetry_Int_Tables_number   1
_chemical_formula_structural   Na2TaCr3Se8
_chemical_formula_sum   'Na4 Ta2 Cr6 Se16'
_cell_volume   677.66878670
_cell_formula_units_Z   2
loop_
 _symmetry_equiv_pos_site_id
 _symmetry_equiv_pos_as_xyz
  1  'x, y, z'
loop_
 _atom_site_type_symbol
 _atom_site_label
 _atom_site_symmetry_multiplicity
 _atom_site_fract_x
 _atom_site_fract_y
 _atom_site_fract_z
 _atom_site_occupancy
  Na  Na0  1  0.250000  0.661554  0.735543  1
  Na  Na1  1  0.750000  0.338446  0.264457  1
  Na  Na2  1  0.750000  0.987539  0.734602  1
  Na  Na3  1  0.250000  0.012461  0.265398  1
  Ta  Ta4  1  0.500000  0.500000  0.000000  1
  Ta  Ta5  1  0.000000  0.500000  0.000000  1
  Cr  Cr6  1  0.499044  0.999280  0.751351  1
  Cr  Cr7  1  0.000956  0.999280  0.751351  1
  Cr  Cr8  1  0.500956  0.000720  0.248649  1
  Cr  Cr9  1  0.999044  0.000720  0.248649  1
  Cr  Cr10  1  0.000000  0.500000  0.500000  1
  Cr  Cr11  1  0.500000  0.500000  0.500000  1
  Se  Se12  1  0.602089  0.163787  0.000490  1
  Se  Se13  1  0.905027  0.165694  0.499710  1
  Se  Se14  1  0.405027  0.834306  0.500290  1
  Se  Se15  1  0.102089  0.836213  0.999510  1
  Se  Se16  1  0.397911  0.836213  0.999510  1
  Se  Se17  1  0.094973  0.834306  0.500290  1
  Se  Se18  1  0.594973  0.165694  0.499710  1
  Se  Se19  1  0.897911  0.163787  0.000490  1
  Se  Se20  1  0.399231  0.328767  0.746363  1
  Se  Se21  1  0.100769  0.328767  0.746363  1
  Se  Se22  1  0.600769  0.671233  0.253637  1
  Se  Se23  1  0.899231  0.671233  0.253637  1
  Se  Se24  1  0.600075  0.667566  0.745732  1
  Se  Se25  1  0.899925  0.667566  0.745732  1
  Se  Se26  1  0.399925  0.332434  0.254268  1
  Se  Se27  1  0.100075  0.332434  0.254268  1
