# generated using pymatgen
data_TiAl2(VOs2)3
_symmetry_space_group_name_H-M   'P 1'
_cell_length_a   4.27748800
_cell_length_b   6.06588700
_cell_length_c   12.88256100
_cell_angle_alpha   90.00003668
_cell_angle_beta   89.99890822
_cell_angle_gamma   90.00002284
_symmetry_Int_Tables_number   1
_chemical_formula_structural   TiAl2(VOs2)3
_chemical_formula_sum   'Ti2 Al4 V6 Os12'
_cell_volume   334.26070363
_cell_formula_units_Z   2
loop_
 _symmetry_equiv_pos_site_id
 _symmetry_equiv_pos_as_xyz
  1  'x, y, z'
loop_
 _atom_site_type_symbol
 _atom_site_label
 _atom_site_symmetry_multiplicity
 _atom_site_fract_x
 _atom_site_fract_y
 _atom_site_fract_z
 _atom_site_occupancy
  Ti  Ti0  1  0.999991  0.500001  0.999143  1
  Ti  Ti1  1  0.499869  0.999999  0.167550  1
  Al  Al2  1  0.999848  0.500001  0.335203  1
  Al  Al3  1  0.499997  0.000000  0.500601  1
  Al  Al4  1  0.000163  0.500000  0.666002  1
  Al  Al5  1  0.500152  0.999999  0.831491  1
  V  V6  1  0.999967  0.000000  0.998081  1
  V  V7  1  0.499860  0.500000  0.168628  1
  V  V8  1  0.999844  0.000000  0.336572  1
  V  V9  1  0.500011  0.500000  0.501067  1
  V  V10  1  0.000158  0.000000  0.665550  1
  V  V11  1  0.500127  0.500000  0.829991  1
  Os  Os12  1  0.499993  0.248871  0.999528  1
  Os  Os13  1  0.499993  0.751130  0.999528  1
  Os  Os14  1  0.999882  0.250984  0.167179  1
  Os  Os15  1  0.999881  0.749016  0.167179  1
  Os  Os16  1  0.499873  0.250492  0.333738  1
  Os  Os17  1  0.499873  0.749507  0.333739  1
  Os  Os18  1  0.999998  0.249465  0.500172  1
  Os  Os19  1  0.999998  0.750535  0.500172  1
  Os  Os20  1  0.500141  0.250476  0.666489  1
  Os  Os21  1  0.500141  0.749524  0.666489  1
  Os  Os22  1  0.000121  0.249561  0.832955  1
  Os  Os23  1  0.000121  0.750439  0.832954  1
