# generated using pymatgen
data_Li4CaPr3Pb4
_symmetry_space_group_name_H-M   'P 1'
_cell_length_a   4.82078000
_cell_length_b   7.86864040
_cell_length_c   8.44543698
_cell_angle_alpha   90.47722287
_cell_angle_beta   90.00000000
_cell_angle_gamma   90.00000000
_symmetry_Int_Tables_number   1
_chemical_formula_structural   Li4CaPr3Pb4
_chemical_formula_sum   'Li4 Ca1 Pr3 Pb4'
_cell_volume   320.34951568
_cell_formula_units_Z   1
loop_
 _symmetry_equiv_pos_site_id
 _symmetry_equiv_pos_as_xyz
  1  'x, y, z'
loop_
 _atom_site_type_symbol
 _atom_site_label
 _atom_site_symmetry_multiplicity
 _atom_site_fract_x
 _atom_site_fract_y
 _atom_site_fract_z
 _atom_site_occupancy
  Li  Li0  1  0.750000  0.836803  0.423195  1
  Li  Li1  1  0.250000  0.163792  0.570789  1
  Li  Li2  1  0.250000  0.670701  0.924992  1
  Li  Li3  1  0.750000  0.328855  0.075850  1
  Ca  Ca4  1  0.250000  0.004733  0.206936  1
  Pr  Pr5  1  0.750000  0.496838  0.715562  1
  Pr  Pr6  1  0.750000  0.995007  0.795949  1
  Pr  Pr7  1  0.250000  0.503604  0.285634  1
  Pb  Pb8  1  0.750000  0.716920  0.093677  1
  Pb  Pb9  1  0.250000  0.277585  0.901299  1
  Pb  Pb10  1  0.750000  0.232330  0.408261  1
  Pb  Pb11  1  0.250000  0.772833  0.597856  1
