# generated using pymatgen
data_Tb18MgInIr12
_symmetry_space_group_name_H-M   'P 1'
_cell_length_a   10.89775700
_cell_length_b   10.89775700
_cell_length_c   6.30570100
_cell_angle_alpha   90.00000000
_cell_angle_beta   90.00000000
_cell_angle_gamma   90.00000000
_symmetry_Int_Tables_number   1
_chemical_formula_structural   Tb18MgInIr12
_chemical_formula_sum   'Tb18 Mg1 In1 Ir12'
_cell_volume   748.87203515
_cell_formula_units_Z   1
loop_
 _symmetry_equiv_pos_site_id
 _symmetry_equiv_pos_as_xyz
  1  'x, y, z'
loop_
 _atom_site_type_symbol
 _atom_site_label
 _atom_site_symmetry_multiplicity
 _atom_site_fract_x
 _atom_site_fract_y
 _atom_site_fract_z
 _atom_site_occupancy
  Tb  Tb0  1  0.284183  0.085442  0.379791  1
  Tb  Tb1  1  0.292076  0.910330  0.881395  1
  Tb  Tb2  1  0.707924  0.089670  0.881395  1
  Tb  Tb3  1  0.715817  0.914558  0.379791  1
  Tb  Tb4  1  0.589302  0.791557  0.884061  1
  Tb  Tb5  1  0.585716  0.214796  0.379547  1
  Tb  Tb6  1  0.414284  0.785204  0.379547  1
  Tb  Tb7  1  0.410698  0.208443  0.884061  1
  Tb  Tb8  1  0.214796  0.414284  0.620453  1
  Tb  Tb9  1  0.208443  0.589302  0.115939  1
  Tb  Tb10  1  0.791557  0.410698  0.115939  1
  Tb  Tb11  1  0.785204  0.585716  0.620453  1
  Tb  Tb12  1  0.910330  0.707924  0.118605  1
  Tb  Tb13  1  0.914558  0.284183  0.620209  1
  Tb  Tb14  1  0.085442  0.715817  0.620209  1
  Tb  Tb15  1  0.089670  0.292076  0.118605  1
  Tb  Tb16  1  0.000000  0.000000  0.000000  1
  Tb  Tb17  1  0.500000  0.500000  0.000000  1
  Mg  Mg18  1  0.500000  0.500000  0.500000  1
  In  In19  1  0.000000  0.000000  0.500000  1
  Ir  Ir20  1  0.845634  0.156361  0.246803  1
  Ir  Ir21  1  0.843639  0.845634  0.753197  1
  Ir  Ir22  1  0.156361  0.154366  0.753197  1
  Ir  Ir23  1  0.154366  0.843639  0.246803  1
  Ir  Ir24  1  0.654378  0.346763  0.748044  1
  Ir  Ir25  1  0.653237  0.654378  0.251956  1
  Ir  Ir26  1  0.346763  0.345622  0.251956  1
  Ir  Ir27  1  0.345622  0.653237  0.748044  1
  Ir  Ir28  1  0.500000  0.000000  0.127202  1
  Ir  Ir29  1  0.500000  0.000000  0.616361  1
  Ir  Ir30  1  0.000000  0.500000  0.872798  1
  Ir  Ir31  1  0.000000  0.500000  0.383639  1
