# generated using pymatgen
data_Nd7Th(InIr)2
_symmetry_space_group_name_H-M   'P 1'
_cell_length_a   10.00480345
_cell_length_b   10.00480355
_cell_length_c   10.00128000
_cell_angle_alpha   60.01164952
_cell_angle_beta   60.01164921
_cell_angle_gamma   60.13365763
_symmetry_Int_Tables_number   1
_chemical_formula_structural   Nd7Th(InIr)2
_chemical_formula_sum   'Nd14 Th2 In4 Ir4'
_cell_volume   708.71412207
_cell_formula_units_Z   2
loop_
 _symmetry_equiv_pos_site_id
 _symmetry_equiv_pos_as_xyz
  1  'x, y, z'
loop_
 _atom_site_type_symbol
 _atom_site_label
 _atom_site_symmetry_multiplicity
 _atom_site_fract_x
 _atom_site_fract_y
 _atom_site_fract_z
 _atom_site_occupancy
  Nd  Nd0  1  0.348552  0.952197  0.349626  1
  Nd  Nd1  1  0.952197  0.348552  0.349626  1
  Nd  Nd2  1  0.809419  0.191556  0.191171  1
  Nd  Nd3  1  0.191556  0.809419  0.807854  1
  Nd  Nd4  1  0.191556  0.809419  0.191171  1
  Nd  Nd5  1  0.809419  0.191556  0.807854  1
  Nd  Nd6  1  0.191284  0.191284  0.808716  1
  Nd  Nd7  1  0.808237  0.808237  0.191763  1
  Nd  Nd8  1  0.940966  0.560405  0.560015  1
  Nd  Nd9  1  0.560405  0.940966  0.938614  1
  Nd  Nd10  1  0.560405  0.940966  0.560015  1
  Nd  Nd11  1  0.940966  0.560405  0.938614  1
  Nd  Nd12  1  0.560035  0.560035  0.939965  1
  Nd  Nd13  1  0.940010  0.940010  0.559990  1
  Th  Th14  1  0.344385  0.344385  0.346899  1
  Th  Th15  1  0.344385  0.344385  0.964331  1
  In  In16  1  0.580920  0.580920  0.582423  1
  In  In17  1  0.580920  0.580920  0.255737  1
  In  In18  1  0.580247  0.255814  0.581970  1
  In  In19  1  0.255814  0.580247  0.581970  1
  Ir  Ir20  1  0.145287  0.145287  0.137784  1
  Ir  Ir21  1  0.145287  0.145287  0.571640  1
  Ir  Ir22  1  0.149701  0.568045  0.141126  1
  Ir  Ir23  1  0.568045  0.149701  0.141126  1
