# generated using pymatgen
data_Tm2Co9Si7Ni3
_symmetry_space_group_name_H-M   'P 1'
_cell_length_a   9.10489091
_cell_length_b   9.12250549
_cell_length_c   3.64130100
_cell_angle_alpha   90.00000000
_cell_angle_beta   90.00000000
_cell_angle_gamma   119.95372047
_symmetry_Int_Tables_number   1
_chemical_formula_structural   Tm2Co9Si7Ni3
_chemical_formula_sum   'Tm2 Co9 Si7 Ni3'
_cell_volume   262.04654242
_cell_formula_units_Z   1
loop_
 _symmetry_equiv_pos_site_id
 _symmetry_equiv_pos_as_xyz
  1  'x, y, z'
loop_
 _atom_site_type_symbol
 _atom_site_label
 _atom_site_symmetry_multiplicity
 _atom_site_fract_x
 _atom_site_fract_y
 _atom_site_fract_z
 _atom_site_occupancy
  Tm  Tm0  1  0.998158  0.998349  0.000000  1
  Tm  Tm1  1  0.671471  0.334993  0.500000  1
  Co  Co2  1  0.892255  0.284821  0.000000  1
  Co  Co3  1  0.202546  0.387091  0.000000  1
  Co  Co4  1  0.610309  0.815998  0.000000  1
  Co  Co5  1  0.185404  0.796142  0.000000  1
  Co  Co6  1  0.763707  0.045329  0.500000  1
  Co  Co7  1  0.954328  0.719931  0.500000  1
  Co  Co8  1  0.455838  0.562664  0.500000  1
  Co  Co9  1  0.434924  0.883548  0.500000  1
  Co  Co10  1  0.108881  0.545976  0.500000  1
  Si  Si11  1  0.446805  0.387365  0.000000  1
  Si  Si12  1  0.616529  0.061610  0.000000  1
  Si  Si13  1  0.941473  0.554957  0.000000  1
  Si  Si14  1  0.035426  0.265848  0.500000  1
  Si  Si15  1  0.735028  0.777408  0.500000  1
  Si  Si16  1  0.225823  0.957126  0.500000  1
  Si  Si17  1  0.332108  0.664508  0.000000  1
  Ni  Ni18  1  0.717629  0.610410  0.000000  1
  Ni  Ni19  1  0.392809  0.111442  0.000000  1
  Ni  Ni20  1  0.278547  0.234484  0.500000  1
