# generated using pymatgen
data_TmLu3Al18PtRh5
_symmetry_space_group_name_H-M   'P 1'
_cell_length_a   7.53588009
_cell_length_b   7.53673965
_cell_length_c   9.40209604
_cell_angle_alpha   89.98665374
_cell_angle_beta   89.99124884
_cell_angle_gamma   119.53187726
_symmetry_Int_Tables_number   1
_chemical_formula_structural   TmLu3Al18PtRh5
_chemical_formula_sum   'Tm1 Lu3 Al18 Pt1 Rh5'
_cell_volume   464.62451963
_cell_formula_units_Z   1
loop_
 _symmetry_equiv_pos_site_id
 _symmetry_equiv_pos_as_xyz
  1  'x, y, z'
loop_
 _atom_site_type_symbol
 _atom_site_label
 _atom_site_symmetry_multiplicity
 _atom_site_fract_x
 _atom_site_fract_y
 _atom_site_fract_z
 _atom_site_occupancy
  Tm  Tm0  1  0.994726  0.670195  0.250263  1
  Lu  Lu1  1  0.004481  0.328898  0.749903  1
  Lu  Lu2  1  0.671050  0.995503  0.250053  1
  Lu  Lu3  1  0.329643  0.005098  0.749668  1
  Al  Al4  1  0.126106  0.125503  0.250287  1
  Al  Al5  1  0.874521  0.873835  0.749714  1
  Al  Al6  1  0.003530  0.334920  0.077007  1
  Al  Al7  1  0.003445  0.668411  0.922723  1
  Al  Al8  1  0.000945  0.664997  0.575616  1
  Al  Al9  1  0.335251  0.999271  0.424618  1
  Al  Al10  1  0.000105  0.334565  0.424281  1
  Al  Al11  1  0.665154  0.999877  0.575749  1
  Al  Al12  1  0.664812  0.996479  0.922968  1
  Al  Al13  1  0.331876  0.996822  0.077049  1
  Al  Al14  1  0.332041  0.332077  0.553206  1
  Al  Al15  1  0.667701  0.667960  0.446942  1
  Al  Al16  1  0.666883  0.670429  0.055338  1
  Al  Al17  1  0.329592  0.332902  0.944531  1
  Al  Al18  1  0.339886  0.550823  0.250376  1
  Al  Al19  1  0.660700  0.452895  0.746855  1
  Al  Al20  1  0.547087  0.339099  0.253159  1
  Al  Al21  1  0.449414  0.660397  0.749631  1
  Pt  Pt22  1  0.672460  0.327494  0.999909  1
  Rh  Rh23  1  0.327853  0.672127  0.999866  1
  Rh  Rh24  1  0.327907  0.672057  0.500137  1
  Rh  Rh25  1  0.672563  0.327289  0.500154  1
  Rh  Rh26  1  0.000070  0.000107  0.999846  1
  Rh  Rh27  1  0.000197  0.999972  0.500151  1
