# generated using pymatgen
data_Tb10Nd6Cd4IrPt3
_symmetry_space_group_name_H-M   'P 1'
_cell_length_a   9.82622166
_cell_length_b   9.80125640
_cell_length_c   9.80125600
_cell_angle_alpha   60.00000134
_cell_angle_beta   60.08401076
_cell_angle_gamma   60.08401511
_symmetry_Int_Tables_number   1
_chemical_formula_structural   Tb10Nd6Cd4IrPt3
_chemical_formula_sum   'Tb10 Nd6 Cd4 Ir1 Pt3'
_cell_volume   668.32140649
_cell_formula_units_Z   1
loop_
 _symmetry_equiv_pos_site_id
 _symmetry_equiv_pos_as_xyz
  1  'x, y, z'
loop_
 _atom_site_type_symbol
 _atom_site_label
 _atom_site_symmetry_multiplicity
 _atom_site_fract_x
 _atom_site_fract_y
 _atom_site_fract_z
 _atom_site_occupancy
  Tb  Tb0  1  0.351319  0.347149  0.347149  1
  Tb  Tb1  1  0.351319  0.347149  0.954384  1
  Tb  Tb2  1  0.351319  0.954384  0.347149  1
  Tb  Tb3  1  0.947388  0.350871  0.350871  1
  Tb  Tb4  1  0.808452  0.188108  0.188108  1
  Tb  Tb5  1  0.189568  0.811130  0.811130  1
  Tb  Tb6  1  0.189568  0.811130  0.188172  1
  Tb  Tb7  1  0.808452  0.188108  0.815331  1
  Tb  Tb8  1  0.189568  0.188172  0.811130  1
  Tb  Tb9  1  0.808452  0.815331  0.188108  1
  Nd  Nd10  1  0.938073  0.562565  0.562565  1
  Nd  Nd11  1  0.564396  0.937618  0.937618  1
  Nd  Nd12  1  0.564396  0.937618  0.560368  1
  Nd  Nd13  1  0.938073  0.562565  0.936798  1
  Nd  Nd14  1  0.564396  0.560368  0.937618  1
  Nd  Nd15  1  0.938073  0.936798  0.562565  1
  Cd  Cd16  1  0.579748  0.579995  0.579995  1
  Cd  Cd17  1  0.579748  0.579995  0.260261  1
  Cd  Cd18  1  0.579748  0.260261  0.579995  1
  Cd  Cd19  1  0.261248  0.579583  0.579583  1
  Ir  Ir20  1  0.574112  0.141963  0.141963  1
  Pt  Pt21  1  0.140863  0.143138  0.143138  1
  Pt  Pt22  1  0.140863  0.143138  0.572860  1
  Pt  Pt23  1  0.140863  0.572860  0.143138  1
