# generated using pymatgen
data_SrTb3Y3NiI12
_symmetry_space_group_name_H-M   'P 1'
_cell_length_a   9.81143971
_cell_length_b   9.81143990
_cell_length_c   9.81144113
_cell_angle_alpha   106.27775037
_cell_angle_beta   106.27774922
_cell_angle_gamma   106.27774739
_symmetry_Int_Tables_number   1
_chemical_formula_structural   SrTb3Y3NiI12
_chemical_formula_sum   'Sr1 Tb3 Y3 Ni1 I12'
_cell_volume   801.57468415
_cell_formula_units_Z   1
loop_
 _symmetry_equiv_pos_site_id
 _symmetry_equiv_pos_as_xyz
  1  'x, y, z'
loop_
 _atom_site_type_symbol
 _atom_site_label
 _atom_site_symmetry_multiplicity
 _atom_site_fract_x
 _atom_site_fract_y
 _atom_site_fract_z
 _atom_site_occupancy
  Sr  Sr0  1  0.500004  0.500004  0.500004  1
  Tb  Tb1  1  0.092704  0.020950  0.290724  1
  Tb  Tb2  1  0.290724  0.092704  0.020950  1
  Tb  Tb3  1  0.020950  0.290724  0.092704  1
  Y  Y4  1  0.907164  0.978620  0.709139  1
  Y  Y5  1  0.709139  0.907164  0.978620  1
  Y  Y6  1  0.978620  0.709139  0.907164  1
  Ni  Ni7  1  0.000424  0.000424  0.000424  1
  I  I8  1  0.926085  0.322438  0.777265  1
  I  I9  1  0.777265  0.926085  0.322438  1
  I  I10  1  0.322438  0.777265  0.926085  1
  I  I11  1  0.073798  0.677619  0.222329  1
  I  I12  1  0.222329  0.073798  0.677619  1
  I  I13  1  0.677619  0.222329  0.073798  1
  I  I14  1  0.551196  0.863676  0.630579  1
  I  I15  1  0.630579  0.551196  0.863676  1
  I  I16  1  0.863676  0.630579  0.551196  1
  I  I17  1  0.449164  0.136479  0.369645  1
  I  I18  1  0.369645  0.449164  0.136479  1
  I  I19  1  0.136479  0.369645  0.449164  1
