# generated using pymatgen
data_Li3Y4Lu(B6Os)4
_symmetry_space_group_name_H-M   'P 1'
_cell_length_a   3.55660400
_cell_length_b   8.92122969
_cell_length_c   11.28503713
_cell_angle_alpha   89.92944778
_cell_angle_beta   90.00000000
_cell_angle_gamma   90.00000000
_symmetry_Int_Tables_number   1
_chemical_formula_structural   Li3Y4Lu(B6Os)4
_chemical_formula_sum   'Li3 Y4 Lu1 B24 Os4'
_cell_volume   358.06584531
_cell_formula_units_Z   1
loop_
 _symmetry_equiv_pos_site_id
 _symmetry_equiv_pos_as_xyz
  1  'x, y, z'
loop_
 _atom_site_type_symbol
 _atom_site_label
 _atom_site_symmetry_multiplicity
 _atom_site_fract_x
 _atom_site_fract_y
 _atom_site_fract_z
 _atom_site_occupancy
  Li  Li0  1  0.000000  0.943536  0.371847  1
  Li  Li1  1  0.000000  0.054811  0.625739  1
  Li  Li2  1  0.000000  0.442447  0.130371  1
  Y  Y3  1  0.000000  0.320820  0.410942  1
  Y  Y4  1  0.000000  0.681864  0.581575  1
  Y  Y5  1  0.000000  0.823844  0.090263  1
  Y  Y6  1  0.000000  0.178205  0.916206  1
  Lu  Lu7  1  0.000000  0.556448  0.871300  1
  B  B8  1  0.500000  0.555268  0.431605  1
  B  B9  1  0.500000  0.444379  0.566278  1
  B  B10  1  0.500000  0.056518  0.068824  1
  B  B11  1  0.500000  0.947553  0.932845  1
  B  B12  1  0.500000  0.758637  0.416731  1
  B  B13  1  0.500000  0.240197  0.581576  1
  B  B14  1  0.500000  0.256864  0.084257  1
  B  B15  1  0.500000  0.749746  0.918723  1
  B  B16  1  0.500000  0.794299  0.264794  1
  B  B17  1  0.500000  0.203264  0.734932  1
  B  B18  1  0.500000  0.293998  0.236278  1
  B  B19  1  0.500000  0.709125  0.763296  1
  B  B20  1  0.500000  0.626064  0.183346  1
  B  B21  1  0.500000  0.368534  0.815601  1
  B  B22  1  0.500000  0.125002  0.318518  1
  B  B23  1  0.500000  0.876521  0.680211  1
  B  B24  1  0.500000  0.979490  0.214773  1
  B  B25  1  0.500000  0.020554  0.785172  1
  B  B26  1  0.500000  0.478932  0.286525  1
  B  B27  1  0.500000  0.518180  0.711771  1
  B  B28  1  0.500000  0.590902  0.030924  1
  B  B29  1  0.500000  0.404683  0.979854  1
  B  B30  1  0.500000  0.092669  0.473892  1
  B  B31  1  0.500000  0.907830  0.524387  1
  Os  Os32  1  0.000000  0.639866  0.317903  1
  Os  Os33  1  0.000000  0.356522  0.678726  1
  Os  Os34  1  0.000000  0.139407  0.183088  1
  Os  Os35  1  0.000000  0.863020  0.816929  1
