# generated using pymatgen
data_Pm4Ga(MoO4)3
_symmetry_space_group_name_H-M   'P 1'
_cell_length_a   5.55527868
_cell_length_b   5.85980926
_cell_length_c   8.06130920
_cell_angle_alpha   89.79934095
_cell_angle_beta   89.92339671
_cell_angle_gamma   89.89263123
_symmetry_Int_Tables_number   1
_chemical_formula_structural   Pm4Ga(MoO4)3
_chemical_formula_sum   'Pm4 Ga1 Mo3 O12'
_cell_volume   262.41647592
_cell_formula_units_Z   1
loop_
 _symmetry_equiv_pos_site_id
 _symmetry_equiv_pos_as_xyz
  1  'x, y, z'
loop_
 _atom_site_type_symbol
 _atom_site_label
 _atom_site_symmetry_multiplicity
 _atom_site_fract_x
 _atom_site_fract_y
 _atom_site_fract_z
 _atom_site_occupancy
  Pm  Pm0  1  0.980647  0.061572  0.243470  1
  Pm  Pm1  1  0.521018  0.565507  0.244131  1
  Pm  Pm2  1  0.478982  0.434493  0.755869  1
  Pm  Pm3  1  0.019352  0.938428  0.756530  1
  Ga  Ga4  1  0.500000  0.000000  0.000000  1
  Mo  Mo5  1  0.000000  0.500001  0.000000  1
  Mo  Mo6  1  0.500000  0.000000  0.500000  1
  Mo  Mo7  1  0.000000  0.500001  0.500000  1
  O  O8  1  0.687293  0.292336  0.057662  1
  O  O9  1  0.795737  0.810189  0.054422  1
  O  O10  1  0.123085  0.450259  0.249471  1
  O  O11  1  0.385451  0.955200  0.240974  1
  O  O12  1  0.689862  0.305104  0.432799  1
  O  O13  1  0.809303  0.803837  0.429062  1
  O  O14  1  0.190698  0.196163  0.570939  1
  O  O15  1  0.310139  0.694896  0.567202  1
  O  O16  1  0.614549  0.044800  0.759026  1
  O  O17  1  0.876916  0.549741  0.750529  1
  O  O18  1  0.204264  0.189811  0.945577  1
  O  O19  1  0.312708  0.707664  0.942337  1
