# generated using pymatgen
data_Dy4Fe5(P4Rh5)3
_symmetry_space_group_name_H-M   'P 1'
_cell_length_a   3.84345200
_cell_length_b   10.70416213
_cell_length_c   12.39364508
_cell_angle_alpha   89.74640393
_cell_angle_beta   90.00000000
_cell_angle_gamma   90.00000000
_symmetry_Int_Tables_number   1
_chemical_formula_structural   Dy4Fe5(P4Rh5)3
_chemical_formula_sum   'Dy4 Fe5 P12 Rh15'
_cell_volume   509.88113188
_cell_formula_units_Z   1
loop_
 _symmetry_equiv_pos_site_id
 _symmetry_equiv_pos_as_xyz
  1  'x, y, z'
loop_
 _atom_site_type_symbol
 _atom_site_label
 _atom_site_symmetry_multiplicity
 _atom_site_fract_x
 _atom_site_fract_y
 _atom_site_fract_z
 _atom_site_occupancy
  Dy  Dy0  1  0.250000  0.577650  0.711208  1
  Dy  Dy1  1  0.250000  0.918554  0.209169  1
  Dy  Dy2  1  0.750000  0.418406  0.290855  1
  Dy  Dy3  1  0.750000  0.085110  0.790360  1
  Fe  Fe4  1  0.750000  0.377196  0.802065  1
  Fe  Fe5  1  0.250000  0.460281  0.932158  1
  Fe  Fe6  1  0.250000  0.038546  0.434066  1
  Fe  Fe7  1  0.750000  0.539640  0.063980  1
  Fe  Fe8  1  0.750000  0.961570  0.567714  1
  P  P9  1  0.250000  0.431006  0.105195  1
  P  P10  1  0.250000  0.070133  0.606576  1
  P  P11  1  0.750000  0.559330  0.887606  1
  P  P12  1  0.750000  0.930220  0.394912  1
  P  P13  1  0.250000  0.275209  0.863528  1
  P  P14  1  0.250000  0.230073  0.370279  1
  P  P15  1  0.750000  0.730350  0.129130  1
  P  P16  1  0.750000  0.769047  0.631323  1
  P  P17  1  0.250000  0.600784  0.389526  1
  P  P18  1  0.250000  0.899488  0.889369  1
  P  P19  1  0.750000  0.398908  0.621049  1
  P  P20  1  0.750000  0.103394  0.109822  1
  Rh  Rh21  1  0.250000  0.716099  0.990921  1
  Rh  Rh22  1  0.250000  0.783216  0.491531  1
  Rh  Rh23  1  0.750000  0.287830  0.007780  1
  Rh  Rh24  1  0.750000  0.217979  0.510781  1
  Rh  Rh25  1  0.250000  0.408524  0.479165  1
  Rh  Rh26  1  0.250000  0.094833  0.977207  1
  Rh  Rh27  1  0.750000  0.589578  0.522047  1
  Rh  Rh28  1  0.750000  0.910272  0.018847  1
  Rh  Rh29  1  0.250000  0.231029  0.174244  1
  Rh  Rh30  1  0.250000  0.271998  0.675031  1
  Rh  Rh31  1  0.750000  0.764777  0.825767  1
  Rh  Rh32  1  0.750000  0.730778  0.324985  1
  Rh  Rh33  1  0.250000  0.881135  0.702055  1
  Rh  Rh34  1  0.250000  0.618275  0.200242  1
  Rh  Rh35  1  0.750000  0.118777  0.299507  1
