# generated using pymatgen
data_Pr17Y(ErSn8)2
_symmetry_space_group_name_H-M   'P 1'
_cell_length_a   8.30059100
_cell_length_b   8.46892440
_cell_length_c   16.05693000
_cell_angle_alpha   90.00000000
_cell_angle_beta   90.00000000
_cell_angle_gamma   90.07573207
_symmetry_Int_Tables_number   1
_chemical_formula_structural   Pr17Y(ErSn8)2
_chemical_formula_sum   'Pr17 Y1 Er2 Sn16'
_cell_volume   1128.75426881
_cell_formula_units_Z   1
loop_
 _symmetry_equiv_pos_site_id
 _symmetry_equiv_pos_as_xyz
  1  'x, y, z'
loop_
 _atom_site_type_symbol
 _atom_site_label
 _atom_site_symmetry_multiplicity
 _atom_site_fract_x
 _atom_site_fract_y
 _atom_site_fract_z
 _atom_site_occupancy
  Pr  Pr0  1  0.366779  0.837640  0.878003  1
  Pr  Pr1  1  0.867031  0.661803  0.620405  1
  Pr  Pr2  1  0.633770  0.162962  0.379683  1
  Pr  Pr3  1  0.132232  0.337946  0.119722  1
  Pr  Pr4  1  0.633770  0.162962  0.120317  1
  Pr  Pr5  1  0.132232  0.337946  0.380278  1
  Pr  Pr6  1  0.366779  0.837640  0.621997  1
  Pr  Pr7  1  0.867031  0.661803  0.879595  1
  Pr  Pr8  1  0.518238  0.318560  0.901121  1
  Pr  Pr9  1  0.018429  0.181138  0.599743  1
  Pr  Pr10  1  0.481878  0.680532  0.401643  1
  Pr  Pr11  1  0.981390  0.818265  0.098207  1
  Pr  Pr12  1  0.481878  0.680532  0.098357  1
  Pr  Pr13  1  0.981390  0.818265  0.401793  1
  Pr  Pr14  1  0.518238  0.318560  0.598879  1
  Pr  Pr15  1  0.018429  0.181138  0.900257  1
  Pr  Pr16  1  0.303662  0.001789  0.250000  1
  Y  Y17  1  0.199438  0.501474  0.750000  1
  Er  Er18  1  0.698851  0.997989  0.750000  1
  Er  Er19  1  0.801578  0.497377  0.250000  1
  Sn  Sn20  1  0.292307  0.036266  0.041240  1
  Sn  Sn21  1  0.791973  0.466505  0.455237  1
  Sn  Sn22  1  0.707465  0.966260  0.545192  1
  Sn  Sn23  1  0.208388  0.534037  0.954545  1
  Sn  Sn24  1  0.707465  0.966260  0.954808  1
  Sn  Sn25  1  0.208388  0.534037  0.545455  1
  Sn  Sn26  1  0.292307  0.036266  0.458760  1
  Sn  Sn27  1  0.791973  0.466505  0.044763  1
  Sn  Sn28  1  0.564143  0.616310  0.750000  1
  Sn  Sn29  1  0.062263  0.883252  0.750000  1
  Sn  Sn30  1  0.437765  0.386899  0.250000  1
  Sn  Sn31  1  0.932178  0.117299  0.250000  1
  Sn  Sn32  1  0.324102  0.147476  0.750000  1
  Sn  Sn33  1  0.822728  0.353564  0.750000  1
  Sn  Sn34  1  0.678991  0.851613  0.250000  1
  Sn  Sn35  1  0.174544  0.641129  0.250000  1
