# generated using pymatgen
data_Er2Th2Pd7Pt5
_symmetry_space_group_name_H-M   'P 1'
_cell_length_a   5.88901472
_cell_length_b   5.87811346
_cell_length_c   9.66275779
_cell_angle_alpha   90.00000169
_cell_angle_beta   89.95983492
_cell_angle_gamma   119.93878296
_symmetry_Int_Tables_number   1
_chemical_formula_structural   Er2Th2Pd7Pt5
_chemical_formula_sum   'Er2 Th2 Pd7 Pt5'
_cell_volume   289.85430666
_cell_formula_units_Z   1
loop_
 _symmetry_equiv_pos_site_id
 _symmetry_equiv_pos_as_xyz
  1  'x, y, z'
loop_
 _atom_site_type_symbol
 _atom_site_label
 _atom_site_symmetry_multiplicity
 _atom_site_fract_x
 _atom_site_fract_y
 _atom_site_fract_z
 _atom_site_occupancy
  Er  Er0  1  0.333891  0.666946  0.250139  1
  Er  Er1  1  0.666109  0.333054  0.749861  1
  Th  Th2  1  0.000000  0.000000  0.500000  1
  Th  Th3  1  0.000000  0.000000  0.000000  1
  Pd  Pd4  1  0.000000  0.500000  0.000000  1
  Pd  Pd5  1  0.826137  0.652074  0.249748  1
  Pd  Pd6  1  0.348597  0.174299  0.249459  1
  Pd  Pd7  1  0.826137  0.174062  0.249748  1
  Pd  Pd8  1  0.173863  0.347926  0.750252  1
  Pd  Pd9  1  0.651403  0.825701  0.750541  1
  Pd  Pd10  1  0.173863  0.825938  0.750252  1
  Pt  Pt11  1  0.500000  0.500000  0.500000  1
  Pt  Pt12  1  0.500000  0.000000  0.500000  1
  Pt  Pt13  1  0.000000  0.500000  0.500000  1
  Pt  Pt14  1  0.500000  0.500000  0.000000  1
  Pt  Pt15  1  0.500000  0.000000  0.000000  1
