# generated using pymatgen
data_Nd2Dy3Ta2BiO14
_symmetry_space_group_name_H-M   'P 1'
_cell_length_a   6.52209798
_cell_length_b   6.62713007
_cell_length_c   7.62769300
_cell_angle_alpha   90.00000000
_cell_angle_beta   90.00000000
_cell_angle_gamma   109.31963877
_symmetry_Int_Tables_number   1
_chemical_formula_structural   Nd2Dy3Ta2BiO14
_chemical_formula_sum   'Nd2 Dy3 Ta2 Bi1 O14'
_cell_volume   311.12454265
_cell_formula_units_Z   1
loop_
 _symmetry_equiv_pos_site_id
 _symmetry_equiv_pos_as_xyz
  1  'x, y, z'
loop_
 _atom_site_type_symbol
 _atom_site_label
 _atom_site_symmetry_multiplicity
 _atom_site_fract_x
 _atom_site_fract_y
 _atom_site_fract_z
 _atom_site_occupancy
  Nd  Nd0  1  0.517192  0.511985  0.502544  1
  Nd  Nd1  1  0.517192  0.511985  0.997456  1
  Dy  Dy2  1  0.003779  0.464938  0.750000  1
  Dy  Dy3  1  0.532214  0.001792  0.750000  1
  Dy  Dy4  1  0.456014  0.998120  0.250000  1
  Ta  Ta5  1  0.996910  0.994704  0.502931  1
  Ta  Ta6  1  0.996910  0.994704  0.997069  1
  Bi  Bi7  1  0.009324  0.508622  0.250000  1
  O  O8  1  0.931594  0.072548  0.750000  1
  O  O9  1  0.058685  0.959172  0.250000  1
  O  O10  1  0.368600  0.641565  0.250000  1
  O  O11  1  0.643596  0.354137  0.750000  1
  O  O12  1  0.369925  0.636608  0.750000  1
  O  O13  1  0.617145  0.350340  0.250000  1
  O  O14  1  0.312909  0.057433  0.965228  1
  O  O15  1  0.678109  0.931464  0.466260  1
  O  O16  1  0.312909  0.057433  0.534772  1
  O  O17  1  0.678109  0.931464  0.033740  1
  O  O18  1  0.073735  0.322132  0.474903  1
  O  O19  1  0.925706  0.688359  0.953330  1
  O  O20  1  0.925706  0.688359  0.546670  1
  O  O21  1  0.073735  0.322132  0.025097  1
