# generated using pymatgen
data_HoEr2Pa(VB4)4
_symmetry_space_group_name_H-M   'P 1'
_cell_length_a   3.46906400
_cell_length_b   5.98396331
_cell_length_c   11.57921300
_cell_angle_alpha   89.87120506
_cell_angle_beta   90.00000000
_cell_angle_gamma   90.00000000
_symmetry_Int_Tables_number   1
_chemical_formula_structural   HoEr2Pa(VB4)4
_chemical_formula_sum   'Ho1 Er2 Pa1 V4 B16'
_cell_volume   240.36940003
_cell_formula_units_Z   1
loop_
 _symmetry_equiv_pos_site_id
 _symmetry_equiv_pos_as_xyz
  1  'x, y, z'
loop_
 _atom_site_type_symbol
 _atom_site_label
 _atom_site_symmetry_multiplicity
 _atom_site_fract_x
 _atom_site_fract_y
 _atom_site_fract_z
 _atom_site_occupancy
  Ho  Ho0  1  0.500000  0.874362  0.152187  1
  Er  Er1  1  0.500000  0.623006  0.648835  1
  Er  Er2  1  0.500000  0.375385  0.349464  1
  Pa  Pa3  1  0.500000  0.125948  0.848773  1
  V  V4  1  0.500000  0.126057  0.583959  1
  V  V5  1  0.500000  0.872390  0.417308  1
  V  V6  1  0.500000  0.628199  0.916248  1
  V  V7  1  0.500000  0.372246  0.082242  1
  B  B8  1  0.000000  0.285504  0.684931  1
  B  B9  1  0.000000  0.713486  0.314105  1
  B  B10  1  0.000000  0.784805  0.814563  1
  B  B11  1  0.000000  0.215319  0.186798  1
  B  B12  1  0.000000  0.365363  0.531959  1
  B  B13  1  0.000000  0.634787  0.467179  1
  B  B14  1  0.000000  0.865245  0.967801  1
  B  B15  1  0.000000  0.136781  0.033162  1
  B  B16  1  0.000000  0.023597  0.307275  1
  B  B17  1  0.000000  0.975970  0.691199  1
  B  B18  1  0.000000  0.522871  0.193614  1
  B  B19  1  0.000000  0.475491  0.807976  1
  B  B20  1  0.000000  0.114969  0.452158  1
  B  B21  1  0.000000  0.884867  0.546490  1
  B  B22  1  0.000000  0.615214  0.048163  1
  B  B23  1  0.000000  0.388139  0.953613  1
