# generated using pymatgen
data_Er4Ga18Ir5Pd
_symmetry_space_group_name_H-M   'P 1'
_cell_length_a   7.59238235
_cell_length_b   7.59238191
_cell_length_c   9.46950845
_cell_angle_alpha   89.95885811
_cell_angle_beta   89.95885999
_cell_angle_gamma   119.95105755
_symmetry_Int_Tables_number   1
_chemical_formula_structural   Er4Ga18Ir5Pd
_chemical_formula_sum   'Er4 Ga18 Ir5 Pd1'
_cell_volume   472.96359119
_cell_formula_units_Z   1
loop_
 _symmetry_equiv_pos_site_id
 _symmetry_equiv_pos_as_xyz
  1  'x, y, z'
loop_
 _atom_site_type_symbol
 _atom_site_label
 _atom_site_symmetry_multiplicity
 _atom_site_fract_x
 _atom_site_fract_y
 _atom_site_fract_z
 _atom_site_occupancy
  Er  Er0  1  0.996752  0.668988  0.751270  1
  Er  Er1  1  0.004506  0.331841  0.248608  1
  Er  Er2  1  0.668159  0.995494  0.751392  1
  Er  Er3  1  0.331012  0.003248  0.248730  1
  Ga  Ga4  1  0.127410  0.126887  0.750299  1
  Ga  Ga5  1  0.873113  0.872590  0.249701  1
  Ga  Ga6  1  0.001276  0.333937  0.582133  1
  Ga  Ga7  1  0.004064  0.668853  0.418025  1
  Ga  Ga8  1  0.001650  0.665967  0.080153  1
  Ga  Ga9  1  0.334033  0.998350  0.919847  1
  Ga  Ga10  1  0.997920  0.333745  0.919594  1
  Ga  Ga11  1  0.666255  0.002080  0.080406  1
  Ga  Ga12  1  0.666063  0.998724  0.417867  1
  Ga  Ga13  1  0.331147  0.995936  0.581975  1
  Ga  Ga14  1  0.332113  0.331934  0.065804  1
  Ga  Ga15  1  0.668066  0.667887  0.934196  1
  Ga  Ga16  1  0.667684  0.670703  0.568013  1
  Ga  Ga17  1  0.329297  0.332316  0.431987  1
  Ga  Ga18  1  0.339894  0.546861  0.750411  1
  Ga  Ga19  1  0.660326  0.454147  0.247774  1
  Ga  Ga20  1  0.545853  0.339674  0.752226  1
  Ga  Ga21  1  0.453139  0.660106  0.249589  1
  Ir  Ir22  1  0.328824  0.671176  0.500000  1
  Ir  Ir23  1  0.327985  0.672015  0.000000  1
  Ir  Ir24  1  0.671855  0.328145  0.000000  1
  Ir  Ir25  1  0.000393  0.999607  0.500000  1
  Ir  Ir26  1  0.999800  0.000200  0.000000  1
  Pd  Pd27  1  0.671410  0.328590  0.500000  1
