# generated using pymatgen
data_MnTl4(MoO4)3
_symmetry_space_group_name_H-M   'P 1'
_cell_length_a   6.22662372
_cell_length_b   6.22662434
_cell_length_c   24.19483000
_cell_angle_alpha   89.87124914
_cell_angle_beta   89.87124913
_cell_angle_gamma   120.06998677
_symmetry_Int_Tables_number   1
_chemical_formula_structural   MnTl4(MoO4)3
_chemical_formula_sum   'Mn2 Tl8 Mo6 O24'
_cell_volume   811.79689786
_cell_formula_units_Z   2
loop_
 _symmetry_equiv_pos_site_id
 _symmetry_equiv_pos_as_xyz
  1  'x, y, z'
loop_
 _atom_site_type_symbol
 _atom_site_label
 _atom_site_symmetry_multiplicity
 _atom_site_fract_x
 _atom_site_fract_y
 _atom_site_fract_z
 _atom_site_occupancy
  Mn  Mn0  1  0.999430  0.999315  0.250743  1
  Mn  Mn1  1  0.999315  0.999430  0.750743  1
  Tl  Tl2  1  0.332716  0.666002  0.144837  1
  Tl  Tl3  1  0.334049  0.667268  0.353496  1
  Tl  Tl4  1  0.666002  0.332716  0.644837  1
  Tl  Tl5  1  0.667268  0.334049  0.853496  1
  Tl  Tl6  1  0.666460  0.333303  0.028887  1
  Tl  Tl7  1  0.667174  0.333958  0.478810  1
  Tl  Tl8  1  0.333303  0.666460  0.528887  1
  Tl  Tl9  1  0.333958  0.667174  0.978810  1
  Mo  Mo10  1  0.000127  0.000181  0.088860  1
  Mo  Mo11  1  0.999990  0.999906  0.411538  1
  Mo  Mo12  1  0.000181  0.000127  0.588860  1
  Mo  Mo13  1  0.999906  0.999990  0.911538  1
  Mo  Mo14  1  0.666649  0.333042  0.226762  1
  Mo  Mo15  1  0.333042  0.666649  0.726762  1
  O  O16  1  0.156405  0.840503  0.064342  1
  O  O17  1  0.161082  0.316687  0.064178  1
  O  O18  1  0.684352  0.844582  0.064293  1
  O  O19  1  0.154374  0.837358  0.435095  1
  O  O20  1  0.162398  0.316835  0.435035  1
  O  O21  1  0.682644  0.844694  0.435305  1
  O  O22  1  0.840503  0.156405  0.564342  1
  O  O23  1  0.316687  0.161082  0.564178  1
  O  O24  1  0.844582  0.684352  0.564293  1
  O  O25  1  0.837358  0.154374  0.935095  1
  O  O26  1  0.316835  0.162398  0.935035  1
  O  O27  1  0.844694  0.682644  0.935305  1
  O  O28  1  0.999254  0.999784  0.162862  1
  O  O29  1  0.000181  0.000523  0.337484  1
  O  O30  1  0.999784  0.999254  0.662862  1
  O  O31  1  0.000523  0.000181  0.837484  1
  O  O32  1  0.667717  0.335222  0.153479  1
  O  O33  1  0.335222  0.667717  0.653479  1
  O  O34  1  0.372276  0.081007  0.251271  1
  O  O35  1  0.917456  0.289937  0.251167  1
  O  O36  1  0.709216  0.626147  0.251635  1
  O  O37  1  0.081007  0.372276  0.751271  1
  O  O38  1  0.289937  0.917456  0.751167  1
  O  O39  1  0.626147  0.709216  0.751635  1
