# generated using pymatgen
data_LiSm(Si7Ir3)2
_symmetry_space_group_name_H-M   'P 1'
_cell_length_a   8.03337347
_cell_length_b   8.03337326
_cell_length_c   8.03337200
_cell_angle_alpha   56.86270898
_cell_angle_beta   56.86270143
_cell_angle_gamma   56.86271762
_symmetry_Int_Tables_number   1
_chemical_formula_structural   LiSm(Si7Ir3)2
_chemical_formula_sum   'Li1 Sm1 Si14 Ir6'
_cell_volume   340.05200361
_cell_formula_units_Z   1
loop_
 _symmetry_equiv_pos_site_id
 _symmetry_equiv_pos_as_xyz
  1  'x, y, z'
loop_
 _atom_site_type_symbol
 _atom_site_label
 _atom_site_symmetry_multiplicity
 _atom_site_fract_x
 _atom_site_fract_y
 _atom_site_fract_z
 _atom_site_occupancy
  Li  Li0  1  0.000000  0.000000  0.000000  1
  Sm  Sm1  1  0.500000  0.500000  0.500000  1
  Si  Si2  1  0.749787  0.749787  0.749787  1
  Si  Si3  1  0.250213  0.250213  0.250213  1
  Si  Si4  1  0.854407  0.063826  0.676448  1
  Si  Si5  1  0.676448  0.854407  0.063826  1
  Si  Si6  1  0.063826  0.676448  0.854407  1
  Si  Si7  1  0.654515  0.829160  0.431328  1
  Si  Si8  1  0.431328  0.654515  0.829160  1
  Si  Si9  1  0.829160  0.431328  0.654515  1
  Si  Si10  1  0.170840  0.568672  0.345485  1
  Si  Si11  1  0.568672  0.345485  0.170840  1
  Si  Si12  1  0.345485  0.170840  0.568672  1
  Si  Si13  1  0.936174  0.323552  0.145593  1
  Si  Si14  1  0.323552  0.145593  0.936174  1
  Si  Si15  1  0.145593  0.936174  0.323552  1
  Ir  Ir16  1  0.072107  0.430893  0.748742  1
  Ir  Ir17  1  0.251258  0.927893  0.569107  1
  Ir  Ir18  1  0.569107  0.251258  0.927893  1
  Ir  Ir19  1  0.927893  0.569107  0.251258  1
  Ir  Ir20  1  0.430893  0.748742  0.072107  1
  Ir  Ir21  1  0.748742  0.072107  0.430893  1
