# generated using pymatgen
data_CsVCdF6
_symmetry_space_group_name_H-M   'P 1'
_cell_length_a   7.77270963
_cell_length_b   7.77270932
_cell_length_c   7.77270930
_cell_angle_alpha   120.11076964
_cell_angle_beta   119.35613017
_cell_angle_gamma   90.46353149
_symmetry_Int_Tables_number   1
_chemical_formula_structural   CsVCdF6
_chemical_formula_sum   'Cs2 V2 Cd2 F12'
_cell_volume   333.35718583
_cell_formula_units_Z   2
loop_
 _symmetry_equiv_pos_site_id
 _symmetry_equiv_pos_as_xyz
  1  'x, y, z'
loop_
 _atom_site_type_symbol
 _atom_site_label
 _atom_site_symmetry_multiplicity
 _atom_site_fract_x
 _atom_site_fract_y
 _atom_site_fract_z
 _atom_site_occupancy
  Cs  Cs0  1  0.376476  0.626476  0.750000  1
  Cs  Cs1  1  0.623524  0.373524  0.250000  1
  V  V2  1  0.000000  0.000000  0.000000  1
  V  V3  1  0.500000  0.000000  0.500000  1
  Cd  Cd4  1  0.000000  0.000000  0.500000  1
  Cd  Cd5  1  0.000000  0.500000  0.000000  1
  F  F6  1  0.285409  0.035409  0.250000  1
  F  F7  1  0.902275  0.652275  0.250000  1
  F  F8  1  0.349516  0.695846  0.294594  1
  F  F9  1  0.901251  0.054922  0.205406  1
  F  F10  1  0.349516  0.054922  0.653671  1
  F  F11  1  0.901251  0.695846  0.846329  1
  F  F12  1  0.714591  0.964591  0.750000  1
  F  F13  1  0.097725  0.347725  0.750000  1
  F  F14  1  0.650484  0.304154  0.705406  1
  F  F15  1  0.098749  0.945078  0.794594  1
  F  F16  1  0.650484  0.945078  0.346329  1
  F  F17  1  0.098749  0.304154  0.153671  1
