# generated using pymatgen
data_Li3Tb4Co8(P4Ir3)3
_symmetry_space_group_name_H-M   'P 1'
_cell_length_a   3.81373400
_cell_length_b   10.57535198
_cell_length_c   12.41365787
_cell_angle_alpha   90.40005106
_cell_angle_beta   90.00000000
_cell_angle_gamma   90.00000000
_symmetry_Int_Tables_number   1
_chemical_formula_structural   Li3Tb4Co8(P4Ir3)3
_chemical_formula_sum   'Li3 Tb4 Co8 P12 Ir9'
_cell_volume   500.65022410
_cell_formula_units_Z   1
loop_
 _symmetry_equiv_pos_site_id
 _symmetry_equiv_pos_as_xyz
  1  'x, y, z'
loop_
 _atom_site_type_symbol
 _atom_site_label
 _atom_site_symmetry_multiplicity
 _atom_site_fract_x
 _atom_site_fract_y
 _atom_site_fract_z
 _atom_site_occupancy
  Li  Li0  1  0.250000  0.705571  0.989112  1
  Li  Li1  1  0.250000  0.794093  0.489639  1
  Li  Li2  1  0.750000  0.293288  0.010033  1
  Tb  Tb3  1  0.250000  0.583238  0.711434  1
  Tb  Tb4  1  0.250000  0.918743  0.211474  1
  Tb  Tb5  1  0.750000  0.421281  0.289273  1
  Tb  Tb6  1  0.750000  0.081484  0.790324  1
  Co  Co7  1  0.250000  0.882397  0.693240  1
  Co  Co8  1  0.250000  0.617562  0.190983  1
  Co  Co9  1  0.750000  0.115114  0.308428  1
  Co  Co10  1  0.750000  0.380195  0.803821  1
  Co  Co11  1  0.250000  0.465707  0.933356  1
  Co  Co12  1  0.250000  0.040193  0.437265  1
  Co  Co13  1  0.750000  0.532098  0.063741  1
  Co  Co14  1  0.750000  0.964861  0.565404  1
  P  P15  1  0.250000  0.428741  0.109952  1
  P  P16  1  0.250000  0.066097  0.612236  1
  P  P17  1  0.750000  0.570337  0.888043  1
  P  P18  1  0.750000  0.928446  0.389923  1
  P  P19  1  0.250000  0.274475  0.865562  1
  P  P20  1  0.250000  0.225893  0.366593  1
  P  P21  1  0.750000  0.723672  0.134188  1
  P  P22  1  0.750000  0.773607  0.633433  1
  P  P23  1  0.250000  0.601534  0.380814  1
  P  P24  1  0.250000  0.898987  0.882345  1
  P  P25  1  0.750000  0.402426  0.619836  1
  P  P26  1  0.750000  0.101064  0.118860  1
  Ir  Ir27  1  0.750000  0.214518  0.510860  1
  Ir  Ir28  1  0.250000  0.405938  0.474111  1
  Ir  Ir29  1  0.250000  0.095878  0.975542  1
  Ir  Ir30  1  0.750000  0.592588  0.523860  1
  Ir  Ir31  1  0.750000  0.904125  0.025666  1
  Ir  Ir32  1  0.250000  0.220086  0.179129  1
  Ir  Ir33  1  0.250000  0.274532  0.675476  1
  Ir  Ir34  1  0.750000  0.780001  0.823163  1
  Ir  Ir35  1  0.750000  0.721227  0.322880  1
