# generated using pymatgen
data_YEr2Tm5(ReC2)4
_symmetry_space_group_name_H-M   'P 1'
_cell_length_a   5.05214100
_cell_length_b   6.53960045
_cell_length_c   9.76772367
_cell_angle_alpha   89.86616017
_cell_angle_beta   90.00000000
_cell_angle_gamma   90.00000000
_symmetry_Int_Tables_number   1
_chemical_formula_structural   YEr2Tm5(ReC2)4
_chemical_formula_sum   'Y1 Er2 Tm5 Re4 C8'
_cell_volume   322.71478152
_cell_formula_units_Z   1
loop_
 _symmetry_equiv_pos_site_id
 _symmetry_equiv_pos_as_xyz
  1  'x, y, z'
loop_
 _atom_site_type_symbol
 _atom_site_label
 _atom_site_symmetry_multiplicity
 _atom_site_fract_x
 _atom_site_fract_y
 _atom_site_fract_z
 _atom_site_occupancy
  Y  Y0  1  0.750000  0.535162  0.784340  1
  Er  Er1  1  0.250000  0.464701  0.216311  1
  Er  Er2  1  0.750000  0.034961  0.716436  1
  Tm  Tm3  1  0.250000  0.964921  0.283167  1
  Tm  Tm4  1  0.750000  0.676120  0.441817  1
  Tm  Tm5  1  0.250000  0.823937  0.942372  1
  Tm  Tm6  1  0.750000  0.176359  0.058124  1
  Tm  Tm7  1  0.250000  0.323674  0.557639  1
  Re  Re8  1  0.250000  0.281245  0.868486  1
  Re  Re9  1  0.250000  0.782326  0.631418  1
  Re  Re10  1  0.750000  0.217262  0.367961  1
  Re  Re11  1  0.750000  0.718386  0.132024  1
  C  C12  1  0.250000  0.674376  0.447424  1
  C  C13  1  0.250000  0.549654  0.758947  1
  C  C14  1  0.750000  0.450005  0.240592  1
  C  C15  1  0.750000  0.829182  0.948806  1
  C  C16  1  0.250000  0.049668  0.740696  1
  C  C17  1  0.250000  0.172596  0.052452  1
  C  C18  1  0.750000  0.325396  0.551434  1
  C  C19  1  0.750000  0.950070  0.259556  1
