# generated using pymatgen
data_UVCo20ReB6
_symmetry_space_group_name_H-M   'P 1'
_cell_length_a   7.44478571
_cell_length_b   7.44523925
_cell_length_c   7.44617800
_cell_angle_alpha   59.99582010
_cell_angle_beta   59.99380449
_cell_angle_gamma   59.99635988
_symmetry_Int_Tables_number   1
_chemical_formula_structural   UVCo20ReB6
_chemical_formula_sum   'U1 V1 Co20 Re1 B6'
_cell_volume   291.81208255
_cell_formula_units_Z   1
loop_
 _symmetry_equiv_pos_site_id
 _symmetry_equiv_pos_as_xyz
  1  'x, y, z'
loop_
 _atom_site_type_symbol
 _atom_site_label
 _atom_site_symmetry_multiplicity
 _atom_site_fract_x
 _atom_site_fract_y
 _atom_site_fract_z
 _atom_site_occupancy
  U  U0  1  0.749985  0.750035  0.749990  1
  V  V1  1  0.000055  0.000005  0.999970  1
  Co  Co2  1  0.615204  0.615247  0.154295  1
  Co  Co3  1  0.615220  0.154286  0.615247  1
  Co  Co4  1  0.154294  0.615227  0.615240  1
  Co  Co5  1  0.615204  0.615247  0.615255  1
  Co  Co6  1  0.380457  0.380446  0.858648  1
  Co  Co7  1  0.380430  0.858651  0.380459  1
  Co  Co8  1  0.858764  0.380384  0.380426  1
  Co  Co9  1  0.380457  0.380446  0.380450  1
  Co  Co10  1  0.002451  0.002453  0.336169  1
  Co  Co11  1  0.658928  0.002475  0.336141  1
  Co  Co12  1  0.002477  0.658934  0.336150  1
  Co  Co13  1  0.658919  0.336182  0.002449  1
  Co  Co14  1  0.002471  0.336152  0.002448  1
  Co  Co15  1  0.002471  0.336152  0.658928  1
  Co  Co16  1  0.336174  0.658893  0.002466  1
  Co  Co17  1  0.336161  0.002461  0.658913  1
  Co  Co18  1  0.336161  0.002461  0.002465  1
  Co  Co19  1  0.002451  0.002453  0.658928  1
  Co  Co20  1  0.002477  0.658934  0.002440  1
  Co  Co21  1  0.658928  0.002475  0.002456  1
  Re  Re22  1  0.250008  0.249949  0.250021  1
  B  B23  1  0.727198  0.727278  0.272763  1
  B  B24  1  0.272719  0.727251  0.272794  1
  B  B25  1  0.727209  0.272732  0.272754  1
  B  B26  1  0.272797  0.272809  0.727197  1
  B  B27  1  0.727209  0.272732  0.727304  1
  B  B28  1  0.272719  0.727251  0.727236  1
