# generated using pymatgen
data_Cs2Hg2PdBr8
_symmetry_space_group_name_H-M   'P 1'
_cell_length_a   7.40834149
_cell_length_b   7.40834163
_cell_length_c   11.05181363
_cell_angle_alpha   72.57660331
_cell_angle_beta   72.57660364
_cell_angle_gamma   61.86528765
_symmetry_Int_Tables_number   1
_chemical_formula_structural   Cs2Hg2PdBr8
_chemical_formula_sum   'Cs2 Hg2 Pd1 Br8'
_cell_volume   501.24355482
_cell_formula_units_Z   1
loop_
 _symmetry_equiv_pos_site_id
 _symmetry_equiv_pos_as_xyz
  1  'x, y, z'
loop_
 _atom_site_type_symbol
 _atom_site_label
 _atom_site_symmetry_multiplicity
 _atom_site_fract_x
 _atom_site_fract_y
 _atom_site_fract_z
 _atom_site_occupancy
  Cs  Cs0  1  0.607094  0.607094  0.164320  1
  Cs  Cs1  1  0.392906  0.392906  0.835680  1
  Hg  Hg2  1  0.130878  0.130878  0.615530  1
  Hg  Hg3  1  0.869122  0.869122  0.384470  1
  Pd  Pd4  1  0.000000  0.000000  0.000000  1
  Br  Br5  1  0.921724  0.921724  0.689659  1
  Br  Br6  1  0.897090  0.353945  0.864312  1
  Br  Br7  1  0.338685  0.338685  0.505662  1
  Br  Br8  1  0.646055  0.102910  0.135688  1
  Br  Br9  1  0.661315  0.661315  0.494338  1
  Br  Br10  1  0.353945  0.897090  0.864312  1
  Br  Br11  1  0.102910  0.646055  0.135688  1
  Br  Br12  1  0.078276  0.078276  0.310341  1
