# generated using pymatgen
data_Tm16MgIn3Pd4
_symmetry_space_group_name_H-M   'P 1'
_cell_length_a   9.63264748
_cell_length_b   9.59665519
_cell_length_c   9.59665500
_cell_angle_alpha   60.00000409
_cell_angle_beta   60.12352941
_cell_angle_gamma   60.12352126
_symmetry_Int_Tables_number   1
_chemical_formula_structural   Tm16MgIn3Pd4
_chemical_formula_sum   'Tm16 Mg1 In3 Pd4'
_cell_volume   628.46167993
_cell_formula_units_Z   1
loop_
 _symmetry_equiv_pos_site_id
 _symmetry_equiv_pos_as_xyz
  1  'x, y, z'
loop_
 _atom_site_type_symbol
 _atom_site_label
 _atom_site_symmetry_multiplicity
 _atom_site_fract_x
 _atom_site_fract_y
 _atom_site_fract_z
 _atom_site_occupancy
  Tm  Tm0  1  0.601358  0.600706  0.600706  1
  Tm  Tm1  1  0.601353  0.600734  0.197212  1
  Tm  Tm2  1  0.601353  0.197212  0.600734  1
  Tm  Tm3  1  0.194575  0.601813  0.601813  1
  Tm  Tm4  1  0.059262  0.440106  0.440106  1
  Tm  Tm5  1  0.436821  0.062379  0.062379  1
  Tm  Tm6  1  0.436835  0.062378  0.438426  1
  Tm  Tm7  1  0.059245  0.440120  0.060522  1
  Tm  Tm8  1  0.436835  0.438426  0.062378  1
  Tm  Tm9  1  0.059245  0.060522  0.440120  1
  Tm  Tm10  1  0.185294  0.815310  0.815310  1
  Tm  Tm11  1  0.815216  0.185496  0.185496  1
  Tm  Tm12  1  0.815224  0.185507  0.813787  1
  Tm  Tm13  1  0.185299  0.815310  0.184089  1
  Tm  Tm14  1  0.815224  0.813787  0.185507  1
  Tm  Tm15  1  0.185299  0.184089  0.815310  1
  Mg  Mg16  1  0.514595  0.828423  0.828423  1
  In  In17  1  0.833003  0.833576  0.833576  1
  In  In18  1  0.832996  0.833585  0.499833  1
  In  In19  1  0.832996  0.499833  0.833585  1
  Pd  Pd20  1  0.392764  0.393921  0.393921  1
  Pd  Pd21  1  0.392734  0.393933  0.819420  1
  Pd  Pd22  1  0.392734  0.819420  0.393933  1
  Pd  Pd23  1  0.819742  0.393419  0.393419  1
