# generated using pymatgen
data_Ce5Bi2OsPb
_symmetry_space_group_name_H-M   'P 1'
_cell_length_a   6.40868401
_cell_length_b   9.70428659
_cell_length_c   9.71313002
_cell_angle_alpha   120.02793518
_cell_angle_beta   89.99547874
_cell_angle_gamma   89.99817346
_symmetry_Int_Tables_number   1
_chemical_formula_structural   Ce5Bi2OsPb
_chemical_formula_sum   'Ce10 Bi4 Os2 Pb2'
_cell_volume   522.99794656
_cell_formula_units_Z   2
loop_
 _symmetry_equiv_pos_site_id
 _symmetry_equiv_pos_as_xyz
  1  'x, y, z'
loop_
 _atom_site_type_symbol
 _atom_site_label
 _atom_site_symmetry_multiplicity
 _atom_site_fract_x
 _atom_site_fract_y
 _atom_site_fract_z
 _atom_site_occupancy
  Ce  Ce0  1  0.501089  0.333872  0.666653  1
  Ce  Ce1  1  0.501069  0.666107  0.332778  1
  Ce  Ce2  1  0.998897  0.666103  0.332779  1
  Ce  Ce3  1  0.998907  0.333922  0.666651  1
  Ce  Ce4  1  0.750068  0.240909  0.000340  1
  Ce  Ce5  1  0.750079  0.758972  0.759231  1
  Ce  Ce6  1  0.750062  0.999993  0.241325  1
  Ce  Ce7  1  0.249905  0.759548  0.999985  1
  Ce  Ce8  1  0.249938  0.240628  0.240615  1
  Ce  Ce9  1  0.249934  0.999915  0.759578  1
  Bi  Bi10  1  0.749975  0.999985  0.607577  1
  Bi  Bi11  1  0.250026  0.393537  0.999923  1
  Bi  Bi12  1  0.250032  0.606502  0.606413  1
  Bi  Bi13  1  0.250035  0.000016  0.392495  1
  Os  Os14  1  0.500077  0.000007  0.000518  1
  Os  Os15  1  0.999924  0.000017  0.000516  1
  Pb  Pb16  1  0.749988  0.607355  0.000002  1
  Pb  Pb17  1  0.749994  0.392615  0.392620  1
