# generated using pymatgen
data_NdSm2Hf3(SnRh)6
_symmetry_space_group_name_H-M   'P 1'
_cell_length_a   7.50180600
_cell_length_b   7.50265970
_cell_length_c   7.66138700
_cell_angle_alpha   90.00000000
_cell_angle_beta   90.00000000
_cell_angle_gamma   119.99459879
_symmetry_Int_Tables_number   1
_chemical_formula_structural   NdSm2Hf3(SnRh)6
_chemical_formula_sum   'Nd1 Sm2 Hf3 Sn6 Rh6'
_cell_volume   373.45883990
_cell_formula_units_Z   1
loop_
 _symmetry_equiv_pos_site_id
 _symmetry_equiv_pos_as_xyz
  1  'x, y, z'
loop_
 _atom_site_type_symbol
 _atom_site_label
 _atom_site_symmetry_multiplicity
 _atom_site_fract_x
 _atom_site_fract_y
 _atom_site_fract_z
 _atom_site_occupancy
  Nd  Nd0  1  0.408696  0.000044  0.750000  1
  Sm  Sm1  1  0.000108  0.407874  0.750000  1
  Sm  Sm2  1  0.592286  0.592071  0.750000  1
  Hf  Hf3  1  0.999585  0.393956  0.250000  1
  Hf  Hf4  1  0.606103  0.605568  0.250000  1
  Hf  Hf5  1  0.394222  0.000461  0.250000  1
  Sn  Sn6  1  0.264389  0.265372  0.489376  1
  Sn  Sn7  1  0.999588  0.734947  0.489399  1
  Sn  Sn8  1  0.999588  0.734947  0.010601  1
  Sn  Sn9  1  0.735702  0.999676  0.488392  1
  Sn  Sn10  1  0.735702  0.999676  0.011608  1
  Sn  Sn11  1  0.264389  0.265372  0.010624  1
  Rh  Rh12  1  0.333245  0.666231  0.453028  1
  Rh  Rh13  1  0.667035  0.333791  0.453887  1
  Rh  Rh14  1  0.333245  0.666231  0.046972  1
  Rh  Rh15  1  0.998563  0.999998  0.750000  1
  Rh  Rh16  1  0.000518  0.999995  0.250000  1
  Rh  Rh17  1  0.667035  0.333791  0.046113  1
