# generated using pymatgen
data_Tb2BePdPt5
_symmetry_space_group_name_H-M   'P 1'
_cell_length_a   5.90465273
_cell_length_b   6.01494386
_cell_length_c   6.01494400
_cell_angle_alpha   58.79053793
_cell_angle_beta   60.60472445
_cell_angle_gamma   60.60472242
_symmetry_Int_Tables_number   1
_chemical_formula_structural   Tb2BePdPt5
_chemical_formula_sum   'Tb2 Be1 Pd1 Pt5'
_cell_volume   150.95780889
_cell_formula_units_Z   1
loop_
 _symmetry_equiv_pos_site_id
 _symmetry_equiv_pos_as_xyz
  1  'x, y, z'
loop_
 _atom_site_type_symbol
 _atom_site_label
 _atom_site_symmetry_multiplicity
 _atom_site_fract_x
 _atom_site_fract_y
 _atom_site_fract_z
 _atom_site_occupancy
  Tb  Tb0  1  0.249099  0.250903  0.250903  1
  Tb  Tb1  1  0.749098  0.750902  0.750902  1
  Be  Be2  1  0.501032  0.498968  0.498968  1
  Pd  Pd3  1  0.241012  0.758988  0.758988  1
  Pt  Pt4  1  0.237497  0.762503  0.238344  1
  Pt  Pt5  1  0.761456  0.238544  0.238544  1
  Pt  Pt6  1  0.761656  0.762503  0.238344  1
  Pt  Pt7  1  0.237497  0.238344  0.762503  1
  Pt  Pt8  1  0.761656  0.238344  0.762503  1
