# generated using pymatgen
data_Ti2AlMo2C3
_symmetry_space_group_name_H-M   'P 1'
_cell_length_a   3.02335300
_cell_length_b   3.02335181
_cell_length_c   23.72753200
_cell_angle_alpha   90.00000000
_cell_angle_beta   90.00000000
_cell_angle_gamma   119.99998014
_symmetry_Int_Tables_number   1
_chemical_formula_structural   Ti2AlMo2C3
_chemical_formula_sum   'Ti4 Al2 Mo4 C6'
_cell_volume   187.82821484
_cell_formula_units_Z   2
loop_
 _symmetry_equiv_pos_site_id
 _symmetry_equiv_pos_as_xyz
  1  'x, y, z'
loop_
 _atom_site_type_symbol
 _atom_site_label
 _atom_site_symmetry_multiplicity
 _atom_site_fract_x
 _atom_site_fract_y
 _atom_site_fract_z
 _atom_site_occupancy
  Ti  Ti0  1  0.333333  0.666667  0.446777  1
  Ti  Ti1  1  0.666667  0.333333  0.553223  1
  Ti  Ti2  1  0.666667  0.333333  0.946777  1
  Ti  Ti3  1  0.333333  0.666667  0.053223  1
  Al  Al4  1  0.333333  0.666667  0.250000  1
  Al  Al5  1  0.666667  0.333333  0.750000  1
  Mo  Mo6  1  0.000000  0.000000  0.341857  1
  Mo  Mo7  1  0.000000  0.000000  0.658143  1
  Mo  Mo8  1  0.000000  0.000000  0.841857  1
  Mo  Mo9  1  0.000000  0.000000  0.158143  1
  C  C10  1  0.000000  0.000000  0.500000  1
  C  C11  1  0.000000  0.000000  0.000000  1
  C  C12  1  0.666667  0.333333  0.392607  1
  C  C13  1  0.333333  0.666667  0.607393  1
  C  C14  1  0.333333  0.666667  0.892607  1
  C  C15  1  0.666667  0.333333  0.107393  1
