# generated using pymatgen
data_Y5Er3(As3Rh4)4
_symmetry_space_group_name_H-M   'P 1'
_cell_length_a   13.43090600
_cell_length_b   13.43090618
_cell_length_c   4.04457900
_cell_angle_alpha   90.00000000
_cell_angle_beta   90.00000000
_cell_angle_gamma   119.99999956
_symmetry_Int_Tables_number   1
_chemical_formula_structural   Y5Er3(As3Rh4)4
_chemical_formula_sum   'Y5 Er3 As12 Rh16'
_cell_volume   631.85086044
_cell_formula_units_Z   1
loop_
 _symmetry_equiv_pos_site_id
 _symmetry_equiv_pos_as_xyz
  1  'x, y, z'
loop_
 _atom_site_type_symbol
 _atom_site_label
 _atom_site_symmetry_multiplicity
 _atom_site_fract_x
 _atom_site_fract_y
 _atom_site_fract_z
 _atom_site_occupancy
  Y  Y0  1  0.188448  0.188448  0.500000  1
  Y  Y1  1  0.811552  0.000000  0.500000  1
  Y  Y2  1  0.000000  0.811552  0.500000  1
  Y  Y3  1  0.333333  0.666667  0.000000  1
  Y  Y4  1  0.666667  0.333333  0.000000  1
  Er  Er5  1  0.558613  0.558613  0.000000  1
  Er  Er6  1  0.441387  0.000000  0.000000  1
  Er  Er7  1  0.000000  0.441387  0.000000  1
  As  As8  1  0.824096  0.824096  0.000000  1
  As  As9  1  0.175904  0.000000  0.000000  1
  As  As10  1  0.000000  0.175904  0.000000  1
  As  As11  1  0.173926  0.486718  0.500000  1
  As  As12  1  0.513282  0.687208  0.500000  1
  As  As13  1  0.312792  0.826074  0.500000  1
  As  As14  1  0.687208  0.513282  0.500000  1
  As  As15  1  0.826074  0.312792  0.500000  1
  As  As16  1  0.486718  0.173926  0.500000  1
  As  As17  1  0.350814  0.350814  0.000000  1
  As  As18  1  0.649186  0.000000  0.000000  1
  As  As19  1  0.000000  0.649186  0.000000  1
  Rh  Rh20  1  0.721615  0.721615  0.500000  1
  Rh  Rh21  1  0.278385  0.000000  0.500000  1
  Rh  Rh22  1  0.000000  0.278385  0.500000  1
  Rh  Rh23  1  0.176960  0.374208  0.000000  1
  Rh  Rh24  1  0.625792  0.802751  0.000000  1
  Rh  Rh25  1  0.197249  0.823040  0.000000  1
  Rh  Rh26  1  0.802751  0.625792  0.000000  1
  Rh  Rh27  1  0.823040  0.197249  0.000000  1
  Rh  Rh28  1  0.374208  0.176960  0.000000  1
  Rh  Rh29  1  0.354099  0.480830  0.500000  1
  Rh  Rh30  1  0.519170  0.873270  0.500000  1
  Rh  Rh31  1  0.126730  0.645901  0.500000  1
  Rh  Rh32  1  0.873270  0.519170  0.500000  1
  Rh  Rh33  1  0.645901  0.126730  0.500000  1
  Rh  Rh34  1  0.480830  0.354099  0.500000  1
  Rh  Rh35  1  0.000000  0.000000  0.000000  1
