# generated using pymatgen
data_Rb2Na4Be2O5
_symmetry_space_group_name_H-M   'P 1'
_cell_length_a   6.15363800
_cell_length_b   6.15363800
_cell_length_c   10.04992800
_cell_angle_alpha   90.00000000
_cell_angle_beta   90.00000000
_cell_angle_gamma   90.00000000
_symmetry_Int_Tables_number   1
_chemical_formula_structural   Rb2Na4Be2O5
_chemical_formula_sum   'Rb4 Na8 Be4 O10'
_cell_volume   380.56324294
_cell_formula_units_Z   2
loop_
 _symmetry_equiv_pos_site_id
 _symmetry_equiv_pos_as_xyz
  1  'x, y, z'
loop_
 _atom_site_type_symbol
 _atom_site_label
 _atom_site_symmetry_multiplicity
 _atom_site_fract_x
 _atom_site_fract_y
 _atom_site_fract_z
 _atom_site_occupancy
  Rb  Rb0  1  0.315418  0.315418  0.000000  1
  Rb  Rb1  1  0.184582  0.815418  0.500000  1
  Rb  Rb2  1  0.815418  0.184582  0.500000  1
  Rb  Rb3  1  0.684582  0.684582  0.000000  1
  Na  Na4  1  0.500000  0.000000  0.750000  1
  Na  Na5  1  0.500000  0.000000  0.250000  1
  Na  Na6  1  0.000000  0.500000  0.750000  1
  Na  Na7  1  0.000000  0.500000  0.250000  1
  Na  Na8  1  0.000000  0.000000  0.225604  1
  Na  Na9  1  0.500000  0.500000  0.725604  1
  Na  Na10  1  0.500000  0.500000  0.274396  1
  Na  Na11  1  0.000000  0.000000  0.774396  1
  Be  Be12  1  0.683299  0.683299  0.500000  1
  Be  Be13  1  0.316701  0.316701  0.500000  1
  Be  Be14  1  0.816701  0.183299  0.000000  1
  Be  Be15  1  0.183299  0.816701  0.000000  1
  O  O16  1  0.233410  0.233410  0.361084  1
  O  O17  1  0.266590  0.733410  0.861084  1
  O  O18  1  0.766590  0.766590  0.638916  1
  O  O19  1  0.733410  0.266590  0.138916  1
  O  O20  1  0.266590  0.733410  0.138916  1
  O  O21  1  0.233410  0.233410  0.638916  1
  O  O22  1  0.766590  0.766590  0.361084  1
  O  O23  1  0.000000  0.000000  0.000000  1
  O  O24  1  0.733410  0.266590  0.861084  1
  O  O25  1  0.500000  0.500000  0.500000  1
