# generated using pymatgen
data_Nd3(AlPt)4
_symmetry_space_group_name_H-M   'P 1'
_cell_length_a   8.35115828
_cell_length_b   8.35115873
_cell_length_c   8.35115778
_cell_angle_alpha   150.65426668
_cell_angle_beta   128.30483994
_cell_angle_gamma   60.55920910
_symmetry_Int_Tables_number   1
_chemical_formula_structural   Nd3(AlPt)4
_chemical_formula_sum   'Nd3 Al4 Pt4'
_cell_volume   222.17763872
_cell_formula_units_Z   1
loop_
 _symmetry_equiv_pos_site_id
 _symmetry_equiv_pos_as_xyz
  1  'x, y, z'
loop_
 _atom_site_type_symbol
 _atom_site_label
 _atom_site_symmetry_multiplicity
 _atom_site_fract_x
 _atom_site_fract_y
 _atom_site_fract_z
 _atom_site_occupancy
  Nd  Nd0  1  0.500000  0.000000  0.500000  1
  Nd  Nd1  1  0.879405  0.879405  0.000000  1
  Nd  Nd2  1  0.120595  0.120595  0.000000  1
  Al  Al3  1  0.484364  0.678118  0.806246  1
  Al  Al4  1  0.871871  0.678118  0.193754  1
  Al  Al5  1  0.128129  0.321882  0.806246  1
  Al  Al6  1  0.515636  0.321882  0.193754  1
  Pt  Pt7  1  0.281414  0.781414  0.500000  1
  Pt  Pt8  1  0.718586  0.218586  0.500000  1
  Pt  Pt9  1  0.790364  0.500000  0.290364  1
  Pt  Pt10  1  0.209636  0.500000  0.709636  1
