# generated using pymatgen
data_LaY2Co8TcP6
_symmetry_space_group_name_H-M   'P 1'
_cell_length_a   3.75632200
_cell_length_b   10.63313600
_cell_length_c   12.32509900
_cell_angle_alpha   90.00000000
_cell_angle_beta   90.00000000
_cell_angle_gamma   90.00000000
_symmetry_Int_Tables_number   1
_chemical_formula_structural   LaY2Co8TcP6
_chemical_formula_sum   'La2 Y4 Co16 Tc2 P12'
_cell_volume   492.28272831
_cell_formula_units_Z   2
loop_
 _symmetry_equiv_pos_site_id
 _symmetry_equiv_pos_as_xyz
  1  'x, y, z'
loop_
 _atom_site_type_symbol
 _atom_site_label
 _atom_site_symmetry_multiplicity
 _atom_site_fract_x
 _atom_site_fract_y
 _atom_site_fract_z
 _atom_site_occupancy
  La  La0  1  0.000000  0.500000  0.525726  1
  La  La1  1  0.500000  0.000000  0.474274  1
  Y  Y2  1  0.500000  0.816471  0.203799  1
  Y  Y3  1  0.500000  0.183529  0.203799  1
  Y  Y4  1  0.000000  0.683529  0.796201  1
  Y  Y5  1  0.000000  0.316471  0.796201  1
  Co  Co6  1  0.500000  0.500000  0.705536  1
  Co  Co7  1  0.000000  0.000000  0.294464  1
  Co  Co8  1  0.000000  0.500000  0.986852  1
  Co  Co9  1  0.500000  0.000000  0.013148  1
  Co  Co10  1  0.500000  0.332128  0.990202  1
  Co  Co11  1  0.500000  0.667872  0.990202  1
  Co  Co12  1  0.000000  0.167872  0.009798  1
  Co  Co13  1  0.000000  0.832128  0.009798  1
  Co  Co14  1  0.500000  0.296940  0.428735  1
  Co  Co15  1  0.500000  0.703060  0.428735  1
  Co  Co16  1  0.000000  0.203060  0.571265  1
  Co  Co17  1  0.000000  0.796940  0.571265  1
  Co  Co18  1  0.500000  0.880467  0.712030  1
  Co  Co19  1  0.500000  0.119533  0.712030  1
  Co  Co20  1  0.000000  0.619533  0.287970  1
  Co  Co21  1  0.000000  0.380467  0.287970  1
  Tc  Tc22  1  0.500000  0.500000  0.153300  1
  Tc  Tc23  1  0.000000  0.000000  0.846700  1
  P  P24  1  0.500000  0.500000  0.882636  1
  P  P25  1  0.000000  0.000000  0.117364  1
  P  P26  1  0.500000  0.500000  0.342579  1
  P  P27  1  0.000000  0.000000  0.657421  1
  P  P28  1  0.500000  0.305418  0.618191  1
  P  P29  1  0.500000  0.694582  0.618191  1
  P  P30  1  0.000000  0.194582  0.381809  1
  P  P31  1  0.000000  0.805418  0.381809  1
  P  P32  1  0.500000  0.846565  0.894740  1
  P  P33  1  0.500000  0.153435  0.894740  1
  P  P34  1  0.000000  0.653435  0.105260  1
  P  P35  1  0.000000  0.346565  0.105260  1
