# generated using pymatgen
data_Sc4CrFe19P12
_symmetry_space_group_name_H-M   'P 1'
_cell_length_a   3.60077400
_cell_length_b   10.13790697
_cell_length_c   11.67122285
_cell_angle_alpha   89.08171626
_cell_angle_beta   90.00000000
_cell_angle_gamma   90.00000000
_symmetry_Int_Tables_number   1
_chemical_formula_structural   Sc4CrFe19P12
_chemical_formula_sum   'Sc4 Cr1 Fe19 P12'
_cell_volume   425.99524044
_cell_formula_units_Z   1
loop_
 _symmetry_equiv_pos_site_id
 _symmetry_equiv_pos_as_xyz
  1  'x, y, z'
loop_
 _atom_site_type_symbol
 _atom_site_label
 _atom_site_symmetry_multiplicity
 _atom_site_fract_x
 _atom_site_fract_y
 _atom_site_fract_z
 _atom_site_occupancy
  Sc  Sc0  1  0.250000  0.574865  0.703208  1
  Sc  Sc1  1  0.250000  0.916727  0.205155  1
  Sc  Sc2  1  0.750000  0.424011  0.298140  1
  Sc  Sc3  1  0.750000  0.084882  0.793368  1
  Cr  Cr4  1  0.250000  0.704304  0.988005  1
  Fe  Fe5  1  0.250000  0.218444  0.177915  1
  Fe  Fe6  1  0.250000  0.276218  0.673135  1
  Fe  Fe7  1  0.750000  0.783569  0.821190  1
  Fe  Fe8  1  0.750000  0.722070  0.327546  1
  Fe  Fe9  1  0.250000  0.874348  0.702748  1
  Fe  Fe10  1  0.250000  0.621692  0.200933  1
  Fe  Fe11  1  0.750000  0.125695  0.297810  1
  Fe  Fe12  1  0.750000  0.379445  0.799811  1
  Fe  Fe13  1  0.250000  0.406669  0.488859  1
  Fe  Fe14  1  0.250000  0.097533  0.987945  1
  Fe  Fe15  1  0.750000  0.591493  0.511289  1
  Fe  Fe16  1  0.750000  0.906645  0.010940  1
  Fe  Fe17  1  0.250000  0.462294  0.933948  1
  Fe  Fe18  1  0.250000  0.037388  0.431723  1
  Fe  Fe19  1  0.750000  0.534724  0.067367  1
  Fe  Fe20  1  0.750000  0.961375  0.567985  1
  Fe  Fe21  1  0.250000  0.790924  0.489887  1
  Fe  Fe22  1  0.750000  0.293647  0.011354  1
  Fe  Fe23  1  0.750000  0.207637  0.510397  1
  P  P24  1  0.250000  0.423016  0.118237  1
  P  P25  1  0.250000  0.077613  0.614905  1
  P  P26  1  0.750000  0.576571  0.882448  1
  P  P27  1  0.750000  0.921547  0.384536  1
  P  P28  1  0.250000  0.265118  0.864156  1
  P  P29  1  0.250000  0.240710  0.371900  1
  P  P30  1  0.750000  0.735264  0.135902  1
  P  P31  1  0.750000  0.757428  0.627103  1
  P  P32  1  0.250000  0.600908  0.392105  1
  P  P33  1  0.250000  0.910189  0.894185  1
  P  P34  1  0.750000  0.397461  0.608962  1
  P  P35  1  0.750000  0.097580  0.104900  1
