# generated using pymatgen
data_La12Sn(OsI4)3
_symmetry_space_group_name_H-M   'P 1'
_cell_length_a   11.25626209
_cell_length_b   11.25461177
_cell_length_c   11.25575139
_cell_angle_alpha   110.31876364
_cell_angle_beta   110.33047792
_cell_angle_gamma   110.32757076
_symmetry_Int_Tables_number   1
_chemical_formula_structural   La12Sn(OsI4)3
_chemical_formula_sum   'La12 Sn1 Os3 I12'
_cell_volume   1061.54356164
_cell_formula_units_Z   1
loop_
 _symmetry_equiv_pos_site_id
 _symmetry_equiv_pos_as_xyz
  1  'x, y, z'
loop_
 _atom_site_type_symbol
 _atom_site_label
 _atom_site_symmetry_multiplicity
 _atom_site_fract_x
 _atom_site_fract_y
 _atom_site_fract_z
 _atom_site_occupancy
  La  La0  1  0.464276  0.500132  0.219214  1
  La  La1  1  0.749976  0.226449  0.273492  1
  La  La2  1  0.749980  0.020027  0.479928  1
  La  La3  1  0.219220  0.464293  0.500129  1
  La  La4  1  0.273608  0.750080  0.226521  1
  La  La5  1  0.035768  0.280846  0.999888  1
  La  La6  1  0.999853  0.035700  0.280798  1
  La  La7  1  0.480001  0.750048  0.020092  1
  La  La8  1  0.500141  0.219198  0.464290  1
  La  La9  1  0.019954  0.479931  0.749910  1
  La  La10  1  0.280814  0.999839  0.035731  1
  La  La11  1  0.226426  0.273497  0.749942  1
  Sn  Sn12  1  0.249976  0.249997  0.250001  1
  Os  Os13  1  0.502160  0.997845  0.250002  1
  Os  Os14  1  0.997838  0.249993  0.502130  1
  Os  Os15  1  0.250002  0.502149  0.997861  1
  I  I16  1  0.249995  0.762489  0.737501  1
  I  I17  1  0.513180  0.503576  0.754373  1
  I  I18  1  0.986818  0.745633  0.996433  1
  I  I19  1  0.737510  0.250001  0.762502  1
  I  I20  1  0.996417  0.986822  0.745632  1
  I  I21  1  0.250003  0.996628  0.503381  1
  I  I22  1  0.754363  0.513182  0.503572  1
  I  I23  1  0.503365  0.249993  0.996644  1
  I  I24  1  0.762498  0.737486  0.250008  1
  I  I25  1  0.745631  0.996418  0.986809  1
  I  I26  1  0.996635  0.503366  0.250010  1
  I  I27  1  0.503593  0.754381  0.513206  1
