# generated using pymatgen
data_NaCe6Cd22Sb
_symmetry_space_group_name_H-M   'P 1'
_cell_length_a   10.14869639
_cell_length_b   10.14869710
_cell_length_c   10.14869600
_cell_angle_alpha   60.00000359
_cell_angle_beta   60.00000127
_cell_angle_gamma   60.00000505
_symmetry_Int_Tables_number   1
_chemical_formula_structural   NaCe6Cd22Sb
_chemical_formula_sum   'Na1 Ce6 Cd22 Sb1'
_cell_volume   739.12148946
_cell_formula_units_Z   1
loop_
 _symmetry_equiv_pos_site_id
 _symmetry_equiv_pos_as_xyz
  1  'x, y, z'
loop_
 _atom_site_type_symbol
 _atom_site_label
 _atom_site_symmetry_multiplicity
 _atom_site_fract_x
 _atom_site_fract_y
 _atom_site_fract_z
 _atom_site_occupancy
  Na  Na0  1  0.500000  0.500000  0.500000  1
  Ce  Ce1  1  0.781710  0.781710  0.218290  1
  Ce  Ce2  1  0.218290  0.781710  0.218290  1
  Ce  Ce3  1  0.781710  0.218290  0.218290  1
  Ce  Ce4  1  0.218290  0.218290  0.781710  1
  Ce  Ce5  1  0.781710  0.218290  0.781710  1
  Ce  Ce6  1  0.218290  0.781710  0.781710  1
  Cd  Cd7  1  0.837208  0.837208  0.488374  1
  Cd  Cd8  1  0.837208  0.488374  0.837208  1
  Cd  Cd9  1  0.488374  0.837208  0.837208  1
  Cd  Cd10  1  0.837208  0.837208  0.837208  1
  Cd  Cd11  1  0.162792  0.162792  0.511626  1
  Cd  Cd12  1  0.162792  0.511626  0.162792  1
  Cd  Cd13  1  0.511626  0.162792  0.162792  1
  Cd  Cd14  1  0.162792  0.162792  0.162792  1
  Cd  Cd15  1  0.623514  0.623514  0.129459  1
  Cd  Cd16  1  0.623514  0.129459  0.623514  1
  Cd  Cd17  1  0.129459  0.623514  0.623514  1
  Cd  Cd18  1  0.623514  0.623514  0.623514  1
  Cd  Cd19  1  0.376486  0.376486  0.870541  1
  Cd  Cd20  1  0.376486  0.870541  0.376486  1
  Cd  Cd21  1  0.870541  0.376486  0.376486  1
  Cd  Cd22  1  0.376486  0.376486  0.376486  1
  Cd  Cd23  1  0.000000  0.000000  0.500000  1
  Cd  Cd24  1  0.500000  0.000000  0.500000  1
  Cd  Cd25  1  0.000000  0.500000  0.500000  1
  Cd  Cd26  1  0.500000  0.500000  0.000000  1
  Cd  Cd27  1  0.000000  0.500000  0.000000  1
  Cd  Cd28  1  0.500000  0.000000  0.000000  1
  Sb  Sb29  1  0.000000  0.000000  0.000000  1
