# generated using pymatgen
data_NaLuCr3Ni9As7
_symmetry_space_group_name_H-M   'P 1'
_cell_length_a   9.50202900
_cell_length_b   9.50202932
_cell_length_c   3.77715000
_cell_angle_alpha   90.00000000
_cell_angle_beta   90.00000000
_cell_angle_gamma   119.99999729
_symmetry_Int_Tables_number   1
_chemical_formula_structural   NaLuCr3Ni9As7
_chemical_formula_sum   'Na1 Lu1 Cr3 Ni9 As7'
_cell_volume   295.34361965
_cell_formula_units_Z   1
loop_
 _symmetry_equiv_pos_site_id
 _symmetry_equiv_pos_as_xyz
  1  'x, y, z'
loop_
 _atom_site_type_symbol
 _atom_site_label
 _atom_site_symmetry_multiplicity
 _atom_site_fract_x
 _atom_site_fract_y
 _atom_site_fract_z
 _atom_site_occupancy
  Na  Na0  1  0.666667  0.333333  0.500000  1
  Lu  Lu1  1  0.333333  0.666667  0.000000  1
  Cr  Cr2  1  0.223038  0.122004  0.500000  1
  Cr  Cr3  1  0.877996  0.101034  0.500000  1
  Cr  Cr4  1  0.898966  0.776962  0.500000  1
  Ni  Ni5  1  0.122128  0.281708  0.000000  1
  Ni  Ni6  1  0.718292  0.840420  0.000000  1
  Ni  Ni7  1  0.159580  0.877872  0.000000  1
  Ni  Ni8  1  0.429573  0.374686  0.000000  1
  Ni  Ni9  1  0.625314  0.054888  0.000000  1
  Ni  Ni10  1  0.945112  0.570427  0.000000  1
  Ni  Ni11  1  0.054181  0.435089  0.500000  1
  Ni  Ni12  1  0.564911  0.619092  0.500000  1
  Ni  Ni13  1  0.380908  0.945819  0.500000  1
  As  As14  1  0.292704  0.411519  0.500000  1
  As  As15  1  0.588481  0.881186  0.500000  1
  As  As16  1  0.118814  0.707296  0.500000  1
  As  As17  1  0.415114  0.119681  0.000000  1
  As  As18  1  0.880319  0.295432  0.000000  1
  As  As19  1  0.704568  0.584886  0.000000  1
  As  As20  1  0.000000  0.000000  0.000000  1
