# generated using pymatgen
data_NaTbSm5RhI12
_symmetry_space_group_name_H-M   'P 1'
_cell_length_a   9.97197739
_cell_length_b   9.87508524
_cell_length_c   9.87108975
_cell_angle_alpha   106.75115207
_cell_angle_beta   107.16287498
_cell_angle_gamma   106.75520999
_symmetry_Int_Tables_number   1
_chemical_formula_structural   NaTbSm5RhI12
_chemical_formula_sum   'Na1 Tb1 Sm5 Rh1 I12'
_cell_volume   811.94170976
_cell_formula_units_Z   1
loop_
 _symmetry_equiv_pos_site_id
 _symmetry_equiv_pos_as_xyz
  1  'x, y, z'
loop_
 _atom_site_type_symbol
 _atom_site_label
 _atom_site_symmetry_multiplicity
 _atom_site_fract_x
 _atom_site_fract_y
 _atom_site_fract_z
 _atom_site_occupancy
  Na  Na0  1  0.500051  0.500042  0.500019  1
  Tb  Tb1  1  0.311457  0.103381  0.028987  1
  Sm  Sm2  1  0.901285  0.971949  0.697606  1
  Sm  Sm3  1  0.972327  0.698386  0.900007  1
  Sm  Sm4  1  0.685067  0.895650  0.970953  1
  Sm  Sm5  1  0.100308  0.028572  0.302838  1
  Sm  Sm6  1  0.028028  0.301854  0.100084  1
  Rh  Rh7  1  0.000879  0.000427  0.000401  1
  I  I8  1  0.548248  0.856670  0.625887  1
  I  I9  1  0.855555  0.625571  0.546192  1
  I  I10  1  0.627530  0.546575  0.856051  1
  I  I11  1  0.451840  0.143248  0.370098  1
  I  I12  1  0.144475  0.374388  0.453932  1
  I  I13  1  0.372670  0.449216  0.142098  1
  I  I14  1  0.678578  0.225637  0.074174  1
  I  I15  1  0.226336  0.074522  0.683457  1
  I  I16  1  0.074427  0.680767  0.225654  1
  I  I17  1  0.319067  0.777562  0.926677  1
  I  I18  1  0.776121  0.926298  0.320358  1
  I  I19  1  0.925751  0.319284  0.774527  1
