# generated using pymatgen
data_Er12CoNi3
_symmetry_space_group_name_H-M   'P 1'
_cell_length_a   6.26943914
_cell_length_b   6.80346781
_cell_length_c   9.42369500
_cell_angle_alpha   90.00000000
_cell_angle_beta   90.00000000
_cell_angle_gamma   90.17330915
_symmetry_Int_Tables_number   1
_chemical_formula_structural   Er12CoNi3
_chemical_formula_sum   'Er12 Co1 Ni3'
_cell_volume   401.95576352
_cell_formula_units_Z   1
loop_
 _symmetry_equiv_pos_site_id
 _symmetry_equiv_pos_as_xyz
  1  'x, y, z'
loop_
 _atom_site_type_symbol
 _atom_site_label
 _atom_site_symmetry_multiplicity
 _atom_site_fract_x
 _atom_site_fract_y
 _atom_site_fract_z
 _atom_site_occupancy
  Er  Er0  1  0.319426  0.680053  0.067582  1
  Er  Er1  1  0.178008  0.176741  0.432115  1
  Er  Er2  1  0.677649  0.320957  0.566424  1
  Er  Er3  1  0.821655  0.820524  0.934818  1
  Er  Er4  1  0.677649  0.320957  0.933576  1
  Er  Er5  1  0.821655  0.820524  0.565182  1
  Er  Er6  1  0.319426  0.680053  0.432418  1
  Er  Er7  1  0.178008  0.176741  0.067885  1
  Er  Er8  1  0.864579  0.540784  0.250000  1
  Er  Er9  1  0.641884  0.034819  0.250000  1
  Er  Er10  1  0.137898  0.465480  0.750000  1
  Er  Er11  1  0.361103  0.965619  0.750000  1
  Co  Co12  1  0.048473  0.890607  0.250000  1
  Ni  Ni13  1  0.454531  0.390756  0.250000  1
  Ni  Ni14  1  0.945181  0.107328  0.750000  1
  Ni  Ni15  1  0.552875  0.608058  0.750000  1
