# generated using pymatgen
data_Ba3SrW(N2Cl)2
_symmetry_space_group_name_H-M   'P 1'
_cell_length_a   6.18298100
_cell_length_b   8.44713193
_cell_length_c   10.77173338
_cell_angle_alpha   98.60532021
_cell_angle_beta   90.00000000
_cell_angle_gamma   90.00000000
_symmetry_Int_Tables_number   1
_chemical_formula_structural   Ba3SrW(N2Cl)2
_chemical_formula_sum   'Ba6 Sr2 W2 N8 Cl4'
_cell_volume   556.25763200
_cell_formula_units_Z   2
loop_
 _symmetry_equiv_pos_site_id
 _symmetry_equiv_pos_as_xyz
  1  'x, y, z'
loop_
 _atom_site_type_symbol
 _atom_site_label
 _atom_site_symmetry_multiplicity
 _atom_site_fract_x
 _atom_site_fract_y
 _atom_site_fract_z
 _atom_site_occupancy
  Ba  Ba0  1  0.250000  0.000993  0.366635  1
  Ba  Ba1  1  0.250000  0.444969  0.369785  1
  Ba  Ba2  1  0.750001  0.549952  0.624571  1
  Ba  Ba3  1  0.750001  0.998267  0.628184  1
  Ba  Ba4  1  0.250000  0.285550  0.707695  1
  Ba  Ba5  1  0.250000  0.816794  0.911996  1
  Sr  Sr6  1  0.750001  0.181784  0.096101  1
  Sr  Sr7  1  0.750001  0.714850  0.308216  1
  W  W8  1  0.750001  0.228261  0.393940  1
  W  W9  1  0.250000  0.768704  0.598495  1
  N  N10  1  0.750001  0.029987  0.286099  1
  N  N11  1  0.750001  0.391687  0.291018  1
  N  N12  1  0.000961  0.751058  0.494991  1
  N  N13  1  0.499039  0.751058  0.494991  1
  N  N14  1  0.504584  0.246503  0.499717  1
  N  N15  1  0.995416  0.246503  0.499717  1
  N  N16  1  0.250000  0.608643  0.702859  1
  N  N17  1  0.250000  0.963693  0.707333  1
  Cl  Cl18  1  0.250000  0.165348  0.094699  1
  Cl  Cl19  1  0.250000  0.677102  0.166393  1
  Cl  Cl20  1  0.750001  0.319434  0.848703  1
  Cl  Cl21  1  0.750001  0.858857  0.907865  1
