# generated using pymatgen
data_La2Tc2Br
_symmetry_space_group_name_H-M   'P 1'
_cell_length_a   4.17320200
_cell_length_b   4.17320105
_cell_length_c   18.01713200
_cell_angle_alpha   90.00000000
_cell_angle_beta   90.00000000
_cell_angle_gamma   119.99997586
_symmetry_Int_Tables_number   1
_chemical_formula_structural   La2Tc2Br
_chemical_formula_sum   'La4 Tc4 Br2'
_cell_volume   271.74096423
_cell_formula_units_Z   2
loop_
 _symmetry_equiv_pos_site_id
 _symmetry_equiv_pos_as_xyz
  1  'x, y, z'
loop_
 _atom_site_type_symbol
 _atom_site_label
 _atom_site_symmetry_multiplicity
 _atom_site_fract_x
 _atom_site_fract_y
 _atom_site_fract_z
 _atom_site_occupancy
  La  La0  1  0.000000  0.000000  0.117248  1
  La  La1  1  0.000000  0.000000  0.617248  1
  La  La2  1  0.000000  0.000000  0.382752  1
  La  La3  1  0.000000  0.000000  0.882752  1
  Tc  Tc4  1  0.666667  0.333333  0.983172  1
  Tc  Tc5  1  0.333333  0.666667  0.016828  1
  Tc  Tc6  1  0.666667  0.333333  0.516828  1
  Tc  Tc7  1  0.333333  0.666667  0.483172  1
  Br  Br8  1  0.666667  0.333333  0.250000  1
  Br  Br9  1  0.333333  0.666667  0.750000  1
