# generated using pymatgen
data_Mn3GeRh4
_symmetry_space_group_name_H-M   'P 1'
_cell_length_a   7.45794223
_cell_length_b   7.45794225
_cell_length_c   7.45794402
_cell_angle_alpha   33.56176748
_cell_angle_beta   33.56176891
_cell_angle_gamma   33.56177805
_symmetry_Int_Tables_number   1
_chemical_formula_structural   Mn3GeRh4
_chemical_formula_sum   'Mn3 Ge1 Rh4'
_cell_volume   112.92638157
_cell_formula_units_Z   1
loop_
 _symmetry_equiv_pos_site_id
 _symmetry_equiv_pos_as_xyz
  1  'x, y, z'
loop_
 _atom_site_type_symbol
 _atom_site_label
 _atom_site_symmetry_multiplicity
 _atom_site_fract_x
 _atom_site_fract_y
 _atom_site_fract_z
 _atom_site_occupancy
  Mn  Mn0  1  0.251392  0.251392  0.251392  1
  Mn  Mn1  1  0.748608  0.748608  0.748608  1
  Mn  Mn2  1  0.000000  0.000000  0.000000  1
  Ge  Ge3  1  0.500000  0.500000  0.500000  1
  Rh  Rh4  1  0.376179  0.376179  0.376179  1
  Rh  Rh5  1  0.873984  0.873984  0.873984  1
  Rh  Rh6  1  0.623821  0.623821  0.623821  1
  Rh  Rh7  1  0.126016  0.126016  0.126016  1
