# generated using pymatgen
data_YbHoZr2(Al3Ir)6
_symmetry_space_group_name_H-M   'P 1'
_cell_length_a   7.52064113
_cell_length_b   7.50832100
_cell_length_c   9.37176600
_cell_angle_alpha   90.00000000
_cell_angle_beta   90.00000000
_cell_angle_gamma   119.69945512
_symmetry_Int_Tables_number   1
_chemical_formula_structural   YbHoZr2(Al3Ir)6
_chemical_formula_sum   'Yb1 Ho1 Zr2 Al18 Ir6'
_cell_volume   459.68154767
_cell_formula_units_Z   1
loop_
 _symmetry_equiv_pos_site_id
 _symmetry_equiv_pos_as_xyz
  1  'x, y, z'
loop_
 _atom_site_type_symbol
 _atom_site_label
 _atom_site_symmetry_multiplicity
 _atom_site_fract_x
 _atom_site_fract_y
 _atom_site_fract_z
 _atom_site_occupancy
  Yb  Yb0  1  0.670173  0.994076  0.250000  1
  Ho  Ho1  1  0.330758  0.006062  0.750000  1
  Zr  Zr2  1  0.994045  0.670937  0.250000  1
  Zr  Zr3  1  0.004606  0.327978  0.750000  1
  Al  Al4  1  0.126052  0.123607  0.250000  1
  Al  Al5  1  0.873989  0.875759  0.750000  1
  Al  Al6  1  0.999572  0.336489  0.075108  1
  Al  Al7  1  0.000018  0.663340  0.925468  1
  Al  Al8  1  0.000018  0.663340  0.574532  1
  Al  Al9  1  0.332994  0.998488  0.421812  1
  Al  Al10  1  0.999572  0.336489  0.424892  1
  Al  Al11  1  0.667341  0.000804  0.576690  1
  Al  Al12  1  0.667341  0.000804  0.923310  1
  Al  Al13  1  0.332994  0.998488  0.078188  1
  Al  Al14  1  0.331349  0.333654  0.556003  1
  Al  Al15  1  0.668647  0.667143  0.443474  1
  Al  Al16  1  0.668647  0.667143  0.056526  1
  Al  Al17  1  0.331349  0.333654  0.943997  1
  Al  Al18  1  0.333857  0.548197  0.250000  1
  Al  Al19  1  0.665459  0.451951  0.750000  1
  Al  Al20  1  0.554954  0.345082  0.250000  1
  Al  Al21  1  0.446140  0.656578  0.750000  1
  Ir  Ir22  1  0.672293  0.328334  0.998021  1
  Ir  Ir23  1  0.326649  0.671121  0.999569  1
  Ir  Ir24  1  0.326649  0.671121  0.500431  1
  Ir  Ir25  1  0.672293  0.328334  0.501979  1
  Ir  Ir26  1  0.001120  0.000513  0.999084  1
  Ir  Ir27  1  0.001120  0.000513  0.500916  1
