# generated using pymatgen
data_KRb5(TmBi2)2
_symmetry_space_group_name_H-M   'P 1'
_cell_length_a   10.39818914
_cell_length_b   10.39818975
_cell_length_c   10.39818900
_cell_angle_alpha   129.38163136
_cell_angle_beta   69.49549135
_cell_angle_gamma   135.70866952
_symmetry_Int_Tables_number   1
_chemical_formula_structural   KRb5(TmBi2)2
_chemical_formula_sum   'K1 Rb5 Tm2 Bi4'
_cell_volume   595.48036363
_cell_formula_units_Z   1
loop_
 _symmetry_equiv_pos_site_id
 _symmetry_equiv_pos_as_xyz
  1  'x, y, z'
loop_
 _atom_site_type_symbol
 _atom_site_label
 _atom_site_symmetry_multiplicity
 _atom_site_fract_x
 _atom_site_fract_y
 _atom_site_fract_z
 _atom_site_occupancy
  K  K0  1  0.250000  0.250000  0.000000  1
  Rb  Rb1  1  0.750000  0.750000  0.000000  1
  Rb  Rb2  1  0.313027  0.804099  0.118050  1
  Rb  Rb3  1  0.186973  0.305024  0.491073  1
  Rb  Rb4  1  0.813952  0.695902  0.508928  1
  Rb  Rb5  1  0.686048  0.194975  0.881949  1
  Tm  Tm6  1  0.750000  0.250000  0.500000  1
  Tm  Tm7  1  0.250000  0.749999  0.499999  1
  Bi  Bi8  1  0.903711  0.304588  0.205084  1
  Bi  Bi9  1  0.596289  0.801376  0.400877  1
  Bi  Bi10  1  0.400499  0.195412  0.599123  1
  Bi  Bi11  1  0.099501  0.698624  0.794915  1
