# generated using pymatgen
data_HoLu5Np3O18
_symmetry_space_group_name_H-M   'P 1'
_cell_length_a   9.38550621
_cell_length_b   9.38891397
_cell_length_c   5.03505700
_cell_angle_alpha   89.99999842
_cell_angle_beta   89.99620658
_cell_angle_gamma   120.01201416
_symmetry_Int_Tables_number   1
_chemical_formula_structural   HoLu5Np3O18
_chemical_formula_sum   'Ho1 Lu5 Np3 O18'
_cell_volume   384.19834838
_cell_formula_units_Z   1
loop_
 _symmetry_equiv_pos_site_id
 _symmetry_equiv_pos_as_xyz
  1  'x, y, z'
loop_
 _atom_site_type_symbol
 _atom_site_label
 _atom_site_symmetry_multiplicity
 _atom_site_fract_x
 _atom_site_fract_y
 _atom_site_fract_z
 _atom_site_occupancy
  Ho  Ho0  1  0.000000  0.630282  0.000000  1
  Lu  Lu1  1  0.000000  0.293583  0.500000  1
  Lu  Lu2  1  0.368131  0.368278  0.000524  1
  Lu  Lu3  1  0.294800  0.000342  0.500055  1
  Lu  Lu4  1  0.705200  0.705542  0.499945  1
  Lu  Lu5  1  0.631869  0.000147  0.999476  1
  Np  Np6  1  0.334497  0.666780  0.503219  1
  Np  Np7  1  0.000000  0.001001  0.000000  1
  Np  Np8  1  0.665503  0.332282  0.496781  1
  O  O9  1  0.091792  0.879830  0.778286  1
  O  O10  1  0.220116  0.768189  0.282899  1
  O  O11  1  0.121304  0.536147  0.723374  1
  O  O12  1  0.418402  0.880241  0.728614  1
  O  O13  1  0.233710  0.451387  0.278216  1
  O  O14  1  0.123071  0.214909  0.780181  1
  O  O15  1  0.214653  0.123144  0.220070  1
  O  O16  1  0.549086  0.782698  0.279555  1
  O  O17  1  0.462144  0.581475  0.727436  1
  O  O18  1  0.785347  0.908491  0.779930  1
  O  O19  1  0.450914  0.233612  0.720445  1
  O  O20  1  0.581598  0.461839  0.271386  1
  O  O21  1  0.537856  0.119332  0.272564  1
  O  O22  1  0.779884  0.548073  0.717101  1
  O  O23  1  0.908208  0.788039  0.221714  1
  O  O24  1  0.766290  0.217677  0.721784  1
  O  O25  1  0.878696  0.414843  0.276626  1
  O  O26  1  0.876929  0.091838  0.219819  1
