# generated using pymatgen
data_RbYTe3O8
_symmetry_space_group_name_H-M   'P 1'
_cell_length_a   6.08477665
_cell_length_b   7.81962422
_cell_length_c   11.58443691
_cell_angle_alpha   100.96666476
_cell_angle_beta   89.24668210
_cell_angle_gamma   108.95094766
_symmetry_Int_Tables_number   1
_chemical_formula_structural   RbYTe3O8
_chemical_formula_sum   'Rb2 Y2 Te6 O16'
_cell_volume   511.09594818
_cell_formula_units_Z   2
loop_
 _symmetry_equiv_pos_site_id
 _symmetry_equiv_pos_as_xyz
  1  'x, y, z'
loop_
 _atom_site_type_symbol
 _atom_site_label
 _atom_site_symmetry_multiplicity
 _atom_site_fract_x
 _atom_site_fract_y
 _atom_site_fract_z
 _atom_site_occupancy
  Rb  Rb0  1  0.841062  0.120525  0.169120  1
  Rb  Rb1  1  0.158938  0.879475  0.830880  1
  Y  Y2  1  0.500000  0.500000  0.000000  1
  Y  Y3  1  0.000000  0.500000  0.500000  1
  Te  Te4  1  0.215403  0.994030  0.419397  1
  Te  Te5  1  0.784597  0.005970  0.580603  1
  Te  Te6  1  0.072791  0.686519  0.151364  1
  Te  Te7  1  0.927209  0.313481  0.848636  1
  Te  Te8  1  0.512637  0.521372  0.335709  1
  Te  Te9  1  0.487363  0.478628  0.664291  1
  O  O10  1  0.183883  0.745859  0.420138  1
  O  O11  1  0.816117  0.254141  0.579862  1
  O  O12  1  0.233184  0.937085  0.233993  1
  O  O13  1  0.766816  0.062915  0.766007  1
  O  O14  1  0.892001  0.967212  0.397779  1
  O  O15  1  0.107999  0.032788  0.602221  1
  O  O16  1  0.266884  0.685652  0.022859  1
  O  O17  1  0.733116  0.314348  0.977141  1
  O  O18  1  0.828669  0.736720  0.080993  1
  O  O19  1  0.171331  0.263280  0.919007  1
  O  O20  1  0.396148  0.432929  0.177435  1
  O  O21  1  0.603852  0.567071  0.822565  1
  O  O22  1  0.256991  0.368564  0.406358  1
  O  O23  1  0.743009  0.631436  0.593642  1
  O  O24  1  0.729779  0.395928  0.341992  1
  O  O25  1  0.270221  0.604072  0.658008  1
