# generated using pymatgen
data_Dy14YLu5Pt16
_symmetry_space_group_name_H-M   'P 1'
_cell_length_a   7.44962246
_cell_length_b   7.54620390
_cell_length_c   14.65596410
_cell_angle_alpha   89.94164335
_cell_angle_beta   89.98210833
_cell_angle_gamma   90.00259571
_symmetry_Int_Tables_number   1
_chemical_formula_structural   Dy14YLu5Pt16
_chemical_formula_sum   'Dy14 Y1 Lu5 Pt16'
_cell_volume   823.90463274
_cell_formula_units_Z   1
loop_
 _symmetry_equiv_pos_site_id
 _symmetry_equiv_pos_as_xyz
  1  'x, y, z'
loop_
 _atom_site_type_symbol
 _atom_site_label
 _atom_site_symmetry_multiplicity
 _atom_site_fract_x
 _atom_site_fract_y
 _atom_site_fract_z
 _atom_site_occupancy
  Dy  Dy0  1  0.156227  0.668445  0.876833  1
  Dy  Dy1  1  0.843238  0.331361  0.378109  1
  Dy  Dy2  1  0.343704  0.168340  0.122716  1
  Dy  Dy3  1  0.343963  0.167948  0.377656  1
  Dy  Dy4  1  0.843643  0.331509  0.122665  1
  Dy  Dy5  1  0.156077  0.668303  0.622390  1
  Dy  Dy6  1  0.656426  0.831771  0.877064  1
  Dy  Dy7  1  0.997420  0.820458  0.406024  1
  Dy  Dy8  1  0.497811  0.679921  0.093970  1
  Dy  Dy9  1  0.502880  0.320107  0.594043  1
  Dy  Dy10  1  0.002700  0.179935  0.905676  1
  Dy  Dy11  1  0.001620  0.178157  0.594235  1
  Dy  Dy12  1  0.502453  0.320162  0.905377  1
  Dy  Dy13  1  0.498085  0.680226  0.407123  1
  Y  Y14  1  0.997817  0.820547  0.093902  1
  Lu  Lu15  1  0.681256  0.987426  0.250115  1
  Lu  Lu16  1  0.181203  0.512407  0.250207  1
  Lu  Lu17  1  0.818280  0.488287  0.749247  1
  Lu  Lu18  1  0.319392  0.011577  0.749309  1
  Lu  Lu19  1  0.656115  0.832054  0.623469  1
  Pt  Pt20  1  0.817608  0.644851  0.250429  1
  Pt  Pt21  1  0.318427  0.854838  0.250323  1
  Pt  Pt22  1  0.681689  0.143927  0.748651  1
  Pt  Pt23  1  0.182812  0.355331  0.749624  1
  Pt  Pt24  1  0.544827  0.389680  0.250298  1
  Pt  Pt25  1  0.044568  0.110480  0.250448  1
  Pt  Pt26  1  0.953492  0.888415  0.748499  1
  Pt  Pt27  1  0.456297  0.612787  0.748522  1
  Pt  Pt28  1  0.814441  0.535017  0.543569  1
  Pt  Pt29  1  0.317172  0.969035  0.956817  1
  Pt  Pt30  1  0.683267  0.029165  0.459199  1
  Pt  Pt31  1  0.183113  0.468838  0.042866  1
  Pt  Pt32  1  0.182206  0.468836  0.457117  1
  Pt  Pt33  1  0.682409  0.031155  0.042828  1
  Pt  Pt34  1  0.320413  0.968012  0.543912  1
  Pt  Pt35  1  0.816948  0.530689  0.956772  1
