# generated using pymatgen
data_CeSm(Ni9Ge4)2
_symmetry_space_group_name_H-M   'P 1'
_cell_length_a   8.18522547
_cell_length_b   8.18522559
_cell_length_c   8.18522586
_cell_angle_alpha   121.45876190
_cell_angle_beta   121.45875994
_cell_angle_gamma   87.49139006
_symmetry_Int_Tables_number   1
_chemical_formula_structural   CeSm(Ni9Ge4)2
_chemical_formula_sum   'Ce1 Sm1 Ni18 Ge8'
_cell_volume   378.82783302
_cell_formula_units_Z   1
loop_
 _symmetry_equiv_pos_site_id
 _symmetry_equiv_pos_as_xyz
  1  'x, y, z'
loop_
 _atom_site_type_symbol
 _atom_site_label
 _atom_site_symmetry_multiplicity
 _atom_site_fract_x
 _atom_site_fract_y
 _atom_site_fract_z
 _atom_site_occupancy
  Ce  Ce0  1  0.250000  0.250000  0.000000  1
  Sm  Sm1  1  0.750000  0.750000  0.000000  1
  Ni  Ni2  1  0.944178  0.444182  0.752543  1
  Ni  Ni3  1  0.691639  0.191635  0.247457  1
  Ni  Ni4  1  0.444182  0.691639  0.500004  1
  Ni  Ni5  1  0.191635  0.944178  0.499996  1
  Ni  Ni6  1  0.055818  0.555822  0.247457  1
  Ni  Ni7  1  0.308365  0.808361  0.752543  1
  Ni  Ni8  1  0.555822  0.308365  0.500004  1
  Ni  Ni9  1  0.808361  0.055818  0.499996  1
  Ni  Ni10  1  0.204019  0.068392  0.271600  1
  Ni  Ni11  1  0.796791  0.932418  0.728400  1
  Ni  Ni12  1  0.703209  0.431608  0.135627  1
  Ni  Ni13  1  0.295981  0.567582  0.864373  1
  Ni  Ni14  1  0.932418  0.204019  0.135627  1
  Ni  Ni15  1  0.068392  0.796791  0.864373  1
  Ni  Ni16  1  0.567582  0.703209  0.271600  1
  Ni  Ni17  1  0.431608  0.295981  0.728400  1
  Ni  Ni18  1  0.000000  0.500000  0.500000  1
  Ni  Ni19  1  0.500000  0.000000  0.500000  1
  Ge  Ge20  1  0.204582  0.706329  0.154748  1
  Ge  Ge21  1  0.551581  0.049834  0.845252  1
  Ge  Ge22  1  0.706329  0.551581  0.501747  1
  Ge  Ge23  1  0.049834  0.204582  0.498253  1
  Ge  Ge24  1  0.793671  0.295418  0.845252  1
  Ge  Ge25  1  0.450166  0.948419  0.154748  1
  Ge  Ge26  1  0.295418  0.450166  0.501747  1
  Ge  Ge27  1  0.948419  0.793671  0.498253  1
