# generated using pymatgen
data_BaSm3(PPt3)8
_symmetry_space_group_name_H-M   'P 1'
_cell_length_a   8.57873388
_cell_length_b   8.57873388
_cell_length_c   8.57873388
_cell_angle_alpha   89.94639666
_cell_angle_beta   89.94639666
_cell_angle_gamma   89.94639666
_symmetry_Int_Tables_number   1
_chemical_formula_structural   BaSm3(PPt3)8
_chemical_formula_sum   'Ba1 Sm3 P8 Pt24'
_cell_volume   631.34830247
_cell_formula_units_Z   1
loop_
 _symmetry_equiv_pos_site_id
 _symmetry_equiv_pos_as_xyz
  1  'x, y, z'
loop_
 _atom_site_type_symbol
 _atom_site_label
 _atom_site_symmetry_multiplicity
 _atom_site_fract_x
 _atom_site_fract_y
 _atom_site_fract_z
 _atom_site_occupancy
  Ba  Ba0  1  0.000000  0.000000  0.000000  1
  Sm  Sm1  1  0.500000  0.500000  0.000000  1
  Sm  Sm2  1  0.500000  0.000000  0.500000  1
  Sm  Sm3  1  0.000000  0.500000  0.500000  1
  P  P4  1  0.802037  0.304759  0.192409  1
  P  P5  1  0.192409  0.802037  0.304759  1
  P  P6  1  0.694757  0.694757  0.694757  1
  P  P7  1  0.304759  0.192409  0.802037  1
  P  P8  1  0.197963  0.695241  0.807591  1
  P  P9  1  0.807591  0.197963  0.695241  1
  P  P10  1  0.305243  0.305243  0.305243  1
  P  P11  1  0.695241  0.807591  0.197963  1
  Pt  Pt12  1  0.419848  0.842369  0.159128  1
  Pt  Pt13  1  0.576811  0.344468  0.341073  1
  Pt  Pt14  1  0.075012  0.165660  0.648889  1
  Pt  Pt15  1  0.924726  0.651043  0.833085  1
  Pt  Pt16  1  0.159128  0.419848  0.842369  1
  Pt  Pt17  1  0.341073  0.576811  0.344468  1
  Pt  Pt18  1  0.648889  0.075012  0.165660  1
  Pt  Pt19  1  0.833085  0.924726  0.651043  1
  Pt  Pt20  1  0.842369  0.159128  0.419848  1
  Pt  Pt21  1  0.344468  0.341073  0.576811  1
  Pt  Pt22  1  0.165660  0.648889  0.075012  1
  Pt  Pt23  1  0.651043  0.833085  0.924726  1
  Pt  Pt24  1  0.580152  0.157631  0.840872  1
  Pt  Pt25  1  0.423189  0.655532  0.658927  1
  Pt  Pt26  1  0.924988  0.834340  0.351111  1
  Pt  Pt27  1  0.075274  0.348957  0.166915  1
  Pt  Pt28  1  0.840872  0.580152  0.157631  1
  Pt  Pt29  1  0.658927  0.423189  0.655532  1
  Pt  Pt30  1  0.351111  0.924988  0.834340  1
  Pt  Pt31  1  0.166915  0.075274  0.348957  1
  Pt  Pt32  1  0.157631  0.840872  0.580152  1
  Pt  Pt33  1  0.655532  0.658927  0.423189  1
  Pt  Pt34  1  0.834340  0.351111  0.924988  1
  Pt  Pt35  1  0.348957  0.166915  0.075274  1
