# generated using pymatgen
data_Er20CoBi8Rh3
_symmetry_space_group_name_H-M   'P 1'
_cell_length_a   7.94477080
_cell_length_b   8.94830400
_cell_length_c   12.38564033
_cell_angle_alpha   90.00000000
_cell_angle_beta   90.15882797
_cell_angle_gamma   90.00000000
_symmetry_Int_Tables_number   1
_chemical_formula_structural   Er20CoBi8Rh3
_chemical_formula_sum   'Er20 Co1 Bi8 Rh3'
_cell_volume   880.51933696
_cell_formula_units_Z   1
loop_
 _symmetry_equiv_pos_site_id
 _symmetry_equiv_pos_as_xyz
  1  'x, y, z'
loop_
 _atom_site_type_symbol
 _atom_site_label
 _atom_site_symmetry_multiplicity
 _atom_site_fract_x
 _atom_site_fract_y
 _atom_site_fract_z
 _atom_site_occupancy
  Er  Er0  1  0.657273  0.750000  0.699795  1
  Er  Er1  1  0.338757  0.250000  0.292521  1
  Er  Er2  1  0.161025  0.250000  0.792786  1
  Er  Er3  1  0.839002  0.750000  0.207234  1
  Er  Er4  1  0.123296  0.750000  0.808208  1
  Er  Er5  1  0.875074  0.250000  0.191262  1
  Er  Er6  1  0.624389  0.250000  0.691524  1
  Er  Er7  1  0.380999  0.750000  0.314375  1
  Er  Er8  1  0.554121  0.750000  0.997683  1
  Er  Er9  1  0.449148  0.250000  0.001036  1
  Er  Er10  1  0.053269  0.250000  0.501443  1
  Er  Er11  1  0.946716  0.750000  0.498497  1
  Er  Er12  1  0.824782  0.456325  0.932816  1
  Er  Er13  1  0.176380  0.542431  0.066998  1
  Er  Er14  1  0.325223  0.545504  0.565716  1
  Er  Er15  1  0.176380  0.957569  0.066998  1
  Er  Er16  1  0.673686  0.464876  0.435477  1
  Er  Er17  1  0.824782  0.043675  0.932816  1
  Er  Er18  1  0.673686  0.035124  0.435477  1
  Er  Er19  1  0.325223  0.954496  0.565716  1
  Co  Co20  1  0.567828  0.750000  0.492323  1
  Bi  Bi21  1  0.932362  0.009027  0.672285  1
  Bi  Bi22  1  0.066696  0.990889  0.327557  1
  Bi  Bi23  1  0.433606  0.990562  0.826463  1
  Bi  Bi24  1  0.066696  0.509111  0.327557  1
  Bi  Bi25  1  0.566073  0.008077  0.173638  1
  Bi  Bi26  1  0.932362  0.490973  0.672285  1
  Bi  Bi27  1  0.566073  0.491923  0.173638  1
  Bi  Bi28  1  0.433606  0.509438  0.826463  1
  Rh  Rh29  1  0.929261  0.750000  0.991528  1
  Rh  Rh30  1  0.072682  0.250000  0.009477  1
  Rh  Rh31  1  0.429545  0.250000  0.508406  1
