# generated using pymatgen
data_La4YbSn3H
_symmetry_space_group_name_H-M   'P 1'
_cell_length_a   9.52603919
_cell_length_b   9.52603981
_cell_length_c   9.52603988
_cell_angle_alpha   127.73885106
_cell_angle_beta   127.73884392
_cell_angle_gamma   77.04846814
_symmetry_Int_Tables_number   1
_chemical_formula_structural   La4YbSn3H
_chemical_formula_sum   'La8 Yb2 Sn6 H2'
_cell_volume   524.71820991
_cell_formula_units_Z   2
loop_
 _symmetry_equiv_pos_site_id
 _symmetry_equiv_pos_as_xyz
  1  'x, y, z'
loop_
 _atom_site_type_symbol
 _atom_site_label
 _atom_site_symmetry_multiplicity
 _atom_site_fract_x
 _atom_site_fract_y
 _atom_site_fract_z
 _atom_site_occupancy
  La  La0  1  0.515571  0.015571  0.833308  1
  La  La1  1  0.182264  0.682264  0.166692  1
  La  La2  1  0.015571  0.182264  0.500000  1
  La  La3  1  0.682264  0.515571  0.500000  1
  La  La4  1  0.484429  0.984429  0.166692  1
  La  La5  1  0.817736  0.317736  0.833308  1
  La  La6  1  0.984429  0.817736  0.500000  1
  La  La7  1  0.317736  0.484429  0.500000  1
  Yb  Yb8  1  0.500000  0.500000  0.000000  1
  Yb  Yb9  1  0.000000  0.000000  0.000000  1
  Sn  Sn10  1  0.250000  0.250000  0.000000  1
  Sn  Sn11  1  0.750000  0.750000  0.000000  1
  Sn  Sn12  1  0.870164  0.370164  0.240328  1
  Sn  Sn13  1  0.129836  0.629836  0.759672  1
  Sn  Sn14  1  0.370164  0.129836  0.500000  1
  Sn  Sn15  1  0.629836  0.870164  0.500000  1
  H  H16  1  0.250000  0.750000  0.500000  1
  H  H17  1  0.750000  0.250000  0.500000  1
