# generated using pymatgen
data_Lu2ZrPdF14
_symmetry_space_group_name_H-M   'P 1'
_cell_length_a   5.55721034
_cell_length_b   8.82130588
_cell_length_c   11.87899692
_cell_angle_alpha   62.65483724
_cell_angle_beta   89.82284906
_cell_angle_gamma   90.04478173
_symmetry_Int_Tables_number   1
_chemical_formula_structural   Lu2ZrPdF14
_chemical_formula_sum   'Lu4 Zr2 Pd2 F28'
_cell_volume   517.25410744
_cell_formula_units_Z   2
loop_
 _symmetry_equiv_pos_site_id
 _symmetry_equiv_pos_as_xyz
  1  'x, y, z'
loop_
 _atom_site_type_symbol
 _atom_site_label
 _atom_site_symmetry_multiplicity
 _atom_site_fract_x
 _atom_site_fract_y
 _atom_site_fract_z
 _atom_site_occupancy
  Lu  Lu0  1  0.259625  0.820372  0.258176  1
  Lu  Lu1  1  0.740375  0.179628  0.741824  1
  Lu  Lu2  1  0.758782  0.186324  0.227874  1
  Lu  Lu3  1  0.241218  0.813676  0.772126  1
  Zr  Zr4  1  0.257166  0.274391  0.454920  1
  Zr  Zr5  1  0.742834  0.725609  0.545080  1
  Pd  Pd6  1  0.760276  0.728015  0.044457  1
  Pd  Pd7  1  0.239724  0.271985  0.955543  1
  F  F8  1  0.964585  0.708153  0.415510  1
  F  F9  1  0.035415  0.291847  0.584490  1
  F  F10  1  0.436330  0.296988  0.081334  1
  F  F11  1  0.563670  0.703012  0.918666  1
  F  F12  1  0.469535  0.730126  0.135683  1
  F  F13  1  0.530465  0.269874  0.864317  1
  F  F14  1  0.979461  0.269950  0.345478  1
  F  F15  1  0.020539  0.730050  0.654522  1
  F  F16  1  0.952920  0.743199  0.176840  1
  F  F17  1  0.047080  0.256801  0.823160  1
  F  F18  1  0.468027  0.248210  0.322939  1
  F  F19  1  0.531973  0.751790  0.677061  1
  F  F20  1  0.766416  0.479326  0.140817  1
  F  F21  1  0.233584  0.520674  0.859183  1
  F  F22  1  0.286911  0.532475  0.354977  1
  F  F23  1  0.713089  0.467525  0.645023  1
  F  F24  1  0.941457  0.283718  0.039348  1
  F  F25  1  0.058543  0.716282  0.960652  1
  F  F26  1  0.437613  0.733253  0.445520  1
  F  F27  1  0.562387  0.266747  0.554480  1
  F  F28  1  0.747064  0.982508  0.436899  1
  F  F29  1  0.252936  0.017492  0.563101  1
  F  F30  1  0.240115  0.024103  0.046508  1
  F  F31  1  0.759885  0.975897  0.953492  1
  F  F32  1  0.575168  0.975889  0.226663  1
  F  F33  1  0.424832  0.024111  0.773337  1
  F  F34  1  0.073102  0.028731  0.258837  1
  F  F35  1  0.926898  0.971269  0.741163  1
