# generated using pymatgen
data_Dy6Lu10Cd3AgIr4
_symmetry_space_group_name_H-M   'P 1'
_cell_length_a   9.51702749
_cell_length_b   9.51702858
_cell_length_c   9.51702814
_cell_angle_alpha   59.59661339
_cell_angle_beta   59.59661430
_cell_angle_gamma   59.59661781
_symmetry_Int_Tables_number   1
_chemical_formula_structural   Dy6Lu10Cd3AgIr4
_chemical_formula_sum   'Dy6 Lu10 Cd3 Ag1 Ir4'
_cell_volume   603.93303883
_cell_formula_units_Z   1
loop_
 _symmetry_equiv_pos_site_id
 _symmetry_equiv_pos_as_xyz
  1  'x, y, z'
loop_
 _atom_site_type_symbol
 _atom_site_label
 _atom_site_symmetry_multiplicity
 _atom_site_fract_x
 _atom_site_fract_y
 _atom_site_fract_z
 _atom_site_occupancy
  Dy  Dy0  1  0.188263  0.809117  0.809117  1
  Dy  Dy1  1  0.809479  0.187977  0.187977  1
  Dy  Dy2  1  0.809117  0.188263  0.809117  1
  Dy  Dy3  1  0.187977  0.809479  0.187977  1
  Dy  Dy4  1  0.809117  0.809117  0.188263  1
  Dy  Dy5  1  0.187977  0.187977  0.809479  1
  Lu  Lu6  1  0.599475  0.599475  0.599475  1
  Lu  Lu7  1  0.599845  0.599845  0.204429  1
  Lu  Lu8  1  0.599845  0.204429  0.599845  1
  Lu  Lu9  1  0.204429  0.599845  0.599845  1
  Lu  Lu10  1  0.061528  0.437932  0.437932  1
  Lu  Lu11  1  0.435253  0.061151  0.061151  1
  Lu  Lu12  1  0.437932  0.061528  0.437932  1
  Lu  Lu13  1  0.061151  0.435253  0.061151  1
  Lu  Lu14  1  0.437932  0.437932  0.061528  1
  Lu  Lu15  1  0.061151  0.061151  0.435253  1
  Cd  Cd16  1  0.831833  0.831833  0.508732  1
  Cd  Cd17  1  0.831833  0.508732  0.831833  1
  Cd  Cd18  1  0.508732  0.831833  0.831833  1
  Ag  Ag19  1  0.832126  0.832126  0.832126  1
  Ir  Ir20  1  0.391912  0.391912  0.391912  1
  Ir  Ir21  1  0.393692  0.393692  0.825708  1
  Ir  Ir22  1  0.393692  0.825708  0.393692  1
  Ir  Ir23  1  0.825708  0.393692  0.393692  1
