# generated using pymatgen
data_Dy16Cd4Ru2PtRh
_symmetry_space_group_name_H-M   'P 1'
_cell_length_a   9.65520376
_cell_length_b   9.64331662
_cell_length_c   9.68928200
_cell_angle_alpha   59.84219803
_cell_angle_beta   59.88317556
_cell_angle_gamma   59.79531007
_symmetry_Int_Tables_number   1
_chemical_formula_structural   Dy16Cd4Ru2PtRh
_chemical_formula_sum   'Dy16 Cd4 Ru2 Pt1 Rh1'
_cell_volume   635.60355119
_cell_formula_units_Z   1
loop_
 _symmetry_equiv_pos_site_id
 _symmetry_equiv_pos_as_xyz
  1  'x, y, z'
loop_
 _atom_site_type_symbol
 _atom_site_label
 _atom_site_symmetry_multiplicity
 _atom_site_fract_x
 _atom_site_fract_y
 _atom_site_fract_z
 _atom_site_occupancy
  Dy  Dy0  1  0.347121  0.350659  0.350131  1
  Dy  Dy1  1  0.347121  0.350659  0.952090  1
  Dy  Dy2  1  0.345946  0.955217  0.349420  1
  Dy  Dy3  1  0.956635  0.346940  0.348213  1
  Dy  Dy4  1  0.814827  0.188016  0.190274  1
  Dy  Dy5  1  0.187617  0.812614  0.810363  1
  Dy  Dy6  1  0.187617  0.812614  0.189407  1
  Dy  Dy7  1  0.814827  0.188016  0.806884  1
  Dy  Dy8  1  0.188548  0.187815  0.811819  1
  Dy  Dy9  1  0.812243  0.806552  0.190603  1
  Dy  Dy10  1  0.937413  0.559792  0.564632  1
  Dy  Dy11  1  0.558631  0.937594  0.937695  1
  Dy  Dy12  1  0.558631  0.937594  0.566079  1
  Dy  Dy13  1  0.937413  0.559791  0.938163  1
  Dy  Dy14  1  0.562036  0.564340  0.936812  1
  Dy  Dy15  1  0.938225  0.938245  0.561764  1
  Cd  Cd16  1  0.580499  0.580325  0.581237  1
  Cd  Cd17  1  0.580499  0.580325  0.257937  1
  Cd  Cd18  1  0.581230  0.255780  0.581495  1
  Cd  Cd19  1  0.255581  0.581178  0.581620  1
  Ru  Ru20  1  0.144101  0.143121  0.137135  1
  Ru  Ru21  1  0.144101  0.143121  0.575644  1
  Pt  Pt22  1  0.574780  0.144478  0.140371  1
  Rh  Rh23  1  0.144358  0.575213  0.140215  1
