# generated using pymatgen
data_Tb5Lu(BePd5)2
_symmetry_space_group_name_H-M   'P 1'
_cell_length_a   8.11286424
_cell_length_b   8.11286472
_cell_length_c   8.11286500
_cell_angle_alpha   127.10692641
_cell_angle_beta   124.51434738
_cell_angle_gamma   80.21700770
_symmetry_Int_Tables_number   1
_chemical_formula_structural   Tb5Lu(BePd5)2
_chemical_formula_sum   'Tb5 Lu1 Be2 Pd10'
_cell_volume   338.67415006
_cell_formula_units_Z   1
loop_
 _symmetry_equiv_pos_site_id
 _symmetry_equiv_pos_as_xyz
  1  'x, y, z'
loop_
 _atom_site_type_symbol
 _atom_site_label
 _atom_site_symmetry_multiplicity
 _atom_site_fract_x
 _atom_site_fract_y
 _atom_site_fract_z
 _atom_site_occupancy
  Tb  Tb0  1  0.220792  0.446560  0.774232  1
  Tb  Tb1  1  0.778634  0.553150  0.225484  1
  Tb  Tb2  1  0.827672  0.053440  0.774232  1
  Tb  Tb3  1  0.172334  0.946850  0.225484  1
  Tb  Tb4  1  0.407114  0.250000  0.157114  1
  Lu  Lu5  1  0.589815  0.750000  0.839815  1
  Be  Be6  1  0.794294  0.250000  0.544294  1
  Be  Be7  1  0.207086  0.750000  0.457086  1
  Pd  Pd8  1  0.173521  0.409243  0.359159  1
  Pd  Pd9  1  0.825633  0.180398  0.232539  1
  Pd  Pd10  1  0.449917  0.090757  0.764279  1
  Pd  Pd11  1  0.552141  0.319602  0.645235  1
  Pd  Pd12  1  0.999917  0.500389  0.000307  1
  Pd  Pd13  1  0.999917  0.999611  0.499529  1
  Pd  Pd14  1  0.449917  0.685638  0.359159  1
  Pd  Pd15  1  0.552141  0.906907  0.232539  1
  Pd  Pd16  1  0.173521  0.814362  0.764279  1
  Pd  Pd17  1  0.825633  0.593093  0.645235  1
