# generated using pymatgen
data_LiTa4B12Ru12W7
_symmetry_space_group_name_H-M   'P 1'
_cell_length_a   3.05197900
_cell_length_b   8.94874096
_cell_length_c   15.63557717
_cell_angle_alpha   89.38150927
_cell_angle_beta   90.00000000
_cell_angle_gamma   90.00000000
_symmetry_Int_Tables_number   1
_chemical_formula_structural   LiTa4B12Ru12W7
_chemical_formula_sum   'Li1 Ta4 B12 Ru12 W7'
_cell_volume   427.00414568
_cell_formula_units_Z   1
loop_
 _symmetry_equiv_pos_site_id
 _symmetry_equiv_pos_as_xyz
  1  'x, y, z'
loop_
 _atom_site_type_symbol
 _atom_site_label
 _atom_site_symmetry_multiplicity
 _atom_site_fract_x
 _atom_site_fract_y
 _atom_site_fract_z
 _atom_site_occupancy
  Li  Li0  1  0.000000  0.808156  0.491038  1
  Ta  Ta1  1  0.000000  0.690116  0.206469  1
  Ta  Ta2  1  0.000000  0.307213  0.798245  1
  Ta  Ta3  1  0.000000  0.187495  0.300490  1
  Ta  Ta4  1  0.000000  0.806367  0.698268  1
  B  B5  1  0.500000  0.611602  0.493547  1
  B  B6  1  0.500000  0.395128  0.506646  1
  B  B7  1  0.500000  0.103800  0.003979  1
  B  B8  1  0.500000  0.894394  0.996739  1
  B  B9  1  0.000000  0.607208  0.831677  1
  B  B10  1  0.000000  0.394398  0.168544  1
  B  B11  1  0.000000  0.098327  0.661672  1
  B  B12  1  0.000000  0.889820  0.335829  1
  B  B13  1  0.500000  0.714699  0.593938  1
  B  B14  1  0.500000  0.289600  0.403742  1
  B  B15  1  0.500000  0.213214  0.903702  1
  B  B16  1  0.500000  0.785072  0.098183  1
  Ru  Ru17  1  0.500000  0.718905  0.356470  1
  Ru  Ru18  1  0.500000  0.280954  0.647010  1
  Ru  Ru19  1  0.500000  0.221022  0.148198  1
  Ru  Ru20  1  0.500000  0.779511  0.851389  1
  Ru  Ru21  1  0.500000  0.516480  0.091450  1
  Ru  Ru22  1  0.500000  0.483648  0.909736  1
  Ru  Ru23  1  0.500000  0.020918  0.406285  1
  Ru  Ru24  1  0.500000  0.982839  0.590082  1
  Ru  Ru25  1  0.500000  0.554302  0.733074  1
  Ru  Ru26  1  0.500000  0.440998  0.267302  1
  Ru  Ru27  1  0.500000  0.054186  0.765328  1
  Ru  Ru28  1  0.500000  0.944027  0.235087  1
  W  W29  1  0.000000  0.201911  0.504910  1
  W  W30  1  0.000000  0.290771  0.005753  1
  W  W31  1  0.000000  0.709088  0.994871  1
  W  W32  1  0.000000  0.521519  0.588992  1
  W  W33  1  0.000000  0.483782  0.411046  1
  W  W34  1  0.000000  0.015525  0.908615  1
  W  W35  1  0.000000  0.983004  0.091689  1
