# generated using pymatgen
data_La6Sb6Pd3Au
_symmetry_space_group_name_H-M   'P 1'
_cell_length_a   4.63986300
_cell_length_b   4.63986442
_cell_length_c   24.37285100
_cell_angle_alpha   90.00000000
_cell_angle_beta   90.00000000
_cell_angle_gamma   120.00001128
_symmetry_Int_Tables_number   1
_chemical_formula_structural   La6Sb6Pd3Au
_chemical_formula_sum   'La6 Sb6 Pd3 Au1'
_cell_volume   454.40945946
_cell_formula_units_Z   1
loop_
 _symmetry_equiv_pos_site_id
 _symmetry_equiv_pos_as_xyz
  1  'x, y, z'
loop_
 _atom_site_type_symbol
 _atom_site_label
 _atom_site_symmetry_multiplicity
 _atom_site_fract_x
 _atom_site_fract_y
 _atom_site_fract_z
 _atom_site_occupancy
  La  La0  1  0.666667  0.333333  0.923168  1
  La  La1  1  0.333333  0.666667  0.078831  1
  La  La2  1  0.333333  0.666667  0.420248  1
  La  La3  1  0.666667  0.333333  0.573558  1
  La  La4  1  0.333333  0.666667  0.249744  1
  La  La5  1  0.666667  0.333333  0.753750  1
  Sb  Sb6  1  0.333333  0.666667  0.652576  1
  Sb  Sb7  1  0.000000  0.000000  0.497123  1
  Sb  Sb8  1  0.666667  0.333333  0.338591  1
  Sb  Sb9  1  0.333333  0.666667  0.842578  1
  Sb  Sb10  1  0.666667  0.333333  0.161098  1
  Sb  Sb11  1  0.000000  0.000000  0.001451  1
  Pd  Pd12  1  0.000000  0.000000  0.822696  1
  Pd  Pd13  1  0.000000  0.000000  0.171961  1
  Pd  Pd14  1  0.000000  0.000000  0.328443  1
  Au  Au15  1  0.000000  0.000000  0.684184  1
