# generated using pymatgen
data_Ca6Si5AsRh12
_symmetry_space_group_name_H-M   'P 1'
_cell_length_a   5.66587801
_cell_length_b   5.66618895
_cell_length_c   14.93004400
_cell_angle_alpha   89.99939241
_cell_angle_beta   90.00070317
_cell_angle_gamma   120.00402618
_symmetry_Int_Tables_number   1
_chemical_formula_structural   Ca6Si5AsRh12
_chemical_formula_sum   'Ca6 Si5 As1 Rh12'
_cell_volume   415.08053778
_cell_formula_units_Z   1
loop_
 _symmetry_equiv_pos_site_id
 _symmetry_equiv_pos_as_xyz
  1  'x, y, z'
loop_
 _atom_site_type_symbol
 _atom_site_label
 _atom_site_symmetry_multiplicity
 _atom_site_fract_x
 _atom_site_fract_y
 _atom_site_fract_z
 _atom_site_occupancy
  Ca  Ca0  1  0.333318  0.666645  0.039214  1
  Ca  Ca1  1  0.333343  0.666663  0.251124  1
  Ca  Ca2  1  0.333339  0.666677  0.460618  1
  Ca  Ca3  1  0.666645  0.333328  0.539459  1
  Ca  Ca4  1  0.666656  0.333329  0.748893  1
  Ca  Ca5  1  0.666706  0.333330  0.960683  1
  Si  Si6  1  0.999996  0.999976  0.252873  1
  Si  Si7  1  0.666629  0.333325  0.252744  1
  Si  Si8  1  0.999998  0.000009  0.500025  1
  Si  Si9  1  0.000054  0.000052  0.747109  1
  Si  Si10  1  0.333311  0.666637  0.747251  1
  As  As11  1  0.999980  0.999992  0.999904  1
  Rh  Rh12  1  0.330847  0.165429  0.137573  1
  Rh  Rh13  1  0.834589  0.165434  0.137554  1
  Rh  Rh14  1  0.834581  0.669150  0.137534  1
  Rh  Rh15  1  0.329179  0.164593  0.368697  1
  Rh  Rh16  1  0.835462  0.164610  0.368714  1
  Rh  Rh17  1  0.835445  0.670844  0.368724  1
  Rh  Rh18  1  0.164558  0.329180  0.631279  1
  Rh  Rh19  1  0.164550  0.835396  0.631289  1
  Rh  Rh20  1  0.670821  0.835425  0.631329  1
  Rh  Rh21  1  0.165446  0.330887  0.862490  1
  Rh  Rh22  1  0.165437  0.834550  0.862474  1
  Rh  Rh23  1  0.669111  0.834544  0.862449  1
