# generated using pymatgen
data_DyY3ReOsC4
_symmetry_space_group_name_H-M   'P 1'
_cell_length_a   5.12046800
_cell_length_b   6.55056995
_cell_length_c   9.84593837
_cell_angle_alpha   89.71308132
_cell_angle_beta   90.00000000
_cell_angle_gamma   90.00000000
_symmetry_Int_Tables_number   1
_chemical_formula_structural   DyY3ReOsC4
_chemical_formula_sum   'Dy2 Y6 Re2 Os2 C8'
_cell_volume   330.24816441
_cell_formula_units_Z   2
loop_
 _symmetry_equiv_pos_site_id
 _symmetry_equiv_pos_as_xyz
  1  'x, y, z'
loop_
 _atom_site_type_symbol
 _atom_site_label
 _atom_site_symmetry_multiplicity
 _atom_site_fract_x
 _atom_site_fract_y
 _atom_site_fract_z
 _atom_site_occupancy
  Dy  Dy0  1  0.250000  0.678660  0.554983  1
  Dy  Dy1  1  0.750000  0.321340  0.445017  1
  Y  Y2  1  0.750000  0.819748  0.055313  1
  Y  Y3  1  0.250000  0.180252  0.944687  1
  Y  Y4  1  0.250000  0.531807  0.215575  1
  Y  Y5  1  0.750000  0.468193  0.784425  1
  Y  Y6  1  0.750000  0.970004  0.714256  1
  Y  Y7  1  0.250000  0.029996  0.285744  1
  Re  Re8  1  0.250000  0.722827  0.864621  1
  Re  Re9  1  0.750000  0.277173  0.135379  1
  Os  Os10  1  0.750000  0.775518  0.364378  1
  Os  Os11  1  0.250000  0.224482  0.635622  1
  C  C12  1  0.250000  0.457640  0.759372  1
  C  C13  1  0.750000  0.542360  0.240628  1
  C  C14  1  0.750000  0.042691  0.258921  1
  C  C15  1  0.250000  0.957309  0.741079  1
  C  C16  1  0.250000  0.821975  0.050055  1
  C  C17  1  0.750000  0.178025  0.949945  1
  C  C18  1  0.750000  0.676335  0.549072  1
  C  C19  1  0.250000  0.323665  0.450928  1
