# generated using pymatgen
data_Ta8Ga2CoP
_symmetry_space_group_name_H-M   'P 1'
_cell_length_a   5.03183800
_cell_length_b   6.25152000
_cell_length_c   6.25152000
_cell_angle_alpha   90.00000000
_cell_angle_beta   90.00000000
_cell_angle_gamma   90.00000000
_symmetry_Int_Tables_number   1
_chemical_formula_structural   Ta8Ga2CoP
_chemical_formula_sum   'Ta8 Ga2 Co1 P1'
_cell_volume   196.65178842
_cell_formula_units_Z   1
loop_
 _symmetry_equiv_pos_site_id
 _symmetry_equiv_pos_as_xyz
  1  'x, y, z'
loop_
 _atom_site_type_symbol
 _atom_site_label
 _atom_site_symmetry_multiplicity
 _atom_site_fract_x
 _atom_site_fract_y
 _atom_site_fract_z
 _atom_site_occupancy
  Ta  Ta0  1  0.497175  0.647870  0.168866  1
  Ta  Ta1  1  0.497175  0.352130  0.831134  1
  Ta  Ta2  1  0.497175  0.831134  0.647870  1
  Ta  Ta3  1  0.497175  0.168866  0.352130  1
  Ta  Ta4  1  0.002825  0.352130  0.168866  1
  Ta  Ta5  1  0.002825  0.647870  0.831134  1
  Ta  Ta6  1  0.002825  0.168866  0.647870  1
  Ta  Ta7  1  0.002825  0.831134  0.352130  1
  Ga  Ga8  1  0.250000  0.000000  0.000000  1
  Ga  Ga9  1  0.750000  0.000000  0.000000  1
  Co  Co10  1  0.250000  0.500000  0.500000  1
  P  P11  1  0.750000  0.500000  0.500000  1
