# generated using pymatgen
data_La6Hg7Rh
_symmetry_space_group_name_H-M   'P 1'
_cell_length_a   8.58364741
_cell_length_b   8.58364664
_cell_length_c   8.58364759
_cell_angle_alpha   113.43417922
_cell_angle_beta   113.43417795
_cell_angle_gamma   113.43418143
_symmetry_Int_Tables_number   1
_chemical_formula_structural   La6Hg7Rh
_chemical_formula_sum   'La6 Hg7 Rh1'
_cell_volume   399.84426551
_cell_formula_units_Z   1
loop_
 _symmetry_equiv_pos_site_id
 _symmetry_equiv_pos_as_xyz
  1  'x, y, z'
loop_
 _atom_site_type_symbol
 _atom_site_label
 _atom_site_symmetry_multiplicity
 _atom_site_fract_x
 _atom_site_fract_y
 _atom_site_fract_z
 _atom_site_occupancy
  La  La0  1  0.992852  0.632448  0.749892  1
  La  La1  1  0.749892  0.992852  0.632448  1
  La  La2  1  0.632448  0.749892  0.992852  1
  La  La3  1  0.007148  0.367552  0.250108  1
  La  La4  1  0.250108  0.007148  0.367552  1
  La  La5  1  0.367552  0.250108  0.007148  1
  Hg  Hg6  1  0.500000  0.500000  0.500000  1
  Hg  Hg7  1  0.900906  0.739764  0.409465  1
  Hg  Hg8  1  0.409465  0.900906  0.739764  1
  Hg  Hg9  1  0.739764  0.409465  0.900906  1
  Hg  Hg10  1  0.099094  0.260236  0.590535  1
  Hg  Hg11  1  0.590535  0.099094  0.260236  1
  Hg  Hg12  1  0.260236  0.590535  0.099094  1
  Rh  Rh13  1  0.000000  0.000000  0.000000  1
