# generated using pymatgen
data_SmPaInRh2
_symmetry_space_group_name_H-M   'P 1'
_cell_length_a   7.77455499
_cell_length_b   7.77455400
_cell_length_c   3.65695700
_cell_angle_alpha   90.00000000
_cell_angle_beta   90.00000000
_cell_angle_gamma   94.66809478
_symmetry_Int_Tables_number   1
_chemical_formula_structural   SmPaInRh2
_chemical_formula_sum   'Sm2 Pa2 In2 Rh4'
_cell_volume   220.30678215
_cell_formula_units_Z   2
loop_
 _symmetry_equiv_pos_site_id
 _symmetry_equiv_pos_as_xyz
  1  'x, y, z'
loop_
 _atom_site_type_symbol
 _atom_site_label
 _atom_site_symmetry_multiplicity
 _atom_site_fract_x
 _atom_site_fract_y
 _atom_site_fract_z
 _atom_site_occupancy
  Sm  Sm0  1  0.170369  0.329631  0.500000  1
  Sm  Sm1  1  0.829631  0.670369  0.500000  1
  Pa  Pa2  1  0.667374  0.167374  0.500000  1
  Pa  Pa3  1  0.332626  0.832626  0.500000  1
  In  In4  1  0.000000  0.000000  0.000000  1
  In  In5  1  0.500000  0.500000  0.000000  1
  Rh  Rh6  1  0.151036  0.651036  0.000000  1
  Rh  Rh7  1  0.848964  0.348964  0.000000  1
  Rh  Rh8  1  0.622502  0.877498  0.000000  1
  Rh  Rh9  1  0.377498  0.122502  0.000000  1
