# generated using pymatgen
data_Ho8Si12PdRh3
_symmetry_space_group_name_H-M   'P 1'
_cell_length_a   8.16953100
_cell_length_b   8.16953092
_cell_length_c   7.86930100
_cell_angle_alpha   90.00000000
_cell_angle_beta   90.00000000
_cell_angle_gamma   120.00000438
_symmetry_Int_Tables_number   1
_chemical_formula_structural   Ho8Si12PdRh3
_chemical_formula_sum   'Ho8 Si12 Pd1 Rh3'
_cell_volume   454.84247672
_cell_formula_units_Z   1
loop_
 _symmetry_equiv_pos_site_id
 _symmetry_equiv_pos_as_xyz
  1  'x, y, z'
loop_
 _atom_site_type_symbol
 _atom_site_label
 _atom_site_symmetry_multiplicity
 _atom_site_fract_x
 _atom_site_fract_y
 _atom_site_fract_z
 _atom_site_occupancy
  Ho  Ho0  1  0.000000  0.000000  0.249947  1
  Ho  Ho1  1  0.000000  0.000000  0.751023  1
  Ho  Ho2  1  0.510349  0.489651  0.247603  1
  Ho  Ho3  1  0.510349  0.020698  0.247603  1
  Ho  Ho4  1  0.979302  0.489651  0.247603  1
  Ho  Ho5  1  0.492050  0.507950  0.751962  1
  Ho  Ho6  1  0.492050  0.984100  0.751962  1
  Ho  Ho7  1  0.015900  0.507950  0.751962  1
  Si  Si8  1  0.164336  0.835664  0.500494  1
  Si  Si9  1  0.164336  0.328670  0.500494  1
  Si  Si10  1  0.671330  0.835664  0.500494  1
  Si  Si11  1  0.832365  0.167635  0.499983  1
  Si  Si12  1  0.832365  0.664732  0.499983  1
  Si  Si13  1  0.335268  0.167635  0.499983  1
  Si  Si14  1  0.833389  0.166611  0.999484  1
  Si  Si15  1  0.833389  0.666779  0.999484  1
  Si  Si16  1  0.333221  0.166611  0.999484  1
  Si  Si17  1  0.166932  0.833068  0.000882  1
  Si  Si18  1  0.166932  0.333862  0.000882  1
  Si  Si19  1  0.666138  0.833068  0.000882  1
  Pd  Pd20  1  0.333333  0.666667  0.464810  1
  Rh  Rh21  1  0.666667  0.333333  0.535852  1
  Rh  Rh22  1  0.666667  0.333333  0.964858  1
  Rh  Rh23  1  0.333333  0.666667  0.032287  1
