# generated using pymatgen
data_LiPr2InSi2Ag
_symmetry_space_group_name_H-M   'P 1'
_cell_length_a   9.90187334
_cell_length_b   9.90187343
_cell_length_c   6.96156720
_cell_angle_alpha   90.15117315
_cell_angle_beta   89.84882555
_cell_angle_gamma   153.08078251
_symmetry_Int_Tables_number   1
_chemical_formula_structural   LiPr2InSi2Ag
_chemical_formula_sum   'Li2 Pr4 In2 Si4 Ag2'
_cell_volume   309.01750251
_cell_formula_units_Z   2
loop_
 _symmetry_equiv_pos_site_id
 _symmetry_equiv_pos_as_xyz
  1  'x, y, z'
loop_
 _atom_site_type_symbol
 _atom_site_label
 _atom_site_symmetry_multiplicity
 _atom_site_fract_x
 _atom_site_fract_y
 _atom_site_fract_z
 _atom_site_occupancy
  Li  Li0  1  0.178811  0.821189  0.061460  1
  Li  Li1  1  0.821189  0.178811  0.938540  1
  Pr  Pr2  1  0.545761  0.454239  0.251518  1
  Pr  Pr3  1  0.454239  0.545761  0.748482  1
  Pr  Pr4  1  0.349571  0.650429  0.249176  1
  Pr  Pr5  1  0.650429  0.349571  0.750824  1
  In  In6  1  0.721509  0.278491  0.243858  1
  In  In7  1  0.278491  0.721509  0.756142  1
  Si  Si8  1  0.943585  0.056415  0.074175  1
  Si  Si9  1  0.056415  0.943585  0.925825  1
  Si  Si10  1  0.055442  0.944558  0.579146  1
  Si  Si11  1  0.944558  0.055442  0.420854  1
  Ag  Ag12  1  0.822756  0.177244  0.562425  1
  Ag  Ag13  1  0.177244  0.822756  0.437575  1
