# generated using pymatgen
data_LaSmZr2(NiAs)4
_symmetry_space_group_name_H-M   'P 1'
_cell_length_a   4.04819400
_cell_length_b   4.04819240
_cell_length_c   15.29639900
_cell_angle_alpha   90.00000000
_cell_angle_beta   90.00000000
_cell_angle_gamma   120.00001305
_symmetry_Int_Tables_number   1
_chemical_formula_structural   LaSmZr2(NiAs)4
_chemical_formula_sum   'La1 Sm1 Zr2 Ni4 As4'
_cell_volume   217.09121062
_cell_formula_units_Z   1
loop_
 _symmetry_equiv_pos_site_id
 _symmetry_equiv_pos_as_xyz
  1  'x, y, z'
loop_
 _atom_site_type_symbol
 _atom_site_label
 _atom_site_symmetry_multiplicity
 _atom_site_fract_x
 _atom_site_fract_y
 _atom_site_fract_z
 _atom_site_occupancy
  La  La0  1  0.000000  0.000000  0.500000  1
  Sm  Sm1  1  0.000000  0.000000  0.000000  1
  Zr  Zr2  1  0.000000  0.000000  0.247648  1
  Zr  Zr3  1  0.000000  0.000000  0.752352  1
  Ni  Ni4  1  0.333333  0.666667  0.155987  1
  Ni  Ni5  1  0.666667  0.333333  0.844013  1
  Ni  Ni6  1  0.666667  0.333333  0.662501  1
  Ni  Ni7  1  0.333333  0.666667  0.337499  1
  As  As8  1  0.333333  0.666667  0.630041  1
  As  As9  1  0.666667  0.333333  0.369959  1
  As  As10  1  0.666667  0.333333  0.123722  1
  As  As11  1  0.333333  0.666667  0.876278  1
