# generated using pymatgen
data_Dy2Y6MgCo2Au
_symmetry_space_group_name_H-M   'P 1'
_cell_length_a   9.44944730
_cell_length_b   9.44944686
_cell_length_c   9.44501500
_cell_angle_alpha   60.01551692
_cell_angle_beta   60.01551847
_cell_angle_gamma   60.71422408
_symmetry_Int_Tables_number   1
_chemical_formula_structural   Dy2Y6MgCo2Au
_chemical_formula_sum   'Dy4 Y12 Mg2 Co4 Au2'
_cell_volume   599.64316164
_cell_formula_units_Z   2
loop_
 _symmetry_equiv_pos_site_id
 _symmetry_equiv_pos_as_xyz
  1  'x, y, z'
loop_
 _atom_site_type_symbol
 _atom_site_label
 _atom_site_symmetry_multiplicity
 _atom_site_fract_x
 _atom_site_fract_y
 _atom_site_fract_z
 _atom_site_occupancy
  Dy  Dy0  1  0.345172  0.345172  0.344900  1
  Dy  Dy1  1  0.345172  0.345172  0.964754  1
  Dy  Dy2  1  0.349609  0.959362  0.345514  1
  Dy  Dy3  1  0.959362  0.349609  0.345514  1
  Y  Y4  1  0.809975  0.186867  0.188885  1
  Y  Y5  1  0.186867  0.809975  0.814271  1
  Y  Y6  1  0.186867  0.809975  0.188885  1
  Y  Y7  1  0.809975  0.186867  0.814271  1
  Y  Y8  1  0.186605  0.186605  0.813395  1
  Y  Y9  1  0.803003  0.803003  0.196997  1
  Y  Y10  1  0.931681  0.562050  0.563815  1
  Y  Y11  1  0.562050  0.931681  0.942455  1
  Y  Y12  1  0.562050  0.931681  0.563815  1
  Y  Y13  1  0.931681  0.562050  0.942455  1
  Y  Y14  1  0.560805  0.560805  0.939195  1
  Y  Y15  1  0.939381  0.939381  0.560619  1
  Mg  Mg16  1  0.583363  0.283426  0.566606  1
  Mg  Mg17  1  0.283426  0.583363  0.566606  1
  Co  Co18  1  0.140557  0.140557  0.142870  1
  Co  Co19  1  0.140557  0.140557  0.576016  1
  Co  Co20  1  0.140132  0.573752  0.143058  1
  Co  Co21  1  0.573752  0.140132  0.143058  1
  Au  Au22  1  0.583977  0.583977  0.590043  1
  Au  Au23  1  0.583977  0.583977  0.242003  1
