# generated using pymatgen
data_Ho2Er2CoCu3
_symmetry_space_group_name_H-M   'P 1'
_cell_length_a   4.34126600
_cell_length_b   5.40125709
_cell_length_c   7.06113501
_cell_angle_alpha   90.36011499
_cell_angle_beta   90.00000000
_cell_angle_gamma   90.00000000
_symmetry_Int_Tables_number   1
_chemical_formula_structural   Ho2Er2CoCu3
_chemical_formula_sum   'Ho2 Er2 Co1 Cu3'
_cell_volume   165.56829761
_cell_formula_units_Z   1
loop_
 _symmetry_equiv_pos_site_id
 _symmetry_equiv_pos_as_xyz
  1  'x, y, z'
loop_
 _atom_site_type_symbol
 _atom_site_label
 _atom_site_symmetry_multiplicity
 _atom_site_fract_x
 _atom_site_fract_y
 _atom_site_fract_z
 _atom_site_occupancy
  Ho  Ho0  1  0.000000  0.874533  0.812272  1
  Ho  Ho1  1  0.500000  0.135092  0.193998  1
  Er  Er2  1  0.000000  0.629231  0.325630  1
  Er  Er3  1  0.500000  0.359134  0.669395  1
  Co  Co4  1  0.000000  0.129904  0.468290  1
  Cu  Cu5  1  0.000000  0.379261  0.964142  1
  Cu  Cu6  1  0.500000  0.868772  0.536298  1
  Cu  Cu7  1  0.500000  0.624072  0.029977  1
