# generated using pymatgen
data_Yb2Sc2ReTcB12
_symmetry_space_group_name_H-M   'P 1'
_cell_length_a   3.54568000
_cell_length_b   9.05770694
_cell_length_c   11.39418678
_cell_angle_alpha   90.02490771
_cell_angle_beta   90.00000000
_cell_angle_gamma   90.00000000
_symmetry_Int_Tables_number   1
_chemical_formula_structural   Yb2Sc2ReTcB12
_chemical_formula_sum   'Yb4 Sc4 Re2 Tc2 B24'
_cell_volume   365.93259562
_cell_formula_units_Z   2
loop_
 _symmetry_equiv_pos_site_id
 _symmetry_equiv_pos_as_xyz
  1  'x, y, z'
loop_
 _atom_site_type_symbol
 _atom_site_label
 _atom_site_symmetry_multiplicity
 _atom_site_fract_x
 _atom_site_fract_y
 _atom_site_fract_z
 _atom_site_occupancy
  Yb  Yb0  1  0.000000  0.324087  0.415015  1
  Yb  Yb1  1  0.000000  0.675913  0.584985  1
  Yb  Yb2  1  0.000000  0.823268  0.085488  1
  Yb  Yb3  1  0.000000  0.176732  0.914512  1
  Sc  Sc4  1  0.000000  0.942588  0.367537  1
  Sc  Sc5  1  0.000000  0.057412  0.632463  1
  Sc  Sc6  1  0.000000  0.443839  0.132867  1
  Sc  Sc7  1  0.000000  0.556161  0.867133  1
  Re  Re8  1  0.000000  0.143030  0.181907  1
  Re  Re9  1  0.000000  0.856970  0.818093  1
  Tc  Tc10  1  0.000000  0.643242  0.317961  1
  Tc  Tc11  1  0.000000  0.356758  0.682039  1
  B  B12  1  0.500000  0.554315  0.432743  1
  B  B13  1  0.500000  0.445685  0.567257  1
  B  B14  1  0.500000  0.054354  0.067054  1
  B  B15  1  0.500000  0.945646  0.932946  1
  B  B16  1  0.500000  0.754813  0.417852  1
  B  B17  1  0.500000  0.245187  0.582148  1
  B  B18  1  0.500000  0.255136  0.081740  1
  B  B19  1  0.500000  0.744864  0.918260  1
  B  B20  1  0.500000  0.796183  0.263394  1
  B  B21  1  0.500000  0.203817  0.736606  1
  B  B22  1  0.500000  0.296778  0.237175  1
  B  B23  1  0.500000  0.703222  0.762825  1
  B  B24  1  0.500000  0.629890  0.182399  1
  B  B25  1  0.500000  0.370110  0.817601  1
  B  B26  1  0.500000  0.129772  0.318225  1
  B  B27  1  0.500000  0.870228  0.681775  1
  B  B28  1  0.500000  0.981299  0.213226  1
  B  B29  1  0.500000  0.018701  0.786774  1
  B  B30  1  0.500000  0.481927  0.286955  1
  B  B31  1  0.500000  0.518073  0.713045  1
  B  B32  1  0.500000  0.591908  0.024763  1
  B  B33  1  0.500000  0.408092  0.975237  1
  B  B34  1  0.500000  0.091851  0.475207  1
  B  B35  1  0.500000  0.908149  0.524793  1
