# generated using pymatgen
data_LaCe(AgSb2)2
_symmetry_space_group_name_H-M   'P 1'
_cell_length_a   4.43620800
_cell_length_b   4.43620200
_cell_length_c   10.61809600
_cell_angle_alpha   90.00000000
_cell_angle_beta   90.00000000
_cell_angle_gamma   90.00000000
_symmetry_Int_Tables_number   1
_chemical_formula_structural   LaCe(AgSb2)2
_chemical_formula_sum   'La1 Ce1 Ag2 Sb4'
_cell_volume   208.96322464
_cell_formula_units_Z   1
loop_
 _symmetry_equiv_pos_site_id
 _symmetry_equiv_pos_as_xyz
  1  'x, y, z'
loop_
 _atom_site_type_symbol
 _atom_site_label
 _atom_site_symmetry_multiplicity
 _atom_site_fract_x
 _atom_site_fract_y
 _atom_site_fract_z
 _atom_site_occupancy
  La  La0  1  0.500000  0.000000  0.736104  1
  Ce  Ce1  1  0.000000  0.500000  0.261200  1
  Ag  Ag2  1  0.000000  0.000000  0.002580  1
  Ag  Ag3  1  0.500000  0.500000  0.002575  1
  Sb  Sb4  1  0.000000  0.500000  0.827850  1
  Sb  Sb5  1  0.500000  0.000000  0.182552  1
  Sb  Sb6  1  0.000000  0.000000  0.493569  1
  Sb  Sb7  1  0.500000  0.500000  0.493570  1
