# generated using pymatgen
data_Gd5Ru2Rh
_symmetry_space_group_name_H-M   'P 1'
_cell_length_a   10.96258200
_cell_length_b   10.96258200
_cell_length_c   6.46630200
_cell_angle_alpha   90.00000000
_cell_angle_beta   90.00000000
_cell_angle_gamma   90.00000000
_symmetry_Int_Tables_number   1
_chemical_formula_structural   Gd5Ru2Rh
_chemical_formula_sum   'Gd20 Ru8 Rh4'
_cell_volume   777.10856157
_cell_formula_units_Z   4
loop_
 _symmetry_equiv_pos_site_id
 _symmetry_equiv_pos_as_xyz
  1  'x, y, z'
loop_
 _atom_site_type_symbol
 _atom_site_label
 _atom_site_symmetry_multiplicity
 _atom_site_fract_x
 _atom_site_fract_y
 _atom_site_fract_z
 _atom_site_occupancy
  Gd  Gd0  1  0.088679  0.293254  0.116192  1
  Gd  Gd1  1  0.793254  0.411321  0.116192  1
  Gd  Gd2  1  0.206746  0.588679  0.116192  1
  Gd  Gd3  1  0.911321  0.706746  0.116192  1
  Gd  Gd4  1  0.411321  0.793254  0.383808  1
  Gd  Gd5  1  0.588679  0.206746  0.383808  1
  Gd  Gd6  1  0.293254  0.088679  0.383808  1
  Gd  Gd7  1  0.706746  0.911321  0.383808  1
  Gd  Gd8  1  0.412233  0.205752  0.880767  1
  Gd  Gd9  1  0.705752  0.087767  0.880767  1
  Gd  Gd10  1  0.294248  0.912233  0.880767  1
  Gd  Gd11  1  0.587767  0.794248  0.880767  1
  Gd  Gd12  1  0.087767  0.705752  0.619233  1
  Gd  Gd13  1  0.912233  0.294248  0.619233  1
  Gd  Gd14  1  0.205752  0.412233  0.619233  1
  Gd  Gd15  1  0.794248  0.587767  0.619233  1
  Gd  Gd16  1  0.000000  0.000000  0.998262  1
  Gd  Gd17  1  0.500000  0.500000  0.998262  1
  Gd  Gd18  1  0.500000  0.500000  0.501738  1
  Gd  Gd19  1  0.000000  0.000000  0.501738  1
  Ru  Ru20  1  0.348822  0.651178  0.750000  1
  Ru  Ru21  1  0.151178  0.151178  0.750000  1
  Ru  Ru22  1  0.848822  0.848822  0.750000  1
  Ru  Ru23  1  0.651178  0.348822  0.750000  1
  Ru  Ru24  1  0.000000  0.500000  0.373116  1
  Ru  Ru25  1  0.500000  0.000000  0.126884  1
  Ru  Ru26  1  0.500000  0.000000  0.624471  1
  Ru  Ru27  1  0.000000  0.500000  0.875529  1
  Rh  Rh28  1  0.153025  0.846975  0.250000  1
  Rh  Rh29  1  0.346975  0.346975  0.250000  1
  Rh  Rh30  1  0.653025  0.653025  0.250000  1
  Rh  Rh31  1  0.846975  0.153025  0.250000  1
