# generated using pymatgen
data_YHo3(Co3Si5)2
_symmetry_space_group_name_H-M   'P 1'
_cell_length_a   7.85238515
_cell_length_b   7.85296130
_cell_length_c   5.51140749
_cell_angle_alpha   70.74765862
_cell_angle_beta   70.75992076
_cell_angle_gamma   93.40309343
_symmetry_Int_Tables_number   1
_chemical_formula_structural   YHo3(Co3Si5)2
_chemical_formula_sum   'Y1 Ho3 Co6 Si10'
_cell_volume   297.50051085
_cell_formula_units_Z   1
loop_
 _symmetry_equiv_pos_site_id
 _symmetry_equiv_pos_as_xyz
  1  'x, y, z'
loop_
 _atom_site_type_symbol
 _atom_site_label
 _atom_site_symmetry_multiplicity
 _atom_site_fract_x
 _atom_site_fract_y
 _atom_site_fract_z
 _atom_site_occupancy
  Y  Y0  1  0.598975  0.869928  0.262448  1
  Ho  Ho1  1  0.869843  0.598662  0.762787  1
  Ho  Ho2  1  0.401351  0.129756  0.737402  1
  Ho  Ho3  1  0.129969  0.401585  0.237064  1
  Co  Co4  1  0.538263  0.262587  0.125356  1
  Co  Co5  1  0.996423  0.004127  0.249801  1
  Co  Co6  1  0.261952  0.538009  0.625724  1
  Co  Co7  1  0.461339  0.737180  0.875309  1
  Co  Co8  1  0.737743  0.461879  0.374491  1
  Co  Co9  1  0.004265  0.996167  0.749747  1
  Si  Si10  1  0.770462  0.230126  0.749513  1
  Si  Si11  1  0.229175  0.770256  0.250257  1
  Si  Si12  1  0.510601  0.488732  0.750288  1
  Si  Si13  1  0.488672  0.510190  0.250672  1
  Si  Si14  1  0.215089  0.784699  0.749890  1
  Si  Si15  1  0.785058  0.215698  0.249909  1
  Si  Si16  1  0.063288  0.261580  0.834859  1
  Si  Si17  1  0.261476  0.063661  0.335026  1
  Si  Si18  1  0.937404  0.738228  0.164651  1
  Si  Si19  1  0.738653  0.936948  0.664806  1
