# generated using pymatgen
data_K2LuAgBi2
_symmetry_space_group_name_H-M   'P 1'
_cell_length_a   11.03023200
_cell_length_b   11.03023077
_cell_length_c   7.11963500
_cell_angle_alpha   90.00000000
_cell_angle_beta   90.00000000
_cell_angle_gamma   99.84893728
_symmetry_Int_Tables_number   1
_chemical_formula_structural   K2LuAgBi2
_chemical_formula_sum   'K8 Lu4 Ag4 Bi8'
_cell_volume   853.45136822
_cell_formula_units_Z   4
loop_
 _symmetry_equiv_pos_site_id
 _symmetry_equiv_pos_as_xyz
  1  'x, y, z'
loop_
 _atom_site_type_symbol
 _atom_site_label
 _atom_site_symmetry_multiplicity
 _atom_site_fract_x
 _atom_site_fract_y
 _atom_site_fract_z
 _atom_site_occupancy
  K  K0  1  0.573542  0.926458  0.750000  1
  K  K1  1  0.926458  0.573542  0.250000  1
  K  K2  1  0.426458  0.073542  0.250000  1
  K  K3  1  0.073542  0.426458  0.750000  1
  K  K4  1  0.673040  0.326960  0.782338  1
  K  K5  1  0.826960  0.173040  0.282338  1
  K  K6  1  0.326960  0.673040  0.217662  1
  K  K7  1  0.173040  0.826960  0.717662  1
  Lu  Lu8  1  0.868656  0.868656  0.000000  1
  Lu  Lu9  1  0.631344  0.631344  0.500000  1
  Lu  Lu10  1  0.131344  0.131344  0.000000  1
  Lu  Lu11  1  0.368656  0.368656  0.500000  1
  Ag  Ag12  1  0.624074  0.624074  0.000000  1
  Ag  Ag13  1  0.875926  0.875926  0.500000  1
  Ag  Ag14  1  0.375926  0.375926  0.000000  1
  Ag  Ag15  1  0.124074  0.124074  0.500000  1
  Bi  Bi16  1  0.355513  0.144487  0.750000  1
  Bi  Bi17  1  0.144487  0.355513  0.250000  1
  Bi  Bi18  1  0.644487  0.855513  0.250000  1
  Bi  Bi19  1  0.855513  0.644487  0.750000  1
  Bi  Bi20  1  0.896860  0.103140  0.760757  1
  Bi  Bi21  1  0.603140  0.396860  0.260757  1
  Bi  Bi22  1  0.103140  0.896860  0.239243  1
  Bi  Bi23  1  0.396860  0.603140  0.739243  1
