# generated using pymatgen
data_Ta12Ga9Rh3C4
_symmetry_space_group_name_H-M   'P 1'
_cell_length_a   8.31600617
_cell_length_b   8.31600733
_cell_length_c   8.31600768
_cell_angle_alpha   60.18745372
_cell_angle_beta   60.18744904
_cell_angle_gamma   60.18745260
_symmetry_Int_Tables_number   1
_chemical_formula_structural   Ta12Ga9Rh3C4
_chemical_formula_sum   'Ta12 Ga9 Rh3 C4'
_cell_volume   408.38445925
_cell_formula_units_Z   1
loop_
 _symmetry_equiv_pos_site_id
 _symmetry_equiv_pos_as_xyz
  1  'x, y, z'
loop_
 _atom_site_type_symbol
 _atom_site_label
 _atom_site_symmetry_multiplicity
 _atom_site_fract_x
 _atom_site_fract_y
 _atom_site_fract_z
 _atom_site_occupancy
  Ta  Ta0  1  0.183874  0.815697  0.183874  1
  Ta  Ta1  1  0.813982  0.188539  0.813982  1
  Ta  Ta2  1  0.066126  0.434303  0.066126  1
  Ta  Ta3  1  0.061461  0.436018  0.436018  1
  Ta  Ta4  1  0.434303  0.066126  0.066126  1
  Ta  Ta5  1  0.436018  0.061461  0.436018  1
  Ta  Ta6  1  0.813982  0.813982  0.188539  1
  Ta  Ta7  1  0.066126  0.066126  0.434303  1
  Ta  Ta8  1  0.183874  0.183874  0.815697  1
  Ta  Ta9  1  0.188539  0.813982  0.813982  1
  Ta  Ta10  1  0.436018  0.436018  0.061461  1
  Ta  Ta11  1  0.815697  0.183874  0.183874  1
  Ga  Ga12  1  0.625000  0.625000  0.625000  1
  Ga  Ga13  1  0.841145  0.841145  0.490737  1
  Ga  Ga14  1  0.490737  0.841145  0.841145  1
  Ga  Ga15  1  0.408855  0.759263  0.408855  1
  Ga  Ga16  1  0.759263  0.408855  0.408855  1
  Ga  Ga17  1  0.413592  0.413592  0.413592  1
  Ga  Ga18  1  0.408855  0.408855  0.759263  1
  Ga  Ga19  1  0.841145  0.490737  0.841145  1
  Ga  Ga20  1  0.836408  0.836408  0.836408  1
  Rh  Rh21  1  0.125000  0.625000  0.625000  1
  Rh  Rh22  1  0.625000  0.625000  0.125000  1
  Rh  Rh23  1  0.625000  0.125000  0.625000  1
  C  C24  1  0.125000  0.125000  0.125000  1
  C  C25  1  0.125000  0.125000  0.625000  1
  C  C26  1  0.625000  0.125000  0.125000  1
  C  C27  1  0.125000  0.625000  0.125000  1
