# generated using pymatgen
data_K3Mn3(AsO4)4
_symmetry_space_group_name_H-M   'P 1'
_cell_length_a   5.19813642
_cell_length_b   7.18803534
_cell_length_c   11.36125861
_cell_angle_alpha   101.59601537
_cell_angle_beta   89.93908366
_cell_angle_gamma   100.16534470
_symmetry_Int_Tables_number   1
_chemical_formula_structural   K3Mn3(AsO4)4
_chemical_formula_sum   'K3 Mn3 As4 O16'
_cell_volume   409.05353790
_cell_formula_units_Z   1
loop_
 _symmetry_equiv_pos_site_id
 _symmetry_equiv_pos_as_xyz
  1  'x, y, z'
loop_
 _atom_site_type_symbol
 _atom_site_label
 _atom_site_symmetry_multiplicity
 _atom_site_fract_x
 _atom_site_fract_y
 _atom_site_fract_z
 _atom_site_occupancy
  K  K0  1  0.931860  0.256079  0.522284  1
  K  K1  1  0.000000  0.000000  0.000000  1
  K  K2  1  0.068140  0.743921  0.477716  1
  Mn  Mn3  1  0.012338  0.557110  0.137172  1
  Mn  Mn4  1  0.987662  0.442890  0.862828  1
  Mn  Mn5  1  0.500000  0.500000  0.000000  1
  As  As6  1  0.499928  0.681705  0.750639  1
  As  As7  1  0.555896  0.873310  0.242172  1
  As  As8  1  0.500072  0.318295  0.249361  1
  As  As9  1  0.444104  0.126690  0.757828  1
  O  O10  1  0.677600  0.626534  0.865590  1
  O  O11  1  0.764605  0.236850  0.748182  1
  O  O12  1  0.322400  0.373466  0.134410  1
  O  O13  1  0.352295  0.319843  0.378713  1
  O  O14  1  0.290794  0.258134  0.873409  1
  O  O15  1  0.647705  0.680157  0.621287  1
  O  O16  1  0.812455  0.454653  0.265686  1
  O  O17  1  0.285367  0.063790  0.625184  1
  O  O18  1  0.709206  0.741866  0.126591  1
  O  O19  1  0.460827  0.922474  0.827225  1
  O  O20  1  0.202769  0.620474  0.994944  1
  O  O21  1  0.714633  0.936210  0.374816  1
  O  O22  1  0.235395  0.763150  0.251818  1
  O  O23  1  0.539173  0.077526  0.172775  1
  O  O24  1  0.797231  0.379526  0.005056  1
  O  O25  1  0.187545  0.545347  0.734314  1
