# generated using pymatgen
data_RbPa(PPt)2
_symmetry_space_group_name_H-M   'P 1'
_cell_length_a   4.20241500
_cell_length_b   4.20241562
_cell_length_c   8.96117400
_cell_angle_alpha   90.00000000
_cell_angle_beta   90.00000000
_cell_angle_gamma   120.00001871
_symmetry_Int_Tables_number   1
_chemical_formula_structural   RbPa(PPt)2
_chemical_formula_sum   'Rb1 Pa1 P2 Pt2'
_cell_volume   137.05453175
_cell_formula_units_Z   1
loop_
 _symmetry_equiv_pos_site_id
 _symmetry_equiv_pos_as_xyz
  1  'x, y, z'
loop_
 _atom_site_type_symbol
 _atom_site_label
 _atom_site_symmetry_multiplicity
 _atom_site_fract_x
 _atom_site_fract_y
 _atom_site_fract_z
 _atom_site_occupancy
  Rb  Rb0  1  0.000000  0.000000  0.500000  1
  Pa  Pa1  1  0.000000  0.000000  0.000000  1
  P  P2  1  0.333333  0.666667  0.801927  1
  P  P3  1  0.666667  0.333333  0.198073  1
  Pt  Pt4  1  0.333333  0.666667  0.199428  1
  Pt  Pt5  1  0.666667  0.333333  0.800572  1
