# generated using pymatgen
data_Er8Si13Pt3
_symmetry_space_group_name_H-M   'P 1'
_cell_length_a   8.11396900
_cell_length_b   8.11396901
_cell_length_c   7.95996000
_cell_angle_alpha   90.00000000
_cell_angle_beta   90.00000000
_cell_angle_gamma   120.00000404
_symmetry_Int_Tables_number   1
_chemical_formula_structural   Er8Si13Pt3
_chemical_formula_sum   'Er8 Si13 Pt3'
_cell_volume   453.84566130
_cell_formula_units_Z   1
loop_
 _symmetry_equiv_pos_site_id
 _symmetry_equiv_pos_as_xyz
  1  'x, y, z'
loop_
 _atom_site_type_symbol
 _atom_site_label
 _atom_site_symmetry_multiplicity
 _atom_site_fract_x
 _atom_site_fract_y
 _atom_site_fract_z
 _atom_site_occupancy
  Er  Er0  1  0.000000  0.000000  0.253570  1
  Er  Er1  1  0.000000  0.000000  0.746148  1
  Er  Er2  1  0.496660  0.503340  0.253917  1
  Er  Er3  1  0.496660  0.993321  0.253917  1
  Er  Er4  1  0.006679  0.503340  0.253917  1
  Er  Er5  1  0.499737  0.500263  0.746331  1
  Er  Er6  1  0.000524  0.500263  0.746331  1
  Er  Er7  1  0.499737  0.999476  0.746331  1
  Si  Si8  1  0.834094  0.165906  0.500045  1
  Si  Si9  1  0.834094  0.668190  0.500045  1
  Si  Si10  1  0.331810  0.165906  0.500045  1
  Si  Si11  1  0.833943  0.166057  0.002633  1
  Si  Si12  1  0.833943  0.667888  0.002633  1
  Si  Si13  1  0.332112  0.166057  0.002633  1
  Si  Si14  1  0.165291  0.834709  0.996592  1
  Si  Si15  1  0.669418  0.834709  0.996592  1
  Si  Si16  1  0.165291  0.330582  0.996592  1
  Si  Si17  1  0.166226  0.833774  0.500478  1
  Si  Si18  1  0.667549  0.833774  0.500478  1
  Si  Si19  1  0.166226  0.332451  0.500478  1
  Si  Si20  1  0.333333  0.666667  0.504570  1
  Pt  Pt21  1  0.666667  0.333333  0.492104  1
  Pt  Pt22  1  0.666667  0.333333  0.002134  1
  Pt  Pt23  1  0.333333  0.666667  0.001487  1
