# generated using pymatgen
data_Tm4Lu8Os3Pd
_symmetry_space_group_name_H-M   'P 1'
_cell_length_a   7.24325096
_cell_length_b   8.87002300
_cell_length_c   6.27514300
_cell_angle_alpha   90.00000000
_cell_angle_beta   90.10412241
_cell_angle_gamma   90.00000000
_symmetry_Int_Tables_number   1
_chemical_formula_structural   Tm4Lu8Os3Pd
_chemical_formula_sum   'Tm4 Lu8 Os3 Pd1'
_cell_volume   403.16348311
_cell_formula_units_Z   1
loop_
 _symmetry_equiv_pos_site_id
 _symmetry_equiv_pos_as_xyz
  1  'x, y, z'
loop_
 _atom_site_type_symbol
 _atom_site_label
 _atom_site_symmetry_multiplicity
 _atom_site_fract_x
 _atom_site_fract_y
 _atom_site_fract_z
 _atom_site_occupancy
  Tm  Tm0  1  0.531992  0.250000  0.876777  1
  Tm  Tm1  1  0.036675  0.250000  0.618395  1
  Tm  Tm2  1  0.465087  0.750000  0.118535  1
  Tm  Tm3  1  0.963706  0.750000  0.374166  1
  Lu  Lu4  1  0.669834  0.057418  0.336846  1
  Lu  Lu5  1  0.183704  0.442900  0.171637  1
  Lu  Lu6  1  0.322992  0.561444  0.670834  1
  Lu  Lu7  1  0.822724  0.933500  0.823740  1
  Lu  Lu8  1  0.322992  0.938556  0.670834  1
  Lu  Lu9  1  0.822724  0.566500  0.823740  1
  Lu  Lu10  1  0.669834  0.442582  0.336846  1
  Lu  Lu11  1  0.183704  0.057100  0.171637  1
  Os  Os12  1  0.383954  0.250000  0.462539  1
  Os  Os13  1  0.114854  0.750000  0.963282  1
  Os  Os14  1  0.614617  0.750000  0.533633  1
  Pd  Pd15  1  0.890607  0.250000  0.046560  1
