# generated using pymatgen
data_Nd7Gd(Sc3Pb4)4
_symmetry_space_group_name_H-M   'P 1'
_cell_length_a   8.00176252
_cell_length_b   15.25164737
_cell_length_c   8.12434500
_cell_angle_alpha   89.96466077
_cell_angle_beta   90.26644641
_cell_angle_gamma   90.12885238
_symmetry_Int_Tables_number   1
_chemical_formula_structural   Nd7Gd(Sc3Pb4)4
_chemical_formula_sum   'Nd7 Gd1 Sc12 Pb16'
_cell_volume   991.48214359
_cell_formula_units_Z   1
loop_
 _symmetry_equiv_pos_site_id
 _symmetry_equiv_pos_as_xyz
  1  'x, y, z'
loop_
 _atom_site_type_symbol
 _atom_site_label
 _atom_site_symmetry_multiplicity
 _atom_site_fract_x
 _atom_site_fract_y
 _atom_site_fract_z
 _atom_site_occupancy
  Nd  Nd0  1  0.480578  0.595080  0.676109  1
  Nd  Nd1  1  0.981934  0.905886  0.824975  1
  Nd  Nd2  1  0.519676  0.094809  0.324456  1
  Nd  Nd3  1  0.020073  0.405353  0.174928  1
  Nd  Nd4  1  0.519724  0.405072  0.323646  1
  Nd  Nd5  1  0.019030  0.094873  0.175459  1
  Nd  Nd6  1  0.480519  0.905166  0.676129  1
  Gd  Gd7  1  0.978074  0.595928  0.824328  1
  Sc  Sc8  1  0.643155  0.625291  0.155254  1
  Sc  Sc9  1  0.144472  0.874275  0.344089  1
  Sc  Sc10  1  0.355342  0.125646  0.843368  1
  Sc  Sc11  1  0.856295  0.373964  0.657190  1
  Sc  Sc12  1  0.356410  0.374199  0.843514  1
  Sc  Sc13  1  0.855870  0.125972  0.656745  1
  Sc  Sc14  1  0.645106  0.874405  0.156868  1
  Sc  Sc15  1  0.144030  0.626028  0.343153  1
  Sc  Sc16  1  0.812214  0.750112  0.492635  1
  Sc  Sc17  1  0.310751  0.749621  0.005722  1
  Sc  Sc18  1  0.188316  0.249948  0.506855  1
  Sc  Sc19  1  0.688491  0.250030  0.993319  1
  Pb  Pb20  1  0.694119  0.455068  0.952355  1
  Pb  Pb21  1  0.192394  0.044772  0.546395  1
  Pb  Pb22  1  0.308648  0.955040  0.048382  1
  Pb  Pb23  1  0.808735  0.544702  0.453801  1
  Pb  Pb24  1  0.304425  0.545004  0.045961  1
  Pb  Pb25  1  0.807460  0.955344  0.454103  1
  Pb  Pb26  1  0.691964  0.044942  0.952688  1
  Pb  Pb27  1  0.191844  0.454852  0.546652  1
  Pb  Pb28  1  0.451664  0.749754  0.363870  1
  Pb  Pb29  1  0.951066  0.750513  0.134579  1
  Pb  Pb30  1  0.548268  0.249836  0.635750  1
  Pb  Pb31  1  0.049396  0.249701  0.864868  1
  Pb  Pb32  1  0.671093  0.749936  0.851569  1
  Pb  Pb33  1  0.168790  0.749497  0.650711  1
  Pb  Pb34  1  0.330149  0.249657  0.148979  1
  Pb  Pb35  1  0.829924  0.249724  0.350593  1
