# generated using pymatgen
data_Er2TiWO8
_symmetry_space_group_name_H-M   'P 1'
_cell_length_a   5.45777600
_cell_length_b   5.07024521
_cell_length_c   5.29062800
_cell_angle_alpha   82.53793894
_cell_angle_beta   90.00000000
_cell_angle_gamma   90.00000000
_symmetry_Int_Tables_number   1
_chemical_formula_structural   Er2TiWO8
_chemical_formula_sum   'Er2 Ti1 W1 O8'
_cell_volume   145.16376575
_cell_formula_units_Z   1
loop_
 _symmetry_equiv_pos_site_id
 _symmetry_equiv_pos_as_xyz
  1  'x, y, z'
loop_
 _atom_site_type_symbol
 _atom_site_label
 _atom_site_symmetry_multiplicity
 _atom_site_fract_x
 _atom_site_fract_y
 _atom_site_fract_z
 _atom_site_occupancy
  Er  Er0  1  0.272963  0.500000  0.750000  1
  Er  Er1  1  0.736887  0.500000  0.250000  1
  Ti  Ti2  1  0.796082  0.000000  0.750000  1
  W  W3  1  0.175429  0.000000  0.250000  1
  O  O4  1  0.072920  0.239712  0.490213  1
  O  O5  1  0.934720  0.222425  0.005553  1
  O  O6  1  0.591279  0.257011  0.606301  1
  O  O7  1  0.410401  0.243203  0.107154  1
  O  O8  1  0.591279  0.742989  0.893699  1
  O  O9  1  0.410401  0.756797  0.392846  1
  O  O10  1  0.072920  0.760288  0.009787  1
  O  O11  1  0.934720  0.777575  0.494447  1
