# generated using pymatgen
data_Tb3Yb2Pb3Cl
_symmetry_space_group_name_H-M   'P 1'
_cell_length_a   9.16698502
_cell_length_b   9.16698612
_cell_length_c   6.93962500
_cell_angle_alpha   90.00000000
_cell_angle_beta   90.00000000
_cell_angle_gamma   119.89268192
_symmetry_Int_Tables_number   1
_chemical_formula_structural   Tb3Yb2Pb3Cl
_chemical_formula_sum   'Tb6 Yb4 Pb6 Cl2'
_cell_volume   505.57822924
_cell_formula_units_Z   2
loop_
 _symmetry_equiv_pos_site_id
 _symmetry_equiv_pos_as_xyz
  1  'x, y, z'
loop_
 _atom_site_type_symbol
 _atom_site_label
 _atom_site_symmetry_multiplicity
 _atom_site_fract_x
 _atom_site_fract_y
 _atom_site_fract_z
 _atom_site_occupancy
  Tb  Tb0  1  0.744609  0.744609  0.250000  1
  Tb  Tb1  1  0.255391  0.255391  0.750000  1
  Tb  Tb2  1  0.332450  0.667550  0.000000  1
  Tb  Tb3  1  0.667550  0.332450  0.000000  1
  Tb  Tb4  1  0.667550  0.332450  0.500000  1
  Tb  Tb5  1  0.332450  0.667550  0.500000  1
  Yb  Yb6  1  0.253527  0.001044  0.250000  1
  Yb  Yb7  1  0.746473  0.998956  0.750000  1
  Yb  Yb8  1  0.001044  0.253527  0.250000  1
  Yb  Yb9  1  0.998956  0.746473  0.750000  1
  Pb  Pb10  1  0.606122  0.998437  0.250000  1
  Pb  Pb11  1  0.393878  0.001563  0.750000  1
  Pb  Pb12  1  0.998437  0.606122  0.250000  1
  Pb  Pb13  1  0.001563  0.393878  0.750000  1
  Pb  Pb14  1  0.396424  0.396424  0.250000  1
  Pb  Pb15  1  0.603576  0.603576  0.750000  1
  Cl  Cl16  1  0.000000  0.000000  0.000000  1
  Cl  Cl17  1  0.000000  0.000000  0.500000  1
