# generated using pymatgen
data_Ta7V2Si2B4W
_symmetry_space_group_name_H-M   'P 1'
_cell_length_a   7.17484425
_cell_length_b   7.17484398
_cell_length_c   7.19466644
_cell_angle_alpha   129.65295683
_cell_angle_beta   129.65294628
_cell_angle_gamma   73.99160713
_symmetry_Int_Tables_number   1
_chemical_formula_structural   Ta7V2Si2B4W
_chemical_formula_sum   'Ta7 V2 Si2 B4 W1'
_cell_volume   214.08371544
_cell_formula_units_Z   1
loop_
 _symmetry_equiv_pos_site_id
 _symmetry_equiv_pos_as_xyz
  1  'x, y, z'
loop_
 _atom_site_type_symbol
 _atom_site_label
 _atom_site_symmetry_multiplicity
 _atom_site_fract_x
 _atom_site_fract_y
 _atom_site_fract_z
 _atom_site_occupancy
  Ta  Ta0  1  0.531673  0.693897  0.498299  1
  Ta  Ta1  1  0.029867  0.529867  0.835132  1
  Ta  Ta2  1  0.692312  0.192312  0.160985  1
  Ta  Ta3  1  0.972193  0.472193  0.168565  1
  Ta  Ta4  1  0.193897  0.031673  0.498299  1
  Ta  Ta5  1  0.468639  0.305724  0.499899  1
  Ta  Ta6  1  0.805724  0.968639  0.499899  1
  V  V7  1  0.001749  0.000268  0.999515  1
  V  V8  1  0.500268  0.501749  0.999515  1
  Si  Si9  1  0.249281  0.246188  0.998669  1
  Si  Si10  1  0.746188  0.749281  0.998669  1
  B  B11  1  0.624581  0.124581  0.748398  1
  B  B12  1  0.122556  0.380551  0.502547  1
  B  B13  1  0.880551  0.622556  0.502547  1
  B  B14  1  0.375791  0.875791  0.250227  1
  W  W15  1  0.304728  0.804728  0.838832  1
