# generated using pymatgen
data_Nd16CdHg3Ru3Pt
_symmetry_space_group_name_H-M   'P 1'
_cell_length_a   9.89908152
_cell_length_b   9.92675068
_cell_length_c   9.92675100
_cell_angle_alpha   59.99999562
_cell_angle_beta   59.90749047
_cell_angle_gamma   59.90749127
_symmetry_Int_Tables_number   1
_chemical_formula_structural   Nd16CdHg3Ru3Pt
_chemical_formula_sum   'Nd16 Cd1 Hg3 Ru3 Pt1'
_cell_volume   688.78780748
_cell_formula_units_Z   1
loop_
 _symmetry_equiv_pos_site_id
 _symmetry_equiv_pos_as_xyz
  1  'x, y, z'
loop_
 _atom_site_type_symbol
 _atom_site_label
 _atom_site_symmetry_multiplicity
 _atom_site_fract_x
 _atom_site_fract_y
 _atom_site_fract_z
 _atom_site_occupancy
  Nd  Nd0  1  0.344884  0.351114  0.351114  1
  Nd  Nd1  1  0.344884  0.351114  0.952887  1
  Nd  Nd2  1  0.344884  0.952887  0.351114  1
  Nd  Nd3  1  0.955702  0.348100  0.348100  1
  Nd  Nd4  1  0.814484  0.191196  0.191196  1
  Nd  Nd5  1  0.190065  0.810516  0.810516  1
  Nd  Nd6  1  0.190065  0.810516  0.188903  1
  Nd  Nd7  1  0.814484  0.191196  0.803124  1
  Nd  Nd8  1  0.190065  0.188903  0.810516  1
  Nd  Nd9  1  0.814484  0.803124  0.191196  1
  Nd  Nd10  1  0.936353  0.562339  0.562339  1
  Nd  Nd11  1  0.558433  0.938657  0.938657  1
  Nd  Nd12  1  0.558433  0.938657  0.564253  1
  Nd  Nd13  1  0.936353  0.562339  0.938968  1
  Nd  Nd14  1  0.558433  0.564253  0.938657  1
  Nd  Nd15  1  0.936353  0.938968  0.562339  1
  Cd  Cd16  1  0.261692  0.579436  0.579436  1
  Hg  Hg17  1  0.582293  0.583749  0.583749  1
  Hg  Hg18  1  0.582293  0.583749  0.250211  1
  Hg  Hg19  1  0.582293  0.250211  0.583749  1
  Ru  Ru20  1  0.142538  0.138068  0.138068  1
  Ru  Ru21  1  0.142538  0.138068  0.581327  1
  Ru  Ru22  1  0.142538  0.581327  0.138068  1
  Pt  Pt23  1  0.575452  0.141516  0.141516  1
