# generated using pymatgen
data_Li4Tb4Ir3Pt
_symmetry_space_group_name_H-M   'P 1'
_cell_length_a   3.99647900
_cell_length_b   6.96264736
_cell_length_c   8.33694763
_cell_angle_alpha   89.85138206
_cell_angle_beta   90.00000000
_cell_angle_gamma   90.00000000
_symmetry_Int_Tables_number   1
_chemical_formula_structural   Li4Tb4Ir3Pt
_chemical_formula_sum   'Li4 Tb4 Ir3 Pt1'
_cell_volume   231.98374095
_cell_formula_units_Z   1
loop_
 _symmetry_equiv_pos_site_id
 _symmetry_equiv_pos_as_xyz
  1  'x, y, z'
loop_
 _atom_site_type_symbol
 _atom_site_label
 _atom_site_symmetry_multiplicity
 _atom_site_fract_x
 _atom_site_fract_y
 _atom_site_fract_z
 _atom_site_occupancy
  Li  Li0  1  0.250000  0.127735  0.058291  1
  Li  Li1  1  0.250000  0.628482  0.444708  1
  Li  Li2  1  0.750000  0.870481  0.943509  1
  Li  Li3  1  0.750000  0.370575  0.555050  1
  Tb  Tb4  1  0.250000  0.038187  0.673982  1
  Tb  Tb5  1  0.250000  0.552290  0.820341  1
  Tb  Tb6  1  0.750000  0.957571  0.318433  1
  Tb  Tb7  1  0.750000  0.460025  0.185275  1
  Ir  Ir8  1  0.250000  0.244028  0.371253  1
  Ir  Ir9  1  0.250000  0.743161  0.126580  1
  Ir  Ir10  1  0.750000  0.754140  0.627912  1
  Pt  Pt11  1  0.750000  0.253325  0.874667  1
