# generated using pymatgen
data_Tm3MoO6
_symmetry_space_group_name_H-M   'P 1'
_cell_length_a   6.54890728
_cell_length_b   6.54890833
_cell_length_c   6.54890761
_cell_angle_alpha   92.03597268
_cell_angle_beta   92.03596844
_cell_angle_gamma   92.03597081
_symmetry_Int_Tables_number   1
_chemical_formula_structural   Tm3MoO6
_chemical_formula_sum   'Tm6 Mo2 O12'
_cell_volume   280.32593688
_cell_formula_units_Z   2
loop_
 _symmetry_equiv_pos_site_id
 _symmetry_equiv_pos_as_xyz
  1  'x, y, z'
loop_
 _atom_site_type_symbol
 _atom_site_label
 _atom_site_symmetry_multiplicity
 _atom_site_fract_x
 _atom_site_fract_y
 _atom_site_fract_z
 _atom_site_occupancy
  Tm  Tm0  1  0.747230  0.931107  0.439954  1
  Tm  Tm1  1  0.931107  0.439954  0.747230  1
  Tm  Tm2  1  0.439954  0.747230  0.931107  1
  Tm  Tm3  1  0.252770  0.068893  0.560046  1
  Tm  Tm4  1  0.068893  0.560046  0.252770  1
  Tm  Tm5  1  0.560046  0.252770  0.068893  1
  Mo  Mo6  1  0.500000  0.500000  0.500000  1
  Mo  Mo7  1  0.000000  0.000000  0.000000  1
  O  O8  1  0.598576  0.467929  0.813919  1
  O  O9  1  0.467929  0.813919  0.598576  1
  O  O10  1  0.813919  0.598576  0.467929  1
  O  O11  1  0.401424  0.532071  0.186081  1
  O  O12  1  0.532071  0.186081  0.401424  1
  O  O13  1  0.186081  0.401424  0.532071  1
  O  O14  1  0.070983  0.907314  0.312819  1
  O  O15  1  0.907314  0.312819  0.070983  1
  O  O16  1  0.687181  0.929017  0.092686  1
  O  O17  1  0.092686  0.687181  0.929017  1
  O  O18  1  0.929017  0.092686  0.687181  1
  O  O19  1  0.312819  0.070983  0.907314  1
