# generated using pymatgen
data_CeHo4CdRu4
_symmetry_space_group_name_H-M   'P 1'
_cell_length_a   3.42230900
_cell_length_b   3.42230900
_cell_length_c   17.97505900
_cell_angle_alpha   90.00000000
_cell_angle_beta   90.00000000
_cell_angle_gamma   90.00000000
_symmetry_Int_Tables_number   1
_chemical_formula_structural   CeHo4CdRu4
_chemical_formula_sum   'Ce1 Ho4 Cd1 Ru4'
_cell_volume   210.52746609
_cell_formula_units_Z   1
loop_
 _symmetry_equiv_pos_site_id
 _symmetry_equiv_pos_as_xyz
  1  'x, y, z'
loop_
 _atom_site_type_symbol
 _atom_site_label
 _atom_site_symmetry_multiplicity
 _atom_site_fract_x
 _atom_site_fract_y
 _atom_site_fract_z
 _atom_site_occupancy
  Ce  Ce0  1  0.000000  0.000000  0.000000  1
  Ho  Ho1  1  0.000000  0.000000  0.191870  1
  Ho  Ho2  1  0.000000  0.000000  0.374626  1
  Ho  Ho3  1  0.000000  0.000000  0.625374  1
  Ho  Ho4  1  0.000000  0.000000  0.808130  1
  Cd  Cd5  1  0.500000  0.500000  0.500000  1
  Ru  Ru6  1  0.500000  0.500000  0.087807  1
  Ru  Ru7  1  0.500000  0.500000  0.286470  1
  Ru  Ru8  1  0.500000  0.500000  0.713530  1
  Ru  Ru9  1  0.500000  0.500000  0.912193  1
