# generated using pymatgen
data_Ac8Ni6Au
_symmetry_space_group_name_H-M   'P 1'
_cell_length_a   7.74072781
_cell_length_b   7.74072765
_cell_length_c   7.74072726
_cell_angle_alpha   73.79149616
_cell_angle_beta   73.79148921
_cell_angle_gamma   73.79149892
_symmetry_Int_Tables_number   1
_chemical_formula_structural   Ac8Ni6Au
_chemical_formula_sum   'Ac8 Ni6 Au1'
_cell_volume   417.36985653
_cell_formula_units_Z   1
loop_
 _symmetry_equiv_pos_site_id
 _symmetry_equiv_pos_as_xyz
  1  'x, y, z'
loop_
 _atom_site_type_symbol
 _atom_site_label
 _atom_site_symmetry_multiplicity
 _atom_site_fract_x
 _atom_site_fract_y
 _atom_site_fract_z
 _atom_site_occupancy
  Ac  Ac0  1  0.303375  0.303375  0.303375  1
  Ac  Ac1  1  0.696625  0.696625  0.696625  1
  Ac  Ac2  1  0.814311  0.336108  0.137338  1
  Ac  Ac3  1  0.336108  0.137338  0.814311  1
  Ac  Ac4  1  0.137338  0.814311  0.336108  1
  Ac  Ac5  1  0.185689  0.663892  0.862662  1
  Ac  Ac6  1  0.663892  0.862662  0.185689  1
  Ac  Ac7  1  0.862662  0.185689  0.663892  1
  Ni  Ni8  1  0.465226  0.641617  0.076063  1
  Ni  Ni9  1  0.641617  0.076063  0.465226  1
  Ni  Ni10  1  0.076063  0.465226  0.641617  1
  Ni  Ni11  1  0.534774  0.358383  0.923937  1
  Ni  Ni12  1  0.358383  0.923937  0.534774  1
  Ni  Ni13  1  0.923937  0.534774  0.358383  1
  Au  Au14  1  0.500000  0.500000  0.500000  1
