# generated using pymatgen
data_Dy4Y2Tm6Co5Bi
_symmetry_space_group_name_H-M   'P 1'
_cell_length_a   8.27195804
_cell_length_b   8.27195760
_cell_length_c   8.23595339
_cell_angle_alpha   110.99424174
_cell_angle_beta   110.66837499
_cell_angle_gamma   106.96952461
_symmetry_Int_Tables_number   1
_chemical_formula_structural   Dy4Y2Tm6Co5Bi
_chemical_formula_sum   'Dy4 Y2 Tm6 Co5 Bi1'
_cell_volume   432.15690829
_cell_formula_units_Z   1
loop_
 _symmetry_equiv_pos_site_id
 _symmetry_equiv_pos_as_xyz
  1  'x, y, z'
loop_
 _atom_site_type_symbol
 _atom_site_label
 _atom_site_symmetry_multiplicity
 _atom_site_fract_x
 _atom_site_fract_y
 _atom_site_fract_z
 _atom_site_occupancy
  Dy  Dy0  1  0.598141  0.794287  0.806645  1
  Dy  Dy1  1  0.401859  0.205713  0.193355  1
  Dy  Dy2  1  0.987642  0.791496  0.193355  1
  Dy  Dy3  1  0.012358  0.208504  0.806645  1
  Y  Y4  1  0.815161  0.710629  0.525788  1
  Y  Y5  1  0.184839  0.289371  0.474212  1
  Tm  Tm6  1  0.183486  0.709675  0.893160  1
  Tm  Tm7  1  0.816514  0.290325  0.106840  1
  Tm  Tm8  1  0.688722  0.377379  0.690786  1
  Tm  Tm9  1  0.311278  0.622621  0.309214  1
  Tm  Tm10  1  0.686593  0.997936  0.309214  1
  Tm  Tm11  1  0.313407  0.002064  0.690786  1
  Co  Co12  1  0.623452  0.000145  0.623597  1
  Co  Co13  1  0.376548  0.999855  0.376403  1
  Co  Co14  1  0.111945  0.611945  0.500000  1
  Co  Co15  1  0.888055  0.388055  0.500000  1
  Co  Co16  1  0.000000  0.000000  0.000000  1
  Bi  Bi17  1  0.500000  0.500000  0.000000  1
