# generated using pymatgen
data_DyTm3Pu6(SiB4)4
_symmetry_space_group_name_H-M   'P 1'
_cell_length_a   7.18265015
_cell_length_b   7.18375874
_cell_length_c   8.02610701
_cell_angle_alpha   90.00558212
_cell_angle_beta   89.99661506
_cell_angle_gamma   89.91007982
_symmetry_Int_Tables_number   1
_chemical_formula_structural   DyTm3Pu6(SiB4)4
_chemical_formula_sum   'Dy1 Tm3 Pu6 Si4 B16'
_cell_volume   414.13397436
_cell_formula_units_Z   1
loop_
 _symmetry_equiv_pos_site_id
 _symmetry_equiv_pos_as_xyz
  1  'x, y, z'
loop_
 _atom_site_type_symbol
 _atom_site_label
 _atom_site_symmetry_multiplicity
 _atom_site_fract_x
 _atom_site_fract_y
 _atom_site_fract_z
 _atom_site_occupancy
  Dy  Dy0  1  0.181645  0.318364  0.223311  1
  Tm  Tm1  1  0.181666  0.318343  0.779000  1
  Tm  Tm2  1  0.999314  0.997927  0.500325  1
  Tm  Tm3  1  0.502042  0.500745  0.500330  1
  Pu  Pu4  1  0.682925  0.182666  0.230181  1
  Pu  Pu5  1  0.317161  0.817010  0.769941  1
  Pu  Pu6  1  0.317287  0.817067  0.230147  1
  Pu  Pu7  1  0.816669  0.683306  0.230100  1
  Pu  Pu8  1  0.816549  0.683455  0.769732  1
  Pu  Pu9  1  0.682997  0.182831  0.769946  1
  Si  Si10  1  0.117656  0.613825  0.501156  1
  Si  Si11  1  0.886191  0.382361  0.501191  1
  Si  Si12  1  0.381380  0.118600  0.501499  1
  Si  Si13  1  0.612840  0.887139  0.499982  1
  B  B14  1  0.173579  0.038287  0.999704  1
  B  B15  1  0.826085  0.959783  0.999650  1
  B  B16  1  0.958673  0.172309  0.999516  1
  B  B17  1  0.327685  0.541360  0.999539  1
  B  B18  1  0.039924  0.825506  0.999557  1
  B  B19  1  0.674496  0.460099  0.999528  1
  B  B20  1  0.540200  0.673935  0.999668  1
  B  B21  1  0.461697  0.326442  0.999691  1
  B  B22  1  0.090277  0.589007  0.998940  1
  B  B23  1  0.911004  0.409731  0.998934  1
  B  B24  1  0.409787  0.090187  0.999979  1
  B  B25  1  0.588790  0.911180  0.999917  1
  B  B26  1  0.999404  0.998424  0.162613  1
  B  B27  1  0.999860  0.999336  0.836655  1
  B  B28  1  0.500676  0.500140  0.836653  1
  B  B29  1  0.501538  0.500635  0.162615  1
