# generated using pymatgen
data_Er5PaAl18
_symmetry_space_group_name_H-M   'P 1'
_cell_length_a   14.59378330
_cell_length_b   14.59378329
_cell_length_c   14.59378423
_cell_angle_alpha   24.27737734
_cell_angle_beta   24.27737676
_cell_angle_gamma   24.27737889
_symmetry_Int_Tables_number   1
_chemical_formula_structural   Er5PaAl18
_chemical_formula_sum   'Er5 Pa1 Al18'
_cell_volume   461.83842620
_cell_formula_units_Z   1
loop_
 _symmetry_equiv_pos_site_id
 _symmetry_equiv_pos_as_xyz
  1  'x, y, z'
loop_
 _atom_site_type_symbol
 _atom_site_label
 _atom_site_symmetry_multiplicity
 _atom_site_fract_x
 _atom_site_fract_y
 _atom_site_fract_z
 _atom_site_occupancy
  Er  Er0  1  0.890634  0.890634  0.890634  1
  Er  Er1  1  0.390927  0.390927  0.390927  1
  Er  Er2  1  0.999675  0.999675  0.999675  1
  Er  Er3  1  0.499882  0.499882  0.499882  1
  Er  Er4  1  0.609349  0.609349  0.609349  1
  Pa  Pa5  1  0.109051  0.109051  0.109051  1
  Al  Al6  1  0.922783  0.372174  0.372174  1
  Al  Al7  1  0.419925  0.871737  0.871737  1
  Al  Al8  1  0.372174  0.372174  0.922783  1
  Al  Al9  1  0.871737  0.871737  0.419925  1
  Al  Al10  1  0.372174  0.922783  0.372174  1
  Al  Al11  1  0.871737  0.419925  0.871737  1
  Al  Al12  1  0.578596  0.127915  0.127915  1
  Al  Al13  1  0.079179  0.627783  0.627783  1
  Al  Al14  1  0.127915  0.127915  0.578596  1
  Al  Al15  1  0.627783  0.627783  0.079179  1
  Al  Al16  1  0.127915  0.578596  0.127915  1
  Al  Al17  1  0.627783  0.079179  0.627783  1
  Al  Al18  1  0.499497  0.499497  0.000152  1
  Al  Al19  1  0.001989  0.001989  0.497656  1
  Al  Al20  1  0.499497  0.000152  0.499497  1
  Al  Al21  1  0.001989  0.497656  0.001989  1
  Al  Al22  1  0.000152  0.499497  0.499497  1
  Al  Al23  1  0.497656  0.001989  0.001989  1
