# generated using pymatgen
data_Sr(UH4)3
_symmetry_space_group_name_H-M   'P 1'
_cell_length_a   6.65957400
_cell_length_b   6.75654500
_cell_length_c   6.75654500
_cell_angle_alpha   90.00000000
_cell_angle_beta   90.00000000
_cell_angle_gamma   90.00000000
_symmetry_Int_Tables_number   1
_chemical_formula_structural   Sr(UH4)3
_chemical_formula_sum   'Sr2 U6 H24'
_cell_volume   304.01554896
_cell_formula_units_Z   2
loop_
 _symmetry_equiv_pos_site_id
 _symmetry_equiv_pos_as_xyz
  1  'x, y, z'
loop_
 _atom_site_type_symbol
 _atom_site_label
 _atom_site_symmetry_multiplicity
 _atom_site_fract_x
 _atom_site_fract_y
 _atom_site_fract_z
 _atom_site_occupancy
  Sr  Sr0  1  0.250000  0.000000  0.500000  1
  Sr  Sr1  1  0.750000  0.000000  0.500000  1
  U  U2  1  0.000000  0.000000  0.000000  1
  U  U3  1  0.500000  0.500000  0.500000  1
  U  U4  1  0.000000  0.500000  0.250078  1
  U  U5  1  0.000000  0.500000  0.749922  1
  U  U6  1  0.500000  0.750078  0.000000  1
  U  U7  1  0.500000  0.249922  0.000000  1
  H  H8  1  0.000000  0.167383  0.280146  1
  H  H9  1  0.500000  0.219854  0.667383  1
  H  H10  1  0.500000  0.780146  0.332617  1
  H  H11  1  0.813714  0.640795  0.500000  1
  H  H12  1  0.186286  0.640795  0.500000  1
  H  H13  1  0.345835  0.500000  0.803188  1
  H  H14  1  0.654165  0.500000  0.803188  1
  H  H15  1  0.313714  0.000000  0.140795  1
  H  H16  1  0.154165  0.303188  0.000000  1
  H  H17  1  0.845835  0.696812  0.000000  1
  H  H18  1  0.313714  0.000000  0.859205  1
  H  H19  1  0.845835  0.303188  0.000000  1
  H  H20  1  0.686286  0.000000  0.140795  1
  H  H21  1  0.686286  0.000000  0.859205  1
  H  H22  1  0.154165  0.696812  0.000000  1
  H  H23  1  0.000000  0.832617  0.719854  1
  H  H24  1  0.000000  0.167383  0.719854  1
  H  H25  1  0.000000  0.832617  0.280146  1
  H  H26  1  0.654165  0.500000  0.196812  1
  H  H27  1  0.345835  0.500000  0.196812  1
  H  H28  1  0.813714  0.359205  0.500000  1
  H  H29  1  0.186286  0.359205  0.500000  1
  H  H30  1  0.500000  0.780146  0.667383  1
  H  H31  1  0.500000  0.219854  0.332617  1
