# generated using pymatgen
data_LiEu3Cd2Sn3
_symmetry_space_group_name_H-M   'P 1'
_cell_length_a   7.73922756
_cell_length_b   7.74221219
_cell_length_c   4.79691700
_cell_angle_alpha   90.00000000
_cell_angle_beta   90.00000000
_cell_angle_gamma   120.01275859
_symmetry_Int_Tables_number   1
_chemical_formula_structural   LiEu3Cd2Sn3
_chemical_formula_sum   'Li1 Eu3 Cd2 Sn3'
_cell_volume   248.88554445
_cell_formula_units_Z   1
loop_
 _symmetry_equiv_pos_site_id
 _symmetry_equiv_pos_as_xyz
  1  'x, y, z'
loop_
 _atom_site_type_symbol
 _atom_site_label
 _atom_site_symmetry_multiplicity
 _atom_site_fract_x
 _atom_site_fract_y
 _atom_site_fract_z
 _atom_site_occupancy
  Li  Li0  1  0.000000  0.765640  0.000000  1
  Eu  Eu1  1  0.000000  0.425802  0.500000  1
  Eu  Eu2  1  0.565217  0.567356  0.500000  1
  Eu  Eu3  1  0.434783  0.002138  0.500000  1
  Cd  Cd4  1  0.243416  0.243385  0.000000  1
  Cd  Cd5  1  0.756584  0.999969  0.000000  1
  Sn  Sn6  1  0.324874  0.666610  0.000000  1
  Sn  Sn7  1  0.675126  0.341735  0.000000  1
  Sn  Sn8  1  0.000000  0.987364  0.500000  1
