# generated using pymatgen
data_Nd2Y4Zn4Pt13
_symmetry_space_group_name_H-M   'P 1'
_cell_length_a   8.32399922
_cell_length_b   8.32400009
_cell_length_c   8.32696333
_cell_angle_alpha   109.46222124
_cell_angle_beta   109.46222125
_cell_angle_gamma   109.47481190
_symmetry_Int_Tables_number   1
_chemical_formula_structural   Nd2Y4Zn4Pt13
_chemical_formula_sum   'Nd2 Y4 Zn4 Pt13'
_cell_volume   444.22813475
_cell_formula_units_Z   1
loop_
 _symmetry_equiv_pos_site_id
 _symmetry_equiv_pos_as_xyz
  1  'x, y, z'
loop_
 _atom_site_type_symbol
 _atom_site_label
 _atom_site_symmetry_multiplicity
 _atom_site_fract_x
 _atom_site_fract_y
 _atom_site_fract_z
 _atom_site_occupancy
  Nd  Nd0  1  0.702184  0.000207  0.702390  1
  Nd  Nd1  1  0.000207  0.702184  0.702390  1
  Y  Y2  1  0.697855  0.697855  0.000673  1
  Y  Y3  1  0.303758  0.000045  0.303802  1
  Y  Y4  1  0.000045  0.303758  0.303802  1
  Y  Y5  1  0.302817  0.302817  0.000673  1
  Zn  Zn6  1  0.999657  0.999657  0.496114  1
  Zn  Zn7  1  0.999694  0.499694  0.999389  1
  Zn  Zn8  1  0.499694  0.999694  0.999389  1
  Zn  Zn9  1  0.496457  0.496457  0.496114  1
  Pt  Pt10  1  0.331363  0.331363  0.662726  1
  Pt  Pt11  1  0.669959  0.000106  0.327853  1
  Pt  Pt12  1  0.000106  0.669959  0.327853  1
  Pt  Pt13  1  0.667331  0.333591  0.000923  1
  Pt  Pt14  1  0.327747  0.657893  0.327853  1
  Pt  Pt15  1  0.000840  0.329986  0.668675  1
  Pt  Pt16  1  0.333591  0.667331  0.000923  1
  Pt  Pt17  1  0.329986  0.000840  0.668675  1
  Pt  Pt18  1  0.657893  0.327747  0.327853  1
  Pt  Pt19  1  0.665508  0.665508  0.331017  1
  Pt  Pt20  1  0.667835  0.338690  0.668675  1
  Pt  Pt21  1  0.338690  0.667835  0.668675  1
  Pt  Pt22  1  0.006780  0.006780  0.013560  1
