# generated using pymatgen
data_Nd4Al4OsPd2Pt
_symmetry_space_group_name_H-M   'P 1'
_cell_length_a   4.46004600
_cell_length_b   7.12250639
_cell_length_c   7.96488867
_cell_angle_alpha   89.74881884
_cell_angle_beta   90.00000000
_cell_angle_gamma   90.00000000
_symmetry_Int_Tables_number   1
_chemical_formula_structural   Nd4Al4OsPd2Pt
_chemical_formula_sum   'Nd4 Al4 Os1 Pd2 Pt1'
_cell_volume   253.01584617
_cell_formula_units_Z   1
loop_
 _symmetry_equiv_pos_site_id
 _symmetry_equiv_pos_as_xyz
  1  'x, y, z'
loop_
 _atom_site_type_symbol
 _atom_site_label
 _atom_site_symmetry_multiplicity
 _atom_site_fract_x
 _atom_site_fract_y
 _atom_site_fract_z
 _atom_site_occupancy
  Nd  Nd0  1  0.750000  0.472674  0.180673  1
  Nd  Nd1  1  0.250000  0.020456  0.682155  1
  Nd  Nd2  1  0.750000  0.965088  0.320873  1
  Nd  Nd3  1  0.250000  0.532592  0.812043  1
  Al  Al4  1  0.750000  0.850762  0.932090  1
  Al  Al5  1  0.250000  0.650319  0.437298  1
  Al  Al6  1  0.750000  0.362443  0.564103  1
  Al  Al7  1  0.250000  0.142216  0.064442  1
  Os  Os8  1  0.750000  0.724873  0.617034  1
  Pd  Pd9  1  0.750000  0.217287  0.888150  1
  Pd  Pd10  1  0.250000  0.281287  0.385455  1
  Pt  Pt11  1  0.250000  0.780005  0.115683  1
