# generated using pymatgen
data_Ce4AlB4Ir8Rh
_symmetry_space_group_name_H-M   'P 1'
_cell_length_a   10.79823651
_cell_length_b   10.79879529
_cell_length_c   10.79879608
_cell_angle_alpha   29.84556616
_cell_angle_beta   29.82622354
_cell_angle_gamma   29.82622581
_symmetry_Int_Tables_number   1
_chemical_formula_structural   Ce4AlB4Ir8Rh
_chemical_formula_sum   'Ce4 Al1 B4 Ir8 Rh1'
_cell_volume   275.96517604
_cell_formula_units_Z   1
loop_
 _symmetry_equiv_pos_site_id
 _symmetry_equiv_pos_as_xyz
  1  'x, y, z'
loop_
 _atom_site_type_symbol
 _atom_site_label
 _atom_site_symmetry_multiplicity
 _atom_site_fract_x
 _atom_site_fract_y
 _atom_site_fract_z
 _atom_site_occupancy
  Ce  Ce0  1  0.149453  0.148735  0.148735  1
  Ce  Ce1  1  0.947925  0.947967  0.947967  1
  Ce  Ce2  1  0.850547  0.851265  0.851265  1
  Ce  Ce3  1  0.052075  0.052033  0.052033  1
  Al  Al4  1  0.500000  0.500000  0.500000  1
  B  B5  1  0.614247  0.616762  0.616762  1
  B  B6  1  0.716086  0.718550  0.718550  1
  B  B7  1  0.385753  0.383238  0.383238  1
  B  B8  1  0.283914  0.281450  0.281450  1
  Ir  Ir9  1  0.401924  0.901783  0.401860  1
  Ir  Ir10  1  0.902132  0.402055  0.402055  1
  Ir  Ir11  1  0.500000  0.500000  0.000000  1
  Ir  Ir12  1  0.500000  0.000000  0.500000  1
  Ir  Ir13  1  0.598076  0.098217  0.598140  1
  Ir  Ir14  1  0.598076  0.598140  0.098217  1
  Ir  Ir15  1  0.097868  0.597945  0.597945  1
  Ir  Ir16  1  0.401924  0.401860  0.901783  1
  Rh  Rh17  1  0.000000  0.500000  0.500000  1
