# generated using pymatgen
data_HoHf7Ti11Si16Ru
_symmetry_space_group_name_H-M   'P 1'
_cell_length_a   6.81163586
_cell_length_b   6.81369933
_cell_length_c   12.46997819
_cell_angle_alpha   90.09006994
_cell_angle_beta   89.87539027
_cell_angle_gamma   89.85138502
_symmetry_Int_Tables_number   1
_chemical_formula_structural   HoHf7Ti11Si16Ru
_chemical_formula_sum   'Ho1 Hf7 Ti11 Si16 Ru1'
_cell_volume   578.75806244
_cell_formula_units_Z   1
loop_
 _symmetry_equiv_pos_site_id
 _symmetry_equiv_pos_as_xyz
  1  'x, y, z'
loop_
 _atom_site_type_symbol
 _atom_site_label
 _atom_site_symmetry_multiplicity
 _atom_site_fract_x
 _atom_site_fract_y
 _atom_site_fract_z
 _atom_site_occupancy
  Ho  Ho0  1  0.997891  0.658687  0.030982  1
  Hf  Hf1  1  0.343144  0.999242  0.468727  1
  Hf  Hf2  1  0.500364  0.843397  0.717826  1
  Hf  Hf3  1  0.498124  0.156545  0.221015  1
  Hf  Hf4  1  0.842770  0.500189  0.282314  1
  Hf  Hf5  1  0.156952  0.498417  0.780567  1
  Hf  Hf6  1  0.656252  0.000406  0.967992  1
  Hf  Hf7  1  0.999266  0.343682  0.531774  1
  Ti  Ti8  1  0.172985  0.831082  0.249554  1
  Ti  Ti9  1  0.828352  0.171864  0.750243  1
  Ti  Ti10  1  0.671891  0.671578  0.499786  1
  Ti  Ti11  1  0.153391  0.999720  0.869824  1
  Ti  Ti12  1  0.496505  0.654518  0.123343  1
  Ti  Ti13  1  0.503167  0.349730  0.624552  1
  Ti  Ti14  1  0.654073  0.494163  0.875871  1
  Ti  Ti15  1  0.349877  0.503279  0.376831  1
  Ti  Ti16  1  0.848265  0.997029  0.373903  1
  Ti  Ti17  1  0.000530  0.151368  0.129696  1
  Ti  Ti18  1  0.995974  0.848811  0.626465  1
  Si  Si19  1  0.205559  0.136384  0.676880  1
  Si  Si20  1  0.370468  0.707338  0.924353  1
  Si  Si21  1  0.635570  0.293866  0.427920  1
  Si  Si22  1  0.700554  0.361351  0.073054  1
  Si  Si23  1  0.293836  0.635938  0.572441  1
  Si  Si24  1  0.790496  0.866657  0.180740  1
  Si  Si25  1  0.136221  0.205804  0.323709  1
  Si  Si26  1  0.860715  0.796739  0.818872  1
  Si  Si27  1  0.295463  0.961367  0.063419  1
  Si  Si28  1  0.543902  0.795533  0.315686  1
  Si  Si29  1  0.452301  0.206758  0.815514  1
  Si  Si30  1  0.795736  0.545129  0.684568  1
  Si  Si31  1  0.209425  0.450297  0.185962  1
  Si  Si32  1  0.705178  0.046484  0.564427  1
  Si  Si33  1  0.956563  0.286050  0.935783  1
  Si  Si34  1  0.046555  0.705818  0.435407  1
  Ru  Ru35  1  0.331686  0.324780  0.000002  1
