# generated using pymatgen
data_DyTm7(SiBr6)2
_symmetry_space_group_name_H-M   'P 1'
_cell_length_a   4.00540400
_cell_length_b   13.07400061
_cell_length_c   13.84931600
_cell_angle_alpha   89.88478465
_cell_angle_beta   90.00000000
_cell_angle_gamma   90.00000000
_symmetry_Int_Tables_number   1
_chemical_formula_structural   DyTm7(SiBr6)2
_chemical_formula_sum   'Dy1 Tm7 Si2 Br12'
_cell_volume   725.24087741
_cell_formula_units_Z   1
loop_
 _symmetry_equiv_pos_site_id
 _symmetry_equiv_pos_as_xyz
  1  'x, y, z'
loop_
 _atom_site_type_symbol
 _atom_site_label
 _atom_site_symmetry_multiplicity
 _atom_site_fract_x
 _atom_site_fract_y
 _atom_site_fract_z
 _atom_site_occupancy
  Dy  Dy0  1  0.000000  0.117857  0.578332  1
  Tm  Tm1  1  0.500000  0.117683  0.341633  1
  Tm  Tm2  1  0.500000  0.881994  0.658197  1
  Tm  Tm3  1  0.500000  0.617704  0.158151  1
  Tm  Tm4  1  0.500000  0.382430  0.841931  1
  Tm  Tm5  1  0.000000  0.882192  0.421718  1
  Tm  Tm6  1  0.000000  0.616890  0.922310  1
  Tm  Tm7  1  0.000000  0.383117  0.077693  1
  Si  Si8  1  0.500000  0.998626  0.499108  1
  Si  Si9  1  0.500000  0.500072  0.000101  1
  Br  Br10  1  0.500000  0.245368  0.162785  1
  Br  Br11  1  0.500000  0.754433  0.837060  1
  Br  Br12  1  0.500000  0.744509  0.336416  1
  Br  Br13  1  0.500000  0.258400  0.665157  1
  Br  Br14  1  0.000000  0.256184  0.408768  1
  Br  Br15  1  0.000000  0.744389  0.588940  1
  Br  Br16  1  0.000000  0.755289  0.088733  1
  Br  Br17  1  0.000000  0.244763  0.911425  1
  Br  Br18  1  0.000000  0.002365  0.242793  1
  Br  Br19  1  0.000000  0.995394  0.758644  1
  Br  Br20  1  0.000000  0.502180  0.256842  1
  Br  Br21  1  0.000000  0.498163  0.743265  1
