# generated using pymatgen
data_Th8Al5Zn3Ru8
_symmetry_space_group_name_H-M   'P 1'
_cell_length_a   4.00488200
_cell_length_b   7.43950005
_cell_length_c   16.38844972
_cell_angle_alpha   90.29409658
_cell_angle_beta   90.00000000
_cell_angle_gamma   90.00000000
_symmetry_Int_Tables_number   1
_chemical_formula_structural   Th8Al5Zn3Ru8
_chemical_formula_sum   'Th8 Al5 Zn3 Ru8'
_cell_volume   488.27627974
_cell_formula_units_Z   1
loop_
 _symmetry_equiv_pos_site_id
 _symmetry_equiv_pos_as_xyz
  1  'x, y, z'
loop_
 _atom_site_type_symbol
 _atom_site_label
 _atom_site_symmetry_multiplicity
 _atom_site_fract_x
 _atom_site_fract_y
 _atom_site_fract_z
 _atom_site_occupancy
  Th  Th0  1  0.750000  0.952242  0.218954  1
  Th  Th1  1  0.250000  0.173252  0.561708  1
  Th  Th2  1  0.750000  0.827281  0.440935  1
  Th  Th3  1  0.750000  0.451972  0.280765  1
  Th  Th4  1  0.750000  0.325913  0.058362  1
  Th  Th5  1  0.250000  0.670467  0.937527  1
  Th  Th6  1  0.250000  0.049660  0.784840  1
  Th  Th7  1  0.250000  0.546810  0.717362  1
  Al  Al8  1  0.750000  0.873516  0.650769  1
  Al  Al9  1  0.250000  0.496785  0.439047  1
  Al  Al10  1  0.250000  0.994662  0.061025  1
  Al  Al11  1  0.250000  0.626856  0.149530  1
  Al  Al12  1  0.250000  0.127946  0.349789  1
  Zn  Zn13  1  0.750000  0.502632  0.561366  1
  Zn  Zn14  1  0.750000  0.374882  0.849573  1
  Zn  Zn15  1  0.750000  0.999215  0.939530  1
  Ru  Ru16  1  0.750000  0.751134  0.810253  1
  Ru  Ru17  1  0.250000  0.244674  0.939771  1
  Ru  Ru18  1  0.750000  0.258555  0.433642  1
  Ru  Ru19  1  0.250000  0.750480  0.317432  1
  Ru  Ru20  1  0.750000  0.754950  0.065883  1
  Ru  Ru21  1  0.750000  0.242378  0.683152  1
  Ru  Ru22  1  0.250000  0.250373  0.184133  1
  Ru  Ru23  1  0.250000  0.753367  0.564652  1
