# generated using pymatgen
data_Hf18CoMo8Se
_symmetry_space_group_name_H-M   'P 1'
_cell_length_a   8.68843100
_cell_length_b   8.68843115
_cell_length_c   8.58098200
_cell_angle_alpha   90.00000000
_cell_angle_beta   90.00000000
_cell_angle_gamma   119.99998802
_symmetry_Int_Tables_number   1
_chemical_formula_structural   Hf18CoMo8Se
_chemical_formula_sum   'Hf18 Co1 Mo8 Se1'
_cell_volume   560.98389740
_cell_formula_units_Z   1
loop_
 _symmetry_equiv_pos_site_id
 _symmetry_equiv_pos_as_xyz
  1  'x, y, z'
loop_
 _atom_site_type_symbol
 _atom_site_label
 _atom_site_symmetry_multiplicity
 _atom_site_fract_x
 _atom_site_fract_y
 _atom_site_fract_z
 _atom_site_occupancy
  Hf  Hf0  1  0.202171  0.797829  0.057967  1
  Hf  Hf1  1  0.595658  0.797829  0.057967  1
  Hf  Hf2  1  0.806255  0.612511  0.546239  1
  Hf  Hf3  1  0.202171  0.404342  0.057967  1
  Hf  Hf4  1  0.806255  0.193745  0.546239  1
  Hf  Hf5  1  0.387489  0.193745  0.546239  1
  Hf  Hf6  1  0.806255  0.612511  0.953761  1
  Hf  Hf7  1  0.806255  0.193745  0.953761  1
  Hf  Hf8  1  0.387489  0.193745  0.953761  1
  Hf  Hf9  1  0.595658  0.797829  0.442033  1
  Hf  Hf10  1  0.202171  0.797829  0.442033  1
  Hf  Hf11  1  0.202171  0.404342  0.442033  1
  Hf  Hf12  1  0.541773  0.083548  0.250000  1
  Hf  Hf13  1  0.455692  0.911383  0.750000  1
  Hf  Hf14  1  0.916452  0.458227  0.250000  1
  Hf  Hf15  1  0.541773  0.458227  0.250000  1
  Hf  Hf16  1  0.455692  0.544308  0.750000  1
  Hf  Hf17  1  0.088617  0.544308  0.750000  1
  Co  Co18  1  0.333333  0.666667  0.250000  1
  Mo  Mo19  1  0.000000  0.000000  0.001647  1
  Mo  Mo20  1  0.000000  0.000000  0.498353  1
  Mo  Mo21  1  0.888550  0.777100  0.250000  1
  Mo  Mo22  1  0.111193  0.222385  0.750000  1
  Mo  Mo23  1  0.222900  0.111450  0.250000  1
  Mo  Mo24  1  0.888550  0.111450  0.250000  1
  Mo  Mo25  1  0.111193  0.888807  0.750000  1
  Mo  Mo26  1  0.777615  0.888807  0.750000  1
  Se  Se27  1  0.666667  0.333333  0.750000  1
