# generated using pymatgen
data_LaPrZn5Sn
_symmetry_space_group_name_H-M   'P 1'
_cell_length_a   8.64671696
_cell_length_b   8.64671816
_cell_length_c   9.14838700
_cell_angle_alpha   90.00000000
_cell_angle_beta   90.00000000
_cell_angle_gamma   149.49842480
_symmetry_Int_Tables_number   1
_chemical_formula_structural   LaPrZn5Sn
_chemical_formula_sum   'La2 Pr2 Zn10 Sn2'
_cell_volume   347.16522690
_cell_formula_units_Z   2
loop_
 _symmetry_equiv_pos_site_id
 _symmetry_equiv_pos_as_xyz
  1  'x, y, z'
loop_
 _atom_site_type_symbol
 _atom_site_label
 _atom_site_symmetry_multiplicity
 _atom_site_fract_x
 _atom_site_fract_y
 _atom_site_fract_z
 _atom_site_occupancy
  La  La0  1  0.000000  0.000000  0.500000  1
  La  La1  1  0.000000  0.000000  0.000000  1
  Pr  Pr2  1  0.206062  0.793938  0.250000  1
  Pr  Pr3  1  0.793938  0.206062  0.750000  1
  Zn  Zn4  1  0.813734  0.186266  0.390947  1
  Zn  Zn5  1  0.186266  0.813734  0.609053  1
  Zn  Zn6  1  0.813734  0.186266  0.109053  1
  Zn  Zn7  1  0.186266  0.813734  0.890947  1
  Zn  Zn8  1  0.656911  0.343089  0.484265  1
  Zn  Zn9  1  0.343089  0.656911  0.515735  1
  Zn  Zn10  1  0.656911  0.343089  0.015735  1
  Zn  Zn11  1  0.343089  0.656911  0.984265  1
  Zn  Zn12  1  0.395863  0.604137  0.250000  1
  Zn  Zn13  1  0.604137  0.395863  0.750000  1
  Sn  Sn14  1  0.557197  0.442803  0.250000  1
  Sn  Sn15  1  0.442803  0.557197  0.750000  1
