# generated using pymatgen
data_Li2Pr5P12Ir17
_symmetry_space_group_name_H-M   'P 1'
_cell_length_a   12.77551200
_cell_length_b   12.89820786
_cell_length_c   4.01060300
_cell_angle_alpha   90.00000000
_cell_angle_beta   90.00000000
_cell_angle_gamma   119.68582054
_symmetry_Int_Tables_number   1
_chemical_formula_structural   Li2Pr5P12Ir17
_chemical_formula_sum   'Li2 Pr5 P12 Ir17'
_cell_volume   574.13527229
_cell_formula_units_Z   1
loop_
 _symmetry_equiv_pos_site_id
 _symmetry_equiv_pos_as_xyz
  1  'x, y, z'
loop_
 _atom_site_type_symbol
 _atom_site_label
 _atom_site_symmetry_multiplicity
 _atom_site_fract_x
 _atom_site_fract_y
 _atom_site_fract_z
 _atom_site_occupancy
  Li  Li0  1  0.997724  0.437888  0.500000  1
  Li  Li1  1  0.559836  0.562112  0.500000  1
  Pr  Pr2  1  0.331661  0.662263  0.500000  1
  Pr  Pr3  1  0.669399  0.337737  0.500000  1
  Pr  Pr4  1  0.003349  0.808732  0.000000  1
  Pr  Pr5  1  0.194616  0.191268  0.000000  1
  Pr  Pr6  1  0.810861  0.000000  0.000000  1
  P  P7  1  0.996054  0.622990  0.500000  1
  P  P8  1  0.373063  0.377010  0.500000  1
  P  P9  1  0.636478  0.000000  0.500000  1
  P  P10  1  0.515984  0.685045  0.000000  1
  P  P11  1  0.305127  0.821674  0.000000  1
  P  P12  1  0.164015  0.477548  0.000000  1
  P  P13  1  0.483453  0.178326  0.000000  1
  P  P14  1  0.686467  0.522452  0.000000  1
  P  P15  1  0.830939  0.314955  0.000000  1
  P  P16  1  0.998137  0.179623  0.500000  1
  P  P17  1  0.818515  0.820377  0.500000  1
  P  P18  1  0.181973  0.000000  0.500000  1
  Ir  Ir19  1  0.504709  0.868461  0.000000  1
  Ir  Ir20  1  0.125939  0.637865  0.000000  1
  Ir  Ir21  1  0.355473  0.487506  0.000000  1
  Ir  Ir22  1  0.488075  0.362135  0.000000  1
  Ir  Ir23  1  0.867969  0.512494  0.000000  1
  Ir  Ir24  1  0.636249  0.131539  0.000000  1
  Ir  Ir25  1  0.457557  0.000000  0.500000  1
  Ir  Ir26  1  0.996089  0.278768  0.000000  1
  Ir  Ir27  1  0.717322  0.721232  0.000000  1
  Ir  Ir28  1  0.291354  0.000000  0.000000  1
  Ir  Ir29  1  0.620155  0.805368  0.500000  1
  Ir  Ir30  1  0.206600  0.826065  0.500000  1
  Ir  Ir31  1  0.176196  0.373205  0.500000  1
  Ir  Ir32  1  0.380536  0.173935  0.500000  1
  Ir  Ir33  1  0.802991  0.626795  0.500000  1
  Ir  Ir34  1  0.814788  0.194632  0.500000  1
  Ir  Ir35  1  0.000347  0.000000  0.500000  1
