# generated using pymatgen
data_Ca2W2N5
_symmetry_space_group_name_H-M   'P 1'
_cell_length_a   3.75346800
_cell_length_b   5.78471200
_cell_length_c   11.10741100
_cell_angle_alpha   90.00000000
_cell_angle_beta   90.00000000
_cell_angle_gamma   90.00000000
_symmetry_Int_Tables_number   1
_chemical_formula_structural   Ca2W2N5
_chemical_formula_sum   'Ca4 W4 N10'
_cell_volume   241.17223138
_cell_formula_units_Z   2
loop_
 _symmetry_equiv_pos_site_id
 _symmetry_equiv_pos_as_xyz
  1  'x, y, z'
loop_
 _atom_site_type_symbol
 _atom_site_label
 _atom_site_symmetry_multiplicity
 _atom_site_fract_x
 _atom_site_fract_y
 _atom_site_fract_z
 _atom_site_occupancy
  Ca  Ca0  1  0.500000  0.747722  0.379123  1
  Ca  Ca1  1  0.500000  0.252278  0.620877  1
  Ca  Ca2  1  0.500000  0.247722  0.120877  1
  Ca  Ca3  1  0.500000  0.752278  0.879123  1
  W  W4  1  0.000000  0.766577  0.130706  1
  W  W5  1  0.000000  0.233423  0.869294  1
  W  W6  1  0.000000  0.733423  0.630706  1
  W  W7  1  0.000000  0.266577  0.369294  1
  N  N8  1  0.000000  0.000000  0.000000  1
  N  N9  1  0.000000  0.548673  0.763777  1
  N  N10  1  0.000000  0.048673  0.736223  1
  N  N11  1  0.000000  0.951327  0.263777  1
  N  N12  1  0.500000  0.820679  0.596819  1
  N  N13  1  0.500000  0.179321  0.403181  1
  N  N14  1  0.000000  0.451327  0.236223  1
  N  N15  1  0.500000  0.679321  0.096819  1
  N  N16  1  0.000000  0.500000  0.500000  1
  N  N17  1  0.500000  0.320679  0.903181  1
