# generated using pymatgen
data_AcAs12Ru3Rh
_symmetry_space_group_name_H-M   'P 1'
_cell_length_a   7.47772715
_cell_length_b   7.47772809
_cell_length_c   7.47772802
_cell_angle_alpha   109.44429456
_cell_angle_beta   109.44430001
_cell_angle_gamma   109.44429225
_symmetry_Int_Tables_number   1
_chemical_formula_structural   AcAs12Ru3Rh
_chemical_formula_sum   'Ac1 As12 Ru3 Rh1'
_cell_volume   322.19532866
_cell_formula_units_Z   1
loop_
 _symmetry_equiv_pos_site_id
 _symmetry_equiv_pos_as_xyz
  1  'x, y, z'
loop_
 _atom_site_type_symbol
 _atom_site_label
 _atom_site_symmetry_multiplicity
 _atom_site_fract_x
 _atom_site_fract_y
 _atom_site_fract_z
 _atom_site_occupancy
  Ac  Ac0  1  0.000000  0.000000  0.000000  1
  As  As1  1  0.151100  0.802487  0.651755  1
  As  As2  1  0.848900  0.197513  0.348245  1
  As  As3  1  0.147723  0.499372  0.348125  1
  As  As4  1  0.852277  0.500628  0.651875  1
  As  As5  1  0.651755  0.151100  0.802487  1
  As  As6  1  0.348245  0.848900  0.197513  1
  As  As7  1  0.348125  0.147723  0.499372  1
  As  As8  1  0.651875  0.852277  0.500628  1
  As  As9  1  0.802487  0.651755  0.151100  1
  As  As10  1  0.197513  0.348245  0.848900  1
  As  As11  1  0.499372  0.348125  0.147723  1
  As  As12  1  0.500628  0.651875  0.852277  1
  Ru  Ru13  1  0.500000  0.000000  0.000000  1
  Ru  Ru14  1  0.000000  0.000000  0.500000  1
  Ru  Ru15  1  0.000000  0.500000  0.000000  1
  Rh  Rh16  1  0.500000  0.500000  0.500000  1
