# generated using pymatgen
data_Tb7Dy(HoIn3)2
_symmetry_space_group_name_H-M   'P 1'
_cell_length_a   6.04202453
_cell_length_b   9.19631127
_cell_length_c   9.19773226
_cell_angle_alpha   83.88077748
_cell_angle_beta   70.84933050
_cell_angle_gamma   70.84945265
_symmetry_Int_Tables_number   1
_chemical_formula_structural   Tb7Dy(HoIn3)2
_chemical_formula_sum   'Tb7 Dy1 Ho2 In6'
_cell_volume   456.06551519
_cell_formula_units_Z   1
loop_
 _symmetry_equiv_pos_site_id
 _symmetry_equiv_pos_as_xyz
  1  'x, y, z'
loop_
 _atom_site_type_symbol
 _atom_site_label
 _atom_site_symmetry_multiplicity
 _atom_site_fract_x
 _atom_site_fract_y
 _atom_site_fract_z
 _atom_site_occupancy
  Tb  Tb0  1  0.719700  0.862495  0.697847  1
  Tb  Tb1  1  0.280396  0.137355  0.302108  1
  Tb  Tb2  1  0.780318  0.302011  0.137604  1
  Tb  Tb3  1  0.219631  0.697897  0.862620  1
  Tb  Tb4  1  0.581526  0.698297  0.137655  1
  Tb  Tb5  1  0.418370  0.301725  0.862502  1
  Tb  Tb6  1  0.081523  0.137538  0.698416  1
  Dy  Dy7  1  0.918461  0.862632  0.301433  1
  Ho  Ho8  1  0.749979  0.500083  0.499953  1
  Ho  Ho9  1  0.250015  0.500122  0.499887  1
  In  In10  1  0.160972  0.500514  0.177051  1
  In  In11  1  0.838934  0.499766  0.822890  1
  In  In12  1  0.338962  0.823011  0.499519  1
  In  In13  1  0.661366  0.176741  0.500094  1
  In  In14  1  0.249857  0.999783  0.000337  1
  In  In15  1  0.749992  0.000030  0.000082  1
