# generated using pymatgen
data_Ce8Nb12SnGe15
_symmetry_space_group_name_H-M   'P 1'
_cell_length_a   7.15312448
_cell_length_b   7.35360378
_cell_length_c   13.83608000
_cell_angle_alpha   90.03888750
_cell_angle_beta   89.92907236
_cell_angle_gamma   90.04323653
_symmetry_Int_Tables_number   1
_chemical_formula_structural   Ce8Nb12SnGe15
_chemical_formula_sum   'Ce8 Nb12 Sn1 Ge15'
_cell_volume   727.79407755
_cell_formula_units_Z   1
loop_
 _symmetry_equiv_pos_site_id
 _symmetry_equiv_pos_as_xyz
  1  'x, y, z'
loop_
 _atom_site_type_symbol
 _atom_site_label
 _atom_site_symmetry_multiplicity
 _atom_site_fract_x
 _atom_site_fract_y
 _atom_site_fract_z
 _atom_site_occupancy
  Ce  Ce0  1  0.497698  0.329349  0.093794  1
  Ce  Ce1  1  0.994833  0.165686  0.402314  1
  Ce  Ce2  1  0.512238  0.677130  0.596779  1
  Ce  Ce3  1  0.001511  0.829782  0.907109  1
  Ce  Ce4  1  0.501604  0.670484  0.907176  1
  Ce  Ce5  1  0.000095  0.835532  0.595556  1
  Ce  Ce6  1  0.503115  0.326512  0.402260  1
  Ce  Ce7  1  0.998907  0.171681  0.093567  1
  Nb  Nb8  1  0.664541  0.009114  0.750909  1
  Nb  Nb9  1  0.165217  0.490566  0.754801  1
  Nb  Nb10  1  0.334523  0.991092  0.249087  1
  Nb  Nb11  1  0.835218  0.509553  0.248851  1
  Nb  Nb12  1  0.829310  0.330547  0.629009  1
  Nb  Nb13  1  0.337241  0.167532  0.874846  1
  Nb  Nb14  1  0.162372  0.667530  0.125523  1
  Nb  Nb15  1  0.661311  0.832731  0.372220  1
  Nb  Nb16  1  0.159571  0.674537  0.368931  1
  Nb  Nb17  1  0.660214  0.830833  0.125384  1
  Nb  Nb18  1  0.837809  0.331650  0.874755  1
  Nb  Nb19  1  0.345882  0.157209  0.630191  1
  Sn  Sn20  1  0.172586  0.455675  0.543193  1
  Ge  Ge21  1  0.809659  0.631594  0.751595  1
  Ge  Ge22  1  0.305857  0.864798  0.752063  1
  Ge  Ge23  1  0.193029  0.368891  0.249642  1
  Ge  Ge24  1  0.692696  0.130217  0.247289  1
  Ge  Ge25  1  0.534818  0.372570  0.751811  1
  Ge  Ge26  1  0.037043  0.130451  0.750695  1
  Ge  Ge27  1  0.463137  0.628499  0.248979  1
  Ge  Ge28  1  0.960715  0.871998  0.246768  1
  Ge  Ge29  1  0.670391  0.045527  0.542738  1
  Ge  Ge30  1  0.169635  0.456046  0.957095  1
  Ge  Ge31  1  0.330211  0.956961  0.044606  1
  Ge  Ge32  1  0.828239  0.545627  0.454268  1
  Ge  Ge33  1  0.329982  0.955481  0.455969  1
  Ge  Ge34  1  0.830055  0.543075  0.044312  1
  Ge  Ge35  1  0.668739  0.043542  0.955916  1
