# generated using pymatgen
data_HfZr3Ga3Sb
_symmetry_space_group_name_H-M   'P 1'
_cell_length_a   5.72504700
_cell_length_b   8.79595024
_cell_length_c   9.41685552
_cell_angle_alpha   89.85916890
_cell_angle_beta   90.00164764
_cell_angle_gamma   90.00295210
_symmetry_Int_Tables_number   1
_chemical_formula_structural   HfZr3Ga3Sb
_chemical_formula_sum   'Hf3 Zr9 Ga9 Sb3'
_cell_volume   474.20531213
_cell_formula_units_Z   3
loop_
 _symmetry_equiv_pos_site_id
 _symmetry_equiv_pos_as_xyz
  1  'x, y, z'
loop_
 _atom_site_type_symbol
 _atom_site_label
 _atom_site_symmetry_multiplicity
 _atom_site_fract_x
 _atom_site_fract_y
 _atom_site_fract_z
 _atom_site_occupancy
  Hf  Hf0  1  0.496959  0.253280  0.883952  1
  Hf  Hf1  1  0.003049  0.253325  0.883715  1
  Hf  Hf2  1  0.497683  0.745241  0.119143  1
  Zr  Zr3  1  0.001812  0.746030  0.118317  1
  Zr  Zr4  1  0.750046  0.470203  0.611642  1
  Zr  Zr5  1  0.250164  0.528462  0.378955  1
  Zr  Zr6  1  0.749967  0.969335  0.390974  1
  Zr  Zr7  1  0.250006  0.030492  0.610808  1
  Zr  Zr8  1  0.749968  0.378640  0.196435  1
  Zr  Zr9  1  0.250189  0.616976  0.808159  1
  Zr  Zr10  1  0.749933  0.876043  0.803311  1
  Zr  Zr11  1  0.249962  0.132498  0.192769  1
  Ga  Ga12  1  0.003764  0.748004  0.571834  1
  Ga  Ga13  1  0.499897  0.250330  0.428598  1
  Ga  Ga14  1  0.000107  0.250376  0.428522  1
  Ga  Ga15  1  0.496246  0.748024  0.571664  1
  Ga  Ga16  1  0.250560  0.448107  0.084216  1
  Ga  Ga17  1  0.750032  0.141187  0.647731  1
  Ga  Ga18  1  0.250683  0.864813  0.352869  1
  Ga  Ga19  1  0.749415  0.638786  0.355741  1
  Ga  Ga20  1  0.250013  0.361606  0.643584  1
  Sb  Sb21  1  0.749555  0.052265  0.087192  1
  Sb  Sb22  1  0.250648  0.947282  0.913316  1
  Sb  Sb23  1  0.749340  0.548693  0.916548  1
