# generated using pymatgen
data_SmTm2Zr(NiAs)4
_symmetry_space_group_name_H-M   'P 1'
_cell_length_a   4.01983100
_cell_length_b   4.01983145
_cell_length_c   15.22705200
_cell_angle_alpha   90.00000000
_cell_angle_beta   90.00000000
_cell_angle_gamma   120.00000450
_symmetry_Int_Tables_number   1
_chemical_formula_structural   SmTm2Zr(NiAs)4
_chemical_formula_sum   'Sm1 Tm2 Zr1 Ni4 As4'
_cell_volume   213.08951551
_cell_formula_units_Z   1
loop_
 _symmetry_equiv_pos_site_id
 _symmetry_equiv_pos_as_xyz
  1  'x, y, z'
loop_
 _atom_site_type_symbol
 _atom_site_label
 _atom_site_symmetry_multiplicity
 _atom_site_fract_x
 _atom_site_fract_y
 _atom_site_fract_z
 _atom_site_occupancy
  Sm  Sm0  1  0.000000  0.000000  0.005728  1
  Tm  Tm1  1  0.000000  0.000000  0.746815  1
  Tm  Tm2  1  0.000000  0.000000  0.495233  1
  Zr  Zr3  1  0.000000  0.000000  0.253703  1
  Ni  Ni4  1  0.333333  0.666667  0.161830  1
  Ni  Ni5  1  0.666667  0.333333  0.862581  1
  Ni  Ni6  1  0.666667  0.333333  0.627303  1
  Ni  Ni7  1  0.333333  0.666667  0.346085  1
  As  As8  1  0.333333  0.666667  0.616432  1
  As  As9  1  0.666667  0.333333  0.379679  1
  As  As10  1  0.666667  0.333333  0.128156  1
  As  As11  1  0.333333  0.666667  0.876455  1
