# generated using pymatgen
data_TbY5(GaRh)4
_symmetry_space_group_name_H-M   'P 1'
_cell_length_a   5.59089584
_cell_length_b   7.82569394
_cell_length_c   13.64585253
_cell_angle_alpha   90.01134658
_cell_angle_beta   90.02994609
_cell_angle_gamma   89.94484094
_symmetry_Int_Tables_number   1
_chemical_formula_structural   TbY5(GaRh)4
_chemical_formula_sum   'Tb2 Y10 Ga8 Rh8'
_cell_volume   597.04169953
_cell_formula_units_Z   2
loop_
 _symmetry_equiv_pos_site_id
 _symmetry_equiv_pos_as_xyz
  1  'x, y, z'
loop_
 _atom_site_type_symbol
 _atom_site_label
 _atom_site_symmetry_multiplicity
 _atom_site_fract_x
 _atom_site_fract_y
 _atom_site_fract_z
 _atom_site_occupancy
  Tb  Tb0  1  0.153041  0.399654  0.097089  1
  Tb  Tb1  1  0.846959  0.600346  0.902911  1
  Y  Y2  1  0.630544  0.261926  0.250082  1
  Y  Y3  1  0.369456  0.738074  0.749918  1
  Y  Y4  1  0.369490  0.762135  0.249985  1
  Y  Y5  1  0.630510  0.237865  0.750015  1
  Y  Y6  1  0.847788  0.600370  0.597576  1
  Y  Y7  1  0.847985  0.899799  0.402400  1
  Y  Y8  1  0.152212  0.399630  0.402424  1
  Y  Y9  1  0.152015  0.100201  0.597600  1
  Y  Y10  1  0.152188  0.100348  0.902234  1
  Y  Y11  1  0.847812  0.899652  0.097766  1
  Ga  Ga12  1  0.125409  0.108285  0.250097  1
  Ga  Ga13  1  0.874591  0.891715  0.749903  1
  Ga  Ga14  1  0.874393  0.608601  0.250238  1
  Ga  Ga15  1  0.125607  0.391399  0.749762  1
  Ga  Ga16  1  0.649567  0.249262  0.000016  1
  Ga  Ga17  1  0.350433  0.750738  0.999984  1
  Ga  Ga18  1  0.350785  0.749899  0.500030  1
  Ga  Ga19  1  0.649215  0.250101  0.499970  1
  Rh  Rh20  1  0.361865  0.038837  0.093962  1
  Rh  Rh21  1  0.638135  0.961163  0.906038  1
  Rh  Rh22  1  0.638075  0.961662  0.593994  1
  Rh  Rh23  1  0.638065  0.538649  0.406082  1
  Rh  Rh24  1  0.361925  0.038338  0.406006  1
  Rh  Rh25  1  0.361935  0.461351  0.593918  1
  Rh  Rh26  1  0.362123  0.461604  0.906210  1
  Rh  Rh27  1  0.637877  0.538396  0.093790  1
