# generated using pymatgen
data_TbPr5(NdRh2)3
_symmetry_space_group_name_H-M   'P 1'
_cell_length_a   7.64318086
_cell_length_b   7.63597694
_cell_length_c   7.63826438
_cell_angle_alpha   71.20430546
_cell_angle_beta   71.24283367
_cell_angle_gamma   71.20079671
_symmetry_Int_Tables_number   1
_chemical_formula_structural   TbPr5(NdRh2)3
_chemical_formula_sum   'Tb1 Pr5 Nd3 Rh6'
_cell_volume   387.53710640
_cell_formula_units_Z   1
loop_
 _symmetry_equiv_pos_site_id
 _symmetry_equiv_pos_as_xyz
  1  'x, y, z'
loop_
 _atom_site_type_symbol
 _atom_site_label
 _atom_site_symmetry_multiplicity
 _atom_site_fract_x
 _atom_site_fract_y
 _atom_site_fract_z
 _atom_site_occupancy
  Tb  Tb0  1  0.000300  0.000549  0.999445  1
  Pr  Pr1  1  0.666893  0.162984  0.390333  1
  Pr  Pr2  1  0.389833  0.667058  0.163256  1
  Pr  Pr3  1  0.837443  0.609718  0.333028  1
  Pr  Pr4  1  0.332502  0.837127  0.609974  1
  Pr  Pr5  1  0.609928  0.332733  0.836797  1
  Nd  Nd6  1  0.799461  0.798501  0.798833  1
  Nd  Nd7  1  0.201001  0.201327  0.200878  1
  Nd  Nd8  1  0.162249  0.388813  0.668946  1
  Rh  Rh9  1  0.960585  0.157866  0.595615  1
  Rh  Rh10  1  0.595199  0.959947  0.157235  1
  Rh  Rh11  1  0.157157  0.594794  0.959193  1
  Rh  Rh12  1  0.040240  0.842453  0.405003  1
  Rh  Rh13  1  0.403707  0.041428  0.842170  1
  Rh  Rh14  1  0.843501  0.404702  0.039296  1
