# generated using pymatgen
data_LiSmCo4P3
_symmetry_space_group_name_H-M   'P 1'
_cell_length_a   3.72643600
_cell_length_b   10.34339300
_cell_length_c   11.98665600
_cell_angle_alpha   90.00000000
_cell_angle_beta   90.00000000
_cell_angle_gamma   90.00000000
_symmetry_Int_Tables_number   1
_chemical_formula_structural   LiSmCo4P3
_chemical_formula_sum   'Li4 Sm4 Co16 P12'
_cell_volume   462.01357342
_cell_formula_units_Z   4
loop_
 _symmetry_equiv_pos_site_id
 _symmetry_equiv_pos_as_xyz
  1  'x, y, z'
loop_
 _atom_site_type_symbol
 _atom_site_label
 _atom_site_symmetry_multiplicity
 _atom_site_fract_x
 _atom_site_fract_y
 _atom_site_fract_z
 _atom_site_occupancy
  Li  Li0  1  0.250000  0.701376  0.992826  1
  Li  Li1  1  0.250000  0.798624  0.492826  1
  Li  Li2  1  0.750000  0.298624  0.007174  1
  Li  Li3  1  0.750000  0.201376  0.507174  1
  Sm  Sm4  1  0.250000  0.579013  0.701448  1
  Sm  Sm5  1  0.250000  0.920987  0.201448  1
  Sm  Sm6  1  0.750000  0.420987  0.298552  1
  Sm  Sm7  1  0.750000  0.079013  0.798552  1
  Co  Co8  1  0.250000  0.406151  0.486671  1
  Co  Co9  1  0.250000  0.093849  0.986671  1
  Co  Co10  1  0.750000  0.593849  0.513329  1
  Co  Co11  1  0.750000  0.906151  0.013329  1
  Co  Co12  1  0.250000  0.221773  0.172397  1
  Co  Co13  1  0.250000  0.278227  0.672397  1
  Co  Co14  1  0.750000  0.778227  0.827603  1
  Co  Co15  1  0.750000  0.721773  0.327603  1
  Co  Co16  1  0.250000  0.878867  0.699152  1
  Co  Co17  1  0.250000  0.621133  0.199152  1
  Co  Co18  1  0.750000  0.121133  0.300848  1
  Co  Co19  1  0.750000  0.378867  0.800848  1
  Co  Co20  1  0.250000  0.466199  0.933102  1
  Co  Co21  1  0.250000  0.033801  0.433102  1
  Co  Co22  1  0.750000  0.533801  0.066898  1
  Co  Co23  1  0.750000  0.966199  0.566898  1
  P  P24  1  0.250000  0.425008  0.113738  1
  P  P25  1  0.250000  0.074992  0.613738  1
  P  P26  1  0.750000  0.574992  0.886262  1
  P  P27  1  0.750000  0.925008  0.386262  1
  P  P28  1  0.250000  0.273156  0.859006  1
  P  P29  1  0.250000  0.226844  0.359006  1
  P  P30  1  0.750000  0.726844  0.140994  1
  P  P31  1  0.750000  0.773156  0.640994  1
  P  P32  1  0.250000  0.604010  0.394220  1
  P  P33  1  0.250000  0.895990  0.894220  1
  P  P34  1  0.750000  0.395990  0.605780  1
  P  P35  1  0.750000  0.104010  0.105780  1
