# generated using pymatgen
data_Ta12Al2Ga6Co3NiC4
_symmetry_space_group_name_H-M   'P 1'
_cell_length_a   8.19757782
_cell_length_b   8.19854624
_cell_length_c   8.19854600
_cell_angle_alpha   60.00831238
_cell_angle_beta   60.00390535
_cell_angle_gamma   60.00390223
_symmetry_Int_Tables_number   1
_chemical_formula_structural   Ta12Al2Ga6Co3NiC4
_chemical_formula_sum   'Ta12 Al2 Ga6 Co3 Ni1 C4'
_cell_volume   389.67015135
_cell_formula_units_Z   1
loop_
 _symmetry_equiv_pos_site_id
 _symmetry_equiv_pos_as_xyz
  1  'x, y, z'
loop_
 _atom_site_type_symbol
 _atom_site_label
 _atom_site_symmetry_multiplicity
 _atom_site_fract_x
 _atom_site_fract_y
 _atom_site_fract_z
 _atom_site_occupancy
  Ta  Ta0  1  0.561291  0.937619  0.562849  1
  Ta  Ta1  1  0.311876  0.689084  0.689084  1
  Ta  Ta2  1  0.683649  0.312694  0.312694  1
  Ta  Ta3  1  0.313415  0.683763  0.313043  1
  Ta  Ta4  1  0.688907  0.690000  0.311220  1
  Ta  Ta5  1  0.313415  0.313043  0.683763  1
  Ta  Ta6  1  0.561291  0.562849  0.937619  1
  Ta  Ta7  1  0.938931  0.560753  0.560753  1
  Ta  Ta8  1  0.564099  0.936964  0.936964  1
  Ta  Ta9  1  0.938131  0.937925  0.563821  1
  Ta  Ta10  1  0.688907  0.311220  0.690000  1
  Ta  Ta11  1  0.938131  0.563821  0.937925  1
  Al  Al12  1  0.244630  0.918124  0.918124  1
  Al  Al13  1  0.330777  0.330679  0.330679  1
  Ga  Ga14  1  0.917126  0.917132  0.917132  1
  Ga  Ga15  1  0.998812  0.334061  0.334061  1
  Ga  Ga16  1  0.334060  0.999359  0.333841  1
  Ga  Ga17  1  0.334060  0.333841  0.999359  1
  Ga  Ga18  1  0.916285  0.250744  0.916046  1
  Ga  Ga19  1  0.916285  0.916046  0.250744  1
  Co  Co20  1  0.623840  0.126221  0.126221  1
  Co  Co21  1  0.127125  0.625076  0.124998  1
  Co  Co22  1  0.127125  0.124998  0.625076  1
  Ni  Ni23  1  0.126095  0.123768  0.123768  1
  C  C24  1  0.625540  0.624410  0.624410  1
  C  C25  1  0.124244  0.625595  0.625595  1
  C  C26  1  0.625975  0.125263  0.624948  1
  C  C27  1  0.625975  0.624948  0.125263  1
