# generated using pymatgen
data_Nd2Tm4Ir7Rh11
_symmetry_space_group_name_H-M   'P 1'
_cell_length_a   5.29828863
_cell_length_b   5.29148250
_cell_length_c   17.47283751
_cell_angle_alpha   89.99933167
_cell_angle_beta   89.97623862
_cell_angle_gamma   120.00047228
_symmetry_Int_Tables_number   1
_chemical_formula_structural   Nd2Tm4Ir7Rh11
_chemical_formula_sum   'Nd2 Tm4 Ir7 Rh11'
_cell_volume   424.23347011
_cell_formula_units_Z   1
loop_
 _symmetry_equiv_pos_site_id
 _symmetry_equiv_pos_as_xyz
  1  'x, y, z'
loop_
 _atom_site_type_symbol
 _atom_site_label
 _atom_site_symmetry_multiplicity
 _atom_site_fract_x
 _atom_site_fract_y
 _atom_site_fract_z
 _atom_site_occupancy
  Nd  Nd0  1  0.333587  0.666821  0.749542  1
  Nd  Nd1  1  0.666738  0.333350  0.249248  1
  Tm  Tm2  1  0.331896  0.665958  0.540460  1
  Tm  Tm3  1  0.666967  0.333475  0.040456  1
  Tm  Tm4  1  0.666925  0.333450  0.460108  1
  Tm  Tm5  1  0.332961  0.666482  0.960349  1
  Ir  Ir6  1  0.167769  0.335519  0.124411  1
  Ir  Ir7  1  0.834202  0.665201  0.624233  1
  Ir  Ir8  1  0.664345  0.832148  0.124265  1
  Ir  Ir9  1  0.167784  0.832198  0.124430  1
  Ir  Ir10  1  0.834186  0.169046  0.624253  1
  Ir  Ir11  1  0.000144  0.000073  0.999371  1
  Ir  Ir12  1  0.997345  0.998664  0.499585  1
  Rh  Rh13  1  0.336191  0.168128  0.624133  1
  Rh  Rh14  1  0.832557  0.664580  0.876060  1
  Rh  Rh15  1  0.832541  0.168021  0.876046  1
  Rh  Rh16  1  0.335385  0.167717  0.875693  1
  Rh  Rh17  1  0.664639  0.832293  0.376244  1
  Rh  Rh18  1  0.167748  0.832244  0.376129  1
  Rh  Rh19  1  0.167750  0.335447  0.376144  1
  Rh  Rh20  1  0.000066  0.000107  0.249675  1
  Rh  Rh21  1  0.997499  0.998693  0.749841  1
  Rh  Rh22  1  0.333620  0.666682  0.249768  1
  Rh  Rh23  1  0.667155  0.333703  0.749556  1
