# generated using pymatgen
data_Zr10AgBi5Se
_symmetry_space_group_name_H-M   'P 1'
_cell_length_a   5.93911026
_cell_length_b   8.75310519
_cell_length_c   8.73197000
_cell_angle_alpha   119.92014287
_cell_angle_beta   90.10115094
_cell_angle_gamma   89.94931759
_symmetry_Int_Tables_number   1
_chemical_formula_structural   Zr10AgBi5Se
_chemical_formula_sum   'Zr10 Ag1 Bi5 Se1'
_cell_volume   393.43649011
_cell_formula_units_Z   1
loop_
 _symmetry_equiv_pos_site_id
 _symmetry_equiv_pos_as_xyz
  1  'x, y, z'
loop_
 _atom_site_type_symbol
 _atom_site_label
 _atom_site_symmetry_multiplicity
 _atom_site_fract_x
 _atom_site_fract_y
 _atom_site_fract_z
 _atom_site_occupancy
  Zr  Zr0  1  0.496303  0.331309  0.664585  1
  Zr  Zr1  1  0.496333  0.668690  0.333285  1
  Zr  Zr2  1  0.002563  0.668549  0.333627  1
  Zr  Zr3  1  0.002561  0.331472  0.665114  1
  Zr  Zr4  1  0.767971  0.254408  0.999969  1
  Zr  Zr5  1  0.767963  0.745591  0.745553  1
  Zr  Zr6  1  0.782967  0.999983  0.253515  1
  Zr  Zr7  1  0.228816  0.751848  0.010125  1
  Zr  Zr8  1  0.228833  0.248149  0.258284  1
  Zr  Zr9  1  0.236193  0.000015  0.735368  1
  Ag  Ag10  1  0.252611  0.000000  0.392235  1
  Bi  Bi11  1  0.744519  0.609037  0.000234  1
  Bi  Bi12  1  0.744534  0.390943  0.391188  1
  Bi  Bi13  1  0.744654  0.000001  0.602648  1
  Bi  Bi14  1  0.251835  0.388589  0.001347  1
  Bi  Bi15  1  0.251826  0.611423  0.612759  1
  Se  Se16  1  0.499514  0.999999  0.000163  1
