# generated using pymatgen
data_TbY11Co5Pb
_symmetry_space_group_name_H-M   'P 1'
_cell_length_a   8.34803438
_cell_length_b   8.34653409
_cell_length_c   8.34653355
_cell_angle_alpha   110.69920927
_cell_angle_beta   110.66890397
_cell_angle_gamma   107.06489261
_symmetry_Int_Tables_number   1
_chemical_formula_structural   TbY11Co5Pb
_chemical_formula_sum   'Tb1 Y11 Co5 Pb1'
_cell_volume   447.13822667
_cell_formula_units_Z   1
loop_
 _symmetry_equiv_pos_site_id
 _symmetry_equiv_pos_as_xyz
  1  'x, y, z'
loop_
 _atom_site_type_symbol
 _atom_site_label
 _atom_site_symmetry_multiplicity
 _atom_site_fract_x
 _atom_site_fract_y
 _atom_site_fract_z
 _atom_site_occupancy
  Tb  Tb0  1  0.012134  0.205336  0.806798  1
  Y  Y1  1  0.814712  0.707368  0.521961  1
  Y  Y2  1  0.185321  0.292619  0.478011  1
  Y  Y3  1  0.185321  0.707310  0.892704  1
  Y  Y4  1  0.814712  0.292751  0.107344  1
  Y  Y5  1  0.686871  0.380207  0.693301  1
  Y  Y6  1  0.313051  0.619818  0.306671  1
  Y  Y7  1  0.686871  0.993570  0.306663  1
  Y  Y8  1  0.313051  0.006380  0.693234  1
  Y  Y9  1  0.600574  0.793624  0.806952  1
  Y  Y10  1  0.399385  0.206217  0.193167  1
  Y  Y11  1  0.986877  0.793864  0.193012  1
  Co  Co12  1  0.620954  0.000423  0.620532  1
  Co  Co13  1  0.379874  0.999983  0.379892  1
  Co  Co14  1  0.110760  0.610677  0.500083  1
  Co  Co15  1  0.889187  0.389407  0.499779  1
  Co  Co16  1  0.000055  0.000255  0.999800  1
  Pb  Pb17  1  0.500286  0.500191  0.000096  1
