# generated using pymatgen
data_DyEr11ZnCo4Bi
_symmetry_space_group_name_H-M   'P 1'
_cell_length_a   8.29382897
_cell_length_b   8.29382803
_cell_length_c   8.29498106
_cell_angle_alpha   109.68718228
_cell_angle_beta   111.46495289
_cell_angle_gamma   107.28264943
_symmetry_Int_Tables_number   1
_chemical_formula_structural   DyEr11ZnCo4Bi
_chemical_formula_sum   'Dy1 Er11 Zn1 Co4 Bi1'
_cell_volume   438.68635447
_cell_formula_units_Z   1
loop_
 _symmetry_equiv_pos_site_id
 _symmetry_equiv_pos_as_xyz
  1  'x, y, z'
loop_
 _atom_site_type_symbol
 _atom_site_label
 _atom_site_symmetry_multiplicity
 _atom_site_fract_x
 _atom_site_fract_y
 _atom_site_fract_z
 _atom_site_occupancy
  Dy  Dy0  1  0.286172  0.182678  0.468852  1
  Er  Er1  1  0.713652  0.817519  0.531169  1
  Er  Er2  1  0.286409  0.817202  0.103611  1
  Er  Er3  1  0.713676  0.182408  0.896084  1
  Er  Er4  1  0.622133  0.313858  0.308084  1
  Er  Er5  1  0.378226  0.686699  0.692000  1
  Er  Er6  1  0.005301  0.313773  0.692000  1
  Er  Er7  1  0.994226  0.685953  0.308084  1
  Er  Er8  1  0.218661  0.425044  0.205948  1
  Er  Er9  1  0.781729  0.575568  0.794218  1
  Er  Er10  1  0.218650  0.012489  0.794218  1
  Er  Er11  1  0.780905  0.987288  0.205948  1
  Zn  Zn12  1  0.999691  0.999875  0.999566  1
  Co  Co13  1  0.999627  0.376593  0.376220  1
  Co  Co14  1  0.000141  0.623541  0.623682  1
  Co  Co15  1  0.387745  0.887121  0.500143  1
  Co  Co16  1  0.613021  0.112397  0.500143  1
  Bi  Bi17  1  0.500036  0.499994  0.000030  1
