# generated using pymatgen
data_Hf4B3(Ru5Au)2
_symmetry_space_group_name_H-M   'P 1'
_cell_length_a   4.13015000
_cell_length_b   4.13015000
_cell_length_c   16.31187600
_cell_angle_alpha   90.00000000
_cell_angle_beta   90.00000000
_cell_angle_gamma   90.00000000
_symmetry_Int_Tables_number   1
_chemical_formula_structural   Hf4B3(Ru5Au)2
_chemical_formula_sum   'Hf4 B3 Ru10 Au2'
_cell_volume   278.25024853
_cell_formula_units_Z   1
loop_
 _symmetry_equiv_pos_site_id
 _symmetry_equiv_pos_as_xyz
  1  'x, y, z'
loop_
 _atom_site_type_symbol
 _atom_site_label
 _atom_site_symmetry_multiplicity
 _atom_site_fract_x
 _atom_site_fract_y
 _atom_site_fract_z
 _atom_site_occupancy
  Hf  Hf0  1  0.000000  0.000000  0.866584  1
  Hf  Hf1  1  0.000000  0.000000  0.133416  1
  Hf  Hf2  1  0.000000  0.000000  0.376310  1
  Hf  Hf3  1  0.000000  0.000000  0.623690  1
  B  B4  1  0.500000  0.500000  0.244820  1
  B  B5  1  0.500000  0.500000  0.500000  1
  B  B6  1  0.500000  0.500000  0.755180  1
  Ru  Ru7  1  0.500000  0.500000  0.879520  1
  Ru  Ru8  1  0.500000  0.500000  0.120480  1
  Ru  Ru9  1  0.500000  0.500000  0.373493  1
  Ru  Ru10  1  0.500000  0.500000  0.626507  1
  Ru  Ru11  1  0.500000  0.000000  0.249069  1
  Ru  Ru12  1  0.500000  0.000000  0.500000  1
  Ru  Ru13  1  0.500000  0.000000  0.750931  1
  Ru  Ru14  1  0.000000  0.500000  0.249069  1
  Ru  Ru15  1  0.000000  0.500000  0.500000  1
  Ru  Ru16  1  0.000000  0.500000  0.750931  1
  Au  Au17  1  0.500000  0.000000  0.000000  1
  Au  Au18  1  0.000000  0.500000  0.000000  1
