# generated using pymatgen
data_Tb17Er(ScPb8)2
_symmetry_space_group_name_H-M   'P 1'
_cell_length_a   8.16430100
_cell_length_b   8.25967814
_cell_length_c   15.65325400
_cell_angle_alpha   90.00000000
_cell_angle_beta   90.00000000
_cell_angle_gamma   89.98953930
_symmetry_Int_Tables_number   1
_chemical_formula_structural   Tb17Er(ScPb8)2
_chemical_formula_sum   'Tb17 Er1 Sc2 Pb16'
_cell_volume   1055.56931546
_cell_formula_units_Z   1
loop_
 _symmetry_equiv_pos_site_id
 _symmetry_equiv_pos_as_xyz
  1  'x, y, z'
loop_
 _atom_site_type_symbol
 _atom_site_label
 _atom_site_symmetry_multiplicity
 _atom_site_fract_x
 _atom_site_fract_y
 _atom_site_fract_z
 _atom_site_occupancy
  Tb  Tb0  1  0.375947  0.841807  0.878661  1
  Tb  Tb1  1  0.877071  0.657311  0.620885  1
  Tb  Tb2  1  0.624437  0.158623  0.379357  1
  Tb  Tb3  1  0.122505  0.342672  0.120646  1
  Tb  Tb4  1  0.624437  0.158623  0.120643  1
  Tb  Tb5  1  0.122505  0.342672  0.379354  1
  Tb  Tb6  1  0.375947  0.841807  0.621339  1
  Tb  Tb7  1  0.877071  0.657311  0.879115  1
  Tb  Tb8  1  0.533852  0.323769  0.900689  1
  Tb  Tb9  1  0.034929  0.177257  0.600057  1
  Tb  Tb10  1  0.466507  0.675816  0.400767  1
  Tb  Tb11  1  0.964953  0.822424  0.099586  1
  Tb  Tb12  1  0.466507  0.675816  0.099233  1
  Tb  Tb13  1  0.964953  0.822424  0.400414  1
  Tb  Tb14  1  0.533852  0.323769  0.599311  1
  Tb  Tb15  1  0.034929  0.177257  0.899943  1
  Tb  Tb16  1  0.292023  0.003788  0.250000  1
  Er  Er17  1  0.708185  0.995657  0.750000  1
  Sc  Sc18  1  0.208950  0.504171  0.750000  1
  Sc  Sc19  1  0.790915  0.495478  0.250000  1
  Pb  Pb20  1  0.281609  0.033632  0.042823  1
  Pb  Pb21  1  0.781960  0.467451  0.454800  1
  Pb  Pb22  1  0.718340  0.966948  0.543953  1
  Pb  Pb23  1  0.218281  0.532809  0.954471  1
  Pb  Pb24  1  0.718340  0.966948  0.956047  1
  Pb  Pb25  1  0.218281  0.532809  0.545529  1
  Pb  Pb26  1  0.281609  0.033632  0.457177  1
  Pb  Pb27  1  0.781960  0.467451  0.045200  1
  Pb  Pb28  1  0.567377  0.622906  0.750000  1
  Pb  Pb29  1  0.072623  0.871626  0.750000  1
  Pb  Pb30  1  0.432909  0.377652  0.250000  1
  Pb  Pb31  1  0.925705  0.129316  0.250000  1
  Pb  Pb32  1  0.344183  0.159567  0.750000  1
  Pb  Pb33  1  0.848833  0.347491  0.750000  1
  Pb  Pb34  1  0.656929  0.840606  0.250000  1
  Pb  Pb35  1  0.150588  0.650707  0.250000  1
