# generated using pymatgen
data_EuMo2Se2O11
_symmetry_space_group_name_H-M   'P 1'
_cell_length_a   8.27096762
_cell_length_b   8.17963278
_cell_length_c   8.82028656
_cell_angle_alpha   84.87244087
_cell_angle_beta   112.95897918
_cell_angle_gamma   111.23480789
_symmetry_Int_Tables_number   1
_chemical_formula_structural   EuMo2Se2O11
_chemical_formula_sum   'Eu2 Mo4 Se4 O22'
_cell_volume   511.21004755
_cell_formula_units_Z   2
loop_
 _symmetry_equiv_pos_site_id
 _symmetry_equiv_pos_as_xyz
  1  'x, y, z'
loop_
 _atom_site_type_symbol
 _atom_site_label
 _atom_site_symmetry_multiplicity
 _atom_site_fract_x
 _atom_site_fract_y
 _atom_site_fract_z
 _atom_site_occupancy
  Eu  Eu0  1  0.570834  0.775259  0.525010  1
  Eu  Eu1  1  0.429166  0.224741  0.474990  1
  Mo  Mo2  1  0.717474  0.622451  0.193627  1
  Mo  Mo3  1  0.282526  0.377549  0.806373  1
  Mo  Mo4  1  0.711939  0.028639  0.947854  1
  Mo  Mo5  1  0.288061  0.971361  0.052146  1
  Se  Se6  1  0.745133  0.448249  0.847772  1
  Se  Se7  1  0.254867  0.551751  0.152228  1
  Se  Se8  1  0.750493  0.220270  0.314990  1
  Se  Se9  1  0.249507  0.779730  0.685010  1
  O  O10  1  0.929669  0.601434  0.222853  1
  O  O11  1  0.070331  0.398566  0.777147  1
  O  O12  1  0.750034  0.718075  0.380565  1
  O  O13  1  0.249966  0.281925  0.619435  1
  O  O14  1  0.727375  0.823824  0.075373  1
  O  O15  1  0.272625  0.176176  0.924627  1
  O  O16  1  0.636440  0.369611  0.292936  1
  O  O17  1  0.363560  0.630389  0.707064  1
  O  O18  1  0.595474  0.474534  0.936095  1
  O  O19  1  0.404526  0.525466  0.063905  1
  O  O20  1  0.926844  0.185775  0.064082  1
  O  O21  1  0.073156  0.814225  0.935918  1
  O  O22  1  0.731718  0.943569  0.779635  1
  O  O23  1  0.268282  0.056431  0.220365  1
  O  O24  1  0.628472  0.221864  0.792733  1
  O  O25  1  0.371528  0.778136  0.207267  1
  O  O26  1  0.599323  0.092566  0.126587  1
  O  O27  1  0.400677  0.907434  0.873413  1
  O  O28  1  0.659203  0.515047  0.654808  1
  O  O29  1  0.340797  0.484953  0.345192  1
  O  O30  1  0.668938  0.096113  0.452180  1
  O  O31  1  0.331062  0.903887  0.547820  1
