# generated using pymatgen
data_La6GeTe7
_symmetry_space_group_name_H-M   'P 1'
_cell_length_a   8.32218882
_cell_length_b   8.27236719
_cell_length_c   8.27236700
_cell_angle_alpha   109.34889390
_cell_angle_beta   109.59326712
_cell_angle_gamma   109.59327735
_symmetry_Int_Tables_number   1
_chemical_formula_structural   La6GeTe7
_chemical_formula_sum   'La6 Ge1 Te7'
_cell_volume   437.74267047
_cell_formula_units_Z   1
loop_
 _symmetry_equiv_pos_site_id
 _symmetry_equiv_pos_as_xyz
  1  'x, y, z'
loop_
 _atom_site_type_symbol
 _atom_site_label
 _atom_site_symmetry_multiplicity
 _atom_site_fract_x
 _atom_site_fract_y
 _atom_site_fract_z
 _atom_site_occupancy
  La  La0  1  0.866116  0.755801  0.120112  1
  La  La1  1  0.110315  0.364311  0.244199  1
  La  La2  1  0.626608  0.238553  0.360390  1
  La  La3  1  0.746004  0.879886  0.635687  1
  La  La4  1  0.388057  0.121840  0.761447  1
  La  La5  1  0.266217  0.639608  0.878160  1
  Ge  Ge6  1  0.654897  0.000000  0.000000  1
  Te  Te7  1  0.153309  0.000000  0.000000  1
  Te  Te8  1  0.498436  0.500483  0.154571  1
  Te  Te9  1  0.343866  0.845429  0.345913  1
  Te  Te10  1  0.000916  0.152898  0.501628  1
  Te  Te11  1  0.997953  0.654087  0.499517  1
  Te  Te12  1  0.499287  0.498372  0.651270  1
  Te  Te13  1  0.848018  0.348730  0.847102  1
