# generated using pymatgen
data_Ce8Ho12Si15Sb
_symmetry_space_group_name_H-M   'P 1'
_cell_length_a   7.60756700
_cell_length_b   7.89509591
_cell_length_c   14.92101200
_cell_angle_alpha   90.00000000
_cell_angle_beta   90.00000000
_cell_angle_gamma   90.35776458
_symmetry_Int_Tables_number   1
_chemical_formula_structural   Ce8Ho12Si15Sb
_chemical_formula_sum   'Ce8 Ho12 Si15 Sb1'
_cell_volume   896.17538141
_cell_formula_units_Z   1
loop_
 _symmetry_equiv_pos_site_id
 _symmetry_equiv_pos_as_xyz
  1  'x, y, z'
loop_
 _atom_site_type_symbol
 _atom_site_label
 _atom_site_symmetry_multiplicity
 _atom_site_fract_x
 _atom_site_fract_y
 _atom_site_fract_z
 _atom_site_occupancy
  Ce  Ce0  1  0.986536  0.167422  0.091667  1
  Ce  Ce1  1  0.472507  0.322275  0.403348  1
  Ce  Ce2  1  0.522689  0.678537  0.901428  1
  Ce  Ce3  1  0.022764  0.820966  0.599265  1
  Ce  Ce4  1  0.022764  0.820966  0.900735  1
  Ce  Ce5  1  0.522689  0.678537  0.598572  1
  Ce  Ce6  1  0.472507  0.322275  0.096652  1
  Ce  Ce7  1  0.986536  0.167422  0.408333  1
  Ho  Ho8  1  0.648256  0.998384  0.250000  1
  Ho  Ho9  1  0.165688  0.490989  0.250000  1
  Ho  Ho10  1  0.845570  0.515844  0.750000  1
  Ho  Ho11  1  0.346219  0.985254  0.750000  1
  Ho  Ho12  1  0.822282  0.683831  0.120706  1
  Ho  Ho13  1  0.316259  0.823253  0.379238  1
  Ho  Ho14  1  0.678786  0.179315  0.876938  1
  Ho  Ho15  1  0.178869  0.321956  0.623664  1
  Ho  Ho16  1  0.178869  0.321956  0.876336  1
  Ho  Ho17  1  0.678786  0.179315  0.623062  1
  Ho  Ho18  1  0.316259  0.823253  0.120762  1
  Ho  Ho19  1  0.822282  0.683831  0.379294  1
  Si  Si20  1  0.274637  0.124639  0.250000  1
  Si  Si21  1  0.727380  0.878847  0.750000  1
  Si  Si22  1  0.228823  0.621702  0.750000  1
  Si  Si23  1  0.025563  0.889004  0.250000  1
  Si  Si24  1  0.519442  0.631667  0.250000  1
  Si  Si25  1  0.472432  0.391863  0.750000  1
  Si  Si26  1  0.971608  0.108200  0.750000  1
  Si  Si27  1  0.853236  0.470913  0.960158  1
  Si  Si28  1  0.352967  0.029451  0.540958  1
  Si  Si29  1  0.644269  0.973354  0.039163  1
  Si  Si30  1  0.144517  0.527934  0.460889  1
  Si  Si31  1  0.144517  0.527934  0.039111  1
  Si  Si32  1  0.644269  0.973354  0.460837  1
  Si  Si33  1  0.352967  0.029451  0.959042  1
  Si  Si34  1  0.853236  0.470913  0.539842  1
  Sb  Sb35  1  0.783025  0.365191  0.250000  1
