# generated using pymatgen
data_ThNpB6W
_symmetry_space_group_name_H-M   'P 1'
_cell_length_a   3.77135700
_cell_length_b   9.39160100
_cell_length_c   11.49638200
_cell_angle_alpha   90.00000000
_cell_angle_beta   90.00000000
_cell_angle_gamma   90.00000000
_symmetry_Int_Tables_number   1
_chemical_formula_structural   ThNpB6W
_chemical_formula_sum   'Th4 Np4 B24 W4'
_cell_volume   407.19127575
_cell_formula_units_Z   4
loop_
 _symmetry_equiv_pos_site_id
 _symmetry_equiv_pos_as_xyz
  1  'x, y, z'
loop_
 _atom_site_type_symbol
 _atom_site_label
 _atom_site_symmetry_multiplicity
 _atom_site_fract_x
 _atom_site_fract_y
 _atom_site_fract_z
 _atom_site_occupancy
  Th  Th0  1  0.000000  0.335029  0.407664  1
  Th  Th1  1  0.000000  0.664971  0.592336  1
  Th  Th2  1  0.000000  0.835029  0.092336  1
  Th  Th3  1  0.000000  0.164971  0.907664  1
  Np  Np4  1  0.000000  0.959597  0.400597  1
  Np  Np5  1  0.000000  0.040403  0.599403  1
  Np  Np6  1  0.000000  0.459597  0.099403  1
  Np  Np7  1  0.000000  0.540403  0.900597  1
  B  B8  1  0.500000  0.555581  0.428650  1
  B  B9  1  0.500000  0.444419  0.571350  1
  B  B10  1  0.500000  0.055581  0.071350  1
  B  B11  1  0.500000  0.944419  0.928650  1
  B  B12  1  0.500000  0.748101  0.421257  1
  B  B13  1  0.500000  0.251899  0.578743  1
  B  B14  1  0.500000  0.248101  0.078743  1
  B  B15  1  0.500000  0.751899  0.921257  1
  B  B16  1  0.500000  0.804820  0.274876  1
  B  B17  1  0.500000  0.195180  0.725124  1
  B  B18  1  0.500000  0.304820  0.225124  1
  B  B19  1  0.500000  0.695180  0.774876  1
  B  B20  1  0.500000  0.642644  0.187006  1
  B  B21  1  0.500000  0.357356  0.812994  1
  B  B22  1  0.500000  0.142644  0.312994  1
  B  B23  1  0.500000  0.857356  0.687006  1
  B  B24  1  0.500000  0.990239  0.222160  1
  B  B25  1  0.500000  0.009761  0.777840  1
  B  B26  1  0.500000  0.490239  0.277840  1
  B  B27  1  0.500000  0.509761  0.722160  1
  B  B28  1  0.500000  0.633547  0.036512  1
  B  B29  1  0.500000  0.366453  0.963488  1
  B  B30  1  0.500000  0.133547  0.463488  1
  B  B31  1  0.500000  0.866453  0.536512  1
  W  W32  1  0.000000  0.648134  0.317220  1
  W  W33  1  0.000000  0.351866  0.682780  1
  W  W34  1  0.000000  0.148134  0.182780  1
  W  W35  1  0.000000  0.851866  0.817220  1
