# generated using pymatgen
data_Tb3Er5Al4
_symmetry_space_group_name_H-M   'P 1'
_cell_length_a   5.08998900
_cell_length_b   6.54327979
_cell_length_c   9.39644156
_cell_angle_alpha   90.18756935
_cell_angle_beta   90.00000000
_cell_angle_gamma   90.00000000
_symmetry_Int_Tables_number   1
_chemical_formula_structural   Tb3Er5Al4
_chemical_formula_sum   'Tb3 Er5 Al4'
_cell_volume   312.94889642
_cell_formula_units_Z   1
loop_
 _symmetry_equiv_pos_site_id
 _symmetry_equiv_pos_as_xyz
  1  'x, y, z'
loop_
 _atom_site_type_symbol
 _atom_site_label
 _atom_site_symmetry_multiplicity
 _atom_site_fract_x
 _atom_site_fract_y
 _atom_site_fract_z
 _atom_site_occupancy
  Tb  Tb0  1  0.250000  0.809137  0.927832  1
  Tb  Tb1  1  0.250000  0.312472  0.571865  1
  Tb  Tb2  1  0.750000  0.189901  0.071587  1
  Er  Er3  1  0.750000  0.689096  0.428533  1
  Er  Er4  1  0.250000  0.968995  0.289509  1
  Er  Er5  1  0.250000  0.470713  0.211700  1
  Er  Er6  1  0.750000  0.028546  0.710203  1
  Er  Er7  1  0.750000  0.529846  0.788616  1
  Al  Al8  1  0.250000  0.292209  0.896216  1
  Al  Al9  1  0.250000  0.791949  0.601154  1
  Al  Al10  1  0.750000  0.708229  0.106113  1
  Al  Al11  1  0.750000  0.208907  0.396673  1
