# generated using pymatgen
data_YbDy6FeCl12
_symmetry_space_group_name_H-M   'P 1'
_cell_length_a   8.88486544
_cell_length_b   8.79205180
_cell_length_c   8.79350234
_cell_angle_alpha   106.53003913
_cell_angle_beta   107.05127631
_cell_angle_gamma   106.69033577
_symmetry_Int_Tables_number   1
_chemical_formula_structural   YbDy6FeCl12
_chemical_formula_sum   'Yb1 Dy6 Fe1 Cl12'
_cell_volume   575.80636067
_cell_formula_units_Z   1
loop_
 _symmetry_equiv_pos_site_id
 _symmetry_equiv_pos_as_xyz
  1  'x, y, z'
loop_
 _atom_site_type_symbol
 _atom_site_label
 _atom_site_symmetry_multiplicity
 _atom_site_fract_x
 _atom_site_fract_y
 _atom_site_fract_z
 _atom_site_occupancy
  Yb  Yb0  1  0.500000  0.500000  0.500000  1
  Dy  Dy1  1  0.318269  0.108356  0.022825  1
  Dy  Dy2  1  0.022756  0.310026  0.104379  1
  Dy  Dy3  1  0.104721  0.022921  0.311054  1
  Dy  Dy4  1  0.895278  0.977079  0.688946  1
  Dy  Dy5  1  0.977244  0.689974  0.895620  1
  Dy  Dy6  1  0.681731  0.891644  0.977174  1
  Fe  Fe7  1  0.000000  0.000000  0.000000  1
  Cl  Cl8  1  0.681122  0.215624  0.072426  1
  Cl  Cl9  1  0.372548  0.453017  0.161427  1
  Cl  Cl10  1  0.072893  0.681516  0.216402  1
  Cl  Cl11  1  0.785220  0.927729  0.320362  1
  Cl  Cl12  1  0.451404  0.161069  0.373139  1
  Cl  Cl13  1  0.163189  0.373656  0.452040  1
  Cl  Cl14  1  0.836812  0.626344  0.547961  1
  Cl  Cl15  1  0.548596  0.838932  0.626861  1
  Cl  Cl16  1  0.214779  0.072271  0.679638  1
  Cl  Cl17  1  0.927107  0.318484  0.783597  1
  Cl  Cl18  1  0.627453  0.546984  0.838573  1
  Cl  Cl19  1  0.318878  0.784375  0.927574  1
