# generated using pymatgen
data_Na2Nb5Fe(Co4P3)4
_symmetry_space_group_name_H-M   'P 1'
_cell_length_a   11.90409900
_cell_length_b   11.94185779
_cell_length_c   3.58519900
_cell_angle_alpha   90.00000000
_cell_angle_beta   90.00000000
_cell_angle_gamma   119.89546343
_symmetry_Int_Tables_number   1
_chemical_formula_structural   Na2Nb5Fe(Co4P3)4
_chemical_formula_sum   'Na2 Nb5 Fe1 Co16 P12'
_cell_volume   441.84387330
_cell_formula_units_Z   1
loop_
 _symmetry_equiv_pos_site_id
 _symmetry_equiv_pos_as_xyz
  1  'x, y, z'
loop_
 _atom_site_type_symbol
 _atom_site_label
 _atom_site_symmetry_multiplicity
 _atom_site_fract_x
 _atom_site_fract_y
 _atom_site_fract_z
 _atom_site_occupancy
  Na  Na0  1  0.332182  0.668331  0.000000  1
  Na  Na1  1  0.663852  0.331669  0.000000  1
  Nb  Nb2  1  0.816931  0.000000  0.500000  1
  Nb  Nb3  1  0.000583  0.821676  0.500000  1
  Nb  Nb4  1  0.178907  0.178324  0.500000  1
  Nb  Nb5  1  0.999298  0.443819  0.000000  1
  Nb  Nb6  1  0.555479  0.556181  0.000000  1
  Fe  Fe7  1  0.448856  0.000000  0.000000  1
  Co  Co8  1  0.280490  0.000000  0.500000  1
  Co  Co9  1  0.998866  0.274385  0.500000  1
  Co  Co10  1  0.724481  0.725615  0.500000  1
  Co  Co11  1  0.633769  0.810509  0.000000  1
  Co  Co12  1  0.197323  0.828711  0.000000  1
  Co  Co13  1  0.173321  0.363008  0.000000  1
  Co  Co14  1  0.368613  0.171289  0.000000  1
  Co  Co15  1  0.810314  0.636992  0.000000  1
  Co  Co16  1  0.823260  0.189491  0.000000  1
  Co  Co17  1  0.521431  0.876652  0.500000  1
  Co  Co18  1  0.126461  0.651971  0.500000  1
  Co  Co19  1  0.350813  0.473265  0.500000  1
  Co  Co20  1  0.474489  0.348029  0.500000  1
  Co  Co21  1  0.877549  0.526735  0.500000  1
  Co  Co22  1  0.644779  0.123348  0.500000  1
  Co  Co23  1  0.001295  0.000000  0.000000  1
  P  P24  1  0.175387  0.000000  0.000000  1
  P  P25  1  0.997867  0.170740  0.000000  1
  P  P26  1  0.827127  0.829260  0.000000  1
  P  P27  1  0.515508  0.688914  0.500000  1
  P  P28  1  0.319224  0.837515  0.500000  1
  P  P29  1  0.171275  0.482940  0.500000  1
  P  P30  1  0.481709  0.162485  0.500000  1
  P  P31  1  0.688334  0.517060  0.500000  1
  P  P32  1  0.826593  0.311086  0.500000  1
  P  P33  1  0.636940  0.000000  0.000000  1
  P  P34  1  0.004913  0.653131  0.000000  1
  P  P35  1  0.351782  0.346869  0.000000  1
