# generated using pymatgen
data_Y4Al2Si8(IrRh)3
_symmetry_space_group_name_H-M   'P 1'
_cell_length_a   8.17154301
_cell_length_b   8.18207665
_cell_length_c   5.71834337
_cell_angle_alpha   71.60352880
_cell_angle_beta   71.38122175
_cell_angle_gamma   93.42596727
_symmetry_Int_Tables_number   1
_chemical_formula_structural   Y4Al2Si8(IrRh)3
_chemical_formula_sum   'Y4 Al2 Si8 Ir3 Rh3'
_cell_volume   338.28186877
_cell_formula_units_Z   1
loop_
 _symmetry_equiv_pos_site_id
 _symmetry_equiv_pos_as_xyz
  1  'x, y, z'
loop_
 _atom_site_type_symbol
 _atom_site_label
 _atom_site_symmetry_multiplicity
 _atom_site_fract_x
 _atom_site_fract_y
 _atom_site_fract_z
 _atom_site_occupancy
  Y  Y0  1  0.866535  0.600164  0.756825  1
  Y  Y1  1  0.133230  0.400027  0.242135  1
  Y  Y2  1  0.399407  0.133160  0.743705  1
  Y  Y3  1  0.600448  0.866986  0.257439  1
  Al  Al4  1  0.773092  0.227959  0.749717  1
  Al  Al5  1  0.226659  0.771971  0.252111  1
  Si  Si6  1  0.518124  0.481617  0.752014  1
  Si  Si7  1  0.481357  0.518472  0.248525  1
  Si  Si8  1  0.211655  0.788185  0.747367  1
  Si  Si9  1  0.789301  0.211638  0.249057  1
  Si  Si10  1  0.264612  0.059602  0.339042  1
  Si  Si11  1  0.735051  0.939593  0.662182  1
  Si  Si12  1  0.940367  0.734500  0.160887  1
  Si  Si13  1  0.061086  0.265929  0.837469  1
  Ir  Ir14  1  0.533482  0.259753  0.141317  1
  Ir  Ir15  1  0.738685  0.466147  0.359824  1
  Ir  Ir16  1  0.465708  0.739976  0.859773  1
  Rh  Rh17  1  0.262180  0.534300  0.640016  1
  Rh  Rh18  1  0.994316  0.005365  0.250233  1
  Rh  Rh19  1  0.004704  0.994657  0.750361  1
