# generated using pymatgen
data_Yb2DyOsO6
_symmetry_space_group_name_H-M   'P 1'
_cell_length_a   5.53199836
_cell_length_b   5.79423800
_cell_length_c   9.66883365
_cell_angle_alpha   90.00000000
_cell_angle_beta   124.09276913
_cell_angle_gamma   90.00000000
_symmetry_Int_Tables_number   1
_chemical_formula_structural   Yb2DyOsO6
_chemical_formula_sum   'Yb4 Dy2 Os2 O12'
_cell_volume   256.65607365
_cell_formula_units_Z   2
loop_
 _symmetry_equiv_pos_site_id
 _symmetry_equiv_pos_as_xyz
  1  'x, y, z'
loop_
 _atom_site_type_symbol
 _atom_site_label
 _atom_site_symmetry_multiplicity
 _atom_site_fract_x
 _atom_site_fract_y
 _atom_site_fract_z
 _atom_site_occupancy
  Yb  Yb0  1  0.230580  0.437083  0.750936  1
  Yb  Yb1  1  0.230580  0.062917  0.250936  1
  Yb  Yb2  1  0.769420  0.562917  0.249064  1
  Yb  Yb3  1  0.769420  0.937083  0.749064  1
  Dy  Dy4  1  0.500000  0.500000  0.500000  1
  Dy  Dy5  1  0.500000  0.000000  0.000000  1
  Os  Os6  1  0.000000  0.500000  0.000000  1
  Os  Os7  1  0.000000  0.000000  0.500000  1
  O  O8  1  0.768729  0.183411  0.559196  1
  O  O9  1  0.768729  0.316589  0.059196  1
  O  O10  1  0.231271  0.816589  0.440804  1
  O  O11  1  0.231271  0.683411  0.940804  1
  O  O12  1  0.890478  0.712380  0.565821  1
  O  O13  1  0.890478  0.787620  0.065821  1
  O  O14  1  0.109522  0.287620  0.434179  1
  O  O15  1  0.109522  0.212380  0.934179  1
  O  O16  1  0.350281  0.047556  0.731971  1
  O  O17  1  0.350281  0.452444  0.231971  1
  O  O18  1  0.649719  0.952444  0.268029  1
  O  O19  1  0.649719  0.547556  0.768029  1
