# generated using pymatgen
data_La11Pr5Cd4Ir3Pt
_symmetry_space_group_name_H-M   'P 1'
_cell_length_a   10.12480787
_cell_length_b   10.11778424
_cell_length_c   10.11778499
_cell_angle_alpha   60.12383963
_cell_angle_beta   60.16647258
_cell_angle_gamma   60.16646982
_symmetry_Int_Tables_number   1
_chemical_formula_structural   La11Pr5Cd4Ir3Pt
_chemical_formula_sum   'La11 Pr5 Cd4 Ir3 Pt1'
_cell_volume   735.42385364
_cell_formula_units_Z   1
loop_
 _symmetry_equiv_pos_site_id
 _symmetry_equiv_pos_as_xyz
  1  'x, y, z'
loop_
 _atom_site_type_symbol
 _atom_site_label
 _atom_site_symmetry_multiplicity
 _atom_site_fract_x
 _atom_site_fract_y
 _atom_site_fract_z
 _atom_site_occupancy
  La  La0  1  0.346714  0.346051  0.346051  1
  La  La1  1  0.350991  0.350491  0.953908  1
  La  La2  1  0.350991  0.953908  0.350491  1
  La  La3  1  0.953950  0.350575  0.350575  1
  La  La4  1  0.804813  0.191050  0.191050  1
  La  La5  1  0.189977  0.808784  0.808784  1
  La  La6  1  0.191166  0.805411  0.190467  1
  La  La7  1  0.808513  0.189508  0.809105  1
  La  La8  1  0.191166  0.190467  0.805411  1
  La  La9  1  0.808513  0.809105  0.189508  1
  La  La10  1  0.939774  0.562629  0.562629  1
  Pr  Pr11  1  0.562865  0.937282  0.937282  1
  Pr  Pr12  1  0.562435  0.939819  0.563317  1
  Pr  Pr13  1  0.937527  0.562755  0.938084  1
  Pr  Pr14  1  0.562435  0.563317  0.939819  1
  Pr  Pr15  1  0.937527  0.938084  0.562755  1
  Cd  Cd16  1  0.579658  0.580238  0.580238  1
  Cd  Cd17  1  0.580229  0.580133  0.259502  1
  Cd  Cd18  1  0.580229  0.259502  0.580133  1
  Cd  Cd19  1  0.259989  0.580317  0.580317  1
  Ir  Ir20  1  0.141227  0.141174  0.576157  1
  Ir  Ir21  1  0.141227  0.576157  0.141174  1
  Ir  Ir22  1  0.575998  0.141203  0.141203  1
  Pt  Pt23  1  0.142088  0.142037  0.142037  1
