# generated using pymatgen
data_Pr5ThBiO12
_symmetry_space_group_name_H-M   'P 1'
_cell_length_a   6.84310159
_cell_length_b   6.87589721
_cell_length_c   6.85139172
_cell_angle_alpha   98.74853626
_cell_angle_beta   98.78044814
_cell_angle_gamma   99.09187844
_symmetry_Int_Tables_number   1
_chemical_formula_structural   Pr5ThBiO12
_chemical_formula_sum   'Pr5 Th1 Bi1 O12'
_cell_volume   309.42230788
_cell_formula_units_Z   1
loop_
 _symmetry_equiv_pos_site_id
 _symmetry_equiv_pos_as_xyz
  1  'x, y, z'
loop_
 _atom_site_type_symbol
 _atom_site_label
 _atom_site_symmetry_multiplicity
 _atom_site_fract_x
 _atom_site_fract_y
 _atom_site_fract_z
 _atom_site_occupancy
  Pr  Pr0  1  0.691461  0.855413  0.389688  1
  Pr  Pr1  1  0.391840  0.695721  0.858724  1
  Pr  Pr2  1  0.143771  0.610050  0.306441  1
  Pr  Pr3  1  0.307252  0.138125  0.608223  1
  Pr  Pr4  1  0.606866  0.306997  0.143008  1
  Th  Th5  1  0.858254  0.393899  0.692858  1
  Bi  Bi6  1  0.998871  0.001696  0.000280  1
  O  O7  1  0.951812  0.309506  0.062192  1
  O  O8  1  0.068898  0.953773  0.305399  1
  O  O9  1  0.307136  0.065718  0.954830  1
  O  O10  1  0.039585  0.690535  0.926514  1
  O  O11  1  0.932531  0.050629  0.693270  1
  O  O12  1  0.692446  0.933283  0.044746  1
  O  O13  1  0.600536  0.181479  0.444290  1
  O  O14  1  0.437447  0.586684  0.175819  1
  O  O15  1  0.168621  0.432860  0.594663  1
  O  O16  1  0.408575  0.820484  0.560850  1
  O  O17  1  0.571534  0.412020  0.817106  1
  O  O18  1  0.822564  0.561126  0.421099  1
