# generated using pymatgen
data_Ca2Ta3Hg2SbO14
_symmetry_space_group_name_H-M   'P 1'
_cell_length_a   7.48602632
_cell_length_b   7.62269159
_cell_length_c   7.44762476
_cell_angle_alpha   59.21932012
_cell_angle_beta   58.83118444
_cell_angle_gamma   59.39422590
_symmetry_Int_Tables_number   1
_chemical_formula_structural   Ca2Ta3Hg2SbO14
_chemical_formula_sum   'Ca2 Ta3 Hg2 Sb1 O14'
_cell_volume   294.66362679
_cell_formula_units_Z   1
loop_
 _symmetry_equiv_pos_site_id
 _symmetry_equiv_pos_as_xyz
  1  'x, y, z'
loop_
 _atom_site_type_symbol
 _atom_site_label
 _atom_site_symmetry_multiplicity
 _atom_site_fract_x
 _atom_site_fract_y
 _atom_site_fract_z
 _atom_site_occupancy
  Ca  Ca0  1  0.625000  0.625000  0.625000  1
  Ca  Ca1  1  0.625000  0.125000  0.625000  1
  Ta  Ta2  1  0.125000  0.625000  0.125000  1
  Ta  Ta3  1  0.125000  0.125000  0.125000  1
  Ta  Ta4  1  0.625000  0.125000  0.125000  1
  Hg  Hg5  1  0.625000  0.625000  0.125000  1
  Hg  Hg6  1  0.125000  0.625000  0.625000  1
  Sb  Sb7  1  0.125000  0.125000  0.625000  1
  O  O8  1  0.808851  0.813203  0.197620  1
  O  O9  1  0.801876  0.199124  0.799875  1
  O  O10  1  0.048092  0.064679  0.446260  1
  O  O11  1  0.808851  0.180326  0.197620  1
  O  O12  1  0.441149  0.436797  0.052380  1
  O  O13  1  0.067615  0.433396  0.065594  1
  O  O14  1  0.201908  0.809029  0.803740  1
  O  O15  1  0.448124  0.050876  0.450125  1
  O  O16  1  0.489921  0.512169  0.485740  1
  O  O17  1  0.182385  0.816604  0.184406  1
  O  O18  1  0.201908  0.185321  0.803740  1
  O  O19  1  0.760079  0.737831  0.764260  1
  O  O20  1  0.441149  0.069674  0.052380  1
  O  O21  1  0.048092  0.440971  0.446260  1
