# generated using pymatgen
data_Th6Mg6Cd17Si
_symmetry_space_group_name_H-M   'P 1'
_cell_length_a   9.98078071
_cell_length_b   10.04587448
_cell_length_c   10.04587300
_cell_angle_alpha   60.17535018
_cell_angle_beta   60.21411046
_cell_angle_gamma   60.21410595
_symmetry_Int_Tables_number   1
_chemical_formula_structural   Th6Mg6Cd17Si
_chemical_formula_sum   'Th6 Mg6 Cd17 Si1'
_cell_volume   715.48215881
_cell_formula_units_Z   1
loop_
 _symmetry_equiv_pos_site_id
 _symmetry_equiv_pos_as_xyz
  1  'x, y, z'
loop_
 _atom_site_type_symbol
 _atom_site_label
 _atom_site_symmetry_multiplicity
 _atom_site_fract_x
 _atom_site_fract_y
 _atom_site_fract_z
 _atom_site_occupancy
  Th  Th0  1  0.794293  0.794721  0.205294  1
  Th  Th1  1  0.205707  0.794706  0.205279  1
  Th  Th2  1  0.795822  0.204187  0.204187  1
  Th  Th3  1  0.205707  0.205279  0.794706  1
  Th  Th4  1  0.794293  0.205294  0.794721  1
  Th  Th5  1  0.204178  0.795813  0.795813  1
  Mg  Mg6  1  0.000000  0.000000  0.500000  1
  Mg  Mg7  1  0.500000  0.000000  0.500000  1
  Mg  Mg8  1  0.000000  0.500000  0.500000  1
  Mg  Mg9  1  0.500000  0.500000  0.000000  1
  Mg  Mg10  1  0.000000  0.500000  0.000000  1
  Mg  Mg11  1  0.500000  0.500000  0.500000  1
  Cd  Cd12  1  0.834493  0.832885  0.498127  1
  Cd  Cd13  1  0.834493  0.498127  0.832885  1
  Cd  Cd14  1  0.498884  0.832480  0.832480  1
  Cd  Cd15  1  0.836155  0.832478  0.832478  1
  Cd  Cd16  1  0.165507  0.167115  0.501873  1
  Cd  Cd17  1  0.165507  0.501873  0.167115  1
  Cd  Cd18  1  0.501116  0.167520  0.167520  1
  Cd  Cd19  1  0.163845  0.167522  0.167522  1
  Cd  Cd20  1  0.623190  0.617517  0.136111  1
  Cd  Cd21  1  0.623190  0.136111  0.617517  1
  Cd  Cd22  1  0.136178  0.620633  0.620633  1
  Cd  Cd23  1  0.622561  0.620631  0.620631  1
  Cd  Cd24  1  0.376810  0.382483  0.863889  1
  Cd  Cd25  1  0.376810  0.863889  0.382483  1
  Cd  Cd26  1  0.863822  0.379367  0.379367  1
  Cd  Cd27  1  0.377439  0.379369  0.379369  1
  Cd  Cd28  1  0.500000  0.000000  0.000000  1
  Si  Si29  1  0.000000  0.000000  0.000000  1
