# generated using pymatgen
data_Ba2SnPd2
_symmetry_space_group_name_H-M   'P 1'
_cell_length_a   10.02674552
_cell_length_b   8.90969688
_cell_length_c   6.41922413
_cell_angle_alpha   79.90311175
_cell_angle_beta   61.02499706
_cell_angle_gamma   39.07188632
_symmetry_Int_Tables_number   1
_chemical_formula_structural   Ba2SnPd2
_chemical_formula_sum   'Ba4 Sn2 Pd4'
_cell_volume   294.50167505
_cell_formula_units_Z   2
loop_
 _symmetry_equiv_pos_site_id
 _symmetry_equiv_pos_as_xyz
  1  'x, y, z'
loop_
 _atom_site_type_symbol
 _atom_site_label
 _atom_site_symmetry_multiplicity
 _atom_site_fract_x
 _atom_site_fract_y
 _atom_site_fract_z
 _atom_site_occupancy
  Ba  Ba0  1  0.031421  0.064191  0.633475  1
  Ba  Ba1  1  0.270912  0.633475  0.064191  1
  Ba  Ba2  1  0.616525  0.979088  0.218579  1
  Ba  Ba3  1  0.185809  0.218579  0.979088  1
  Sn  Sn4  1  0.892906  0.607094  0.607094  1
  Sn  Sn5  1  0.642906  0.357094  0.357094  1
  Pd  Pd6  1  0.616114  0.633594  0.060785  1
  Pd  Pd7  1  0.689507  0.060785  0.633594  1
  Pd  Pd8  1  0.189215  0.560493  0.633886  1
  Pd  Pd9  1  0.616406  0.633886  0.560493  1
