# generated using pymatgen
data_Hf10CoOs3
_symmetry_space_group_name_H-M   'P 1'
_cell_length_a   8.69179500
_cell_length_b   8.69171872
_cell_length_c   8.46866600
_cell_angle_alpha   90.00000000
_cell_angle_beta   90.00000000
_cell_angle_gamma   119.99925131
_symmetry_Int_Tables_number   1
_chemical_formula_structural   Hf10CoOs3
_chemical_formula_sum   'Hf20 Co2 Os6'
_cell_volume   554.06925352
_cell_formula_units_Z   2
loop_
 _symmetry_equiv_pos_site_id
 _symmetry_equiv_pos_as_xyz
  1  'x, y, z'
loop_
 _atom_site_type_symbol
 _atom_site_label
 _atom_site_symmetry_multiplicity
 _atom_site_fract_x
 _atom_site_fract_y
 _atom_site_fract_z
 _atom_site_occupancy
  Hf  Hf0  1  0.202037  0.797963  0.440480  1
  Hf  Hf1  1  0.202037  0.404075  0.440481  1
  Hf  Hf2  1  0.595925  0.797963  0.440480  1
  Hf  Hf3  1  0.797963  0.202037  0.559520  1
  Hf  Hf4  1  0.797963  0.595925  0.559519  1
  Hf  Hf5  1  0.404075  0.202037  0.559520  1
  Hf  Hf6  1  0.797963  0.202037  0.940480  1
  Hf  Hf7  1  0.797963  0.595925  0.940481  1
  Hf  Hf8  1  0.404075  0.202037  0.940480  1
  Hf  Hf9  1  0.202037  0.797963  0.059520  1
  Hf  Hf10  1  0.202037  0.404075  0.059519  1
  Hf  Hf11  1  0.595925  0.797963  0.059520  1
  Hf  Hf12  1  0.541599  0.458403  0.250000  1
  Hf  Hf13  1  0.541600  0.083196  0.250000  1
  Hf  Hf14  1  0.916802  0.458400  0.250000  1
  Hf  Hf15  1  0.458401  0.541597  0.750000  1
  Hf  Hf16  1  0.458400  0.916804  0.750000  1
  Hf  Hf17  1  0.083198  0.541600  0.750000  1
  Hf  Hf18  1  0.000000  0.000000  0.500000  1
  Hf  Hf19  1  0.000000  0.000000  0.000000  1
  Co  Co20  1  0.333334  0.666667  0.250000  1
  Co  Co21  1  0.666666  0.333333  0.750000  1
  Os  Os22  1  0.881150  0.118855  0.250000  1
  Os  Os23  1  0.881150  0.762293  0.250000  1
  Os  Os24  1  0.237707  0.118850  0.250000  1
  Os  Os25  1  0.118850  0.881145  0.750000  1
  Os  Os26  1  0.118850  0.237707  0.750000  1
  Os  Os27  1  0.762293  0.881150  0.750000  1
