# generated using pymatgen
data_Er2Be2(Ni5H)3
_symmetry_space_group_name_H-M   'P 1'
_cell_length_a   6.19730247
_cell_length_b   6.19730329
_cell_length_c   6.14559594
_cell_angle_alpha   83.53695154
_cell_angle_beta   83.53695013
_cell_angle_gamma   84.24800989
_symmetry_Int_Tables_number   1
_chemical_formula_structural   Er2Be2(Ni5H)3
_chemical_formula_sum   'Er2 Be2 Ni15 H3'
_cell_volume   232.12257636
_cell_formula_units_Z   1
loop_
 _symmetry_equiv_pos_site_id
 _symmetry_equiv_pos_as_xyz
  1  'x, y, z'
loop_
 _atom_site_type_symbol
 _atom_site_label
 _atom_site_symmetry_multiplicity
 _atom_site_fract_x
 _atom_site_fract_y
 _atom_site_fract_z
 _atom_site_occupancy
  Er  Er0  1  0.658323  0.658323  0.654161  1
  Er  Er1  1  0.341677  0.341677  0.345839  1
  Be  Be2  1  0.000000  0.500000  0.000000  1
  Be  Be3  1  0.500000  0.000000  0.000000  1
  Ni  Ni4  1  0.000000  0.000000  0.500000  1
  Ni  Ni5  1  0.287428  0.712572  0.000000  1
  Ni  Ni6  1  0.707358  0.996792  0.283056  1
  Ni  Ni7  1  0.003208  0.292642  0.716944  1
  Ni  Ni8  1  0.292642  0.003208  0.716944  1
  Ni  Ni9  1  0.996792  0.707358  0.283056  1
  Ni  Ni10  1  0.712572  0.287428  0.000000  1
  Ni  Ni11  1  0.345692  0.345692  0.862400  1
  Ni  Ni12  1  0.347169  0.854531  0.341247  1
  Ni  Ni13  1  0.854531  0.347169  0.341247  1
  Ni  Ni14  1  0.654308  0.654308  0.137600  1
  Ni  Ni15  1  0.652831  0.145469  0.658753  1
  Ni  Ni16  1  0.145469  0.652831  0.658753  1
  Ni  Ni17  1  0.898885  0.898885  0.899695  1
  Ni  Ni18  1  0.101115  0.101115  0.100305  1
  H  H19  1  0.500000  0.500000  0.000000  1
  H  H20  1  0.500000  0.000000  0.500000  1
  H  H21  1  0.000000  0.500000  0.500000  1
