# generated using pymatgen
data_Sc8Re12Si15P
_symmetry_space_group_name_H-M   'P 1'
_cell_length_a   6.62966330
_cell_length_b   6.63463588
_cell_length_c   12.43648635
_cell_angle_alpha   90.10689396
_cell_angle_beta   89.84172986
_cell_angle_gamma   90.06325969
_symmetry_Int_Tables_number   1
_chemical_formula_structural   Sc8Re12Si15P
_chemical_formula_sum   'Sc8 Re12 Si15 P1'
_cell_volume   547.02048195
_cell_formula_units_Z   1
loop_
 _symmetry_equiv_pos_site_id
 _symmetry_equiv_pos_as_xyz
  1  'x, y, z'
loop_
 _atom_site_type_symbol
 _atom_site_label
 _atom_site_symmetry_multiplicity
 _atom_site_fract_x
 _atom_site_fract_y
 _atom_site_fract_z
 _atom_site_occupancy
  Sc  Sc0  1  0.007334  0.658488  0.031015  1
  Sc  Sc1  1  0.993131  0.343151  0.530671  1
  Sc  Sc2  1  0.337353  0.989638  0.469424  1
  Sc  Sc3  1  0.158301  0.492684  0.781030  1
  Sc  Sc4  1  0.843517  0.509161  0.282563  1
  Sc  Sc5  1  0.492636  0.158922  0.218979  1
  Sc  Sc6  1  0.507317  0.841743  0.719498  1
  Sc  Sc7  1  0.658998  0.007567  0.968956  1
  Re  Re8  1  0.671962  0.668897  0.498898  1
  Re  Re9  1  0.168312  0.830967  0.251584  1
  Re  Re10  1  0.332074  0.331531  0.000074  1
  Re  Re11  1  0.022380  0.811186  0.629311  1
  Re  Re12  1  0.980974  0.185521  0.132647  1
  Re  Re13  1  0.814375  0.018972  0.367645  1
  Re  Re14  1  0.310024  0.482679  0.384194  1
  Re  Re15  1  0.685638  0.519335  0.882127  1
  Re  Re16  1  0.481645  0.312952  0.617635  1
  Re  Re17  1  0.518712  0.686646  0.116991  1
  Re  Re18  1  0.185244  0.980861  0.867470  1
  Re  Re19  1  0.832397  0.167749  0.749724  1
  Si  Si20  1  0.617308  0.304759  0.429567  1
  Si  Si21  1  0.379281  0.695292  0.930270  1
  Si  Si22  1  0.194399  0.119154  0.680018  1
  Si  Si23  1  0.309944  0.617428  0.571627  1
  Si  Si24  1  0.695267  0.379962  0.069902  1
  Si  Si25  1  0.803894  0.880055  0.180007  1
  Si  Si26  1  0.120505  0.196267  0.319371  1
  Si  Si27  1  0.973360  0.278831  0.937460  1
  Si  Si28  1  0.721425  0.028294  0.562575  1
  Si  Si29  1  0.222403  0.474171  0.187602  1
  Si  Si30  1  0.778526  0.525464  0.687626  1
  Si  Si31  1  0.473303  0.221186  0.812688  1
  Si  Si32  1  0.526252  0.777083  0.311840  1
  Si  Si33  1  0.278313  0.973863  0.062563  1
  Si  Si34  1  0.880050  0.805078  0.818625  1
  P  P35  1  0.023444  0.724466  0.437820  1
