# generated using pymatgen
data_Y8Lu12Ir3Pt13
_symmetry_space_group_name_H-M   'P 1'
_cell_length_a   7.40497634
_cell_length_b   7.49730735
_cell_length_c   14.50941700
_cell_angle_alpha   90.00000000
_cell_angle_beta   90.00000000
_cell_angle_gamma   89.85042072
_symmetry_Int_Tables_number   1
_chemical_formula_structural   Y8Lu12Ir3Pt13
_chemical_formula_sum   'Y8 Lu12 Ir3 Pt13'
_cell_volume   805.52212410
_cell_formula_units_Z   1
loop_
 _symmetry_equiv_pos_site_id
 _symmetry_equiv_pos_as_xyz
  1  'x, y, z'
loop_
 _atom_site_type_symbol
 _atom_site_label
 _atom_site_symmetry_multiplicity
 _atom_site_fract_x
 _atom_site_fract_y
 _atom_site_fract_z
 _atom_site_occupancy
  Y  Y0  1  0.000495  0.815956  0.401737  1
  Y  Y1  1  0.499311  0.684029  0.097561  1
  Y  Y2  1  0.503246  0.315643  0.595616  1
  Y  Y3  1  0.996662  0.180123  0.905563  1
  Y  Y4  1  0.996662  0.180123  0.594437  1
  Y  Y5  1  0.503246  0.315643  0.904384  1
  Y  Y6  1  0.499311  0.684029  0.402439  1
  Y  Y7  1  0.000495  0.815956  0.098263  1
  Lu  Lu8  1  0.680548  0.988889  0.250000  1
  Lu  Lu9  1  0.180645  0.512288  0.250000  1
  Lu  Lu10  1  0.816866  0.487767  0.750000  1
  Lu  Lu11  1  0.320337  0.009352  0.750000  1
  Lu  Lu12  1  0.653211  0.836325  0.623541  1
  Lu  Lu13  1  0.153386  0.666822  0.877481  1
  Lu  Lu14  1  0.847136  0.337662  0.375635  1
  Lu  Lu15  1  0.346553  0.163168  0.124082  1
  Lu  Lu16  1  0.346553  0.163168  0.375918  1
  Lu  Lu17  1  0.847136  0.337662  0.124365  1
  Lu  Lu18  1  0.153386  0.666822  0.622519  1
  Lu  Lu19  1  0.653211  0.836325  0.876459  1
  Ir  Ir20  1  0.813020  0.639744  0.250000  1
  Ir  Ir21  1  0.314632  0.860546  0.250000  1
  Ir  Ir22  1  0.684972  0.140084  0.750000  1
  Pt  Pt23  1  0.184578  0.359871  0.750000  1
  Pt  Pt24  1  0.545701  0.381660  0.250000  1
  Pt  Pt25  1  0.046395  0.119119  0.250000  1
  Pt  Pt26  1  0.953190  0.880100  0.750000  1
  Pt  Pt27  1  0.452936  0.620153  0.750000  1
  Pt  Pt28  1  0.819072  0.535414  0.543165  1
  Pt  Pt29  1  0.316939  0.965685  0.957160  1
  Pt  Pt30  1  0.684137  0.036858  0.457796  1
  Pt  Pt31  1  0.182942  0.462528  0.041768  1
  Pt  Pt32  1  0.182942  0.462528  0.458232  1
  Pt  Pt33  1  0.684137  0.036858  0.042204  1
  Pt  Pt34  1  0.316939  0.965685  0.542840  1
  Pt  Pt35  1  0.819072  0.535414  0.956835  1
