# generated using pymatgen
data_Rb2ZrZn3As4
_symmetry_space_group_name_H-M   'P 1'
_cell_length_a   7.97075272
_cell_length_b   7.97075261
_cell_length_c   6.04830000
_cell_angle_alpha   90.00000000
_cell_angle_beta   90.00000000
_cell_angle_gamma   135.34654688
_symmetry_Int_Tables_number   1
_chemical_formula_structural   Rb2ZrZn3As4
_chemical_formula_sum   'Rb2 Zr1 Zn3 As4'
_cell_volume   270.06870424
_cell_formula_units_Z   1
loop_
 _symmetry_equiv_pos_site_id
 _symmetry_equiv_pos_as_xyz
  1  'x, y, z'
loop_
 _atom_site_type_symbol
 _atom_site_label
 _atom_site_symmetry_multiplicity
 _atom_site_fract_x
 _atom_site_fract_y
 _atom_site_fract_z
 _atom_site_occupancy
  Rb  Rb0  1  0.500000  0.000000  0.251645  1
  Rb  Rb1  1  0.000000  0.500000  0.748355  1
  Zr  Zr2  1  0.000000  0.000000  0.000000  1
  Zn  Zn3  1  0.500000  0.500000  0.500000  1
  Zn  Zn4  1  0.500000  0.500000  0.000000  1
  Zn  Zn5  1  0.000000  0.000000  0.500000  1
  As  As6  1  0.646589  0.849700  0.748187  1
  As  As7  1  0.150300  0.353411  0.251813  1
  As  As8  1  0.849700  0.646589  0.251813  1
  As  As9  1  0.353411  0.150300  0.748187  1
