# generated using pymatgen
data_V6Ga3PtN2
_symmetry_space_group_name_H-M   'P 1'
_cell_length_a   6.61757031
_cell_length_b   6.63967516
_cell_length_c   6.64266800
_cell_angle_alpha   90.00000000
_cell_angle_beta   90.00000000
_cell_angle_gamma   90.37364275
_symmetry_Int_Tables_number   1
_chemical_formula_structural   V6Ga3PtN2
_chemical_formula_sum   'V12 Ga6 Pt2 N4'
_cell_volume   291.86277622
_cell_formula_units_Z   2
loop_
 _symmetry_equiv_pos_site_id
 _symmetry_equiv_pos_as_xyz
  1  'x, y, z'
loop_
 _atom_site_type_symbol
 _atom_site_label
 _atom_site_symmetry_multiplicity
 _atom_site_fract_x
 _atom_site_fract_y
 _atom_site_fract_z
 _atom_site_occupancy
  V  V0  1  0.787820  0.962008  0.377260  1
  V  V1  1  0.712180  0.037992  0.877260  1
  V  V2  1  0.212484  0.456466  0.124502  1
  V  V3  1  0.287516  0.543534  0.624502  1
  V  V4  1  0.958773  0.381209  0.787469  1
  V  V5  1  0.040122  0.871642  0.712266  1
  V  V6  1  0.459878  0.128358  0.212266  1
  V  V7  1  0.541227  0.618791  0.287469  1
  V  V8  1  0.380523  0.785375  0.958539  1
  V  V9  1  0.872485  0.710388  0.039049  1
  V  V10  1  0.119477  0.214625  0.458539  1
  V  V11  1  0.627515  0.289612  0.539049  1
  Ga  Ga12  1  0.821665  0.320010  0.178177  1
  Ga  Ga13  1  0.678335  0.679990  0.678177  1
  Ga  Ga14  1  0.568606  0.430021  0.930276  1
  Ga  Ga15  1  0.430976  0.931978  0.567727  1
  Ga  Ga16  1  0.931394  0.569979  0.430276  1
  Ga  Ga17  1  0.069024  0.068022  0.067727  1
  Pt  Pt18  1  0.181146  0.821116  0.317993  1
  Pt  Pt19  1  0.318854  0.178884  0.817993  1
  N  N20  1  0.877083  0.122857  0.628693  1
  N  N21  1  0.622917  0.877143  0.128693  1
  N  N22  1  0.127042  0.625894  0.878049  1
  N  N23  1  0.372958  0.374106  0.378049  1
