# generated using pymatgen
data_Nd8ReMo(RuC4)2
_symmetry_space_group_name_H-M   'P 1'
_cell_length_a   5.35146800
_cell_length_b   6.70419742
_cell_length_c   10.22494508
_cell_angle_alpha   90.23792233
_cell_angle_beta   90.00000000
_cell_angle_gamma   90.00000000
_symmetry_Int_Tables_number   1
_chemical_formula_structural   Nd8ReMo(RuC4)2
_chemical_formula_sum   'Nd8 Re1 Mo1 Ru2 C8'
_cell_volume   366.84023863
_cell_formula_units_Z   1
loop_
 _symmetry_equiv_pos_site_id
 _symmetry_equiv_pos_as_xyz
  1  'x, y, z'
loop_
 _atom_site_type_symbol
 _atom_site_label
 _atom_site_symmetry_multiplicity
 _atom_site_fract_x
 _atom_site_fract_y
 _atom_site_fract_z
 _atom_site_occupancy
  Nd  Nd0  1  0.250000  0.471447  0.786201  1
  Nd  Nd1  1  0.750000  0.030684  0.284562  1
  Nd  Nd2  1  0.250000  0.972805  0.711108  1
  Nd  Nd3  1  0.750000  0.525886  0.211749  1
  Nd  Nd4  1  0.250000  0.816091  0.050916  1
  Nd  Nd5  1  0.750000  0.682351  0.552211  1
  Nd  Nd6  1  0.250000  0.312289  0.446496  1
  Nd  Nd7  1  0.750000  0.188095  0.946105  1
  Re  Re8  1  0.750000  0.728622  0.858055  1
  Mo  Mo9  1  0.250000  0.772850  0.359204  1
  Ru  Ru10  1  0.250000  0.271553  0.140173  1
  Ru  Ru11  1  0.750000  0.228326  0.642230  1
  C  C12  1  0.250000  0.685305  0.542296  1
  C  C13  1  0.750000  0.812695  0.038399  1
  C  C14  1  0.250000  0.186515  0.961804  1
  C  C15  1  0.750000  0.312257  0.464807  1
  C  C16  1  0.250000  0.039352  0.256900  1
  C  C17  1  0.750000  0.465086  0.759857  1
  C  C18  1  0.250000  0.534289  0.242046  1
  C  C19  1  0.750000  0.963500  0.744880  1
