# generated using pymatgen
data_Tb12Os3Rh
_symmetry_space_group_name_H-M   'P 1'
_cell_length_a   6.40088360
_cell_length_b   7.37850560
_cell_length_c   9.17700900
_cell_angle_alpha   90.00000000
_cell_angle_beta   90.00000000
_cell_angle_gamma   90.21910771
_symmetry_Int_Tables_number   1
_chemical_formula_structural   Tb12Os3Rh
_chemical_formula_sum   'Tb12 Os3 Rh1'
_cell_volume   433.41738066
_cell_formula_units_Z   1
loop_
 _symmetry_equiv_pos_site_id
 _symmetry_equiv_pos_as_xyz
  1  'x, y, z'
loop_
 _atom_site_type_symbol
 _atom_site_label
 _atom_site_symmetry_multiplicity
 _atom_site_fract_x
 _atom_site_fract_y
 _atom_site_fract_z
 _atom_site_occupancy
  Tb  Tb0  1  0.333126  0.673610  0.062169  1
  Tb  Tb1  1  0.169606  0.178002  0.437635  1
  Tb  Tb2  1  0.670374  0.324211  0.564215  1
  Tb  Tb3  1  0.827077  0.824030  0.933033  1
  Tb  Tb4  1  0.670374  0.324211  0.935785  1
  Tb  Tb5  1  0.827077  0.824030  0.566967  1
  Tb  Tb6  1  0.333126  0.673610  0.437831  1
  Tb  Tb7  1  0.169606  0.178002  0.062365  1
  Tb  Tb8  1  0.866779  0.538064  0.250000  1
  Tb  Tb9  1  0.632580  0.040064  0.250000  1
  Tb  Tb10  1  0.131732  0.461613  0.750000  1
  Tb  Tb11  1  0.366868  0.961862  0.750000  1
  Os  Os12  1  0.458192  0.383402  0.250000  1
  Os  Os13  1  0.959681  0.115523  0.750000  1
  Os  Os14  1  0.540482  0.616152  0.750000  1
  Rh  Rh15  1  0.043322  0.883615  0.250000  1
