# generated using pymatgen
data_TiZn6In5Rh12
_symmetry_space_group_name_H-M   'P 1'
_cell_length_a   4.41148217
_cell_length_b   6.28252226
_cell_length_c   13.26062200
_cell_angle_alpha   89.99782366
_cell_angle_beta   90.00102900
_cell_angle_gamma   89.96742814
_symmetry_Int_Tables_number   1
_chemical_formula_structural   TiZn6In5Rh12
_chemical_formula_sum   'Ti1 Zn6 In5 Rh12'
_cell_volume   367.52119486
_cell_formula_units_Z   1
loop_
 _symmetry_equiv_pos_site_id
 _symmetry_equiv_pos_as_xyz
  1  'x, y, z'
loop_
 _atom_site_type_symbol
 _atom_site_label
 _atom_site_symmetry_multiplicity
 _atom_site_fract_x
 _atom_site_fract_y
 _atom_site_fract_z
 _atom_site_occupancy
  Ti  Ti0  1  0.500225  0.499940  0.833272  1
  Zn  Zn1  1  0.000243  0.499957  0.998226  1
  Zn  Zn2  1  0.499883  0.999968  0.166256  1
  Zn  Zn3  1  0.999861  0.499925  0.333341  1
  Zn  Zn4  1  0.499800  0.999989  0.500358  1
  Zn  Zn5  1  0.000186  0.499925  0.668567  1
  Zn  Zn6  1  0.500172  0.999945  0.833262  1
  In  In7  1  0.000090  0.999956  0.999651  1
  In  In8  1  0.499794  0.500075  0.164811  1
  In  In9  1  0.999931  0.000141  0.333425  1
  In  In10  1  0.499692  0.500085  0.501903  1
  In  In11  1  0.000175  0.000140  0.666857  1
  Rh  Rh12  1  0.500207  0.256039  0.992675  1
  Rh  Rh13  1  0.500239  0.743664  0.992678  1
  Rh  Rh14  1  0.999614  0.249997  0.165284  1
  Rh  Rh15  1  0.999952  0.750100  0.165252  1
  Rh  Rh16  1  0.499878  0.251657  0.333342  1
  Rh  Rh17  1  0.499752  0.748622  0.333327  1
  Rh  Rh18  1  0.999549  0.250314  0.501545  1
  Rh  Rh19  1  0.999890  0.749818  0.501473  1
  Rh  Rh20  1  0.500109  0.256134  0.673915  1
  Rh  Rh21  1  0.500355  0.743776  0.673947  1
  Rh  Rh22  1  0.999973  0.260109  0.833331  1
  Rh  Rh23  1  0.000431  0.739724  0.833305  1
