# generated using pymatgen
data_Rb4CuPdSe32
_symmetry_space_group_name_H-M   'P 1'
_cell_length_a   13.00760400
_cell_length_b   13.00760400
_cell_length_c   7.06334900
_cell_angle_alpha   90.00000000
_cell_angle_beta   90.00000000
_cell_angle_gamma   90.00000000
_symmetry_Int_Tables_number   1
_chemical_formula_structural   Rb4CuPdSe32
_chemical_formula_sum   'Rb4 Cu1 Pd1 Se32'
_cell_volume   1195.10284176
_cell_formula_units_Z   1
loop_
 _symmetry_equiv_pos_site_id
 _symmetry_equiv_pos_as_xyz
  1  'x, y, z'
loop_
 _atom_site_type_symbol
 _atom_site_label
 _atom_site_symmetry_multiplicity
 _atom_site_fract_x
 _atom_site_fract_y
 _atom_site_fract_z
 _atom_site_occupancy
  Rb  Rb0  1  0.500000  0.000000  0.998905  1
  Rb  Rb1  1  0.000000  0.500000  0.001095  1
  Rb  Rb2  1  0.000000  0.000000  0.500000  1
  Rb  Rb3  1  0.500000  0.500000  0.500000  1
  Cu  Cu4  1  0.000000  0.000000  0.000000  1
  Pd  Pd5  1  0.500000  0.500000  0.000000  1
  Se  Se6  1  0.036783  0.179586  0.054816  1
  Se  Se7  1  0.531464  0.313117  0.030187  1
  Se  Se8  1  0.468536  0.686884  0.030187  1
  Se  Se9  1  0.963217  0.820414  0.054816  1
  Se  Se10  1  0.212156  0.205911  0.137962  1
  Se  Se11  1  0.707373  0.293134  0.122874  1
  Se  Se12  1  0.292627  0.706866  0.122874  1
  Se  Se13  1  0.787844  0.794089  0.137962  1
  Se  Se14  1  0.691170  0.078755  0.410305  1
  Se  Se15  1  0.190278  0.418570  0.408814  1
  Se  Se16  1  0.809722  0.581430  0.408814  1
  Se  Se17  1  0.308830  0.921245  0.410305  1
  Se  Se18  1  0.423981  0.190843  0.414228  1
  Se  Se19  1  0.921961  0.309439  0.413099  1
  Se  Se20  1  0.078039  0.690561  0.413099  1
  Se  Se21  1  0.576019  0.809157  0.414228  1
  Se  Se22  1  0.309439  0.078039  0.586900  1
  Se  Se23  1  0.809157  0.423981  0.585771  1
  Se  Se24  1  0.190843  0.576019  0.585771  1
  Se  Se25  1  0.690561  0.921961  0.586900  1
  Se  Se26  1  0.581430  0.190278  0.591186  1
  Se  Se27  1  0.078755  0.308830  0.589695  1
  Se  Se28  1  0.921245  0.691170  0.589695  1
  Se  Se29  1  0.418570  0.809722  0.591186  1
  Se  Se30  1  0.794089  0.212156  0.862037  1
  Se  Se31  1  0.293134  0.292627  0.877125  1
  Se  Se32  1  0.706866  0.707373  0.877125  1
  Se  Se33  1  0.205911  0.787844  0.862037  1
  Se  Se34  1  0.820414  0.036783  0.945184  1
  Se  Se35  1  0.313117  0.468536  0.969813  1
  Se  Se36  1  0.686884  0.531464  0.969813  1
  Se  Se37  1  0.179586  0.963217  0.945184  1
