# generated using pymatgen
data_Tb12Co4RuPb
_symmetry_space_group_name_H-M   'P 1'
_cell_length_a   8.38078267
_cell_length_b   8.38078248
_cell_length_c   8.38078284
_cell_angle_alpha   111.26776221
_cell_angle_beta   110.48974365
_cell_angle_gamma   106.69239661
_symmetry_Int_Tables_number   1
_chemical_formula_structural   Tb12Co4RuPb
_chemical_formula_sum   'Tb12 Co4 Ru1 Pb1'
_cell_volume   452.32291483
_cell_formula_units_Z   1
loop_
 _symmetry_equiv_pos_site_id
 _symmetry_equiv_pos_as_xyz
  1  'x, y, z'
loop_
 _atom_site_type_symbol
 _atom_site_label
 _atom_site_symmetry_multiplicity
 _atom_site_fract_x
 _atom_site_fract_y
 _atom_site_fract_z
 _atom_site_occupancy
  Tb  Tb0  1  0.815863  0.709394  0.525258  1
  Tb  Tb1  1  0.184137  0.290606  0.474742  1
  Tb  Tb2  1  0.184137  0.709394  0.893532  1
  Tb  Tb3  1  0.815863  0.290606  0.106468  1
  Tb  Tb4  1  0.687278  0.379125  0.691847  1
  Tb  Tb5  1  0.312722  0.620875  0.308153  1
  Tb  Tb6  1  0.687278  0.995431  0.308153  1
  Tb  Tb7  1  0.312722  0.004569  0.691847  1
  Tb  Tb8  1  0.597681  0.790725  0.806957  1
  Tb  Tb9  1  0.402319  0.209275  0.193043  1
  Tb  Tb10  1  0.983768  0.790725  0.193043  1
  Tb  Tb11  1  0.016232  0.209275  0.806957  1
  Co  Co12  1  0.619939  0.000000  0.619939  1
  Co  Co13  1  0.380061  0.000000  0.380061  1
  Co  Co14  1  0.110874  0.610874  0.500000  1
  Co  Co15  1  0.889126  0.389126  0.500000  1
  Ru  Ru16  1  0.000000  0.000000  0.000000  1
  Pb  Pb17  1  0.500000  0.500000  0.000000  1
