# generated using pymatgen
data_Zr6Ti6Ga10Rh7
_symmetry_space_group_name_H-M   'P 1'
_cell_length_a   8.87819576
_cell_length_b   8.83022435
_cell_length_c   8.83022472
_cell_angle_alpha   59.65476854
_cell_angle_beta   59.82012245
_cell_angle_gamma   59.82012529
_symmetry_Int_Tables_number   1
_chemical_formula_structural   Zr6Ti6Ga10Rh7
_chemical_formula_sum   'Zr6 Ti6 Ga10 Rh7'
_cell_volume   486.88601684
_cell_formula_units_Z   1
loop_
 _symmetry_equiv_pos_site_id
 _symmetry_equiv_pos_as_xyz
  1  'x, y, z'
loop_
 _atom_site_type_symbol
 _atom_site_label
 _atom_site_symmetry_multiplicity
 _atom_site_fract_x
 _atom_site_fract_y
 _atom_site_fract_z
 _atom_site_occupancy
  Zr  Zr0  1  0.689683  0.696105  0.308525  1
  Zr  Zr1  1  0.305688  0.696105  0.308525  1
  Zr  Zr2  1  0.696890  0.303110  0.303110  1
  Zr  Zr3  1  0.305688  0.308525  0.696105  1
  Zr  Zr4  1  0.689683  0.308525  0.696105  1
  Zr  Zr5  1  0.308108  0.691892  0.691892  1
  Ti  Ti6  1  0.876955  0.881686  0.364406  1
  Ti  Ti7  1  0.876955  0.364406  0.881686  1
  Ti  Ti8  1  0.369393  0.879138  0.879138  1
  Ti  Ti9  1  0.872333  0.879138  0.879138  1
  Ti  Ti10  1  0.123455  0.125201  0.627888  1
  Ti  Ti11  1  0.123455  0.627888  0.125201  1
  Ga  Ga12  1  0.648199  0.117670  0.117670  1
  Ga  Ga13  1  0.116461  0.117670  0.117670  1
  Ga  Ga14  1  0.659815  0.657081  0.023288  1
  Ga  Ga15  1  0.659815  0.023288  0.657081  1
  Ga  Ga16  1  0.019654  0.659522  0.659522  1
  Ga  Ga17  1  0.661302  0.659522  0.659522  1
  Ga  Ga18  1  0.338890  0.338696  0.983525  1
  Ga  Ga19  1  0.338890  0.983525  0.338696  1
  Ga  Ga20  1  0.974696  0.341264  0.341264  1
  Ga  Ga21  1  0.342778  0.341264  0.341264  1
  Rh  Rh22  1  0.011873  0.988127  0.988127  1
  Rh  Rh23  1  0.998946  0.999192  0.506500  1
  Rh  Rh24  1  0.495362  0.999192  0.506500  1
  Rh  Rh25  1  0.999478  0.500522  0.500522  1
  Rh  Rh26  1  0.495362  0.506500  0.999192  1
  Rh  Rh27  1  0.998946  0.506500  0.999192  1
  Rh  Rh28  1  0.501248  0.998752  0.998752  1
