# generated using pymatgen
data_Dy3Ho7(Pb3Cl)2
_symmetry_space_group_name_H-M   'P 1'
_cell_length_a   9.17520603
_cell_length_b   9.17604808
_cell_length_c   6.59496600
_cell_angle_alpha   90.00000000
_cell_angle_beta   90.00000000
_cell_angle_gamma   119.98835042
_symmetry_Int_Tables_number   1
_chemical_formula_structural   Dy3Ho7(Pb3Cl)2
_chemical_formula_sum   'Dy3 Ho7 Pb6 Cl2'
_cell_volume   480.91205918
_cell_formula_units_Z   1
loop_
 _symmetry_equiv_pos_site_id
 _symmetry_equiv_pos_as_xyz
  1  'x, y, z'
loop_
 _atom_site_type_symbol
 _atom_site_label
 _atom_site_symmetry_multiplicity
 _atom_site_fract_x
 _atom_site_fract_y
 _atom_site_fract_z
 _atom_site_occupancy
  Dy  Dy0  1  0.260572  0.000035  0.750000  1
  Dy  Dy1  1  0.739297  0.999987  0.250000  1
  Dy  Dy2  1  0.000053  0.260617  0.750000  1
  Ho  Ho3  1  0.999953  0.739104  0.250000  1
  Ho  Ho4  1  0.739255  0.739235  0.750000  1
  Ho  Ho5  1  0.260872  0.260909  0.250000  1
  Ho  Ho6  1  0.333321  0.666633  0.499971  1
  Ho  Ho7  1  0.666676  0.333437  0.499973  1
  Ho  Ho8  1  0.666676  0.333437  0.000027  1
  Ho  Ho9  1  0.333321  0.666633  0.000029  1
  Pb  Pb10  1  0.610304  0.999763  0.750000  1
  Pb  Pb11  1  0.389307  0.000017  0.250000  1
  Pb  Pb12  1  0.999752  0.610344  0.750000  1
  Pb  Pb13  1  0.000256  0.389995  0.250000  1
  Pb  Pb14  1  0.390117  0.390128  0.750000  1
  Pb  Pb15  1  0.610291  0.610052  0.250000  1
  Cl  Cl16  1  0.999988  0.999837  0.499775  1
  Cl  Cl17  1  0.999988  0.999837  0.000225  1
