# generated using pymatgen
data_Ce2(GaAu2)3
_symmetry_space_group_name_H-M   'P 1'
_cell_length_a   8.75616823
_cell_length_b   8.75616780
_cell_length_c   8.75616800
_cell_angle_alpha   57.68786720
_cell_angle_beta   57.68786897
_cell_angle_gamma   57.68786461
_symmetry_Int_Tables_number   1
_chemical_formula_structural   Ce2(GaAu2)3
_chemical_formula_sum   'Ce4 Ga6 Au12'
_cell_volume   449.48948108
_cell_formula_units_Z   2
loop_
 _symmetry_equiv_pos_site_id
 _symmetry_equiv_pos_as_xyz
  1  'x, y, z'
loop_
 _atom_site_type_symbol
 _atom_site_label
 _atom_site_symmetry_multiplicity
 _atom_site_fract_x
 _atom_site_fract_y
 _atom_site_fract_z
 _atom_site_occupancy
  Ce  Ce0  1  0.906300  0.906300  0.906300  1
  Ce  Ce1  1  0.406300  0.406300  0.406300  1
  Ce  Ce2  1  0.093700  0.093700  0.093700  1
  Ce  Ce3  1  0.593700  0.593700  0.593700  1
  Ga  Ga4  1  0.560861  0.750000  0.939139  1
  Ga  Ga5  1  0.939139  0.560861  0.750000  1
  Ga  Ga6  1  0.750000  0.939139  0.560861  1
  Ga  Ga7  1  0.439139  0.250000  0.060861  1
  Ga  Ga8  1  0.060861  0.439139  0.250000  1
  Ga  Ga9  1  0.250000  0.060861  0.439139  1
  Au  Au10  1  0.497326  0.852267  0.201735  1
  Au  Au11  1  0.201735  0.497326  0.852267  1
  Au  Au12  1  0.852267  0.201735  0.497326  1
  Au  Au13  1  0.701735  0.352267  0.997326  1
  Au  Au14  1  0.997326  0.701735  0.352267  1
  Au  Au15  1  0.352267  0.997326  0.701735  1
  Au  Au16  1  0.502674  0.147733  0.798265  1
  Au  Au17  1  0.798265  0.502674  0.147733  1
  Au  Au18  1  0.147733  0.798265  0.502674  1
  Au  Au19  1  0.298265  0.647733  0.002674  1
  Au  Au20  1  0.002674  0.298265  0.647733  1
  Au  Au21  1  0.647733  0.002674  0.298265  1
