# generated using pymatgen
data_La16Y3TmSn16
_symmetry_space_group_name_H-M   'P 1'
_cell_length_a   8.42196103
_cell_length_b   8.51562304
_cell_length_c   16.27722600
_cell_angle_alpha   90.00000000
_cell_angle_beta   90.00000000
_cell_angle_gamma   90.01041212
_symmetry_Int_Tables_number   1
_chemical_formula_structural   La16Y3TmSn16
_chemical_formula_sum   'La16 Y3 Tm1 Sn16'
_cell_volume   1167.37406924
_cell_formula_units_Z   1
loop_
 _symmetry_equiv_pos_site_id
 _symmetry_equiv_pos_as_xyz
  1  'x, y, z'
loop_
 _atom_site_type_symbol
 _atom_site_label
 _atom_site_symmetry_multiplicity
 _atom_site_fract_x
 _atom_site_fract_y
 _atom_site_fract_z
 _atom_site_occupancy
  La  La0  1  0.972565  0.819012  0.899678  1
  La  La1  1  0.472625  0.680967  0.600358  1
  La  La2  1  0.527494  0.318733  0.100452  1
  La  La3  1  0.027207  0.180816  0.399509  1
  La  La4  1  0.972565  0.819012  0.600322  1
  La  La5  1  0.472625  0.680967  0.899642  1
  La  La6  1  0.527494  0.318733  0.399548  1
  La  La7  1  0.027207  0.180816  0.100491  1
  La  La8  1  0.879208  0.660495  0.382337  1
  La  La9  1  0.379892  0.840054  0.117679  1
  La  La10  1  0.620556  0.160240  0.617447  1
  La  La11  1  0.120556  0.339739  0.882483  1
  La  La12  1  0.120556  0.339739  0.617517  1
  La  La13  1  0.620556  0.160240  0.882553  1
  La  La14  1  0.379892  0.840054  0.382321  1
  La  La15  1  0.879208  0.660495  0.117663  1
  Y  Y16  1  0.288320  0.002916  0.750000  1
  Y  Y17  1  0.788267  0.497148  0.750000  1
  Y  Y18  1  0.211706  0.502677  0.250000  1
  Tm  Tm19  1  0.712207  0.996951  0.250000  1
  Sn  Sn20  1  0.781316  0.470395  0.546188  1
  Sn  Sn21  1  0.281174  0.029622  0.953811  1
  Sn  Sn22  1  0.718725  0.970478  0.453402  1
  Sn  Sn23  1  0.218699  0.529678  0.046232  1
  Sn  Sn24  1  0.218699  0.529678  0.453768  1
  Sn  Sn25  1  0.718725  0.970478  0.046598  1
  Sn  Sn26  1  0.281174  0.029622  0.546189  1
  Sn  Sn27  1  0.781316  0.470395  0.953812  1
  Sn  Sn28  1  0.168097  0.644590  0.750000  1
  Sn  Sn29  1  0.668206  0.855408  0.750000  1
  Sn  Sn30  1  0.331862  0.144597  0.250000  1
  Sn  Sn31  1  0.831726  0.354716  0.250000  1
  Sn  Sn32  1  0.923322  0.117576  0.750000  1
  Sn  Sn33  1  0.423454  0.382431  0.750000  1
  Sn  Sn34  1  0.576683  0.617968  0.250000  1
  Sn  Sn35  1  0.076116  0.882567  0.250000  1
