# generated using pymatgen
data_Pu4As3Se
_symmetry_space_group_name_H-M   'P 1'
_cell_length_a   4.15871900
_cell_length_b   5.85640400
_cell_length_c   8.31223500
_cell_angle_alpha   90.00000000
_cell_angle_beta   90.00000000
_cell_angle_gamma   90.00000000
_symmetry_Int_Tables_number   1
_chemical_formula_structural   Pu4As3Se
_chemical_formula_sum   'Pu4 As3 Se1'
_cell_volume   202.44563539
_cell_formula_units_Z   1
loop_
 _symmetry_equiv_pos_site_id
 _symmetry_equiv_pos_as_xyz
  1  'x, y, z'
loop_
 _atom_site_type_symbol
 _atom_site_label
 _atom_site_symmetry_multiplicity
 _atom_site_fract_x
 _atom_site_fract_y
 _atom_site_fract_z
 _atom_site_occupancy
  Pu  Pu0  1  0.500000  0.500000  0.246487  1
  Pu  Pu1  1  0.000000  0.000000  0.500000  1
  Pu  Pu2  1  0.500000  0.500000  0.753513  1
  Pu  Pu3  1  0.000000  0.000000  0.000000  1
  As  As4  1  0.500000  0.000000  0.748540  1
  As  As5  1  0.000000  0.500000  0.000000  1
  As  As6  1  0.500000  0.000000  0.251460  1
  Se  Se7  1  0.000000  0.500000  0.500000  1
