# generated using pymatgen
data_Cs5ScAl2Se7
_symmetry_space_group_name_H-M   'P 1'
_cell_length_a   11.55886515
_cell_length_b   11.55886548
_cell_length_c   9.70470000
_cell_angle_alpha   76.71659025
_cell_angle_beta   76.71658760
_cell_angle_gamma   71.98093053
_symmetry_Int_Tables_number   1
_chemical_formula_structural   Cs5ScAl2Se7
_chemical_formula_sum   'Cs10 Sc2 Al4 Se14'
_cell_volume   1182.26355146
_cell_formula_units_Z   2
loop_
 _symmetry_equiv_pos_site_id
 _symmetry_equiv_pos_as_xyz
  1  'x, y, z'
loop_
 _atom_site_type_symbol
 _atom_site_label
 _atom_site_symmetry_multiplicity
 _atom_site_fract_x
 _atom_site_fract_y
 _atom_site_fract_z
 _atom_site_occupancy
  Cs  Cs0  1  0.028146  0.430095  0.716906  1
  Cs  Cs1  1  0.430095  0.028146  0.716906  1
  Cs  Cs2  1  0.971854  0.569905  0.283094  1
  Cs  Cs3  1  0.569905  0.971854  0.283094  1
  Cs  Cs4  1  0.294357  0.705643  0.000000  1
  Cs  Cs5  1  0.705643  0.294357  0.000000  1
  Cs  Cs6  1  0.840097  0.159903  0.500000  1
  Cs  Cs7  1  0.159903  0.840097  0.500000  1
  Cs  Cs8  1  0.430358  0.430358  0.690738  1
  Cs  Cs9  1  0.569642  0.569642  0.309262  1
  Sc  Sc10  1  0.213149  0.213149  0.178658  1
  Sc  Sc11  1  0.786851  0.786851  0.821342  1
  Al  Al12  1  0.069605  0.069605  0.056360  1
  Al  Al13  1  0.930395  0.930395  0.943640  1
  Al  Al14  1  0.346121  0.346121  0.335058  1
  Al  Al15  1  0.653879  0.653879  0.664942  1
  Se  Se16  1  0.995190  0.278418  0.111072  1
  Se  Se17  1  0.278418  0.995190  0.111072  1
  Se  Se18  1  0.004810  0.721582  0.888928  1
  Se  Se19  1  0.721582  0.004810  0.888928  1
  Se  Se20  1  0.209069  0.209069  0.442322  1
  Se  Se21  1  0.790931  0.790931  0.557678  1
  Se  Se22  1  0.061163  0.061163  0.811950  1
  Se  Se23  1  0.938837  0.938837  0.188050  1
  Se  Se24  1  0.354842  0.354842  0.073100  1
  Se  Se25  1  0.645158  0.645158  0.926900  1
  Se  Se26  1  0.252549  0.545633  0.397474  1
  Se  Se27  1  0.545633  0.252549  0.397474  1
  Se  Se28  1  0.747451  0.454367  0.602526  1
  Se  Se29  1  0.454367  0.747451  0.602526  1
