# generated using pymatgen
data_YbDy3Lu4(B6Os)4
_symmetry_space_group_name_H-M   'P 1'
_cell_length_a   3.61718500
_cell_length_b   9.07982358
_cell_length_c   11.47415600
_cell_angle_alpha   89.94115634
_cell_angle_beta   90.00000000
_cell_angle_gamma   90.00000000
_symmetry_Int_Tables_number   1
_chemical_formula_structural   YbDy3Lu4(B6Os)4
_chemical_formula_sum   'Yb1 Dy3 Lu4 B24 Os4'
_cell_volume   376.85011541
_cell_formula_units_Z   1
loop_
 _symmetry_equiv_pos_site_id
 _symmetry_equiv_pos_as_xyz
  1  'x, y, z'
loop_
 _atom_site_type_symbol
 _atom_site_label
 _atom_site_symmetry_multiplicity
 _atom_site_fract_x
 _atom_site_fract_y
 _atom_site_fract_z
 _atom_site_occupancy
  Yb  Yb0  1  0.000000  0.322272  0.413599  1
  Dy  Dy1  1  0.000000  0.676980  0.585175  1
  Dy  Dy2  1  0.000000  0.821531  0.086532  1
  Dy  Dy3  1  0.000000  0.179040  0.914370  1
  Lu  Lu4  1  0.000000  0.944600  0.372160  1
  Lu  Lu5  1  0.000000  0.057437  0.626948  1
  Lu  Lu6  1  0.000000  0.443456  0.128604  1
  Lu  Lu7  1  0.000000  0.555706  0.872895  1
  B  B8  1  0.500000  0.553797  0.432325  1
  B  B9  1  0.500000  0.445477  0.567332  1
  B  B10  1  0.500000  0.053701  0.066850  1
  B  B11  1  0.500000  0.945603  0.932398  1
  B  B12  1  0.500000  0.749701  0.418868  1
  B  B13  1  0.500000  0.250705  0.580901  1
  B  B14  1  0.500000  0.249296  0.081032  1
  B  B15  1  0.500000  0.750048  0.919233  1
  B  B16  1  0.500000  0.792255  0.266104  1
  B  B17  1  0.500000  0.208722  0.734127  1
  B  B18  1  0.500000  0.291139  0.234082  1
  B  B19  1  0.500000  0.708305  0.766180  1
  B  B20  1  0.500000  0.630701  0.185397  1
  B  B21  1  0.500000  0.369563  0.815676  1
  B  B22  1  0.500000  0.130658  0.314824  1
  B  B23  1  0.500000  0.869496  0.684552  1
  B  B24  1  0.500000  0.982666  0.212854  1
  B  B25  1  0.500000  0.017494  0.786293  1
  B  B26  1  0.500000  0.482419  0.287049  1
  B  B27  1  0.500000  0.517199  0.713502  1
  B  B28  1  0.500000  0.603807  0.028865  1
  B  B29  1  0.500000  0.396358  0.971799  1
  B  B30  1  0.500000  0.101917  0.471792  1
  B  B31  1  0.500000  0.897494  0.528215  1
  Os  Os32  1  0.000000  0.639745  0.319894  1
  Os  Os33  1  0.000000  0.361552  0.680685  1
  Os  Os34  1  0.000000  0.137344  0.178501  1
  Os  Os35  1  0.000000  0.861813  0.820388  1
