# generated using pymatgen
data_Ho2Mo(SeO4)3
_symmetry_space_group_name_H-M   'P 1'
_cell_length_a   6.57111032
_cell_length_b   7.15041713
_cell_length_c   10.85318152
_cell_angle_alpha   84.81366604
_cell_angle_beta   73.20451442
_cell_angle_gamma   86.55145869
_symmetry_Int_Tables_number   1
_chemical_formula_structural   Ho2Mo(SeO4)3
_chemical_formula_sum   'Ho4 Mo2 Se6 O24'
_cell_volume   485.88773792
_cell_formula_units_Z   2
loop_
 _symmetry_equiv_pos_site_id
 _symmetry_equiv_pos_as_xyz
  1  'x, y, z'
loop_
 _atom_site_type_symbol
 _atom_site_label
 _atom_site_symmetry_multiplicity
 _atom_site_fract_x
 _atom_site_fract_y
 _atom_site_fract_z
 _atom_site_occupancy
  Ho  Ho0  1  0.732667  0.638128  0.508815  1
  Ho  Ho1  1  0.267333  0.361872  0.491185  1
  Ho  Ho2  1  0.204560  0.182820  0.168421  1
  Ho  Ho3  1  0.795440  0.817180  0.831579  1
  Mo  Mo4  1  0.722196  0.892811  0.205978  1
  Mo  Mo5  1  0.277804  0.107189  0.794022  1
  Se  Se6  1  0.202880  0.659889  0.216453  1
  Se  Se7  1  0.797120  0.340111  0.783547  1
  Se  Se8  1  0.657804  0.363553  0.142383  1
  Se  Se9  1  0.342196  0.636447  0.857617  1
  Se  Se10  1  0.788513  0.140404  0.493690  1
  Se  Se11  1  0.211487  0.859596  0.506310  1
  O  O12  1  0.692737  0.672347  0.300216  1
  O  O13  1  0.307263  0.327653  0.699784  1
  O  O14  1  0.718411  0.959112  0.417081  1
  O  O15  1  0.281589  0.040888  0.582919  1
  O  O16  1  0.450059  0.975322  0.232574  1
  O  O17  1  0.549941  0.024678  0.767426  1
  O  O18  1  0.825721  0.171081  0.178310  1
  O  O19  1  0.174279  0.828919  0.821690  1
  O  O20  1  0.785200  0.832789  0.043861  1
  O  O21  1  0.214800  0.167211  0.956139  1
  O  O22  1  0.059346  0.874271  0.195105  1
  O  O23  1  0.940654  0.125729  0.804895  1
  O  O24  1  0.099755  0.497592  0.148466  1
  O  O25  1  0.900245  0.502408  0.851534  1
  O  O26  1  0.080930  0.600603  0.383392  1
  O  O27  1  0.919070  0.399397  0.616608  1
  O  O28  1  0.548843  0.271264  0.038101  1
  O  O29  1  0.451157  0.728736  0.961899  1
  O  O30  1  0.423882  0.345774  0.271112  1
  O  O31  1  0.576118  0.654226  0.728888  1
  O  O32  1  0.043063  0.191822  0.391815  1
  O  O33  1  0.956937  0.808178  0.608185  1
  O  O34  1  0.639566  0.339293  0.460192  1
  O  O35  1  0.360434  0.660707  0.539808  1
