# generated using pymatgen
data_Er(Cr3S4)2
_symmetry_space_group_name_H-M   'P 1'
_cell_length_a   6.17493742
_cell_length_b   6.17493828
_cell_length_c   6.17493768
_cell_angle_alpha   89.22240122
_cell_angle_beta   89.22239897
_cell_angle_gamma   89.22241255
_symmetry_Int_Tables_number   1
_chemical_formula_structural   Er(Cr3S4)2
_chemical_formula_sum   'Er1 Cr6 S8'
_cell_volume   235.38502642
_cell_formula_units_Z   1
loop_
 _symmetry_equiv_pos_site_id
 _symmetry_equiv_pos_as_xyz
  1  'x, y, z'
loop_
 _atom_site_type_symbol
 _atom_site_label
 _atom_site_symmetry_multiplicity
 _atom_site_fract_x
 _atom_site_fract_y
 _atom_site_fract_z
 _atom_site_occupancy
  Er  Er0  1  0.000000  0.000000  0.000000  1
  Cr  Cr1  1  0.770509  0.579614  0.438885  1
  Cr  Cr2  1  0.438885  0.770509  0.579614  1
  Cr  Cr3  1  0.579614  0.438885  0.770509  1
  Cr  Cr4  1  0.229491  0.420386  0.561115  1
  Cr  Cr5  1  0.561115  0.229491  0.420386  1
  Cr  Cr6  1  0.420386  0.561115  0.229491  1
  S  S7  1  0.755145  0.755145  0.755145  1
  S  S8  1  0.244855  0.244855  0.244855  1
  S  S9  1  0.253994  0.622601  0.872375  1
  S  S10  1  0.872375  0.253994  0.622601  1
  S  S11  1  0.622601  0.872375  0.253994  1
  S  S12  1  0.746006  0.377399  0.127625  1
  S  S13  1  0.127625  0.746006  0.377399  1
  S  S14  1  0.377399  0.127625  0.746006  1
