# generated using pymatgen
data_SrHoPa8O20
_symmetry_space_group_name_H-M   'P 1'
_cell_length_a   6.69327883
_cell_length_b   7.72717260
_cell_length_c   8.63004200
_cell_angle_alpha   102.71744773
_cell_angle_beta   97.15830789
_cell_angle_gamma   107.04104329
_symmetry_Int_Tables_number   1
_chemical_formula_structural   SrHoPa8O20
_chemical_formula_sum   'Sr1 Ho1 Pa8 O20'
_cell_volume   407.63178650
_cell_formula_units_Z   1
loop_
 _symmetry_equiv_pos_site_id
 _symmetry_equiv_pos_as_xyz
  1  'x, y, z'
loop_
 _atom_site_type_symbol
 _atom_site_label
 _atom_site_symmetry_multiplicity
 _atom_site_fract_x
 _atom_site_fract_y
 _atom_site_fract_z
 _atom_site_occupancy
  Sr  Sr0  1  0.800396  0.601741  0.602524  1
  Ho  Ho1  1  0.999966  0.998968  0.998582  1
  Pa  Pa2  1  0.001903  0.500649  0.998845  1
  Pa  Pa3  1  0.599789  0.200148  0.200705  1
  Pa  Pa4  1  0.798887  0.099258  0.601952  1
  Pa  Pa5  1  0.603325  0.701079  0.200952  1
  Pa  Pa6  1  0.199342  0.399564  0.399185  1
  Pa  Pa7  1  0.399990  0.299583  0.799874  1
  Pa  Pa8  1  0.195525  0.898669  0.397979  1
  Pa  Pa9  1  0.399672  0.799884  0.799802  1
  O  O10  1  0.852189  0.306908  0.441195  1
  O  O11  1  0.646683  0.925339  0.056073  1
  O  O12  1  0.850343  0.839524  0.441326  1
  O  O13  1  0.948160  0.770832  0.150161  1
  O  O14  1  0.427512  0.517853  0.654110  1
  O  O15  1  0.653428  0.426329  0.051431  1
  O  O16  1  0.746784  0.359274  0.759909  1
  O  O17  1  0.248759  0.123521  0.251435  1
  O  O18  1  0.950789  0.278723  0.148548  1
  O  O19  1  0.542953  0.973067  0.350185  1
  O  O20  1  0.071916  0.728095  0.863220  1
  O  O21  1  0.442357  0.025836  0.646922  1
  O  O22  1  0.739860  0.893979  0.757866  1
  O  O23  1  0.357874  0.574184  0.954173  1
  O  O24  1  0.249016  0.625740  0.245684  1
  O  O25  1  0.058832  0.230644  0.848748  1
  O  O26  1  0.534614  0.467880  0.336150  1
  O  O27  1  0.150420  0.173395  0.549965  1
  O  O28  1  0.359871  0.079980  0.949943  1
  O  O29  1  0.168845  0.679351  0.542561  1
