# generated using pymatgen
data_Be(Al3Cr)3
_symmetry_space_group_name_H-M   'P 1'
_cell_length_a   7.40586300
_cell_length_b   7.40586282
_cell_length_c   7.92136000
_cell_angle_alpha   90.00000000
_cell_angle_beta   90.00000000
_cell_angle_gamma   120.00000526
_symmetry_Int_Tables_number   1
_chemical_formula_structural   Be(Al3Cr)3
_chemical_formula_sum   'Be2 Al18 Cr6'
_cell_volume   376.25449486
_cell_formula_units_Z   2
loop_
 _symmetry_equiv_pos_site_id
 _symmetry_equiv_pos_as_xyz
  1  'x, y, z'
loop_
 _atom_site_type_symbol
 _atom_site_label
 _atom_site_symmetry_multiplicity
 _atom_site_fract_x
 _atom_site_fract_y
 _atom_site_fract_z
 _atom_site_occupancy
  Be  Be0  1  0.000000  0.000000  0.000000  1
  Be  Be1  1  0.000000  0.000000  0.500000  1
  Al  Al2  1  0.457042  0.914084  0.250000  1
  Al  Al3  1  0.542958  0.085916  0.750000  1
  Al  Al4  1  0.085916  0.542958  0.250000  1
  Al  Al5  1  0.914084  0.457042  0.750000  1
  Al  Al6  1  0.457042  0.542958  0.250000  1
  Al  Al7  1  0.542958  0.457042  0.750000  1
  Al  Al8  1  0.198496  0.396992  0.559264  1
  Al  Al9  1  0.801504  0.603008  0.440736  1
  Al  Al10  1  0.603008  0.801504  0.559264  1
  Al  Al11  1  0.801504  0.603008  0.059264  1
  Al  Al12  1  0.396992  0.198496  0.440736  1
  Al  Al13  1  0.198496  0.396992  0.940736  1
  Al  Al14  1  0.198496  0.801504  0.559264  1
  Al  Al15  1  0.396992  0.198496  0.059264  1
  Al  Al16  1  0.801504  0.198496  0.440736  1
  Al  Al17  1  0.603008  0.801504  0.940736  1
  Al  Al18  1  0.801504  0.198496  0.059264  1
  Al  Al19  1  0.198496  0.801504  0.940736  1
  Cr  Cr20  1  0.110590  0.221181  0.250000  1
  Cr  Cr21  1  0.889410  0.778819  0.750000  1
  Cr  Cr22  1  0.778819  0.889410  0.250000  1
  Cr  Cr23  1  0.221181  0.110590  0.750000  1
  Cr  Cr24  1  0.110590  0.889410  0.250000  1
  Cr  Cr25  1  0.889410  0.110590  0.750000  1
