# generated using pymatgen
data_Ca2Co9As6Ru
_symmetry_space_group_name_H-M   'P 1'
_cell_length_a   3.79678000
_cell_length_b   10.73703000
_cell_length_c   12.33654400
_cell_angle_alpha   90.00000000
_cell_angle_beta   90.00000000
_cell_angle_gamma   90.00000000
_symmetry_Int_Tables_number   1
_chemical_formula_structural   Ca2Co9As6Ru
_chemical_formula_sum   'Ca4 Co18 As12 Ru2'
_cell_volume   502.91328924
_cell_formula_units_Z   2
loop_
 _symmetry_equiv_pos_site_id
 _symmetry_equiv_pos_as_xyz
  1  'x, y, z'
loop_
 _atom_site_type_symbol
 _atom_site_label
 _atom_site_symmetry_multiplicity
 _atom_site_fract_x
 _atom_site_fract_y
 _atom_site_fract_z
 _atom_site_occupancy
  Ca  Ca0  1  0.250000  0.581782  0.702377  1
  Ca  Ca1  1  0.250000  0.918218  0.202377  1
  Ca  Ca2  1  0.750000  0.416306  0.295325  1
  Ca  Ca3  1  0.750000  0.083694  0.795325  1
  Co  Co4  1  0.750000  0.293235  0.011939  1
  Co  Co5  1  0.750000  0.206765  0.511939  1
  Co  Co6  1  0.250000  0.405064  0.489082  1
  Co  Co7  1  0.250000  0.094936  0.989082  1
  Co  Co8  1  0.750000  0.594158  0.510499  1
  Co  Co9  1  0.750000  0.905842  0.010499  1
  Co  Co10  1  0.250000  0.214447  0.175911  1
  Co  Co11  1  0.250000  0.285553  0.675911  1
  Co  Co12  1  0.750000  0.785104  0.824601  1
  Co  Co13  1  0.750000  0.714896  0.324601  1
  Co  Co14  1  0.250000  0.884696  0.698721  1
  Co  Co15  1  0.250000  0.615304  0.198721  1
  Co  Co16  1  0.750000  0.118167  0.303609  1
  Co  Co17  1  0.750000  0.381833  0.803609  1
  Co  Co18  1  0.250000  0.464902  0.933910  1
  Co  Co19  1  0.250000  0.035098  0.433910  1
  Co  Co20  1  0.750000  0.532751  0.066148  1
  Co  Co21  1  0.750000  0.967249  0.566148  1
  As  As22  1  0.250000  0.415566  0.114390  1
  As  As23  1  0.250000  0.084434  0.614390  1
  As  As24  1  0.750000  0.582092  0.884494  1
  As  As25  1  0.750000  0.917908  0.384494  1
  As  As26  1  0.250000  0.267687  0.867801  1
  As  As27  1  0.250000  0.232313  0.367801  1
  As  As28  1  0.750000  0.731224  0.133714  1
  As  As29  1  0.750000  0.768776  0.633714  1
  As  As30  1  0.250000  0.594635  0.389885  1
  As  As31  1  0.250000  0.905365  0.889885  1
  As  As32  1  0.750000  0.399012  0.608546  1
  As  As33  1  0.750000  0.100988  0.108546  1
  Ru  Ru34  1  0.250000  0.708076  0.989047  1
  Ru  Ru35  1  0.250000  0.791924  0.489047  1
