# generated using pymatgen
data_Sc3SiAs2Ir2Ru
_symmetry_space_group_name_H-M   'P 1'
_cell_length_a   6.67458687
_cell_length_b   6.68047693
_cell_length_c   3.79914000
_cell_angle_alpha   90.00000000
_cell_angle_beta   90.00000000
_cell_angle_gamma   120.02919015
_symmetry_Int_Tables_number   1
_chemical_formula_structural   Sc3SiAs2Ir2Ru
_chemical_formula_sum   'Sc3 Si1 As2 Ir2 Ru1'
_cell_volume   146.66279912
_cell_formula_units_Z   1
loop_
 _symmetry_equiv_pos_site_id
 _symmetry_equiv_pos_as_xyz
  1  'x, y, z'
loop_
 _atom_site_type_symbol
 _atom_site_label
 _atom_site_symmetry_multiplicity
 _atom_site_fract_x
 _atom_site_fract_y
 _atom_site_fract_z
 _atom_site_occupancy
  Sc  Sc0  1  0.413227  0.413645  0.500000  1
  Sc  Sc1  1  0.586773  0.000419  0.500000  1
  Sc  Sc2  1  0.000000  0.586079  0.500000  1
  Si  Si3  1  0.000000  0.000298  0.500000  1
  As  As4  1  0.667347  0.332626  0.000000  1
  As  As5  1  0.332653  0.665281  0.000000  1
  Ir  Ir6  1  0.759971  0.760435  0.000000  1
  Ir  Ir7  1  0.240029  0.000464  0.000000  1
  Ru  Ru8  1  0.000000  0.240754  0.000000  1
