# generated using pymatgen
data_Er16In4NiPdRh2
_symmetry_space_group_name_H-M   'P 1'
_cell_length_a   9.58155213
_cell_length_b   9.57694975
_cell_length_c   9.57874124
_cell_angle_alpha   59.94219280
_cell_angle_beta   59.99029917
_cell_angle_gamma   59.98410229
_symmetry_Int_Tables_number   1
_chemical_formula_structural   Er16In4NiPdRh2
_chemical_formula_sum   'Er16 In4 Ni1 Pd1 Rh2'
_cell_volume   621.12992202
_cell_formula_units_Z   1
loop_
 _symmetry_equiv_pos_site_id
 _symmetry_equiv_pos_as_xyz
  1  'x, y, z'
loop_
 _atom_site_type_symbol
 _atom_site_label
 _atom_site_symmetry_multiplicity
 _atom_site_fract_x
 _atom_site_fract_y
 _atom_site_fract_z
 _atom_site_occupancy
  Er  Er0  1  0.187438  0.190742  0.810874  1
  Er  Er1  1  0.438576  0.060537  0.062311  1
  Er  Er2  1  0.436239  0.062159  0.439174  1
  Er  Er3  1  0.062947  0.436539  0.065028  1
  Er  Er4  1  0.647177  0.054103  0.651543  1
  Er  Er5  1  0.189116  0.810914  0.810854  1
  Er  Er6  1  0.062428  0.062159  0.439174  1
  Er  Er7  1  0.810682  0.195548  0.183089  1
  Er  Er8  1  0.809960  0.810362  0.186041  1
  Er  Er9  1  0.653245  0.647475  0.046034  1
  Er  Er10  1  0.649054  0.645888  0.655868  1
  Er  Er11  1  0.063217  0.435859  0.437707  1
  Er  Er12  1  0.049189  0.645888  0.655868  1
  Er  Er13  1  0.810946  0.190742  0.810874  1
  Er  Er14  1  0.435485  0.436539  0.065028  1
  Er  Er15  1  0.193636  0.810362  0.186041  1
  In  In16  1  0.417562  0.747817  0.417058  1
  In  In17  1  0.416100  0.418062  0.749736  1
  In  In18  1  0.750459  0.418106  0.415799  1
  In  In19  1  0.415638  0.418106  0.415799  1
  Ni  Ni20  1  0.859220  0.426117  0.855444  1
  Pd  Pd21  1  0.856750  0.858764  0.427735  1
  Rh  Rh22  1  0.427760  0.858607  0.856460  1
  Rh  Rh23  1  0.857173  0.858607  0.856460  1
