# generated using pymatgen
data_Nd19CdIr12
_symmetry_space_group_name_H-M   'P 1'
_cell_length_a   11.27807400
_cell_length_b   11.27807400
_cell_length_c   6.49524900
_cell_angle_alpha   90.00000000
_cell_angle_beta   90.00000000
_cell_angle_gamma   90.00000000
_symmetry_Int_Tables_number   1
_chemical_formula_structural   Nd19CdIr12
_chemical_formula_sum   'Nd19 Cd1 Ir12'
_cell_volume   826.16289225
_cell_formula_units_Z   1
loop_
 _symmetry_equiv_pos_site_id
 _symmetry_equiv_pos_as_xyz
  1  'x, y, z'
loop_
 _atom_site_type_symbol
 _atom_site_label
 _atom_site_symmetry_multiplicity
 _atom_site_fract_x
 _atom_site_fract_y
 _atom_site_fract_z
 _atom_site_occupancy
  Nd  Nd0  1  0.085994  0.281030  0.115427  1
  Nd  Nd1  1  0.792672  0.411585  0.118102  1
  Nd  Nd2  1  0.207328  0.588415  0.118102  1
  Nd  Nd3  1  0.914006  0.718970  0.115427  1
  Nd  Nd4  1  0.410062  0.792182  0.384609  1
  Nd  Nd5  1  0.589938  0.207818  0.384609  1
  Nd  Nd6  1  0.290513  0.089269  0.383851  1
  Nd  Nd7  1  0.709487  0.910731  0.383851  1
  Nd  Nd8  1  0.411585  0.207328  0.881898  1
  Nd  Nd9  1  0.718970  0.085994  0.884573  1
  Nd  Nd10  1  0.281030  0.914006  0.884573  1
  Nd  Nd11  1  0.588415  0.792672  0.881898  1
  Nd  Nd12  1  0.089269  0.709487  0.616149  1
  Nd  Nd13  1  0.910731  0.290513  0.616149  1
  Nd  Nd14  1  0.207818  0.410062  0.615391  1
  Nd  Nd15  1  0.792182  0.589938  0.615391  1
  Nd  Nd16  1  0.500000  0.500000  0.000000  1
  Nd  Nd17  1  0.500000  0.500000  0.500000  1
  Nd  Nd18  1  0.000000  0.000000  0.500000  1
  Cd  Cd19  1  0.000000  0.000000  0.000000  1
  Ir  Ir20  1  0.155661  0.844855  0.255476  1
  Ir  Ir21  1  0.344920  0.345876  0.247430  1
  Ir  Ir22  1  0.655080  0.654124  0.247430  1
  Ir  Ir23  1  0.844339  0.155145  0.255476  1
  Ir  Ir24  1  0.345876  0.655080  0.752570  1
  Ir  Ir25  1  0.155145  0.155661  0.744524  1
  Ir  Ir26  1  0.844855  0.844339  0.744524  1
  Ir  Ir27  1  0.654124  0.344920  0.752570  1
  Ir  Ir28  1  0.000000  0.500000  0.377143  1
  Ir  Ir29  1  0.500000  0.000000  0.117697  1
  Ir  Ir30  1  0.500000  0.000000  0.622857  1
  Ir  Ir31  1  0.000000  0.500000  0.882303  1
