# generated using pymatgen
data_Tb16Ru4Br23
_symmetry_space_group_name_H-M   'P 1'
_cell_length_a   11.07133094
_cell_length_b   11.07133086
_cell_length_c   12.46796300
_cell_angle_alpha   78.18028163
_cell_angle_beta   78.18028172
_cell_angle_gamma   68.62724008
_symmetry_Int_Tables_number   1
_chemical_formula_structural   Tb16Ru4Br23
_chemical_formula_sum   'Tb16 Ru4 Br23'
_cell_volume   1378.69697898
_cell_formula_units_Z   1
loop_
 _symmetry_equiv_pos_site_id
 _symmetry_equiv_pos_as_xyz
  1  'x, y, z'
loop_
 _atom_site_type_symbol
 _atom_site_label
 _atom_site_symmetry_multiplicity
 _atom_site_fract_x
 _atom_site_fract_y
 _atom_site_fract_z
 _atom_site_occupancy
  Tb  Tb0  1  0.190825  0.190825  0.273758  1
  Tb  Tb1  1  0.809175  0.809175  0.726242  1
  Tb  Tb2  1  0.192657  0.805642  0.850162  1
  Tb  Tb3  1  0.194358  0.807343  0.149838  1
  Tb  Tb4  1  0.807343  0.194358  0.149838  1
  Tb  Tb5  1  0.805642  0.192657  0.850162  1
  Tb  Tb6  1  0.515601  0.808940  0.624790  1
  Tb  Tb7  1  0.191060  0.484399  0.375210  1
  Tb  Tb8  1  0.484399  0.191060  0.375210  1
  Tb  Tb9  1  0.808940  0.515601  0.624790  1
  Tb  Tb10  1  0.192137  0.498397  0.058317  1
  Tb  Tb11  1  0.501603  0.807863  0.941683  1
  Tb  Tb12  1  0.807863  0.501603  0.941683  1
  Tb  Tb13  1  0.498397  0.192137  0.058317  1
  Tb  Tb14  1  0.503337  0.503337  0.162665  1
  Tb  Tb15  1  0.496663  0.496663  0.837335  1
  Ru  Ru16  1  0.343258  0.343258  0.217138  1
  Ru  Ru17  1  0.656742  0.656742  0.782862  1
  Ru  Ru18  1  0.347875  0.652125  0.000000  1
  Ru  Ru19  1  0.652125  0.347875  0.000000  1
  Br  Br20  1  0.000000  0.000000  0.000000  1
  Br  Br21  1  0.017845  0.017845  0.296215  1
  Br  Br22  1  0.982155  0.982155  0.703785  1
  Br  Br23  1  0.677101  0.677101  0.114325  1
  Br  Br24  1  0.322899  0.322899  0.885675  1
  Br  Br25  1  0.656284  0.993603  0.560705  1
  Br  Br26  1  0.006397  0.343716  0.439295  1
  Br  Br27  1  0.343716  0.006397  0.439295  1
  Br  Br28  1  0.993603  0.656284  0.560705  1
  Br  Br29  1  0.675449  0.320704  0.659213  1
  Br  Br30  1  0.679296  0.324551  0.340787  1
  Br  Br31  1  0.324551  0.679296  0.340787  1
  Br  Br32  1  0.665561  0.998550  0.890307  1
  Br  Br33  1  0.001450  0.334439  0.109693  1
  Br  Br34  1  0.334439  0.001450  0.109693  1
  Br  Br35  1  0.998550  0.665561  0.890307  1
  Br  Br36  1  0.670747  0.006736  0.226386  1
  Br  Br37  1  0.993264  0.329253  0.773614  1
  Br  Br38  1  0.329253  0.993264  0.773614  1
  Br  Br39  1  0.006736  0.670747  0.226386  1
  Br  Br40  1  0.663051  0.663051  0.452297  1
  Br  Br41  1  0.336949  0.336949  0.547703  1
  Br  Br42  1  0.320704  0.675449  0.659213  1
