# generated using pymatgen
data_DyY7(MnS4)4
_symmetry_space_group_name_H-M   'P 1'
_cell_length_a   6.41287500
_cell_length_b   7.92528900
_cell_length_c   13.54430800
_cell_angle_alpha   90.00248715
_cell_angle_beta   89.99827041
_cell_angle_gamma   89.99748232
_symmetry_Int_Tables_number   1
_chemical_formula_structural   DyY7(MnS4)4
_chemical_formula_sum   'Dy1 Y7 Mn4 S16'
_cell_volume   688.37438790
_cell_formula_units_Z   1
loop_
 _symmetry_equiv_pos_site_id
 _symmetry_equiv_pos_as_xyz
  1  'x, y, z'
loop_
 _atom_site_type_symbol
 _atom_site_label
 _atom_site_symmetry_multiplicity
 _atom_site_fract_x
 _atom_site_fract_y
 _atom_site_fract_z
 _atom_site_occupancy
  Dy  Dy0  1  0.500000  0.500000  0.500000  1
  Y  Y1  1  0.000000  0.500000  0.000000  1
  Y  Y2  1  0.500000  0.000000  0.500000  1
  Y  Y3  1  0.000000  0.000000  0.000000  1
  Y  Y4  1  0.994694  0.750000  0.265975  1
  Y  Y5  1  0.505301  0.750008  0.765980  1
  Y  Y6  1  0.005306  0.250000  0.734025  1
  Y  Y7  1  0.494699  0.249992  0.234020  1
  Mn  Mn8  1  0.411016  0.750001  0.092329  1
  Mn  Mn9  1  0.088997  0.750007  0.592327  1
  Mn  Mn10  1  0.588984  0.249999  0.907671  1
  Mn  Mn11  1  0.911003  0.249993  0.407673  1
  S  S12  1  0.778774  0.750001  0.090193  1
  S  S13  1  0.721172  0.749933  0.590167  1
  S  S14  1  0.221226  0.249999  0.909807  1
  S  S15  1  0.278828  0.250067  0.409833  1
  S  S16  1  0.244030  0.749929  0.430232  1
  S  S17  1  0.256041  0.750000  0.930216  1
  S  S18  1  0.755970  0.250071  0.569768  1
  S  S19  1  0.743959  0.250000  0.069784  1
  S  S20  1  0.742538  0.486776  0.331262  1
  S  S21  1  0.757393  0.013237  0.831215  1
  S  S22  1  0.257395  0.986762  0.668784  1
  S  S23  1  0.242608  0.513238  0.168784  1
  S  S24  1  0.257462  0.513224  0.668738  1
  S  S25  1  0.242607  0.986763  0.168785  1
  S  S26  1  0.742605  0.013238  0.331216  1
  S  S27  1  0.757392  0.486762  0.831216  1
