# generated using pymatgen
data_La3Pr9(SnI3)4
_symmetry_space_group_name_H-M   'P 1'
_cell_length_a   11.22362542
_cell_length_b   11.21519952
_cell_length_c   11.19594315
_cell_angle_alpha   109.65842342
_cell_angle_beta   109.31048822
_cell_angle_gamma   109.38009439
_symmetry_Int_Tables_number   1
_chemical_formula_structural   La3Pr9(SnI3)4
_chemical_formula_sum   'La3 Pr9 Sn4 I12'
_cell_volume   1085.72953859
_cell_formula_units_Z   1
loop_
 _symmetry_equiv_pos_site_id
 _symmetry_equiv_pos_as_xyz
  1  'x, y, z'
loop_
 _atom_site_type_symbol
 _atom_site_label
 _atom_site_symmetry_multiplicity
 _atom_site_fract_x
 _atom_site_fract_y
 _atom_site_fract_z
 _atom_site_occupancy
  La  La0  1  0.482697  0.491349  0.241349  1
  La  La1  1  0.749935  0.240827  0.257520  1
  La  La2  1  0.749935  0.009108  0.492415  1
  Pr  Pr3  1  0.238468  0.476504  0.489657  1
  Pr  Pr4  1  0.260273  0.750951  0.236995  1
  Pr  Pr5  1  0.023007  0.261503  0.011503  1
  Pr  Pr6  1  0.014219  0.023561  0.261925  1
  Pr  Pr7  1  0.485165  0.748120  0.008653  1
  Pr  Pr8  1  0.485165  0.237045  0.476512  1
  Pr  Pr9  1  0.014219  0.490659  0.752294  1
  Pr  Pr10  1  0.260273  0.009322  0.023278  1
  Pr  Pr11  1  0.238468  0.261962  0.748811  1
  Sn  Sn12  1  0.250558  0.250971  0.249552  1
  Sn  Sn13  1  0.501803  0.000901  0.250901  1
  Sn  Sn14  1  0.998118  0.249059  0.499059  1
  Sn  Sn15  1  0.250558  0.499587  0.001006  1
  I  I16  1  0.249585  0.754389  0.745131  1
  I  I17  1  0.508119  0.504059  0.754059  1
  I  I18  1  0.990949  0.745474  0.995474  1
  I  I19  1  0.746840  0.254103  0.756942  1
  I  I20  1  0.997964  0.991461  0.747321  1
  I  I21  1  0.249585  0.995197  0.504454  1
  I  I22  1  0.754788  0.508756  0.508810  1
  I  I23  1  0.499861  0.245744  0.990481  1
  I  I24  1  0.754788  0.746030  0.245976  1
  I  I25  1  0.746840  0.992737  0.989899  1
  I  I26  1  0.997964  0.506504  0.250642  1
  I  I27  1  0.499861  0.754115  0.509377  1
