# generated using pymatgen
data_K13Rb3(ZrSe4)4
_symmetry_space_group_name_H-M   'P 1'
_cell_length_a   8.52595937
_cell_length_b   10.38121259
_cell_length_c   15.41123529
_cell_angle_alpha   90.16801624
_cell_angle_beta   90.31029094
_cell_angle_gamma   90.16161906
_symmetry_Int_Tables_number   1
_chemical_formula_structural   K13Rb3(ZrSe4)4
_chemical_formula_sum   'K13 Rb3 Zr4 Se16'
_cell_volume   1364.01394780
_cell_formula_units_Z   1
loop_
 _symmetry_equiv_pos_site_id
 _symmetry_equiv_pos_as_xyz
  1  'x, y, z'
loop_
 _atom_site_type_symbol
 _atom_site_label
 _atom_site_symmetry_multiplicity
 _atom_site_fract_x
 _atom_site_fract_y
 _atom_site_fract_z
 _atom_site_occupancy
  K  K0  1  0.500000  0.500000  0.500000  1
  K  K1  1  0.976499  0.751494  0.430987  1
  K  K2  1  0.474082  0.250916  0.068938  1
  K  K3  1  0.023501  0.248506  0.569013  1
  K  K4  1  0.525918  0.749084  0.931062  1
  K  K5  1  0.837969  0.059067  0.272645  1
  K  K6  1  0.337909  0.945685  0.229405  1
  K  K7  1  0.161045  0.552990  0.723287  1
  K  K8  1  0.663067  0.441434  0.771414  1
  K  K9  1  0.162031  0.940933  0.727355  1
  K  K10  1  0.662091  0.054315  0.770595  1
  K  K11  1  0.838955  0.447010  0.276713  1
  K  K12  1  0.336933  0.558566  0.228586  1
  Rb  Rb13  1  0.000000  0.000000  0.000000  1
  Rb  Rb14  1  0.500000  0.000000  0.500000  1
  Rb  Rb15  1  0.000000  0.500000  0.000000  1
  Zr  Zr16  1  0.760760  0.746170  0.669265  1
  Zr  Zr17  1  0.239240  0.253830  0.330735  1
  Zr  Zr18  1  0.734616  0.750590  0.172913  1
  Zr  Zr19  1  0.265384  0.249410  0.827087  1
  Se  Se20  1  0.966382  0.247969  0.819176  1
  Se  Se21  1  0.537916  0.251690  0.325028  1
  Se  Se22  1  0.462084  0.748310  0.674972  1
  Se  Se23  1  0.033618  0.752031  0.180824  1
  Se  Se24  1  0.641059  0.547699  0.096098  1
  Se  Se25  1  0.151253  0.456295  0.409299  1
  Se  Se26  1  0.359799  0.048126  0.904241  1
  Se  Se27  1  0.858634  0.948262  0.594337  1
  Se  Se28  1  0.358941  0.452301  0.903902  1
  Se  Se29  1  0.848747  0.543705  0.590701  1
  Se  Se30  1  0.640201  0.951874  0.095759  1
  Se  Se31  1  0.141366  0.051738  0.405663  1
  Se  Se32  1  0.620769  0.750672  0.326548  1
  Se  Se33  1  0.123104  0.254677  0.176511  1
  Se  Se34  1  0.379231  0.249328  0.673452  1
  Se  Se35  1  0.876896  0.745323  0.823489  1
