# generated using pymatgen
data_RbZn4(BiO4)3
_symmetry_space_group_name_H-M   'P 1'
_cell_length_a   7.06397921
_cell_length_b   7.06397815
_cell_length_c   7.06397891
_cell_angle_alpha   107.69303313
_cell_angle_beta   107.69303372
_cell_angle_gamma   107.69304511
_symmetry_Int_Tables_number   1
_chemical_formula_structural   RbZn4(BiO4)3
_chemical_formula_sum   'Rb1 Zn4 Bi3 O12'
_cell_volume   287.82787157
_cell_formula_units_Z   1
loop_
 _symmetry_equiv_pos_site_id
 _symmetry_equiv_pos_as_xyz
  1  'x, y, z'
loop_
 _atom_site_type_symbol
 _atom_site_label
 _atom_site_symmetry_multiplicity
 _atom_site_fract_x
 _atom_site_fract_y
 _atom_site_fract_z
 _atom_site_occupancy
  Rb  Rb0  1  0.499804  0.499804  0.499804  1
  Zn  Zn1  1  0.636103  0.027927  0.513326  1
  Zn  Zn2  1  0.027927  0.513326  0.636103  1
  Zn  Zn3  1  0.513326  0.636103  0.027927  1
  Zn  Zn4  1  0.984349  0.984349  0.984349  1
  Bi  Bi5  1  0.184299  0.070096  0.650466  1
  Bi  Bi6  1  0.650466  0.184299  0.070096  1
  Bi  Bi7  1  0.070096  0.650466  0.184299  1
  O  O8  1  0.663187  0.878377  0.963810  1
  O  O9  1  0.963810  0.663187  0.878377  1
  O  O10  1  0.745454  0.252426  0.409695  1
  O  O11  1  0.409695  0.745454  0.252426  1
  O  O12  1  0.878377  0.963810  0.663187  1
  O  O13  1  0.252426  0.409695  0.745454  1
  O  O14  1  0.115239  0.991460  0.309285  1
  O  O15  1  0.991460  0.309285  0.115239  1
  O  O16  1  0.309285  0.115239  0.991460  1
  O  O17  1  0.158363  0.729325  0.533127  1
  O  O18  1  0.729325  0.533127  0.158363  1
  O  O19  1  0.533127  0.158363  0.729325  1
