# generated using pymatgen
data_Yb7TmCu3Si12Pd
_symmetry_space_group_name_H-M   'P 1'
_cell_length_a   8.11299000
_cell_length_b   8.11298912
_cell_length_c   8.21885200
_cell_angle_alpha   90.00000000
_cell_angle_beta   90.00000000
_cell_angle_gamma   119.99999544
_symmetry_Int_Tables_number   1
_chemical_formula_structural   Yb7TmCu3Si12Pd
_chemical_formula_sum   'Yb7 Tm1 Cu3 Si12 Pd1'
_cell_volume   468.49358205
_cell_formula_units_Z   1
loop_
 _symmetry_equiv_pos_site_id
 _symmetry_equiv_pos_as_xyz
  1  'x, y, z'
loop_
 _atom_site_type_symbol
 _atom_site_label
 _atom_site_symmetry_multiplicity
 _atom_site_fract_x
 _atom_site_fract_y
 _atom_site_fract_z
 _atom_site_occupancy
  Yb  Yb0  1  0.500397  0.499603  0.747942  1
  Yb  Yb1  1  0.500576  0.499424  0.251805  1
  Yb  Yb2  1  0.999206  0.499603  0.747942  1
  Yb  Yb3  1  0.998848  0.499424  0.251805  1
  Yb  Yb4  1  0.500397  0.000794  0.747942  1
  Yb  Yb5  1  0.500576  0.001152  0.251805  1
  Yb  Yb6  1  0.000000  0.000000  0.750392  1
  Tm  Tm7  1  0.000000  0.000000  0.250193  1
  Cu  Cu8  1  0.666667  0.333333  0.998303  1
  Cu  Cu9  1  0.333333  0.666667  0.002589  1
  Cu  Cu10  1  0.333333  0.666667  0.498233  1
  Si  Si11  1  0.833154  0.166846  0.003948  1
  Si  Si12  1  0.166810  0.833190  0.003509  1
  Si  Si13  1  0.333692  0.166846  0.003948  1
  Si  Si14  1  0.165868  0.834132  0.497351  1
  Si  Si15  1  0.666381  0.833190  0.003509  1
  Si  Si16  1  0.835553  0.164447  0.495022  1
  Si  Si17  1  0.833154  0.666308  0.003948  1
  Si  Si18  1  0.668264  0.834132  0.497351  1
  Si  Si19  1  0.166810  0.333619  0.003509  1
  Si  Si20  1  0.328894  0.164447  0.495022  1
  Si  Si21  1  0.165868  0.331736  0.497351  1
  Si  Si22  1  0.835553  0.671106  0.495022  1
  Pd  Pd23  1  0.666667  0.333333  0.501556  1
