# generated using pymatgen
data_K7TlS24
_symmetry_space_group_name_H-M   'P 1'
_cell_length_a   12.26888289
_cell_length_b   6.66929179
_cell_length_c   12.36410300
_cell_angle_alpha   72.70253568
_cell_angle_beta   89.75640232
_cell_angle_gamma   90.03864251
_symmetry_Int_Tables_number   1
_chemical_formula_structural   K7TlS24
_chemical_formula_sum   'K7 Tl1 S24'
_cell_volume   965.92431563
_cell_formula_units_Z   1
loop_
 _symmetry_equiv_pos_site_id
 _symmetry_equiv_pos_as_xyz
  1  'x, y, z'
loop_
 _atom_site_type_symbol
 _atom_site_label
 _atom_site_symmetry_multiplicity
 _atom_site_fract_x
 _atom_site_fract_y
 _atom_site_fract_z
 _atom_site_occupancy
  K  K0  1  0.633802  0.216456  0.989891  1
  K  K1  1  0.865011  0.214758  0.493524  1
  K  K2  1  0.362747  0.786913  0.007785  1
  K  K3  1  0.134845  0.781643  0.511825  1
  K  K4  1  0.615025  0.703516  0.576105  1
  K  K5  1  0.884200  0.704374  0.075501  1
  K  K6  1  0.385155  0.296218  0.424457  1
  Tl  Tl7  1  0.111945  0.314267  0.923318  1
  S  S8  1  0.365239  0.288530  0.004825  1
  S  S9  1  0.126975  0.290958  0.504552  1
  S  S10  1  0.625998  0.708187  0.995450  1
  S  S11  1  0.871838  0.711782  0.494525  1
  S  S12  1  0.415202  0.459645  0.844676  1
  S  S13  1  0.082623  0.460156  0.342901  1
  S  S14  1  0.581983  0.539452  0.157903  1
  S  S15  1  0.916280  0.539059  0.655591  1
  S  S16  1  0.332268  0.374589  0.722615  1
  S  S17  1  0.172753  0.379396  0.223987  1
  S  S18  1  0.672146  0.623552  0.275063  1
  S  S19  1  0.827789  0.621170  0.775389  1
  S  S20  1  0.391679  0.064640  0.725694  1
  S  S21  1  0.113310  0.067412  0.222355  1
  S  S22  1  0.611195  0.935717  0.274984  1
  S  S23  1  0.890473  0.930682  0.776104  1
  S  S24  1  0.557827  0.072957  0.720277  1
  S  S25  1  0.947769  0.075705  0.221409  1
  S  S26  1  0.445868  0.922540  0.278945  1
  S  S27  1  0.055688  0.915658  0.779282  1
  S  S28  1  0.611640  0.219727  0.558541  1
  S  S29  1  0.890963  0.219630  0.060796  1
  S  S30  1  0.389742  0.781403  0.440503  1
  S  S31  1  0.110021  0.779310  0.941228  1
