# generated using pymatgen
data_TbZr8(In2Co)7
_symmetry_space_group_name_H-M   'P 1'
_cell_length_a   9.46203303
_cell_length_b   9.46306433
_cell_length_c   9.46291756
_cell_angle_alpha   60.19144387
_cell_angle_beta   60.19587142
_cell_angle_gamma   60.19695920
_symmetry_Int_Tables_number   1
_chemical_formula_structural   TbZr8(In2Co)7
_chemical_formula_sum   'Tb1 Zr8 In14 Co7'
_cell_volume   601.77954775
_cell_formula_units_Z   1
loop_
 _symmetry_equiv_pos_site_id
 _symmetry_equiv_pos_as_xyz
  1  'x, y, z'
loop_
 _atom_site_type_symbol
 _atom_site_label
 _atom_site_symmetry_multiplicity
 _atom_site_fract_x
 _atom_site_fract_y
 _atom_site_fract_z
 _atom_site_occupancy
  Tb  Tb0  1  0.500000  0.500000  0.500000  1
  Zr  Zr1  1  0.120754  0.637484  0.120832  1
  Zr  Zr2  1  0.362517  0.879244  0.879211  1
  Zr  Zr3  1  0.879120  0.879154  0.879190  1
  Zr  Zr4  1  0.637483  0.120756  0.120789  1
  Zr  Zr5  1  0.879209  0.879164  0.362514  1
  Zr  Zr6  1  0.120880  0.120846  0.120810  1
  Zr  Zr7  1  0.879246  0.362516  0.879168  1
  Zr  Zr8  1  0.120791  0.120836  0.637486  1
  In  In9  1  0.500017  0.844806  0.155203  1
  In  In10  1  0.500582  0.844343  0.500528  1
  In  In11  1  0.499418  0.155657  0.499472  1
  In  In12  1  0.500571  0.500542  0.844335  1
  In  In13  1  0.155673  0.499431  0.499452  1
  In  In14  1  0.844781  0.155205  0.500012  1
  In  In15  1  0.155219  0.844795  0.499988  1
  In  In16  1  0.499983  0.155194  0.844797  1
  In  In17  1  0.155210  0.499974  0.844792  1
  In  In18  1  0.499429  0.499458  0.155665  1
  In  In19  1  0.844327  0.500569  0.500548  1
  In  In20  1  0.844790  0.500026  0.155208  1
  In  In21  1  0.250082  0.250098  0.250094  1
  In  In22  1  0.749918  0.749902  0.749906  1
  Co  Co23  1  0.779601  0.779596  0.220045  1
  Co  Co24  1  0.000000  0.000000  0.000000  1
  Co  Co25  1  0.220324  0.780046  0.220326  1
  Co  Co26  1  0.219826  0.779795  0.779800  1
  Co  Co27  1  0.220399  0.220404  0.779955  1
  Co  Co28  1  0.779676  0.219954  0.779674  1
  Co  Co29  1  0.780174  0.220205  0.220200  1
