# generated using pymatgen
data_Hf3Mn(Co4P3)2
_symmetry_space_group_name_H-M   'P 1'
_cell_length_a   11.86697200
_cell_length_b   11.89704069
_cell_length_c   3.59902200
_cell_angle_alpha   90.00000000
_cell_angle_beta   90.00000000
_cell_angle_gamma   120.08385691
_symmetry_Int_Tables_number   1
_chemical_formula_structural   Hf3Mn(Co4P3)2
_chemical_formula_sum   'Hf6 Mn2 Co16 P12'
_cell_volume   439.66956049
_cell_formula_units_Z   2
loop_
 _symmetry_equiv_pos_site_id
 _symmetry_equiv_pos_as_xyz
  1  'x, y, z'
loop_
 _atom_site_type_symbol
 _atom_site_label
 _atom_site_symmetry_multiplicity
 _atom_site_fract_x
 _atom_site_fract_y
 _atom_site_fract_z
 _atom_site_occupancy
  Hf  Hf0  1  0.817386  0.816998  0.500000  1
  Hf  Hf1  1  0.000000  0.175251  0.500000  1
  Hf  Hf2  1  0.334030  0.666075  0.000000  1
  Hf  Hf3  1  0.665970  0.332045  0.000000  1
  Hf  Hf4  1  0.000000  0.554980  0.000000  1
  Hf  Hf5  1  0.182614  0.999612  0.500000  1
  Mn  Mn6  1  0.448854  0.449035  0.000000  1
  Mn  Mn7  1  0.551146  0.000181  0.000000  1
  Co  Co8  1  0.623861  0.821926  0.000000  1
  Co  Co9  1  0.376139  0.198065  0.000000  1
  Co  Co10  1  0.000000  0.721630  0.500000  1
  Co  Co11  1  0.283772  0.282949  0.500000  1
  Co  Co12  1  0.871161  0.350899  0.500000  1
  Co  Co13  1  0.716228  0.999176  0.500000  1
  Co  Co14  1  0.818470  0.628758  0.000000  1
  Co  Co15  1  0.181530  0.810288  0.000000  1
  Co  Co16  1  0.357703  0.874081  0.500000  1
  Co  Co17  1  0.128839  0.479738  0.500000  1
  Co  Co18  1  0.642297  0.516379  0.500000  1
  Co  Co19  1  0.000000  0.001393  0.000000  1
  Co  Co20  1  0.515585  0.646281  0.500000  1
  Co  Co21  1  0.484415  0.130697  0.500000  1
  Co  Co22  1  0.198819  0.373538  0.000000  1
  Co  Co23  1  0.801181  0.174719  0.000000  1
  P  P24  1  0.000000  0.343803  0.000000  1
  P  P25  1  0.824534  0.515007  0.500000  1
  P  P26  1  0.682045  0.164515  0.500000  1
  P  P27  1  0.178134  0.175705  0.000000  1
  P  P28  1  0.638510  0.642977  0.000000  1
  P  P29  1  0.821866  0.997571  0.000000  1
  P  P30  1  0.516891  0.834452  0.500000  1
  P  P31  1  0.175466  0.690472  0.500000  1
  P  P32  1  0.361490  0.004468  0.000000  1
  P  P33  1  0.483109  0.317563  0.500000  1
  P  P34  1  0.000000  0.826303  0.000000  1
  P  P35  1  0.317955  0.482468  0.500000  1
