# generated using pymatgen
data_Dy2Er3Si9P3Ir19
_symmetry_space_group_name_H-M   'P 1'
_cell_length_a   12.82284700
_cell_length_b   12.82284703
_cell_length_c   3.94316300
_cell_angle_alpha   90.00000000
_cell_angle_beta   90.00000000
_cell_angle_gamma   120.00000250
_symmetry_Int_Tables_number   1
_chemical_formula_structural   Dy2Er3Si9P3Ir19
_chemical_formula_sum   'Dy2 Er3 Si9 P3 Ir19'
_cell_volume   561.49290469
_cell_formula_units_Z   1
loop_
 _symmetry_equiv_pos_site_id
 _symmetry_equiv_pos_as_xyz
  1  'x, y, z'
loop_
 _atom_site_type_symbol
 _atom_site_label
 _atom_site_symmetry_multiplicity
 _atom_site_fract_x
 _atom_site_fract_y
 _atom_site_fract_z
 _atom_site_occupancy
  Dy  Dy0  1  0.666667  0.333333  0.000000  1
  Dy  Dy1  1  0.333333  0.666667  0.000000  1
  Er  Er2  1  0.814533  0.814533  0.500000  1
  Er  Er3  1  0.185467  0.000000  0.500000  1
  Er  Er4  1  0.000000  0.185467  0.500000  1
  Si  Si5  1  0.686264  0.167310  0.500000  1
  Si  Si6  1  0.832690  0.518954  0.500000  1
  Si  Si7  1  0.481046  0.313736  0.500000  1
  Si  Si8  1  0.167310  0.686264  0.500000  1
  Si  Si9  1  0.518954  0.832690  0.500000  1
  Si  Si10  1  0.313736  0.481046  0.500000  1
  Si  Si11  1  0.633364  0.633364  0.000000  1
  Si  Si12  1  0.366636  0.000000  0.000000  1
  Si  Si13  1  0.000000  0.366636  0.000000  1
  P  P14  1  0.178083  0.178083  0.000000  1
  P  P15  1  0.821917  0.000000  0.000000  1
  P  P16  1  0.000000  0.821917  0.000000  1
  Ir  Ir17  1  0.807252  0.179560  0.000000  1
  Ir  Ir18  1  0.820440  0.627692  0.000000  1
  Ir  Ir19  1  0.372308  0.192748  0.000000  1
  Ir  Ir20  1  0.179560  0.807252  0.000000  1
  Ir  Ir21  1  0.627692  0.820440  0.000000  1
  Ir  Ir22  1  0.192748  0.372308  0.000000  1
  Ir  Ir23  1  0.447110  0.447110  0.000000  1
  Ir  Ir24  1  0.552890  0.000000  0.000000  1
  Ir  Ir25  1  0.000000  0.552890  0.000000  1
  Ir  Ir26  1  0.277767  0.277767  0.500000  1
  Ir  Ir27  1  0.722233  0.000000  0.500000  1
  Ir  Ir28  1  0.000000  0.722233  0.500000  1
  Ir  Ir29  1  0.872504  0.359629  0.500000  1
  Ir  Ir30  1  0.640371  0.512876  0.500000  1
  Ir  Ir31  1  0.487124  0.127496  0.500000  1
  Ir  Ir32  1  0.359629  0.872504  0.500000  1
  Ir  Ir33  1  0.512876  0.640371  0.500000  1
  Ir  Ir34  1  0.127496  0.487124  0.500000  1
  Ir  Ir35  1  0.000000  0.000000  0.000000  1
