# generated using pymatgen
data_Nd8Er7Tm5Si16
_symmetry_space_group_name_H-M   'P 1'
_cell_length_a   7.72185719
_cell_length_b   7.72121636
_cell_length_c   14.19667695
_cell_angle_alpha   90.03405397
_cell_angle_beta   89.97552821
_cell_angle_gamma   89.99271694
_symmetry_Int_Tables_number   1
_chemical_formula_structural   Nd8Er7Tm5Si16
_chemical_formula_sum   'Nd8 Er7 Tm5 Si16'
_cell_volume   846.43588588
_cell_formula_units_Z   1
loop_
 _symmetry_equiv_pos_site_id
 _symmetry_equiv_pos_as_xyz
  1  'x, y, z'
loop_
 _atom_site_type_symbol
 _atom_site_label
 _atom_site_symmetry_multiplicity
 _atom_site_fract_x
 _atom_site_fract_y
 _atom_site_fract_z
 _atom_site_occupancy
  Nd  Nd0  1  0.642658  0.993008  0.459063  1
  Nd  Nd1  1  0.357293  0.006967  0.959176  1
  Nd  Nd2  1  0.992976  0.642652  0.540884  1
  Nd  Nd3  1  0.492797  0.857315  0.209063  1
  Nd  Nd4  1  0.507028  0.142623  0.709116  1
  Nd  Nd5  1  0.857344  0.493023  0.790961  1
  Nd  Nd6  1  0.142656  0.507093  0.290821  1
  Nd  Nd7  1  0.006978  0.357285  0.040917  1
  Er  Er8  1  0.493074  0.360004  0.124152  1
  Er  Er9  1  0.992975  0.139981  0.625812  1
  Er  Er10  1  0.860031  0.006940  0.874215  1
  Er  Er11  1  0.140035  0.992945  0.374118  1
  Er  Er12  1  0.506976  0.640017  0.624165  1
  Er  Er13  1  0.359948  0.493037  0.875879  1
  Er  Er14  1  0.640068  0.507043  0.375793  1
  Tm  Tm15  1  0.006786  0.859752  0.125788  1
  Tm  Tm16  1  0.318012  0.317966  0.499948  1
  Tm  Tm17  1  0.182023  0.818024  0.750028  1
  Tm  Tm18  1  0.818111  0.181752  0.249900  1
  Tm  Tm19  1  0.682157  0.682112  0.000105  1
  Si  Si20  1  0.289763  0.937512  0.561753  1
  Si  Si21  1  0.710676  0.062108  0.061915  1
  Si  Si22  1  0.937458  0.289753  0.438241  1
  Si  Si23  1  0.437537  0.210168  0.311736  1
  Si  Si24  1  0.562504  0.789789  0.811767  1
  Si  Si25  1  0.210236  0.437552  0.688275  1
  Si  Si26  1  0.790025  0.562898  0.188119  1
  Si  Si27  1  0.062361  0.710524  0.938565  1
  Si  Si28  1  0.795774  0.848579  0.687975  1
  Si  Si29  1  0.203833  0.150908  0.187751  1
  Si  Si30  1  0.848830  0.795892  0.311778  1
  Si  Si31  1  0.348594  0.704249  0.437926  1
  Si  Si32  1  0.651415  0.295900  0.937919  1
  Si  Si33  1  0.704269  0.348585  0.562055  1
  Si  Si34  1  0.295372  0.651809  0.062234  1
  Si  Si35  1  0.151426  0.204233  0.812089  1
