# generated using pymatgen
data_Er2Si2RuRh
_symmetry_space_group_name_H-M   'P 1'
_cell_length_a   4.30653800
_cell_length_b   6.90922545
_cell_length_c   7.17901841
_cell_angle_alpha   89.95992978
_cell_angle_beta   90.00000000
_cell_angle_gamma   90.00000000
_symmetry_Int_Tables_number   1
_chemical_formula_structural   Er2Si2RuRh
_chemical_formula_sum   'Er4 Si4 Ru2 Rh2'
_cell_volume   213.61050595
_cell_formula_units_Z   2
loop_
 _symmetry_equiv_pos_site_id
 _symmetry_equiv_pos_as_xyz
  1  'x, y, z'
loop_
 _atom_site_type_symbol
 _atom_site_label
 _atom_site_symmetry_multiplicity
 _atom_site_fract_x
 _atom_site_fract_y
 _atom_site_fract_z
 _atom_site_occupancy
  Er  Er0  1  0.250000  0.987249  0.811935  1
  Er  Er1  1  0.750000  0.012751  0.188065  1
  Er  Er2  1  0.250000  0.492715  0.686499  1
  Er  Er3  1  0.750000  0.507285  0.313501  1
  Si  Si4  1  0.250000  0.301425  0.101092  1
  Si  Si5  1  0.750000  0.698575  0.898908  1
  Si  Si6  1  0.250000  0.798896  0.385822  1
  Si  Si7  1  0.750000  0.201104  0.614178  1
  Ru  Ru8  1  0.750000  0.345008  0.932954  1
  Ru  Ru9  1  0.250000  0.654992  0.067046  1
  Rh  Rh10  1  0.750000  0.845561  0.565684  1
  Rh  Rh11  1  0.250000  0.154439  0.434316  1
