# generated using pymatgen
data_Sm2HfTh6Se17
_symmetry_space_group_name_H-M   'P 1'
_cell_length_a   8.43487345
_cell_length_b   8.43487268
_cell_length_c   11.15689900
_cell_angle_alpha   80.68084804
_cell_angle_beta   80.68084890
_cell_angle_gamma   65.35453098
_symmetry_Int_Tables_number   1
_chemical_formula_structural   Sm2HfTh6Se17
_chemical_formula_sum   'Sm2 Hf1 Th6 Se17'
_cell_volume   707.99456929
_cell_formula_units_Z   1
loop_
 _symmetry_equiv_pos_site_id
 _symmetry_equiv_pos_as_xyz
  1  'x, y, z'
loop_
 _atom_site_type_symbol
 _atom_site_label
 _atom_site_symmetry_multiplicity
 _atom_site_fract_x
 _atom_site_fract_y
 _atom_site_fract_z
 _atom_site_occupancy
  Sm  Sm0  1  0.813223  0.305494  0.298364  1
  Sm  Sm1  1  0.305494  0.813223  0.298364  1
  Hf  Hf2  1  0.002341  0.002341  0.005189  1
  Th  Th3  1  0.185687  0.697170  0.699014  1
  Th  Th4  1  0.697170  0.185687  0.699014  1
  Th  Th5  1  0.204976  0.204976  0.536754  1
  Th  Th6  1  0.793480  0.793480  0.458653  1
  Th  Th7  1  0.679356  0.679356  0.984714  1
  Th  Th8  1  0.320448  0.320448  0.022089  1
  Se  Se9  1  0.822214  0.430784  0.535923  1
  Se  Se10  1  0.430784  0.822214  0.535923  1
  Se  Se11  1  0.176176  0.568689  0.466676  1
  Se  Se12  1  0.568689  0.176176  0.466676  1
  Se  Se13  1  0.945016  0.327785  0.025796  1
  Se  Se14  1  0.327785  0.945016  0.025796  1
  Se  Se15  1  0.057740  0.675467  0.970100  1
  Se  Se16  1  0.675467  0.057740  0.970100  1
  Se  Se17  1  0.208948  0.208948  0.275330  1
  Se  Se18  1  0.789299  0.789299  0.725981  1
  Se  Se19  1  0.061063  0.061063  0.769661  1
  Se  Se20  1  0.938153  0.938153  0.232485  1
  Se  Se21  1  0.303106  0.303106  0.753849  1
  Se  Se22  1  0.696279  0.696279  0.245400  1
  Se  Se23  1  0.519978  0.519978  0.831524  1
  Se  Se24  1  0.479978  0.479978  0.161868  1
  Se  Se25  1  0.997152  0.997152  0.504759  1
