# generated using pymatgen
data_Ca10Cd2Cu3Rh
_symmetry_space_group_name_H-M   'P 1'
_cell_length_a   9.21219798
_cell_length_b   9.21219732
_cell_length_c   9.22708485
_cell_angle_alpha   129.33081705
_cell_angle_beta   129.33081223
_cell_angle_gamma   74.35701523
_symmetry_Int_Tables_number   1
_chemical_formula_structural   Ca10Cd2Cu3Rh
_chemical_formula_sum   'Ca10 Cd2 Cu3 Rh1'
_cell_volume   456.94714373
_cell_formula_units_Z   1
loop_
 _symmetry_equiv_pos_site_id
 _symmetry_equiv_pos_as_xyz
  1  'x, y, z'
loop_
 _atom_site_type_symbol
 _atom_site_label
 _atom_site_symmetry_multiplicity
 _atom_site_fract_x
 _atom_site_fract_y
 _atom_site_fract_z
 _atom_site_occupancy
  Ca  Ca0  1  0.531566  0.024366  0.829138  1
  Ca  Ca1  1  0.202427  0.695228  0.170862  1
  Ca  Ca2  1  0.030246  0.193223  0.500000  1
  Ca  Ca3  1  0.688950  0.539646  0.500000  1
  Ca  Ca4  1  0.475634  0.968434  0.170862  1
  Ca  Ca5  1  0.804772  0.297573  0.829138  1
  Ca  Ca6  1  0.960354  0.811050  0.500000  1
  Ca  Ca7  1  0.306777  0.469754  0.500000  1
  Ca  Ca8  1  0.501507  0.506851  0.008358  1
  Ca  Ca9  1  0.993149  0.998493  0.991642  1
  Cd  Cd10  1  0.251708  0.248292  0.000000  1
  Cd  Cd11  1  0.751708  0.748292  0.000000  1
  Cu  Cu12  1  0.384131  0.115869  0.500000  1
  Cu  Cu13  1  0.112276  0.612693  0.724969  1
  Cu  Cu14  1  0.887307  0.387724  0.275031  1
  Rh  Rh15  1  0.617488  0.882512  0.500000  1
