# generated using pymatgen
data_TmU4Re3C8
_symmetry_space_group_name_H-M   'P 1'
_cell_length_a   11.34693200
_cell_length_b   11.34693200
_cell_length_c   3.26206000
_cell_angle_alpha   90.00000000
_cell_angle_beta   90.00000000
_cell_angle_gamma   90.00000000
_symmetry_Int_Tables_number   1
_chemical_formula_structural   TmU4Re3C8
_chemical_formula_sum   'Tm2 U8 Re6 C16'
_cell_volume   419.99957345
_cell_formula_units_Z   2
loop_
 _symmetry_equiv_pos_site_id
 _symmetry_equiv_pos_as_xyz
  1  'x, y, z'
loop_
 _atom_site_type_symbol
 _atom_site_label
 _atom_site_symmetry_multiplicity
 _atom_site_fract_x
 _atom_site_fract_y
 _atom_site_fract_z
 _atom_site_occupancy
  Tm  Tm0  1  0.000000  0.500000  0.000000  1
  Tm  Tm1  1  0.500000  0.000000  0.000000  1
  U  U2  1  0.270518  0.542482  0.500000  1
  U  U3  1  0.729482  0.457518  0.500000  1
  U  U4  1  0.542482  0.729482  0.500000  1
  U  U5  1  0.770518  0.957518  0.500000  1
  U  U6  1  0.229482  0.042482  0.500000  1
  U  U7  1  0.957518  0.229482  0.500000  1
  U  U8  1  0.457518  0.270518  0.500000  1
  U  U9  1  0.042482  0.770518  0.500000  1
  Re  Re10  1  0.202616  0.297384  0.000000  1
  Re  Re11  1  0.702616  0.202616  0.000000  1
  Re  Re12  1  0.297384  0.797384  0.000000  1
  Re  Re13  1  0.500000  0.500000  0.000000  1
  Re  Re14  1  0.797384  0.702616  0.000000  1
  Re  Re15  1  0.000000  0.000000  0.000000  1
  C  C16  1  0.347147  0.402609  0.000000  1
  C  C17  1  0.616963  0.116963  0.500000  1
  C  C18  1  0.902609  0.847147  0.000000  1
  C  C19  1  0.654283  0.845717  0.000000  1
  C  C20  1  0.345717  0.154283  0.000000  1
  C  C21  1  0.116963  0.383037  0.500000  1
  C  C22  1  0.152853  0.902609  0.000000  1
  C  C23  1  0.845717  0.345717  0.000000  1
  C  C24  1  0.652853  0.597391  0.000000  1
  C  C25  1  0.597391  0.347147  0.000000  1
  C  C26  1  0.883037  0.616963  0.500000  1
  C  C27  1  0.847147  0.097391  0.000000  1
  C  C28  1  0.383037  0.883037  0.500000  1
  C  C29  1  0.154283  0.654283  0.000000  1
  C  C30  1  0.097391  0.152853  0.000000  1
  C  C31  1  0.402609  0.652853  0.000000  1
