# generated using pymatgen
data_CaDy3Pt4
_symmetry_space_group_name_H-M   'P 1'
_cell_length_a   4.47120400
_cell_length_b   5.60546050
_cell_length_c   7.17040010
_cell_angle_alpha   89.18221477
_cell_angle_beta   90.00000000
_cell_angle_gamma   90.00000000
_symmetry_Int_Tables_number   1
_chemical_formula_structural   CaDy3Pt4
_chemical_formula_sum   'Ca1 Dy3 Pt4'
_cell_volume   179.69456116
_cell_formula_units_Z   1
loop_
 _symmetry_equiv_pos_site_id
 _symmetry_equiv_pos_as_xyz
  1  'x, y, z'
loop_
 _atom_site_type_symbol
 _atom_site_label
 _atom_site_symmetry_multiplicity
 _atom_site_fract_x
 _atom_site_fract_y
 _atom_site_fract_z
 _atom_site_occupancy
  Ca  Ca0  1  0.250000  0.359127  0.680446  1
  Dy  Dy1  1  0.250000  0.138729  0.181152  1
  Dy  Dy2  1  0.750000  0.638601  0.318888  1
  Dy  Dy3  1  0.750000  0.861421  0.818300  1
  Pt  Pt4  1  0.250000  0.850525  0.541047  1
  Pt  Pt5  1  0.250000  0.659426  0.047353  1
  Pt  Pt6  1  0.750000  0.146462  0.445399  1
  Pt  Pt7  1  0.750000  0.345708  0.967415  1
