# generated using pymatgen
data_K(CrTe2)2
_symmetry_space_group_name_H-M   'P 1'
_cell_length_a   6.75131000
_cell_length_b   7.77019200
_cell_length_c   17.44118100
_cell_angle_alpha   90.00000000
_cell_angle_beta   90.00000000
_cell_angle_gamma   90.00000000
_symmetry_Int_Tables_number   1
_chemical_formula_structural   K(CrTe2)2
_chemical_formula_sum   'K4 Cr8 Te16'
_cell_volume   914.94647720
_cell_formula_units_Z   4
loop_
 _symmetry_equiv_pos_site_id
 _symmetry_equiv_pos_as_xyz
  1  'x, y, z'
loop_
 _atom_site_type_symbol
 _atom_site_label
 _atom_site_symmetry_multiplicity
 _atom_site_fract_x
 _atom_site_fract_y
 _atom_site_fract_z
 _atom_site_occupancy
  K  K0  1  0.359571  0.000000  0.000000  1
  K  K1  1  0.640429  0.500000  0.500000  1
  K  K2  1  0.023785  0.000000  0.500000  1
  K  K3  1  0.976215  0.500000  0.000000  1
  Cr  Cr4  1  0.002196  0.000000  0.250500  1
  Cr  Cr5  1  0.002196  0.000000  0.749500  1
  Cr  Cr6  1  0.997804  0.500000  0.249500  1
  Cr  Cr7  1  0.997804  0.500000  0.750500  1
  Cr  Cr8  1  0.500000  0.250000  0.250000  1
  Cr  Cr9  1  0.500000  0.750000  0.750000  1
  Cr  Cr10  1  0.500000  0.750000  0.250000  1
  Cr  Cr11  1  0.500000  0.250000  0.750000  1
  Te  Te12  1  0.832961  0.250695  0.339224  1
  Te  Te13  1  0.832961  0.749305  0.660776  1
  Te  Te14  1  0.167039  0.750695  0.160776  1
  Te  Te15  1  0.167039  0.249305  0.839224  1
  Te  Te16  1  0.167039  0.249305  0.160776  1
  Te  Te17  1  0.167039  0.750695  0.839224  1
  Te  Te18  1  0.832961  0.749305  0.339224  1
  Te  Te19  1  0.832961  0.250695  0.660776  1
  Te  Te20  1  0.671357  0.000000  0.161468  1
  Te  Te21  1  0.671357  0.000000  0.838532  1
  Te  Te22  1  0.328643  0.500000  0.338532  1
  Te  Te23  1  0.328643  0.500000  0.661468  1
  Te  Te24  1  0.336843  0.000000  0.339173  1
  Te  Te25  1  0.336843  0.000000  0.660827  1
  Te  Te26  1  0.663157  0.500000  0.160827  1
  Te  Te27  1  0.663157  0.500000  0.839173  1
