# generated using pymatgen
data_Li6PaO6
_symmetry_space_group_name_H-M   'P 1'
_cell_length_a   5.51164439
_cell_length_b   5.51164334
_cell_length_c   5.51164411
_cell_angle_alpha   101.39039842
_cell_angle_beta   101.39040015
_cell_angle_gamma   101.39039351
_symmetry_Int_Tables_number   1
_chemical_formula_structural   Li6PaO6
_chemical_formula_sum   'Li6 Pa1 O6'
_cell_volume   155.95494212
_cell_formula_units_Z   1
loop_
 _symmetry_equiv_pos_site_id
 _symmetry_equiv_pos_as_xyz
  1  'x, y, z'
loop_
 _atom_site_type_symbol
 _atom_site_label
 _atom_site_symmetry_multiplicity
 _atom_site_fract_x
 _atom_site_fract_y
 _atom_site_fract_z
 _atom_site_occupancy
  Li  Li0  1  0.354860  0.645140  0.000000  1
  Li  Li1  1  0.645140  0.354860  0.000000  1
  Li  Li2  1  0.000000  0.645140  0.354860  1
  Li  Li3  1  0.354860  0.000000  0.645140  1
  Li  Li4  1  0.000000  0.354860  0.645140  1
  Li  Li5  1  0.645140  0.000000  0.354860  1
  Pa  Pa6  1  0.000000  0.000000  0.000000  1
  O  O7  1  0.728307  0.108752  0.728307  1
  O  O8  1  0.271693  0.891248  0.271693  1
  O  O9  1  0.271693  0.271693  0.891248  1
  O  O10  1  0.891248  0.271693  0.271693  1
  O  O11  1  0.728307  0.728307  0.108752  1
  O  O12  1  0.108752  0.728307  0.728307  1
