# generated using pymatgen
data_HoLu(AgPb)2
_symmetry_space_group_name_H-M   'P 1'
_cell_length_a   4.79903000
_cell_length_b   4.79902923
_cell_length_c   7.43066900
_cell_angle_alpha   90.00000000
_cell_angle_beta   90.00000000
_cell_angle_gamma   120.00000533
_symmetry_Int_Tables_number   1
_chemical_formula_structural   HoLu(AgPb)2
_chemical_formula_sum   'Ho1 Lu1 Ag2 Pb2'
_cell_volume   148.20586280
_cell_formula_units_Z   1
loop_
 _symmetry_equiv_pos_site_id
 _symmetry_equiv_pos_as_xyz
  1  'x, y, z'
loop_
 _atom_site_type_symbol
 _atom_site_label
 _atom_site_symmetry_multiplicity
 _atom_site_fract_x
 _atom_site_fract_y
 _atom_site_fract_z
 _atom_site_occupancy
  Ho  Ho0  1  0.000000  0.000000  0.513436  1
  Lu  Lu1  1  0.000000  0.000000  0.012669  1
  Ag  Ag2  1  0.666667  0.333333  0.331121  1
  Ag  Ag3  1  0.333333  0.666667  0.833068  1
  Pb  Pb4  1  0.333333  0.666667  0.233444  1
  Pb  Pb5  1  0.666667  0.333333  0.736064  1
