# generated using pymatgen
data_La12Tc(PtBr4)3
_symmetry_space_group_name_H-M   'P 1'
_cell_length_a   10.68802227
_cell_length_b   10.68866121
_cell_length_c   10.82426700
_cell_angle_alpha   109.72905484
_cell_angle_beta   109.72835328
_cell_angle_gamma   109.21372570
_symmetry_Int_Tables_number   1
_chemical_formula_structural   La12Tc(PtBr4)3
_chemical_formula_sum   'La12 Tc1 Pt3 Br12'
_cell_volume   948.85710308
_cell_formula_units_Z   1
loop_
 _symmetry_equiv_pos_site_id
 _symmetry_equiv_pos_as_xyz
  1  'x, y, z'
loop_
 _atom_site_type_symbol
 _atom_site_label
 _atom_site_symmetry_multiplicity
 _atom_site_fract_x
 _atom_site_fract_y
 _atom_site_fract_z
 _atom_site_occupancy
  La  La0  1  0.269612  0.759953  0.238514  1
  La  La1  1  0.490345  0.759948  0.021426  1
  La  La2  1  0.236427  0.472851  0.486408  1
  La  La3  1  0.015644  0.031245  0.265604  1
  La  La4  1  0.236462  0.263541  0.749994  1
  La  La5  1  0.015562  0.484424  0.749979  1
  La  La6  1  0.490298  0.230304  0.468782  1
  La  La7  1  0.269681  0.009708  0.031206  1
  La  La8  1  0.740001  0.230345  0.261494  1
  La  La9  1  0.740049  0.009691  0.478558  1
  La  La10  1  0.468794  0.484373  0.234418  1
  La  La11  1  0.027129  0.263560  0.013587  1
  Tc  Tc12  1  0.499973  0.999975  0.249982  1
  Pt  Pt13  1  0.249145  0.498295  0.999148  1
  Pt  Pt14  1  0.001705  0.250857  0.500844  1
  Pt  Pt15  1  0.249149  0.250858  0.250009  1
  Br  Br16  1  0.249972  0.996078  0.504689  1
  Br  Br17  1  0.506044  0.503024  0.753029  1
  Br  Br18  1  0.249971  0.753899  0.745298  1
  Br  Br19  1  0.991298  0.745645  0.995649  1
  Br  Br20  1  0.996974  0.503020  0.250005  1
  Br  Br21  1  0.746089  0.996075  0.991387  1
  Br  Br22  1  0.754353  0.745662  0.250007  1
  Br  Br23  1  0.503935  0.753916  0.508611  1
  Br  Br24  1  0.503936  0.250039  0.995328  1
  Br  Br25  1  0.754364  0.508710  0.504358  1
  Br  Br26  1  0.746107  0.250040  0.754711  1
  Br  Br27  1  0.996980  0.993966  0.746974  1
