# generated using pymatgen
data_Hf3Sc5(Nb3Si4)4
_symmetry_space_group_name_H-M   'P 1'
_cell_length_a   6.69682437
_cell_length_b   6.88855039
_cell_length_c   13.15862001
_cell_angle_alpha   89.96663371
_cell_angle_beta   89.90566057
_cell_angle_gamma   89.98019830
_symmetry_Int_Tables_number   1
_chemical_formula_structural   Hf3Sc5(Nb3Si4)4
_chemical_formula_sum   'Hf3 Sc5 Nb12 Si16'
_cell_volume   607.02476149
_cell_formula_units_Z   1
loop_
 _symmetry_equiv_pos_site_id
 _symmetry_equiv_pos_as_xyz
  1  'x, y, z'
loop_
 _atom_site_type_symbol
 _atom_site_label
 _atom_site_symmetry_multiplicity
 _atom_site_fract_x
 _atom_site_fract_y
 _atom_site_fract_z
 _atom_site_occupancy
  Hf  Hf0  1  0.499267  0.674909  0.596048  1
  Hf  Hf1  1  0.998795  0.825413  0.904281  1
  Hf  Hf2  1  0.500823  0.326056  0.095837  1
  Sc  Sc3  1  0.000682  0.174246  0.404887  1
  Sc  Sc4  1  0.500669  0.326541  0.405577  1
  Sc  Sc5  1  0.001662  0.173746  0.094514  1
  Sc  Sc6  1  0.497434  0.673909  0.905873  1
  Sc  Sc7  1  0.998312  0.825258  0.594314  1
  Nb  Nb8  1  0.662151  0.172994  0.624359  1
  Nb  Nb9  1  0.162454  0.327059  0.875972  1
  Nb  Nb10  1  0.338022  0.826519  0.123646  1
  Nb  Nb11  1  0.836692  0.672971  0.375366  1
  Nb  Nb12  1  0.338269  0.825672  0.375546  1
  Nb  Nb13  1  0.837146  0.672545  0.123580  1
  Nb  Nb14  1  0.663027  0.172629  0.875915  1
  Nb  Nb15  1  0.164252  0.328820  0.624807  1
  Nb  Nb16  1  0.836532  0.496210  0.751144  1
  Nb  Nb17  1  0.336653  0.004000  0.749561  1
  Nb  Nb18  1  0.164140  0.505196  0.249398  1
  Nb  Nb19  1  0.663008  0.995786  0.248589  1
  Si  Si20  1  0.668991  0.966530  0.460884  1
  Si  Si21  1  0.169956  0.533715  0.038904  1
  Si  Si22  1  0.329703  0.034108  0.961166  1
  Si  Si23  1  0.830333  0.466262  0.539141  1
  Si  Si24  1  0.330544  0.033678  0.539149  1
  Si  Si25  1  0.828431  0.465895  0.961119  1
  Si  Si26  1  0.671366  0.966097  0.038867  1
  Si  Si27  1  0.170359  0.533305  0.461026  1
  Si  Si28  1  0.459340  0.386943  0.750360  1
  Si  Si29  1  0.959326  0.113385  0.749550  1
  Si  Si30  1  0.541282  0.613151  0.249769  1
  Si  Si31  1  0.040813  0.886636  0.249910  1
  Si  Si32  1  0.703208  0.861927  0.749908  1
  Si  Si33  1  0.203294  0.638439  0.750162  1
  Si  Si34  1  0.295981  0.138077  0.250330  1
  Si  Si35  1  0.797085  0.361371  0.250543  1
