# generated using pymatgen
data_Ta7(B4Os3)2
_symmetry_space_group_name_H-M   'P 1'
_cell_length_a   9.65764000
_cell_length_b   9.65764036
_cell_length_c   3.11313100
_cell_angle_alpha   90.00000000
_cell_angle_beta   90.00000000
_cell_angle_gamma   119.99999876
_symmetry_Int_Tables_number   1
_chemical_formula_structural   Ta7(B4Os3)2
_chemical_formula_sum   'Ta7 B8 Os6'
_cell_volume   251.46067362
_cell_formula_units_Z   1
loop_
 _symmetry_equiv_pos_site_id
 _symmetry_equiv_pos_as_xyz
  1  'x, y, z'
loop_
 _atom_site_type_symbol
 _atom_site_label
 _atom_site_symmetry_multiplicity
 _atom_site_fract_x
 _atom_site_fract_y
 _atom_site_fract_z
 _atom_site_occupancy
  Ta  Ta0  1  0.000000  0.000000  0.000000  1
  Ta  Ta1  1  0.725727  0.640312  0.000000  1
  Ta  Ta2  1  0.359688  0.085415  0.000000  1
  Ta  Ta3  1  0.914585  0.274273  0.000000  1
  Ta  Ta4  1  0.274273  0.359688  0.000000  1
  Ta  Ta5  1  0.640312  0.914585  0.000000  1
  Ta  Ta6  1  0.085415  0.725727  0.000000  1
  B  B7  1  0.666667  0.333333  0.000000  1
  B  B8  1  0.333333  0.666667  0.000000  1
  B  B9  1  0.152743  0.934775  0.500000  1
  B  B10  1  0.065225  0.217968  0.500000  1
  B  B11  1  0.782032  0.847257  0.500000  1
  B  B12  1  0.847257  0.065225  0.500000  1
  B  B13  1  0.934775  0.782032  0.500000  1
  B  B14  1  0.217968  0.152743  0.500000  1
  Os  Os15  1  0.360792  0.847265  0.500000  1
  Os  Os16  1  0.152735  0.513527  0.500000  1
  Os  Os17  1  0.486473  0.639208  0.500000  1
  Os  Os18  1  0.639208  0.152735  0.500000  1
  Os  Os19  1  0.847265  0.486473  0.500000  1
  Os  Os20  1  0.513527  0.360792  0.500000  1
