# generated using pymatgen
data_LaPr2Cu4(P2O)2
_symmetry_space_group_name_H-M   'P 1'
_cell_length_a   4.03060144
_cell_length_b   4.03059796
_cell_length_c   13.71913905
_cell_angle_alpha   98.54812711
_cell_angle_beta   98.54806890
_cell_angle_gamma   90.05370679
_symmetry_Int_Tables_number   1
_chemical_formula_structural   LaPr2Cu4(P2O)2
_chemical_formula_sum   'La1 Pr2 Cu4 P4 O2'
_cell_volume   217.89283305
_cell_formula_units_Z   1
loop_
 _symmetry_equiv_pos_site_id
 _symmetry_equiv_pos_as_xyz
  1  'x, y, z'
loop_
 _atom_site_type_symbol
 _atom_site_label
 _atom_site_symmetry_multiplicity
 _atom_site_fract_x
 _atom_site_fract_y
 _atom_site_fract_z
 _atom_site_occupancy
  La  La0  1  0.295421  0.295421  0.590598  1
  Pr  Pr1  1  0.000165  0.000165  0.000631  1
  Pr  Pr2  1  0.703187  0.703187  0.406378  1
  Cu  Cu3  1  0.593789  0.093346  0.187595  1
  Cu  Cu4  1  0.093346  0.593788  0.187594  1
  Cu  Cu5  1  0.906081  0.407934  0.814038  1
  Cu  Cu6  1  0.407933  0.906080  0.814037  1
  P  P7  1  0.541750  0.541750  0.083890  1
  P  P8  1  0.139108  0.139108  0.277605  1
  P  P9  1  0.862562  0.862562  0.723944  1
  P  P10  1  0.458068  0.458068  0.916883  1
  O  O11  1  0.749697  0.248898  0.498403  1
  O  O12  1  0.248897  0.749697  0.498403  1
