# generated using pymatgen
data_Er(MnH3)2
_symmetry_space_group_name_H-M   'P 1'
_cell_length_a   4.68033953
_cell_length_b   4.68737778
_cell_length_c   4.68032602
_cell_angle_alpha   59.90712765
_cell_angle_beta   59.89116822
_cell_angle_gamma   59.92678214
_symmetry_Int_Tables_number   1
_chemical_formula_structural   Er(MnH3)2
_chemical_formula_sum   'Er1 Mn2 H6'
_cell_volume   72.45436233
_cell_formula_units_Z   1
loop_
 _symmetry_equiv_pos_site_id
 _symmetry_equiv_pos_as_xyz
  1  'x, y, z'
loop_
 _atom_site_type_symbol
 _atom_site_label
 _atom_site_symmetry_multiplicity
 _atom_site_fract_x
 _atom_site_fract_y
 _atom_site_fract_z
 _atom_site_occupancy
  Er  Er0  1  0.643728  0.892422  0.908275  1
  Mn  Mn1  1  0.143683  0.393841  0.408006  1
  Mn  Mn2  1  0.893755  0.141896  0.158150  1
  H  H3  1  0.141870  0.941480  0.399877  1
  H  H4  1  0.626088  0.393846  0.398544  1
  H  H5  1  0.146638  0.879587  0.928479  1
  H  H6  1  0.637548  0.372808  0.921604  1
  H  H7  1  0.676346  0.867685  0.413328  1
  H  H8  1  0.129241  0.398085  0.884927  1
