# generated using pymatgen
data_La2Sm2CoBr5
_symmetry_space_group_name_H-M   'P 1'
_cell_length_a   9.38315184
_cell_length_b   9.38315175
_cell_length_c   8.90703300
_cell_angle_alpha   76.71845642
_cell_angle_beta   76.71845655
_cell_angle_gamma   25.50231356
_symmetry_Int_Tables_number   1
_chemical_formula_structural   La2Sm2CoBr5
_chemical_formula_sum   'La2 Sm2 Co1 Br5'
_cell_volume   328.13826344
_cell_formula_units_Z   1
loop_
 _symmetry_equiv_pos_site_id
 _symmetry_equiv_pos_as_xyz
  1  'x, y, z'
loop_
 _atom_site_type_symbol
 _atom_site_label
 _atom_site_symmetry_multiplicity
 _atom_site_fract_x
 _atom_site_fract_y
 _atom_site_fract_z
 _atom_site_occupancy
  La  La0  1  0.860646  0.860646  0.073237  1
  La  La1  1  0.139354  0.139354  0.926763  1
  Sm  Sm2  1  0.500877  0.500877  0.224179  1
  Sm  Sm3  1  0.499123  0.499123  0.775821  1
  Co  Co4  1  0.000000  0.000000  0.000000  1
  Br  Br5  1  0.670702  0.670702  0.170043  1
  Br  Br6  1  0.329298  0.329298  0.829957  1
  Br  Br7  1  0.663099  0.663099  0.660787  1
  Br  Br8  1  0.336901  0.336901  0.339213  1
  Br  Br9  1  0.000000  0.000000  0.500000  1
