# generated using pymatgen
data_ErCo(Sn2Ru)3
_symmetry_space_group_name_H-M   'P 1'
_cell_length_a   6.86453392
_cell_length_b   6.95562781
_cell_length_c   6.85334764
_cell_angle_alpha   120.66092666
_cell_angle_beta   120.22146215
_cell_angle_gamma   89.71462705
_symmetry_Int_Tables_number   1
_chemical_formula_structural   ErCo(Sn2Ru)3
_chemical_formula_sum   'Er1 Co1 Sn6 Ru3'
_cell_volume   228.85406379
_cell_formula_units_Z   1
loop_
 _symmetry_equiv_pos_site_id
 _symmetry_equiv_pos_as_xyz
  1  'x, y, z'
loop_
 _atom_site_type_symbol
 _atom_site_label
 _atom_site_symmetry_multiplicity
 _atom_site_fract_x
 _atom_site_fract_y
 _atom_site_fract_z
 _atom_site_occupancy
  Er  Er0  1  0.984585  0.011393  0.000000  1
  Co  Co1  1  0.252804  0.592452  0.000000  1
  Sn  Sn2  1  0.893323  0.533313  0.000000  1
  Sn  Sn3  1  0.530773  0.880168  0.000000  1
  Sn  Sn4  1  0.119676  0.121507  0.655128  1
  Sn  Sn5  1  0.005099  0.507863  0.515287  1
  Sn  Sn6  1  0.464548  0.466379  0.344872  1
  Sn  Sn7  1  0.489812  0.992576  0.484713  1
  Ru  Ru8  1  0.406524  0.404553  0.659060  1
  Ru  Ru9  1  0.605393  0.244303  0.000000  1
  Ru  Ru10  1  0.747465  0.745493  0.340940  1
