# generated using pymatgen
data_DyHo3Rh4F28
_symmetry_space_group_name_H-M   'P 1'
_cell_length_a   5.53119102
_cell_length_b   8.87324879
_cell_length_c   11.88803883
_cell_angle_alpha   62.65923243
_cell_angle_beta   89.99913583
_cell_angle_gamma   89.99119625
_symmetry_Int_Tables_number   1
_chemical_formula_structural   DyHo3Rh4F28
_chemical_formula_sum   'Dy1 Ho3 Rh4 F28'
_cell_volume   518.28259322
_cell_formula_units_Z   1
loop_
 _symmetry_equiv_pos_site_id
 _symmetry_equiv_pos_as_xyz
  1  'x, y, z'
loop_
 _atom_site_type_symbol
 _atom_site_label
 _atom_site_symmetry_multiplicity
 _atom_site_fract_x
 _atom_site_fract_y
 _atom_site_fract_z
 _atom_site_occupancy
  Dy  Dy0  1  0.739479  0.813466  0.265809  1
  Ho  Ho1  1  0.760547  0.813401  0.765906  1
  Ho  Ho2  1  0.260616  0.186530  0.734223  1
  Ho  Ho3  1  0.239188  0.187315  0.233987  1
  Rh  Rh4  1  0.757009  0.274097  0.955583  1
  Rh  Rh5  1  0.256848  0.726188  0.544736  1
  Rh  Rh6  1  0.243342  0.726226  0.043661  1
  Rh  Rh7  1  0.743101  0.273332  0.456075  1
  F  F8  1  0.443230  0.704813  0.916669  1
  F  F9  1  0.943209  0.294891  0.582795  1
  F  F10  1  0.556705  0.295185  0.082486  1
  F  F11  1  0.057392  0.704799  0.417630  1
  F  F12  1  0.446563  0.281414  0.544365  1
  F  F13  1  0.946529  0.718284  0.955679  1
  F  F14  1  0.553086  0.717877  0.456715  1
  F  F15  1  0.053263  0.281943  0.043993  1
  F  F16  1  0.768529  0.518575  0.858389  1
  F  F17  1  0.268068  0.481598  0.641696  1
  F  F18  1  0.231984  0.481569  0.141005  1
  F  F19  1  0.731188  0.517751  0.358791  1
  F  F20  1  0.757502  0.029710  0.049497  1
  F  F21  1  0.257120  0.970355  0.450569  1
  F  F22  1  0.243082  0.970542  0.950011  1
  F  F23  1  0.742941  0.029031  0.549939  1
  F  F24  1  0.967325  0.729844  0.637763  1
  F  F25  1  0.468209  0.270206  0.862239  1
  F  F26  1  0.032327  0.270329  0.362559  1
  F  F27  1  0.532999  0.729393  0.136658  1
  F  F28  1  0.048395  0.745984  0.173535  1
  F  F29  1  0.546657  0.253209  0.326530  1
  F  F30  1  0.953662  0.253605  0.826274  1
  F  F31  1  0.452802  0.746490  0.674156  1
  F  F32  1  0.415108  0.971912  0.231306  1
  F  F33  1  0.916805  0.030037  0.268648  1
  F  F34  1  0.582700  0.028473  0.768535  1
  F  F35  1  0.082487  0.971625  0.731586  1
