# generated using pymatgen
data_La13Pr5(LuGa6)2
_symmetry_space_group_name_H-M   'P 1'
_cell_length_a   7.91342961
_cell_length_b   7.90253959
_cell_length_c   14.95188212
_cell_angle_alpha   89.99212186
_cell_angle_beta   89.98787430
_cell_angle_gamma   89.89112428
_symmetry_Int_Tables_number   1
_chemical_formula_structural   La13Pr5(LuGa6)2
_chemical_formula_sum   'La13 Pr5 Lu2 Ga12'
_cell_volume   935.03203510
_cell_formula_units_Z   1
loop_
 _symmetry_equiv_pos_site_id
 _symmetry_equiv_pos_as_xyz
  1  'x, y, z'
loop_
 _atom_site_type_symbol
 _atom_site_label
 _atom_site_symmetry_multiplicity
 _atom_site_fract_x
 _atom_site_fract_y
 _atom_site_fract_z
 _atom_site_occupancy
  La  La0  1  0.000074  0.500010  0.708047  1
  La  La1  1  0.817290  0.840856  0.603489  1
  La  La2  1  0.317160  0.340052  0.396306  1
  La  La3  1  0.187743  0.837565  0.103184  1
  La  La4  1  0.182284  0.159769  0.603613  1
  La  La5  1  0.812064  0.162778  0.103223  1
  La  La6  1  0.340025  0.682553  0.603815  1
  La  La7  1  0.499158  0.999808  0.291772  1
  La  La8  1  0.687673  0.337639  0.896890  1
  La  La9  1  0.659962  0.317514  0.603970  1
  La  La10  1  0.312074  0.662435  0.896851  1
  La  La11  1  0.160117  0.817836  0.396201  1
  La  La12  1  0.683017  0.659721  0.396221  1
  Pr  Pr13  1  0.337920  0.312665  0.105449  1
  Pr  Pr14  1  0.837960  0.812789  0.894889  1
  Pr  Pr15  1  0.841379  0.183552  0.395049  1
  Pr  Pr16  1  0.162080  0.187276  0.894832  1
  Pr  Pr17  1  0.662257  0.687183  0.105254  1
  Lu  Lu18  1  0.500028  0.999900  0.773214  1
  Lu  Lu19  1  0.999794  0.499487  0.227098  1
  Ga  Ga20  1  0.625314  0.383558  0.247519  1
  Ga  Ga21  1  0.875505  0.115675  0.752861  1
  Ga  Ga22  1  0.500633  0.000461  0.499741  1
  Ga  Ga23  1  0.882885  0.874851  0.248019  1
  Ga  Ga24  1  0.000041  0.499967  0.019639  1
  Ga  Ga25  1  0.124606  0.884301  0.752816  1
  Ga  Ga26  1  0.382977  0.374467  0.752391  1
  Ga  Ga27  1  0.115897  0.126033  0.248094  1
  Ga  Ga28  1  0.375690  0.615364  0.247202  1
  Ga  Ga29  1  0.616910  0.625684  0.752316  1
  Ga  Ga30  1  0.500142  0.999889  0.980449  1
  Ga  Ga31  1  0.999342  0.498362  0.499584  1
