# generated using pymatgen
data_CeDy4Al2Os3
_symmetry_space_group_name_H-M   'P 1'
_cell_length_a   8.30708314
_cell_length_b   8.38195780
_cell_length_c   8.34096631
_cell_angle_alpha   109.26527242
_cell_angle_beta   108.65500350
_cell_angle_gamma   109.78000548
_symmetry_Int_Tables_number   1
_chemical_formula_structural   CeDy4Al2Os3
_chemical_formula_sum   'Ce2 Dy8 Al4 Os6'
_cell_volume   450.94379923
_cell_formula_units_Z   2
loop_
 _symmetry_equiv_pos_site_id
 _symmetry_equiv_pos_as_xyz
  1  'x, y, z'
loop_
 _atom_site_type_symbol
 _atom_site_label
 _atom_site_symmetry_multiplicity
 _atom_site_fract_x
 _atom_site_fract_y
 _atom_site_fract_z
 _atom_site_occupancy
  Ce  Ce0  1  0.846554  0.658680  0.096331  1
  Ce  Ce1  1  0.607372  0.607634  0.610401  1
  Dy  Dy2  1  0.478465  0.154074  0.222556  1
  Dy  Dy3  1  0.154160  0.225596  0.477742  1
  Dy  Dy4  1  0.227313  0.476587  0.153228  1
  Dy  Dy5  1  0.409235  0.695527  0.914510  1
  Dy  Dy6  1  0.694317  0.912983  0.413095  1
  Dy  Dy7  1  0.909284  0.404600  0.689847  1
  Dy  Dy8  1  0.655839  0.087706  0.838039  1
  Dy  Dy9  1  0.086957  0.836503  0.659532  1
  Al  Al10  1  0.405183  0.312087  0.902236  1
  Al  Al11  1  0.319186  0.912268  0.412984  1
  Al  Al12  1  0.915502  0.408488  0.318528  1
  Al  Al13  1  0.993628  0.000531  0.998133  1
  Os  Os14  1  0.033851  0.157239  0.785054  1
  Os  Os15  1  0.142224  0.780586  0.037824  1
  Os  Os16  1  0.782182  0.038328  0.161881  1
  Os  Os17  1  0.665000  0.535775  0.270493  1
  Os  Os18  1  0.532707  0.285474  0.652157  1
  Os  Os19  1  0.291046  0.659336  0.535432  1
