# generated using pymatgen
data_YbPaCl6
_symmetry_space_group_name_H-M   'P 1'
_cell_length_a   7.42610060
_cell_length_b   7.42609978
_cell_length_c   7.42609974
_cell_angle_alpha   53.48616094
_cell_angle_beta   53.48616031
_cell_angle_gamma   53.48615702
_symmetry_Int_Tables_number   1
_chemical_formula_structural   YbPaCl6
_chemical_formula_sum   'Yb1 Pa1 Cl6'
_cell_volume   245.43960900
_cell_formula_units_Z   1
loop_
 _symmetry_equiv_pos_site_id
 _symmetry_equiv_pos_as_xyz
  1  'x, y, z'
loop_
 _atom_site_type_symbol
 _atom_site_label
 _atom_site_symmetry_multiplicity
 _atom_site_fract_x
 _atom_site_fract_y
 _atom_site_fract_z
 _atom_site_occupancy
  Yb  Yb0  1  0.500000  0.500000  0.500000  1
  Pa  Pa1  1  0.000000  0.000000  0.000000  1
  Cl  Cl2  1  0.758252  0.400245  0.089992  1
  Cl  Cl3  1  0.599756  0.910008  0.241747  1
  Cl  Cl4  1  0.089993  0.758252  0.400244  1
  Cl  Cl5  1  0.910007  0.241748  0.599756  1
  Cl  Cl6  1  0.400244  0.089992  0.758253  1
  Cl  Cl7  1  0.241748  0.599755  0.910008  1
