# generated using pymatgen
data_Pr9YSi5Sn
_symmetry_space_group_name_H-M   'P 1'
_cell_length_a   7.80619891
_cell_length_b   7.80619955
_cell_length_c   9.19907375
_cell_angle_alpha   115.10591291
_cell_angle_beta   115.10590565
_cell_angle_gamma   89.99999512
_symmetry_Int_Tables_number   1
_chemical_formula_structural   Pr9YSi5Sn
_chemical_formula_sum   'Pr9 Y1 Si5 Sn1'
_cell_volume   448.43221641
_cell_formula_units_Z   1
loop_
 _symmetry_equiv_pos_site_id
 _symmetry_equiv_pos_as_xyz
  1  'x, y, z'
loop_
 _atom_site_type_symbol
 _atom_site_label
 _atom_site_symmetry_multiplicity
 _atom_site_fract_x
 _atom_site_fract_y
 _atom_site_fract_z
 _atom_site_occupancy
  Pr  Pr0  1  0.974920  0.974920  0.949840  1
  Pr  Pr1  1  0.975386  0.829693  0.281518  1
  Pr  Pr2  1  0.306131  0.451824  0.281518  1
  Pr  Pr3  1  0.829693  0.306131  0.281518  1
  Pr  Pr4  1  0.451824  0.975386  0.281518  1
  Pr  Pr5  1  0.047316  0.193813  0.719842  1
  Pr  Pr6  1  0.672526  0.526028  0.719842  1
  Pr  Pr7  1  0.193813  0.672526  0.719842  1
  Pr  Pr8  1  0.526028  0.047316  0.719842  1
  Y  Y9  1  0.516520  0.516520  0.033041  1
  Si  Si10  1  0.254313  0.254313  0.508627  1
  Si  Si11  1  0.615510  0.882201  0.003204  1
  Si  Si12  1  0.387695  0.121003  0.003204  1
  Si  Si13  1  0.882201  0.387695  0.003204  1
  Si  Si14  1  0.121003  0.615510  0.003204  1
  Sn  Sn15  1  0.745119  0.745119  0.490239  1
