# generated using pymatgen
data_ErTh3(CdNi2)2
_symmetry_space_group_name_H-M   'P 1'
_cell_length_a   7.57398060
_cell_length_b   7.57398048
_cell_length_c   3.66878000
_cell_angle_alpha   90.00000000
_cell_angle_beta   90.00000000
_cell_angle_gamma   90.83116484
_symmetry_Int_Tables_number   1
_chemical_formula_structural   ErTh3(CdNi2)2
_chemical_formula_sum   'Er1 Th3 Cd2 Ni4'
_cell_volume   210.43808544
_cell_formula_units_Z   1
loop_
 _symmetry_equiv_pos_site_id
 _symmetry_equiv_pos_as_xyz
  1  'x, y, z'
loop_
 _atom_site_type_symbol
 _atom_site_label
 _atom_site_symmetry_multiplicity
 _atom_site_fract_x
 _atom_site_fract_y
 _atom_site_fract_z
 _atom_site_occupancy
  Er  Er0  1  0.827626  0.672374  0.500000  1
  Th  Th1  1  0.674649  0.170815  0.500000  1
  Th  Th2  1  0.329185  0.825351  0.500000  1
  Th  Th3  1  0.168712  0.331288  0.500000  1
  Cd  Cd4  1  0.996499  0.990214  0.000000  1
  Cd  Cd5  1  0.509786  0.503501  0.000000  1
  Ni  Ni6  1  0.126307  0.624213  0.000000  1
  Ni  Ni7  1  0.875787  0.373693  0.000000  1
  Ni  Ni8  1  0.618240  0.881760  0.000000  1
  Ni  Ni9  1  0.373207  0.126793  0.000000  1
