# generated using pymatgen
data_Er5Lu3Tc3OsC8
_symmetry_space_group_name_H-M   'P 1'
_cell_length_a   5.02122700
_cell_length_b   6.49219580
_cell_length_c   9.71966207
_cell_angle_alpha   89.92435227
_cell_angle_beta   90.00000000
_cell_angle_gamma   90.00000000
_symmetry_Int_Tables_number   1
_chemical_formula_structural   Er5Lu3Tc3OsC8
_chemical_formula_sum   'Er5 Lu3 Tc3 Os1 C8'
_cell_volume   316.84893530
_cell_formula_units_Z   1
loop_
 _symmetry_equiv_pos_site_id
 _symmetry_equiv_pos_as_xyz
  1  'x, y, z'
loop_
 _atom_site_type_symbol
 _atom_site_label
 _atom_site_symmetry_multiplicity
 _atom_site_fract_x
 _atom_site_fract_y
 _atom_site_fract_z
 _atom_site_occupancy
  Er  Er0  1  0.750000  0.824257  0.057878  1
  Er  Er1  1  0.250000  0.532085  0.217040  1
  Er  Er2  1  0.750000  0.465450  0.782923  1
  Er  Er3  1  0.750000  0.967696  0.713884  1
  Er  Er4  1  0.250000  0.032175  0.284099  1
  Lu  Lu5  1  0.250000  0.673662  0.558364  1
  Lu  Lu6  1  0.750000  0.325546  0.441210  1
  Lu  Lu7  1  0.250000  0.173811  0.941545  1
  Tc  Tc8  1  0.250000  0.717395  0.866876  1
  Tc  Tc9  1  0.750000  0.283370  0.131707  1
  Tc  Tc10  1  0.750000  0.782715  0.369318  1
  Os  Os11  1  0.250000  0.217303  0.632085  1
  C  C12  1  0.250000  0.449651  0.758893  1
  C  C13  1  0.750000  0.549962  0.242246  1
  C  C14  1  0.750000  0.051454  0.260789  1
  C  C15  1  0.250000  0.951020  0.740657  1
  C  C16  1  0.250000  0.826674  0.051264  1
  C  C17  1  0.750000  0.175399  0.946838  1
  C  C18  1  0.750000  0.672609  0.553968  1
  C  C19  1  0.250000  0.327766  0.448416  1
