# generated using pymatgen
data_LuH2Br
_symmetry_space_group_name_H-M   'P 1'
_cell_length_a   11.27590595
_cell_length_b   11.27590591
_cell_length_c   11.27590483
_cell_angle_alpha   18.71254360
_cell_angle_beta   18.71254261
_cell_angle_gamma   18.71254614
_symmetry_Int_Tables_number   1
_chemical_formula_structural   LuH2Br
_chemical_formula_sum   'Lu2 H4 Br2'
_cell_volume   128.92918179
_cell_formula_units_Z   2
loop_
 _symmetry_equiv_pos_site_id
 _symmetry_equiv_pos_as_xyz
  1  'x, y, z'
loop_
 _atom_site_type_symbol
 _atom_site_label
 _atom_site_symmetry_multiplicity
 _atom_site_fract_x
 _atom_site_fract_y
 _atom_site_fract_z
 _atom_site_occupancy
  Lu  Lu0  1  0.879889  0.879889  0.879889  1
  Lu  Lu1  1  0.120111  0.120111  0.120111  1
  H  H2  1  0.815226  0.815226  0.815226  1
  H  H3  1  0.184774  0.184774  0.184774  1
  H  H4  1  0.540695  0.540695  0.540695  1
  H  H5  1  0.459305  0.459305  0.459305  1
  Br  Br6  1  0.729031  0.729031  0.729031  1
  Br  Br7  1  0.270969  0.270969  0.270969  1
