# generated using pymatgen
data_Ga2Ni10PtSe4
_symmetry_space_group_name_H-M   'P 1'
_cell_length_a   3.64923700
_cell_length_b   3.64923700
_cell_length_c   18.54766400
_cell_angle_alpha   90.00000000
_cell_angle_beta   90.00000000
_cell_angle_gamma   90.00000000
_symmetry_Int_Tables_number   1
_chemical_formula_structural   Ga2Ni10PtSe4
_chemical_formula_sum   'Ga2 Ni10 Pt1 Se4'
_cell_volume   246.99795580
_cell_formula_units_Z   1
loop_
 _symmetry_equiv_pos_site_id
 _symmetry_equiv_pos_as_xyz
  1  'x, y, z'
loop_
 _atom_site_type_symbol
 _atom_site_label
 _atom_site_symmetry_multiplicity
 _atom_site_fract_x
 _atom_site_fract_y
 _atom_site_fract_z
 _atom_site_occupancy
  Ga  Ga0  1  0.000000  0.000000  0.000125  1
  Ga  Ga1  1  0.500000  0.500000  0.500391  1
  Ni  Ni2  1  0.000000  0.500000  0.406156  1
  Ni  Ni3  1  0.500000  0.000000  0.896572  1
  Ni  Ni4  1  0.500000  0.000000  0.406156  1
  Ni  Ni5  1  0.000000  0.500000  0.896572  1
  Ni  Ni6  1  0.500000  0.000000  0.103817  1
  Ni  Ni7  1  0.000000  0.500000  0.595342  1
  Ni  Ni8  1  0.000000  0.500000  0.103817  1
  Ni  Ni9  1  0.500000  0.000000  0.595342  1
  Ni  Ni10  1  0.000000  0.000000  0.501065  1
  Ni  Ni11  1  0.500000  0.500000  0.303862  1
  Pt  Pt12  1  0.500000  0.500000  0.000224  1
  Se  Se13  1  0.000000  0.000000  0.319681  1
  Se  Se14  1  0.500000  0.500000  0.818461  1
  Se  Se15  1  0.500000  0.500000  0.181222  1
  Se  Se16  1  0.000000  0.000000  0.672691  1
