# generated using pymatgen
data_LiHo16Cd3(CoNi)2
_symmetry_space_group_name_H-M   'P 1'
_cell_length_a   9.46359698
_cell_length_b   9.46952525
_cell_length_c   9.47748226
_cell_angle_alpha   60.17255287
_cell_angle_beta   60.04845547
_cell_angle_gamma   60.02071169
_symmetry_Int_Tables_number   1
_chemical_formula_structural   LiHo16Cd3(CoNi)2
_chemical_formula_sum   'Li1 Ho16 Cd3 Co2 Ni2'
_cell_volume   601.66249550
_cell_formula_units_Z   1
loop_
 _symmetry_equiv_pos_site_id
 _symmetry_equiv_pos_as_xyz
  1  'x, y, z'
loop_
 _atom_site_type_symbol
 _atom_site_label
 _atom_site_symmetry_multiplicity
 _atom_site_fract_x
 _atom_site_fract_y
 _atom_site_fract_z
 _atom_site_occupancy
  Li  Li0  1  0.572081  0.570713  0.285125  1
  Ho  Ho1  1  0.935992  0.937116  0.564175  1
  Ho  Ho2  1  0.813072  0.186131  0.187724  1
  Ho  Ho3  1  0.935705  0.564658  0.563934  1
  Ho  Ho4  1  0.936122  0.563328  0.938977  1
  Ho  Ho5  1  0.816330  0.809984  0.186139  1
  Ho  Ho6  1  0.341554  0.345549  0.348088  1
  Ho  Ho7  1  0.561712  0.938733  0.937843  1
  Ho  Ho8  1  0.562719  0.937116  0.564175  1
  Ho  Ho9  1  0.188755  0.812618  0.809873  1
  Ho  Ho10  1  0.190014  0.189492  0.805205  1
  Ho  Ho11  1  0.347056  0.353985  0.951905  1
  Ho  Ho12  1  0.344558  0.957994  0.352891  1
  Ho  Ho13  1  0.815290  0.189492  0.805205  1
  Ho  Ho14  1  0.561573  0.563328  0.938977  1
  Ho  Ho15  1  0.187545  0.809984  0.186139  1
  Ho  Ho16  1  0.964810  0.345549  0.348088  1
  Cd  Cd17  1  0.257754  0.581571  0.578155  1
  Cd  Cd18  1  0.582521  0.581571  0.578155  1
  Cd  Cd19  1  0.582729  0.257064  0.577481  1
  Co  Co20  1  0.142863  0.575750  0.138525  1
  Co  Co21  1  0.142013  0.141194  0.574781  1
  Ni  Ni22  1  0.572739  0.143541  0.139223  1
  Ni  Ni23  1  0.144498  0.143541  0.139223  1
