# generated using pymatgen
data_RbErBeF6
_symmetry_space_group_name_H-M   'P 1'
_cell_length_a   5.83241500
_cell_length_b   6.53229243
_cell_length_c   7.22998400
_cell_angle_alpha   66.15412580
_cell_angle_beta   90.00000000
_cell_angle_gamma   90.00000000
_symmetry_Int_Tables_number   1
_chemical_formula_structural   RbErBeF6
_chemical_formula_sum   'Rb2 Er2 Be2 F12'
_cell_volume   251.94154826
_cell_formula_units_Z   2
loop_
 _symmetry_equiv_pos_site_id
 _symmetry_equiv_pos_as_xyz
  1  'x, y, z'
loop_
 _atom_site_type_symbol
 _atom_site_label
 _atom_site_symmetry_multiplicity
 _atom_site_fract_x
 _atom_site_fract_y
 _atom_site_fract_z
 _atom_site_occupancy
  Rb  Rb0  1  0.250000  0.080165  0.787229  1
  Rb  Rb1  1  0.750000  0.919835  0.212771  1
  Er  Er2  1  0.250000  0.392313  0.179313  1
  Er  Er3  1  0.750000  0.607687  0.820687  1
  Be  Be4  1  0.250000  0.767051  0.464761  1
  Be  Be5  1  0.750000  0.232949  0.535239  1
  F  F6  1  0.466373  0.756434  0.596883  1
  F  F7  1  0.533627  0.243566  0.403117  1
  F  F8  1  0.966373  0.243566  0.403117  1
  F  F9  1  0.033627  0.756434  0.596883  1
  F  F10  1  0.250000  0.572357  0.394035  1
  F  F11  1  0.750000  0.427643  0.605965  1
  F  F12  1  0.499337  0.674193  0.029493  1
  F  F13  1  0.500663  0.325807  0.970507  1
  F  F14  1  0.999337  0.325807  0.970507  1
  F  F15  1  0.000663  0.674193  0.029493  1
  F  F16  1  0.250000  0.996631  0.273131  1
  F  F17  1  0.750000  0.003369  0.726869  1
