# generated using pymatgen
data_Er2Tm5Lu(CdPt)2
_symmetry_space_group_name_H-M   'P 1'
_cell_length_a   9.55854716
_cell_length_b   9.56365445
_cell_length_c   9.56365436
_cell_angle_alpha   59.96467547
_cell_angle_beta   60.01766861
_cell_angle_gamma   60.01766103
_symmetry_Int_Tables_number   1
_chemical_formula_structural   Er2Tm5Lu(CdPt)2
_chemical_formula_sum   'Er4 Tm10 Lu2 Cd4 Pt4'
_cell_volume   618.19346069
_cell_formula_units_Z   2
loop_
 _symmetry_equiv_pos_site_id
 _symmetry_equiv_pos_as_xyz
  1  'x, y, z'
loop_
 _atom_site_type_symbol
 _atom_site_label
 _atom_site_symmetry_multiplicity
 _atom_site_fract_x
 _atom_site_fract_y
 _atom_site_fract_z
 _atom_site_occupancy
  Er  Er0  1  0.353421  0.353153  0.353153  1
  Er  Er1  1  0.353153  0.353421  0.940274  1
  Er  Er2  1  0.353153  0.940274  0.353421  1
  Er  Er3  1  0.940274  0.353153  0.353153  1
  Tm  Tm4  1  0.188863  0.811137  0.188863  1
  Tm  Tm5  1  0.811137  0.188863  0.811137  1
  Tm  Tm6  1  0.188863  0.188863  0.811137  1
  Tm  Tm7  1  0.811137  0.811137  0.188863  1
  Tm  Tm8  1  0.934904  0.565096  0.565096  1
  Tm  Tm9  1  0.565096  0.934904  0.934904  1
  Tm  Tm10  1  0.565074  0.934926  0.565074  1
  Tm  Tm11  1  0.934926  0.565074  0.934926  1
  Tm  Tm12  1  0.565074  0.565074  0.934926  1
  Tm  Tm13  1  0.934926  0.934926  0.565074  1
  Lu  Lu14  1  0.811049  0.188951  0.188951  1
  Lu  Lu15  1  0.188951  0.811049  0.811049  1
  Cd  Cd16  1  0.582368  0.582456  0.582456  1
  Cd  Cd17  1  0.582456  0.582368  0.252719  1
  Cd  Cd18  1  0.582456  0.252719  0.582368  1
  Cd  Cd19  1  0.252719  0.582456  0.582456  1
  Pt  Pt20  1  0.142677  0.143406  0.143406  1
  Pt  Pt21  1  0.143406  0.142677  0.570510  1
  Pt  Pt22  1  0.143406  0.570510  0.142677  1
  Pt  Pt23  1  0.570510  0.143406  0.143406  1
