# generated using pymatgen
data_Th5Sn2BiAu
_symmetry_space_group_name_H-M   'P 1'
_cell_length_a   9.59303500
_cell_length_b   9.62144915
_cell_length_c   6.63146500
_cell_angle_alpha   90.00000000
_cell_angle_beta   90.00000000
_cell_angle_gamma   119.90235318
_symmetry_Int_Tables_number   1
_chemical_formula_structural   Th5Sn2BiAu
_chemical_formula_sum   'Th10 Sn4 Bi2 Au2'
_cell_volume   530.59495578
_cell_formula_units_Z   2
loop_
 _symmetry_equiv_pos_site_id
 _symmetry_equiv_pos_as_xyz
  1  'x, y, z'
loop_
 _atom_site_type_symbol
 _atom_site_label
 _atom_site_symmetry_multiplicity
 _atom_site_fract_x
 _atom_site_fract_y
 _atom_site_fract_z
 _atom_site_occupancy
  Th  Th0  1  0.269776  0.000000  0.750000  1
  Th  Th1  1  0.730224  0.000000  0.250000  1
  Th  Th2  1  0.004288  0.276329  0.750000  1
  Th  Th3  1  0.995712  0.723671  0.250000  1
  Th  Th4  1  0.727959  0.723671  0.750000  1
  Th  Th5  1  0.272041  0.276329  0.250000  1
  Th  Th6  1  0.330237  0.660476  0.500000  1
  Th  Th7  1  0.669763  0.339524  0.500000  1
  Th  Th8  1  0.669763  0.339524  0.000000  1
  Th  Th9  1  0.330237  0.660476  0.000000  1
  Sn  Sn10  1  0.001054  0.619834  0.750000  1
  Sn  Sn11  1  0.998946  0.380166  0.250000  1
  Sn  Sn12  1  0.381219  0.380166  0.750000  1
  Sn  Sn13  1  0.618781  0.619834  0.250000  1
  Bi  Bi14  1  0.617950  0.000000  0.750000  1
  Bi  Bi15  1  0.382050  0.000000  0.250000  1
  Au  Au16  1  0.000000  0.000000  0.500000  1
  Au  Au17  1  0.000000  0.000000  0.000000  1
