# generated using pymatgen
data_AsBr17
_symmetry_space_group_name_H-M   'P 1'
_cell_length_a   8.49563438
_cell_length_b   7.36825113
_cell_length_c   16.36491500
_cell_angle_alpha   81.54076327
_cell_angle_beta   86.17429396
_cell_angle_gamma   64.73230443
_symmetry_Int_Tables_number   1
_chemical_formula_structural   AsBr17
_chemical_formula_sum   'As1 Br17'
_cell_volume   916.31093087
_cell_formula_units_Z   1
loop_
 _symmetry_equiv_pos_site_id
 _symmetry_equiv_pos_as_xyz
  1  'x, y, z'
loop_
 _atom_site_type_symbol
 _atom_site_label
 _atom_site_symmetry_multiplicity
 _atom_site_fract_x
 _atom_site_fract_y
 _atom_site_fract_z
 _atom_site_occupancy
  As  As0  1  0.956407  0.320641  0.973272  1
  Br  Br1  1  0.016808  0.437505  0.475329  1
  Br  Br2  1  0.551910  0.026986  0.682300  1
  Br  Br3  1  0.457576  0.955039  0.223243  1
  Br  Br4  1  0.624034  0.044722  0.378139  1
  Br  Br5  1  0.339344  0.302149  0.763648  1
  Br  Br6  1  0.112878  0.966825  0.001010  1
  Br  Br7  1  0.728969  0.163198  0.478939  1
  Br  Br8  1  0.012236  0.411450  0.103509  1
  Br  Br9  1  0.882246  0.335284  0.595837  1
  Br  Br10  1  0.130398  0.606216  0.835347  1
  Br  Br11  1  0.131840  0.500886  0.315044  1
  Br  Br12  1  0.666709  0.361210  0.991951  1
  Br  Br13  1  0.209836  0.643226  0.547737  1
  Br  Br14  1  0.358122  0.793308  0.610923  1
  Br  Br15  1  0.705549  0.710105  0.160756  1
  Br  Br16  1  0.833706  0.812228  0.759648  1
  Br  Br17  1  0.281434  0.714523  0.277112  1
