# generated using pymatgen
data_Hf16Fe3CoPd4
_symmetry_space_group_name_H-M   'P 1'
_cell_length_a   8.62553133
_cell_length_b   8.62947624
_cell_length_c   8.62947600
_cell_angle_alpha   60.00000094
_cell_angle_beta   59.98487065
_cell_angle_gamma   59.98486999
_symmetry_Int_Tables_number   1
_chemical_formula_structural   Hf16Fe3CoPd4
_chemical_formula_sum   'Hf16 Fe3 Co1 Pd4'
_cell_volume   454.08836090
_cell_formula_units_Z   1
loop_
 _symmetry_equiv_pos_site_id
 _symmetry_equiv_pos_as_xyz
  1  'x, y, z'
loop_
 _atom_site_type_symbol
 _atom_site_label
 _atom_site_symmetry_multiplicity
 _atom_site_fract_x
 _atom_site_fract_y
 _atom_site_fract_z
 _atom_site_occupancy
  Hf  Hf0  1  0.180347  0.606551  0.606551  1
  Hf  Hf1  1  0.606457  0.181302  0.606120  1
  Hf  Hf2  1  0.606457  0.606120  0.181302  1
  Hf  Hf3  1  0.606457  0.606120  0.606120  1
  Hf  Hf4  1  0.810305  0.812168  0.188763  1
  Hf  Hf5  1  0.189670  0.190421  0.809955  1
  Hf  Hf6  1  0.810305  0.188763  0.812168  1
  Hf  Hf7  1  0.189670  0.809955  0.190421  1
  Hf  Hf8  1  0.189670  0.809955  0.809955  1
  Hf  Hf9  1  0.810305  0.188763  0.188763  1
  Hf  Hf10  1  0.438960  0.438732  0.061154  1
  Hf  Hf11  1  0.063132  0.059554  0.438657  1
  Hf  Hf12  1  0.438960  0.061154  0.438732  1
  Hf  Hf13  1  0.063132  0.438657  0.059554  1
  Hf  Hf14  1  0.063132  0.438657  0.438657  1
  Hf  Hf15  1  0.438960  0.061154  0.061154  1
  Fe  Fe16  1  0.393146  0.817137  0.394859  1
  Fe  Fe17  1  0.393146  0.394859  0.817137  1
  Fe  Fe18  1  0.393146  0.394859  0.394859  1
  Co  Co19  1  0.816672  0.394443  0.394443  1
  Pd  Pd20  1  0.489712  0.836763  0.836763  1
  Pd  Pd21  1  0.836085  0.489945  0.836985  1
  Pd  Pd22  1  0.836085  0.836985  0.489945  1
  Pd  Pd23  1  0.836085  0.836985  0.836985  1
