# generated using pymatgen
data_Hf6Ta3Al13Co7
_symmetry_space_group_name_H-M   'P 1'
_cell_length_a   8.58152225
_cell_length_b   8.58152160
_cell_length_c   8.58152207
_cell_angle_alpha   59.83665098
_cell_angle_beta   59.83664958
_cell_angle_gamma   59.83664856
_symmetry_Int_Tables_number   1
_chemical_formula_structural   Hf6Ta3Al13Co7
_chemical_formula_sum   'Hf6 Ta3 Al13 Co7'
_cell_volume   445.20997557
_cell_formula_units_Z   1
loop_
 _symmetry_equiv_pos_site_id
 _symmetry_equiv_pos_as_xyz
  1  'x, y, z'
loop_
 _atom_site_type_symbol
 _atom_site_label
 _atom_site_symmetry_multiplicity
 _atom_site_fract_x
 _atom_site_fract_y
 _atom_site_fract_z
 _atom_site_occupancy
  Hf  Hf0  1  0.689569  0.689569  0.308339  1
  Hf  Hf1  1  0.311144  0.688461  0.311144  1
  Hf  Hf2  1  0.688461  0.311144  0.311144  1
  Hf  Hf3  1  0.311144  0.311144  0.688461  1
  Hf  Hf4  1  0.689569  0.308339  0.689569  1
  Hf  Hf5  1  0.308339  0.689569  0.689569  1
  Ta  Ta6  1  0.880919  0.880919  0.357690  1
  Ta  Ta7  1  0.880919  0.357690  0.880919  1
  Ta  Ta8  1  0.357690  0.880919  0.880919  1
  Al  Al9  1  0.882334  0.882334  0.882334  1
  Al  Al10  1  0.118518  0.118518  0.640591  1
  Al  Al11  1  0.118518  0.640591  0.118518  1
  Al  Al12  1  0.640591  0.118518  0.118518  1
  Al  Al13  1  0.120975  0.120975  0.120975  1
  Al  Al14  1  0.666830  0.666830  0.007163  1
  Al  Al15  1  0.666830  0.007163  0.666830  1
  Al  Al16  1  0.007163  0.666830  0.666830  1
  Al  Al17  1  0.661769  0.661769  0.661769  1
  Al  Al18  1  0.335581  0.335581  0.994247  1
  Al  Al19  1  0.335581  0.994247  0.335581  1
  Al  Al20  1  0.994247  0.335581  0.335581  1
  Al  Al21  1  0.335219  0.335219  0.335219  1
  Co  Co22  1  0.002481  0.002481  0.002481  1
  Co  Co23  1  0.997825  0.997825  0.495032  1
  Co  Co24  1  0.504327  0.996271  0.504327  1
  Co  Co25  1  0.996271  0.504327  0.504327  1
  Co  Co26  1  0.504327  0.504327  0.996271  1
  Co  Co27  1  0.997825  0.495032  0.997825  1
  Co  Co28  1  0.495032  0.997825  0.997825  1
