# generated using pymatgen
data_Er4MnTc2Ru5
_symmetry_space_group_name_H-M   'P 1'
_cell_length_a   5.33330900
_cell_length_b   5.23964166
_cell_length_c   8.96305100
_cell_angle_alpha   90.00000000
_cell_angle_beta   90.00000000
_cell_angle_gamma   122.06366809
_symmetry_Int_Tables_number   1
_chemical_formula_structural   Er4MnTc2Ru5
_chemical_formula_sum   'Er4 Mn1 Tc2 Ru5'
_cell_volume   212.26224435
_cell_formula_units_Z   1
loop_
 _symmetry_equiv_pos_site_id
 _symmetry_equiv_pos_as_xyz
  1  'x, y, z'
loop_
 _atom_site_type_symbol
 _atom_site_label
 _atom_site_symmetry_multiplicity
 _atom_site_fract_x
 _atom_site_fract_y
 _atom_site_fract_z
 _atom_site_occupancy
  Er  Er0  1  0.334202  0.662579  0.436668  1
  Er  Er1  1  0.667716  0.336548  0.567556  1
  Er  Er2  1  0.667716  0.336548  0.932444  1
  Er  Er3  1  0.334202  0.662579  0.063332  1
  Mn  Mn4  1  0.164553  0.330213  0.750000  1
  Tc  Tc5  1  0.342211  0.175512  0.250000  1
  Tc  Tc6  1  0.830735  0.669230  0.250000  1
  Ru  Ru7  1  0.174137  0.829404  0.750000  1
  Ru  Ru8  1  0.650258  0.826122  0.750000  1
  Ru  Ru9  1  0.004848  0.998163  0.996525  1
  Ru  Ru10  1  0.824573  0.174938  0.250000  1
  Ru  Ru11  1  0.004848  0.998163  0.503475  1
