# generated using pymatgen
data_DyAl8(CrCu)2
_symmetry_space_group_name_H-M   'P 1'
_cell_length_a   6.70584382
_cell_length_b   6.70584458
_cell_length_c   6.78093139
_cell_angle_alpha   98.06102988
_cell_angle_beta   98.06103994
_cell_angle_gamma   135.75835625
_symmetry_Int_Tables_number   1
_chemical_formula_structural   DyAl8(CrCu)2
_chemical_formula_sum   'Dy1 Al8 Cr2 Cu2'
_cell_volume   197.44210658
_cell_formula_units_Z   1
loop_
 _symmetry_equiv_pos_site_id
 _symmetry_equiv_pos_as_xyz
  1  'x, y, z'
loop_
 _atom_site_type_symbol
 _atom_site_label
 _atom_site_symmetry_multiplicity
 _atom_site_fract_x
 _atom_site_fract_y
 _atom_site_fract_z
 _atom_site_occupancy
  Dy  Dy0  1  0.000000  0.000000  0.000000  1
  Al  Al1  1  0.281853  0.501296  0.783149  1
  Al  Al2  1  0.498704  0.718147  0.216851  1
  Al  Al3  1  0.653124  0.008090  0.661214  1
  Al  Al4  1  0.991910  0.346876  0.338786  1
  Al  Al5  1  0.008090  0.653124  0.661214  1
  Al  Al6  1  0.346876  0.991910  0.338786  1
  Al  Al7  1  0.718147  0.498704  0.216851  1
  Al  Al8  1  0.501296  0.281853  0.783149  1
  Cr  Cr9  1  0.500000  0.000000  0.000000  1
  Cr  Cr10  1  0.000000  0.500000  0.000000  1
  Cu  Cu11  1  0.000000  0.000000  0.500000  1
  Cu  Cu12  1  0.500000  0.500000  0.500000  1
