# generated using pymatgen
data_Ho6Er6TlZnCo4
_symmetry_space_group_name_H-M   'P 1'
_cell_length_a   8.25661698
_cell_length_b   8.24788424
_cell_length_c   8.24788531
_cell_angle_alpha   111.96396554
_cell_angle_beta   109.78192612
_cell_angle_gamma   106.67087215
_symmetry_Int_Tables_number   1
_chemical_formula_structural   Ho6Er6TlZnCo4
_chemical_formula_sum   'Ho6 Er6 Tl1 Zn1 Co4'
_cell_volume   431.66687823
_cell_formula_units_Z   1
loop_
 _symmetry_equiv_pos_site_id
 _symmetry_equiv_pos_as_xyz
  1  'x, y, z'
loop_
 _atom_site_type_symbol
 _atom_site_label
 _atom_site_symmetry_multiplicity
 _atom_site_fract_x
 _atom_site_fract_y
 _atom_site_fract_z
 _atom_site_occupancy
  Ho  Ho0  1  0.569067  0.266887  0.302180  1
  Ho  Ho1  1  0.430933  0.733113  0.697820  1
  Ho  Ho2  1  0.179645  0.780250  0.960364  1
  Ho  Ho3  1  0.820355  0.780721  0.600606  1
  Ho  Ho4  1  0.179645  0.219279  0.399394  1
  Ho  Ho5  1  0.820355  0.219750  0.039636  1
  Er  Er6  1  0.963955  0.266289  0.697665  1
  Er  Er7  1  0.036045  0.733711  0.302335  1
  Er  Er8  1  0.675183  0.860943  0.186786  1
  Er  Er9  1  0.324817  0.511606  0.185761  1
  Er  Er10  1  0.324817  0.139057  0.813214  1
  Er  Er11  1  0.675183  0.488394  0.814239  1
  Tl  Tl12  1  0.500000  0.000000  0.500000  1
  Zn  Zn13  1  0.000000  0.500000  0.500000  1
  Co  Co14  1  0.114064  0.115216  0.998848  1
  Co  Co15  1  0.885936  0.884784  0.001152  1
  Co  Co16  1  0.661735  0.500252  0.161482  1
  Co  Co17  1  0.338265  0.499748  0.838518  1
