# generated using pymatgen
data_Cs4P2S9
_symmetry_space_group_name_H-M   'P 1'
_cell_length_a   7.29378143
_cell_length_b   7.29378170
_cell_length_c   19.23502659
_cell_angle_alpha   93.98061440
_cell_angle_beta   93.98061460
_cell_angle_gamma   94.43952615
_symmetry_Int_Tables_number   1
_chemical_formula_structural   Cs4P2S9
_chemical_formula_sum   'Cs8 P4 S18'
_cell_volume   1014.87578156
_cell_formula_units_Z   2
loop_
 _symmetry_equiv_pos_site_id
 _symmetry_equiv_pos_as_xyz
  1  'x, y, z'
loop_
 _atom_site_type_symbol
 _atom_site_label
 _atom_site_symmetry_multiplicity
 _atom_site_fract_x
 _atom_site_fract_y
 _atom_site_fract_z
 _atom_site_occupancy
  Cs  Cs0  1  0.721635  0.214989  0.026049  1
  Cs  Cs1  1  0.235251  0.432895  0.173437  1
  Cs  Cs2  1  0.567105  0.764748  0.326563  1
  Cs  Cs3  1  0.785011  0.278364  0.473951  1
  Cs  Cs4  1  0.214989  0.721635  0.526049  1
  Cs  Cs5  1  0.432895  0.235251  0.673437  1
  Cs  Cs6  1  0.764748  0.567105  0.826563  1
  Cs  Cs7  1  0.278364  0.785011  0.973951  1
  P  P8  1  0.733708  0.748155  0.125329  1
  P  P9  1  0.251845  0.266292  0.374672  1
  P  P10  1  0.748154  0.733707  0.625328  1
  P  P11  1  0.266292  0.251845  0.874672  1
  S  S12  1  0.791489  0.718867  0.023380  1
  S  S13  1  0.507193  0.879255  0.143845  1
  S  S14  1  0.978186  0.946394  0.159171  1
  S  S15  1  0.750057  0.521580  0.178475  1
  S  S16  1  0.911589  0.088412  0.250000  1
  S  S17  1  0.478420  0.249943  0.321526  1
  S  S18  1  0.053607  0.021815  0.340829  1
  S  S19  1  0.120745  0.492806  0.356154  1
  S  S20  1  0.281132  0.208511  0.476620  1
  S  S21  1  0.718867  0.791489  0.523380  1
  S  S22  1  0.879255  0.507193  0.643846  1
  S  S23  1  0.946393  0.978184  0.659171  1
  S  S24  1  0.521580  0.750056  0.678474  1
  S  S25  1  0.088412  0.911589  0.750000  1
  S  S26  1  0.249943  0.478420  0.821526  1
  S  S27  1  0.021815  0.053607  0.840829  1
  S  S28  1  0.492806  0.120745  0.856154  1
  S  S29  1  0.208511  0.281132  0.976620  1
