# generated using pymatgen
data_BaZn2F7
_symmetry_space_group_name_H-M   'P 1'
_cell_length_a   7.42388933
_cell_length_b   7.42388950
_cell_length_c   5.71190521
_cell_angle_alpha   69.39262399
_cell_angle_beta   69.39262227
_cell_angle_gamma   85.79641271
_symmetry_Int_Tables_number   1
_chemical_formula_structural   BaZn2F7
_chemical_formula_sum   'Ba2 Zn4 F14'
_cell_volume   275.34933181
_cell_formula_units_Z   2
loop_
 _symmetry_equiv_pos_site_id
 _symmetry_equiv_pos_as_xyz
  1  'x, y, z'
loop_
 _atom_site_type_symbol
 _atom_site_label
 _atom_site_symmetry_multiplicity
 _atom_site_fract_x
 _atom_site_fract_y
 _atom_site_fract_z
 _atom_site_occupancy
  Ba  Ba0  1  0.311952  0.688048  0.500000  1
  Ba  Ba1  1  0.688414  0.311586  0.000000  1
  Zn  Zn2  1  0.915414  0.702629  0.137633  1
  Zn  Zn3  1  0.297371  0.084586  0.862367  1
  Zn  Zn4  1  0.084994  0.296572  0.362914  1
  Zn  Zn5  1  0.703428  0.915006  0.637086  1
  F  F6  1  0.334638  0.418835  0.261953  1
  F  F7  1  0.581165  0.665362  0.738047  1
  F  F8  1  0.665436  0.581377  0.237472  1
  F  F9  1  0.418623  0.334564  0.762528  1
  F  F10  1  0.964194  0.535941  0.476322  1
  F  F11  1  0.464059  0.035806  0.523678  1
  F  F12  1  0.035158  0.463911  0.025045  1
  F  F13  1  0.536089  0.964842  0.974955  1
  F  F14  1  0.185953  0.072804  0.244094  1
  F  F15  1  0.927196  0.814047  0.755906  1
  F  F16  1  0.812041  0.926416  0.256490  1
  F  F17  1  0.073584  0.187959  0.743510  1
  F  F18  1  0.815567  0.184433  0.500000  1
  F  F19  1  0.184726  0.815274  0.000000  1
