# generated using pymatgen
data_La6Pr2Cd2RuPt
_symmetry_space_group_name_H-M   'P 1'
_cell_length_a   10.11472724
_cell_length_b   10.10695068
_cell_length_c   10.18759097
_cell_angle_alpha   59.78635336
_cell_angle_beta   59.71078736
_cell_angle_gamma   59.94181867
_symmetry_Int_Tables_number   1
_chemical_formula_structural   La6Pr2Cd2RuPt
_chemical_formula_sum   'La12 Pr4 Cd4 Ru2 Pt2'
_cell_volume   733.29650356
_cell_formula_units_Z   2
loop_
 _symmetry_equiv_pos_site_id
 _symmetry_equiv_pos_as_xyz
  1  'x, y, z'
loop_
 _atom_site_type_symbol
 _atom_site_label
 _atom_site_symmetry_multiplicity
 _atom_site_fract_x
 _atom_site_fract_y
 _atom_site_fract_z
 _atom_site_occupancy
  La  La0  1  0.346604  0.345696  0.353945  1
  La  La1  1  0.345696  0.346604  0.953756  1
  La  La2  1  0.342869  0.960631  0.348950  1
  La  La3  1  0.960631  0.342869  0.347550  1
  La  La4  1  0.815962  0.189886  0.191889  1
  La  La5  1  0.189886  0.815962  0.802263  1
  La  La6  1  0.189250  0.816471  0.191567  1
  La  La7  1  0.816471  0.189250  0.802711  1
  La  La8  1  0.188879  0.188879  0.811121  1
  La  La9  1  0.803934  0.803934  0.196066  1
  La  La10  1  0.936567  0.559429  0.566629  1
  La  La11  1  0.559429  0.936567  0.937374  1
  Pr  Pr12  1  0.560411  0.937467  0.565511  1
  Pr  Pr13  1  0.937467  0.560411  0.936611  1
  Pr  Pr14  1  0.563014  0.563014  0.936986  1
  Pr  Pr15  1  0.936628  0.936628  0.563372  1
  Cd  Cd16  1  0.578856  0.579910  0.580363  1
  Cd  Cd17  1  0.579910  0.578856  0.260869  1
  Cd  Cd18  1  0.581618  0.258167  0.579560  1
  Cd  Cd19  1  0.258167  0.581618  0.580654  1
  Ru  Ru20  1  0.142724  0.141205  0.135225  1
  Ru  Ru21  1  0.141205  0.142724  0.580847  1
  Pt  Pt22  1  0.147223  0.576598  0.137905  1
  Pt  Pt23  1  0.576598  0.147223  0.138273  1
