# generated using pymatgen
data_V7TcS12
_symmetry_space_group_name_H-M   'P 1'
_cell_length_a   5.56330700
_cell_length_b   5.56330708
_cell_length_c   11.86937400
_cell_angle_alpha   90.00000000
_cell_angle_beta   90.00000000
_cell_angle_gamma   120.00000544
_symmetry_Int_Tables_number   1
_chemical_formula_structural   V7TcS12
_chemical_formula_sum   'V7 Tc1 S12'
_cell_volume   318.14454534
_cell_formula_units_Z   1
loop_
 _symmetry_equiv_pos_site_id
 _symmetry_equiv_pos_as_xyz
  1  'x, y, z'
loop_
 _atom_site_type_symbol
 _atom_site_label
 _atom_site_symmetry_multiplicity
 _atom_site_fract_x
 _atom_site_fract_y
 _atom_site_fract_z
 _atom_site_occupancy
  V  V0  1  0.333333  0.666667  0.502281  1
  V  V1  1  0.666667  0.333333  0.999867  1
  V  V2  1  0.666667  0.333333  0.500133  1
  V  V3  1  0.333333  0.666667  0.997719  1
  V  V4  1  0.000000  0.000000  0.501691  1
  V  V5  1  0.000000  0.000000  0.998309  1
  V  V6  1  0.333333  0.666667  0.250000  1
  Tc  Tc7  1  0.666667  0.333333  0.750000  1
  S  S8  1  0.667481  0.667776  0.377781  1
  S  S9  1  0.332224  0.999706  0.377781  1
  S  S10  1  0.000294  0.332519  0.377781  1
  S  S11  1  0.998598  0.665933  0.876227  1
  S  S12  1  0.334067  0.001402  0.623773  1
  S  S13  1  0.334067  0.332663  0.876227  1
  S  S14  1  0.667337  0.001402  0.876227  1
  S  S15  1  0.332224  0.332519  0.122219  1
  S  S16  1  0.667481  0.999706  0.122219  1
  S  S17  1  0.667337  0.665933  0.623773  1
  S  S18  1  0.998598  0.332663  0.623773  1
  S  S19  1  0.000294  0.667776  0.122219  1
