# generated using pymatgen
data_LuMnB4
_symmetry_space_group_name_H-M   'P 1'
_cell_length_a   3.35601500
_cell_length_b   5.86136000
_cell_length_c   11.32904900
_cell_angle_alpha   90.00000000
_cell_angle_beta   90.00000000
_cell_angle_gamma   90.00000000
_symmetry_Int_Tables_number   1
_chemical_formula_structural   LuMnB4
_chemical_formula_sum   'Lu4 Mn4 B16'
_cell_volume   222.85159393
_cell_formula_units_Z   4
loop_
 _symmetry_equiv_pos_site_id
 _symmetry_equiv_pos_as_xyz
  1  'x, y, z'
loop_
 _atom_site_type_symbol
 _atom_site_label
 _atom_site_symmetry_multiplicity
 _atom_site_fract_x
 _atom_site_fract_y
 _atom_site_fract_z
 _atom_site_occupancy
  Lu  Lu0  1  0.000000  0.626693  0.349761  1
  Lu  Lu1  1  0.000000  0.373307  0.650239  1
  Lu  Lu2  1  0.000000  0.126693  0.150239  1
  Lu  Lu3  1  0.000000  0.873307  0.849761  1
  Mn  Mn4  1  0.000000  0.628483  0.084334  1
  Mn  Mn5  1  0.000000  0.371517  0.915666  1
  Mn  Mn6  1  0.000000  0.128483  0.415666  1
  Mn  Mn7  1  0.000000  0.871517  0.584334  1
  B  B8  1  0.500000  0.783162  0.184530  1
  B  B9  1  0.500000  0.216838  0.815470  1
  B  B10  1  0.500000  0.283162  0.315470  1
  B  B11  1  0.500000  0.716838  0.684530  1
  B  B12  1  0.500000  0.863587  0.031873  1
  B  B13  1  0.500000  0.136413  0.968127  1
  B  B14  1  0.500000  0.363587  0.468127  1
  B  B15  1  0.500000  0.636413  0.531873  1
  B  B16  1  0.500000  0.886758  0.452912  1
  B  B17  1  0.500000  0.113242  0.547088  1
  B  B18  1  0.500000  0.386758  0.047088  1
  B  B19  1  0.500000  0.613242  0.952912  1
  B  B20  1  0.500000  0.975353  0.307800  1
  B  B21  1  0.500000  0.024647  0.692200  1
  B  B22  1  0.500000  0.475353  0.192200  1
  B  B23  1  0.500000  0.524647  0.807800  1
