# generated using pymatgen
data_Hf9TaRe3B
_symmetry_space_group_name_H-M   'P 1'
_cell_length_a   8.53897800
_cell_length_b   8.53897811
_cell_length_c   8.53030500
_cell_angle_alpha   90.00000000
_cell_angle_beta   90.00000000
_cell_angle_gamma   119.99999957
_symmetry_Int_Tables_number   1
_chemical_formula_structural   Hf9TaRe3B
_chemical_formula_sum   'Hf18 Ta2 Re6 B2'
_cell_volume   538.65040183
_cell_formula_units_Z   2
loop_
 _symmetry_equiv_pos_site_id
 _symmetry_equiv_pos_as_xyz
  1  'x, y, z'
loop_
 _atom_site_type_symbol
 _atom_site_label
 _atom_site_symmetry_multiplicity
 _atom_site_fract_x
 _atom_site_fract_y
 _atom_site_fract_z
 _atom_site_occupancy
  Hf  Hf0  1  0.202646  0.797354  0.443848  1
  Hf  Hf1  1  0.202646  0.405292  0.443848  1
  Hf  Hf2  1  0.594708  0.797354  0.443848  1
  Hf  Hf3  1  0.797354  0.202646  0.556152  1
  Hf  Hf4  1  0.797354  0.594708  0.556152  1
  Hf  Hf5  1  0.405292  0.202646  0.556152  1
  Hf  Hf6  1  0.797354  0.202646  0.943848  1
  Hf  Hf7  1  0.797354  0.594708  0.943848  1
  Hf  Hf8  1  0.405292  0.202646  0.943848  1
  Hf  Hf9  1  0.202646  0.797354  0.056152  1
  Hf  Hf10  1  0.202646  0.405292  0.056152  1
  Hf  Hf11  1  0.594708  0.797354  0.056152  1
  Hf  Hf12  1  0.540496  0.459504  0.250000  1
  Hf  Hf13  1  0.540496  0.080991  0.250000  1
  Hf  Hf14  1  0.919009  0.459504  0.250000  1
  Hf  Hf15  1  0.459504  0.540496  0.750000  1
  Hf  Hf16  1  0.459504  0.919009  0.750000  1
  Hf  Hf17  1  0.080991  0.540496  0.750000  1
  Ta  Ta18  1  0.000000  0.000000  0.500000  1
  Ta  Ta19  1  0.000000  0.000000  0.000000  1
  Re  Re20  1  0.886423  0.113577  0.250000  1
  Re  Re21  1  0.886423  0.772848  0.250000  1
  Re  Re22  1  0.227152  0.113577  0.250000  1
  Re  Re23  1  0.113577  0.886423  0.750000  1
  Re  Re24  1  0.113577  0.227152  0.750000  1
  Re  Re25  1  0.772848  0.886423  0.750000  1
  B  B26  1  0.333333  0.666667  0.250000  1
  B  B27  1  0.666667  0.333333  0.750000  1
