# generated using pymatgen
data_Hg4Ru3PtO14
_symmetry_space_group_name_H-M   'P 1'
_cell_length_a   7.29866243
_cell_length_b   7.29866208
_cell_length_c   7.29866271
_cell_angle_alpha   60.33099981
_cell_angle_beta   60.33099835
_cell_angle_gamma   60.33100501
_symmetry_Int_Tables_number   1
_chemical_formula_structural   Hg4Ru3PtO14
_chemical_formula_sum   'Hg4 Ru3 Pt1 O14'
_cell_volume   276.98423895
_cell_formula_units_Z   1
loop_
 _symmetry_equiv_pos_site_id
 _symmetry_equiv_pos_as_xyz
  1  'x, y, z'
loop_
 _atom_site_type_symbol
 _atom_site_label
 _atom_site_symmetry_multiplicity
 _atom_site_fract_x
 _atom_site_fract_y
 _atom_site_fract_z
 _atom_site_occupancy
  Hg  Hg0  1  0.125000  0.125000  0.125000  1
  Hg  Hg1  1  0.625000  0.125000  0.125000  1
  Hg  Hg2  1  0.125000  0.625000  0.125000  1
  Hg  Hg3  1  0.125000  0.125000  0.625000  1
  Ru  Ru4  1  0.625000  0.625000  0.125000  1
  Ru  Ru5  1  0.625000  0.125000  0.625000  1
  Ru  Ru6  1  0.125000  0.625000  0.625000  1
  Pt  Pt7  1  0.625000  0.625000  0.625000  1
  O  O8  1  0.694493  0.315530  0.315530  1
  O  O9  1  0.703057  0.293477  0.703057  1
  O  O10  1  0.003834  0.003834  0.003834  1
  O  O11  1  0.315530  0.694493  0.315530  1
  O  O12  1  0.703057  0.703057  0.293477  1
  O  O13  1  0.956523  0.546943  0.546943  1
  O  O14  1  0.293477  0.703057  0.703057  1
  O  O15  1  0.246166  0.246166  0.246166  1
  O  O16  1  0.934470  0.555507  0.934470  1
  O  O17  1  0.546943  0.956523  0.546943  1
  O  O18  1  0.546943  0.546943  0.956523  1
  O  O19  1  0.934470  0.934470  0.555507  1
  O  O20  1  0.555507  0.934470  0.934470  1
  O  O21  1  0.315530  0.315530  0.694493  1
