# generated using pymatgen
data_Ho3Fe(P3Rh4)2
_symmetry_space_group_name_H-M   'P 1'
_cell_length_a   3.86101600
_cell_length_b   11.22689300
_cell_length_c   12.67320000
_cell_angle_alpha   90.00000000
_cell_angle_beta   90.00000000
_cell_angle_gamma   90.00000000
_symmetry_Int_Tables_number   1
_chemical_formula_structural   Ho3Fe(P3Rh4)2
_chemical_formula_sum   'Ho6 Fe2 P12 Rh16'
_cell_volume   549.34790617
_cell_formula_units_Z   2
loop_
 _symmetry_equiv_pos_site_id
 _symmetry_equiv_pos_as_xyz
  1  'x, y, z'
loop_
 _atom_site_type_symbol
 _atom_site_label
 _atom_site_symmetry_multiplicity
 _atom_site_fract_x
 _atom_site_fract_y
 _atom_site_fract_z
 _atom_site_occupancy
  Ho  Ho0  1  0.000000  0.500000  0.521511  1
  Ho  Ho1  1  0.500000  0.000000  0.478489  1
  Ho  Ho2  1  0.500000  0.819464  0.201230  1
  Ho  Ho3  1  0.500000  0.180536  0.201230  1
  Ho  Ho4  1  0.000000  0.680536  0.798770  1
  Ho  Ho5  1  0.000000  0.319464  0.798770  1
  Fe  Fe6  1  0.000000  0.500000  0.988586  1
  Fe  Fe7  1  0.500000  0.000000  0.011414  1
  P  P8  1  0.500000  0.500000  0.885422  1
  P  P9  1  0.000000  0.000000  0.114578  1
  P  P10  1  0.500000  0.500000  0.349915  1
  P  P11  1  0.000000  0.000000  0.650085  1
  P  P12  1  0.500000  0.315301  0.620344  1
  P  P13  1  0.500000  0.684699  0.620344  1
  P  P14  1  0.000000  0.184699  0.379656  1
  P  P15  1  0.000000  0.815301  0.379656  1
  P  P16  1  0.500000  0.850314  0.895884  1
  P  P17  1  0.500000  0.149686  0.895884  1
  P  P18  1  0.000000  0.649686  0.104116  1
  P  P19  1  0.000000  0.350314  0.104116  1
  Rh  Rh20  1  0.500000  0.500000  0.162751  1
  Rh  Rh21  1  0.000000  0.000000  0.837249  1
  Rh  Rh22  1  0.500000  0.500000  0.702852  1
  Rh  Rh23  1  0.000000  0.000000  0.297148  1
  Rh  Rh24  1  0.500000  0.334829  0.993165  1
  Rh  Rh25  1  0.500000  0.665171  0.993165  1
  Rh  Rh26  1  0.000000  0.165171  0.006835  1
  Rh  Rh27  1  0.000000  0.834829  0.006835  1
  Rh  Rh28  1  0.500000  0.293935  0.430210  1
  Rh  Rh29  1  0.500000  0.706065  0.430210  1
  Rh  Rh30  1  0.000000  0.206065  0.569790  1
  Rh  Rh31  1  0.000000  0.793935  0.569790  1
  Rh  Rh32  1  0.500000  0.872540  0.712846  1
  Rh  Rh33  1  0.500000  0.127460  0.712846  1
  Rh  Rh34  1  0.000000  0.627460  0.287154  1
  Rh  Rh35  1  0.000000  0.372540  0.287154  1
