# generated using pymatgen
data_Hf3Zr9(Ga2Sn)4
_symmetry_space_group_name_H-M   'P 1'
_cell_length_a   5.77947201
_cell_length_b   8.84202901
_cell_length_c   9.44211500
_cell_angle_alpha   90.00000000
_cell_angle_beta   90.00000000
_cell_angle_gamma   89.99472258
_symmetry_Int_Tables_number   1
_chemical_formula_structural   Hf3Zr9(Ga2Sn)4
_chemical_formula_sum   'Hf3 Zr9 Ga8 Sn4'
_cell_volume   482.51340549
_cell_formula_units_Z   1
loop_
 _symmetry_equiv_pos_site_id
 _symmetry_equiv_pos_as_xyz
  1  'x, y, z'
loop_
 _atom_site_type_symbol
 _atom_site_label
 _atom_site_symmetry_multiplicity
 _atom_site_fract_x
 _atom_site_fract_y
 _atom_site_fract_z
 _atom_site_occupancy
  Hf  Hf0  1  0.500000  0.250000  0.877894  1
  Hf  Hf1  1  0.000000  0.250000  0.877715  1
  Hf  Hf2  1  0.500000  0.750000  0.122174  1
  Zr  Zr3  1  0.000000  0.750000  0.121776  1
  Zr  Zr4  1  0.750052  0.470195  0.610322  1
  Zr  Zr5  1  0.249686  0.529454  0.389968  1
  Zr  Zr6  1  0.750314  0.970546  0.389968  1
  Zr  Zr7  1  0.249948  0.029805  0.610322  1
  Zr  Zr8  1  0.750183  0.373097  0.199048  1
  Zr  Zr9  1  0.249845  0.626607  0.800668  1
  Zr  Zr10  1  0.750155  0.873393  0.800668  1
  Zr  Zr11  1  0.249817  0.126903  0.199048  1
  Ga  Ga12  1  0.000000  0.750000  0.569648  1
  Ga  Ga13  1  0.500000  0.250000  0.430380  1
  Ga  Ga14  1  0.000000  0.250000  0.430499  1
  Ga  Ga15  1  0.500000  0.750000  0.569434  1
  Ga  Ga16  1  0.749843  0.137230  0.646478  1
  Ga  Ga17  1  0.250828  0.863271  0.354232  1
  Ga  Ga18  1  0.749172  0.636729  0.354232  1
  Ga  Ga19  1  0.250157  0.362770  0.646478  1
  Sn  Sn20  1  0.749474  0.051785  0.084897  1
  Sn  Sn21  1  0.250595  0.949063  0.914627  1
  Sn  Sn22  1  0.749405  0.550937  0.914627  1
  Sn  Sn23  1  0.250526  0.448215  0.084897  1
