# generated using pymatgen
data_La6YbIrBr12
_symmetry_space_group_name_H-M   'P 1'
_cell_length_a   9.78617736
_cell_length_b   9.78617592
_cell_length_c   9.78617641
_cell_angle_alpha   107.53832688
_cell_angle_beta   107.53832766
_cell_angle_gamma   107.53831175
_symmetry_Int_Tables_number   1
_chemical_formula_structural   La6YbIrBr12
_chemical_formula_sum   'La6 Yb1 Ir1 Br12'
_cell_volume   768.77169149
_cell_formula_units_Z   1
loop_
 _symmetry_equiv_pos_site_id
 _symmetry_equiv_pos_as_xyz
  1  'x, y, z'
loop_
 _atom_site_type_symbol
 _atom_site_label
 _atom_site_symmetry_multiplicity
 _atom_site_fract_x
 _atom_site_fract_y
 _atom_site_fract_z
 _atom_site_occupancy
  La  La0  1  0.108773  0.318034  0.027815  1
  La  La1  1  0.318034  0.027816  0.108772  1
  La  La2  1  0.027816  0.108772  0.318035  1
  La  La3  1  0.972185  0.891228  0.681966  1
  La  La4  1  0.681966  0.972185  0.891228  1
  La  La5  1  0.891227  0.681966  0.972185  1
  Yb  Yb6  1  0.500000  0.500000  0.500000  1
  Ir  Ir7  1  0.000000  0.000000  0.000000  1
  Br  Br8  1  0.218245  0.684943  0.072499  1
  Br  Br9  1  0.460482  0.383494  0.175128  1
  Br  Br10  1  0.684944  0.072499  0.218245  1
  Br  Br11  1  0.927502  0.781755  0.315057  1
  Br  Br12  1  0.175128  0.460482  0.383494  1
  Br  Br13  1  0.383494  0.175128  0.460482  1
  Br  Br14  1  0.616506  0.824872  0.539519  1
  Br  Br15  1  0.824873  0.539518  0.616506  1
  Br  Br16  1  0.072499  0.218245  0.684944  1
  Br  Br17  1  0.315057  0.927502  0.781755  1
  Br  Br18  1  0.539518  0.616506  0.824873  1
  Br  Br19  1  0.781755  0.315057  0.927501  1
