# generated using pymatgen
data_K2Pd3Au
_symmetry_space_group_name_H-M   'P 1'
_cell_length_a   5.65478992
_cell_length_b   5.65478994
_cell_length_c   5.68894904
_cell_angle_alpha   60.19841672
_cell_angle_beta   60.19843310
_cell_angle_gamma   59.99999127
_symmetry_Int_Tables_number   1
_chemical_formula_structural   K2Pd3Au
_chemical_formula_sum   'K2 Pd3 Au1'
_cell_volume   129.01672431
_cell_formula_units_Z   1
loop_
 _symmetry_equiv_pos_site_id
 _symmetry_equiv_pos_as_xyz
  1  'x, y, z'
loop_
 _atom_site_type_symbol
 _atom_site_label
 _atom_site_symmetry_multiplicity
 _atom_site_fract_x
 _atom_site_fract_y
 _atom_site_fract_z
 _atom_site_occupancy
  K  K0  1  0.749726  0.749726  0.750823  1
  K  K1  1  0.500274  0.500274  0.499177  1
  Pd  Pd2  1  0.125000  0.625000  0.125000  1
  Pd  Pd3  1  0.625000  0.125000  0.125000  1
  Pd  Pd4  1  0.125000  0.125000  0.125000  1
  Au  Au5  1  0.125000  0.125000  0.625000  1
