# generated using pymatgen
data_Ti4ReOs2Ru
_symmetry_space_group_name_H-M   'P 1'
_cell_length_a   6.17956600
_cell_length_b   4.39258200
_cell_length_c   8.78525200
_cell_angle_alpha   90.00002609
_cell_angle_beta   89.99973049
_cell_angle_gamma   90.00000000
_symmetry_Int_Tables_number   1
_chemical_formula_structural   Ti4ReOs2Ru
_chemical_formula_sum   'Ti8 Re2 Os4 Ru2'
_cell_volume   238.46907993
_cell_formula_units_Z   2
loop_
 _symmetry_equiv_pos_site_id
 _symmetry_equiv_pos_as_xyz
  1  'x, y, z'
loop_
 _atom_site_type_symbol
 _atom_site_label
 _atom_site_symmetry_multiplicity
 _atom_site_fract_x
 _atom_site_fract_y
 _atom_site_fract_z
 _atom_site_occupancy
  Ti  Ti0  1  0.000484  0.749999  0.124397  1
  Ti  Ti1  1  0.499550  0.749999  0.124400  1
  Ti  Ti2  1  0.999542  0.249999  0.375604  1
  Ti  Ti3  1  0.500492  0.249999  0.375604  1
  Ti  Ti4  1  0.500171  0.749999  0.625454  1
  Ti  Ti5  1  0.999787  0.749999  0.625456  1
  Ti  Ti6  1  0.499798  0.249999  0.874549  1
  Ti  Ti7  1  0.000175  0.249999  0.874557  1
  Re  Re8  1  0.749987  0.249999  0.624091  1
  Re  Re9  1  0.249980  0.750000  0.875899  1
  Os  Os10  1  0.250020  0.249999  0.125864  1
  Os  Os11  1  0.750018  0.749999  0.374133  1
  Os  Os12  1  0.249986  0.249999  0.624233  1
  Os  Os13  1  0.749980  0.750000  0.875768  1
  Ru  Ru14  1  0.750016  0.249999  0.125774  1
  Ru  Ru15  1  0.250013  0.749999  0.374216  1
