# generated using pymatgen
data_TbYbOsC2
_symmetry_space_group_name_H-M   'P 1'
_cell_length_a   5.13222400
_cell_length_b   6.42339000
_cell_length_c   10.11381000
_cell_angle_alpha   90.00000000
_cell_angle_beta   90.00000000
_cell_angle_gamma   90.00000000
_symmetry_Int_Tables_number   1
_chemical_formula_structural   TbYbOsC2
_chemical_formula_sum   'Tb4 Yb4 Os4 C8'
_cell_volume   333.41465510
_cell_formula_units_Z   4
loop_
 _symmetry_equiv_pos_site_id
 _symmetry_equiv_pos_as_xyz
  1  'x, y, z'
loop_
 _atom_site_type_symbol
 _atom_site_label
 _atom_site_symmetry_multiplicity
 _atom_site_fract_x
 _atom_site_fract_y
 _atom_site_fract_z
 _atom_site_occupancy
  Tb  Tb0  1  0.250000  0.688631  0.557010  1
  Tb  Tb1  1  0.750000  0.311369  0.442990  1
  Tb  Tb2  1  0.750000  0.811369  0.057010  1
  Tb  Tb3  1  0.250000  0.188631  0.942990  1
  Yb  Yb4  1  0.250000  0.531446  0.222583  1
  Yb  Yb5  1  0.750000  0.468554  0.777417  1
  Yb  Yb6  1  0.750000  0.968554  0.722583  1
  Yb  Yb7  1  0.250000  0.031446  0.277417  1
  Os  Os8  1  0.250000  0.725201  0.859679  1
  Os  Os9  1  0.750000  0.274799  0.140321  1
  Os  Os10  1  0.750000  0.774799  0.359679  1
  Os  Os11  1  0.250000  0.225201  0.640321  1
  C  C12  1  0.250000  0.463159  0.757373  1
  C  C13  1  0.750000  0.536841  0.242627  1
  C  C14  1  0.750000  0.036841  0.257373  1
  C  C15  1  0.250000  0.963159  0.742627  1
  C  C16  1  0.250000  0.814847  0.038196  1
  C  C17  1  0.750000  0.185153  0.961804  1
  C  C18  1  0.750000  0.685153  0.538196  1
  C  C19  1  0.250000  0.314847  0.461804  1
