# generated using pymatgen
data_Dy7Er(ThRh)6
_symmetry_space_group_name_H-M   'P 1'
_cell_length_a   9.77141176
_cell_length_b   9.77140955
_cell_length_c   6.36913231
_cell_angle_alpha   90.09012213
_cell_angle_beta   89.90987358
_cell_angle_gamma   119.26056269
_symmetry_Int_Tables_number   1
_chemical_formula_structural   Dy7Er(ThRh)6
_chemical_formula_sum   'Dy7 Er1 Th6 Rh6'
_cell_volume   530.53333895
_cell_formula_units_Z   1
loop_
 _symmetry_equiv_pos_site_id
 _symmetry_equiv_pos_as_xyz
  1  'x, y, z'
loop_
 _atom_site_type_symbol
 _atom_site_label
 _atom_site_symmetry_multiplicity
 _atom_site_fract_x
 _atom_site_fract_y
 _atom_site_fract_z
 _atom_site_occupancy
  Dy  Dy0  1  0.128032  0.871968  0.256721  1
  Dy  Dy1  1  0.461410  0.923989  0.549134  1
  Dy  Dy2  1  0.076011  0.538590  0.549134  1
  Dy  Dy3  1  0.461801  0.538199  0.550264  1
  Dy  Dy4  1  0.537297  0.077758  0.052165  1
  Dy  Dy5  1  0.922242  0.462703  0.052165  1
  Dy  Dy6  1  0.539438  0.460562  0.051598  1
  Er  Er7  1  0.667470  0.332530  0.527990  1
  Th  Th8  1  0.332866  0.667134  0.025593  1
  Th  Th9  1  0.872823  0.742336  0.752608  1
  Th  Th10  1  0.257664  0.127177  0.752608  1
  Th  Th11  1  0.870057  0.129943  0.754295  1
  Th  Th12  1  0.129772  0.254626  0.257261  1
  Th  Th13  1  0.745374  0.870228  0.257261  1
  Rh  Rh14  1  0.185906  0.369912  0.799682  1
  Rh  Rh15  1  0.630088  0.814094  0.799682  1
  Rh  Rh16  1  0.185149  0.814851  0.795882  1
  Rh  Rh17  1  0.807380  0.628036  0.301483  1
  Rh  Rh18  1  0.371964  0.192620  0.301483  1
  Rh  Rh19  1  0.817259  0.182741  0.294427  1
