# generated using pymatgen
data_Dy3HoAl2(ZnRh2)2
_symmetry_space_group_name_H-M   'P 1'
_cell_length_a   4.06216100
_cell_length_b   6.96580995
_cell_length_c   8.10951445
_cell_angle_alpha   90.14923459
_cell_angle_beta   90.00000000
_cell_angle_gamma   90.00000000
_symmetry_Int_Tables_number   1
_chemical_formula_structural   Dy3HoAl2(ZnRh2)2
_chemical_formula_sum   'Dy3 Ho1 Al2 Zn2 Rh4'
_cell_volume   229.46800111
_cell_formula_units_Z   1
loop_
 _symmetry_equiv_pos_site_id
 _symmetry_equiv_pos_as_xyz
  1  'x, y, z'
loop_
 _atom_site_type_symbol
 _atom_site_label
 _atom_site_symmetry_multiplicity
 _atom_site_fract_x
 _atom_site_fract_y
 _atom_site_fract_z
 _atom_site_occupancy
  Dy  Dy0  1  0.250000  0.540135  0.185943  1
  Dy  Dy1  1  0.750000  0.459951  0.813857  1
  Dy  Dy2  1  0.250000  0.040667  0.320920  1
  Ho  Ho3  1  0.750000  0.959389  0.679392  1
  Al  Al4  1  0.250000  0.135997  0.938603  1
  Al  Al5  1  0.750000  0.863868  0.060951  1
  Zn  Zn6  1  0.250000  0.636718  0.563797  1
  Zn  Zn7  1  0.750000  0.363414  0.436510  1
  Rh  Rh8  1  0.750000  0.747614  0.369830  1
  Rh  Rh9  1  0.250000  0.251767  0.630645  1
  Rh  Rh10  1  0.750000  0.234678  0.112545  1
  Rh  Rh11  1  0.250000  0.765801  0.887007  1
