# generated using pymatgen
data_Pm4Ni3SnO12
_symmetry_space_group_name_H-M   'P 1'
_cell_length_a   5.43773263
_cell_length_b   5.76949774
_cell_length_c   7.78073763
_cell_angle_alpha   90.99793161
_cell_angle_beta   89.63158272
_cell_angle_gamma   90.26873744
_symmetry_Int_Tables_number   1
_chemical_formula_structural   Pm4Ni3SnO12
_chemical_formula_sum   'Pm4 Ni3 Sn1 O12'
_cell_volume   244.06034446
_cell_formula_units_Z   1
loop_
 _symmetry_equiv_pos_site_id
 _symmetry_equiv_pos_as_xyz
  1  'x, y, z'
loop_
 _atom_site_type_symbol
 _atom_site_label
 _atom_site_symmetry_multiplicity
 _atom_site_fract_x
 _atom_site_fract_y
 _atom_site_fract_z
 _atom_site_occupancy
  Pm  Pm0  1  0.980913  0.073849  0.259885  1
  Pm  Pm1  1  0.517883  0.562651  0.261089  1
  Pm  Pm2  1  0.482117  0.437350  0.738910  1
  Pm  Pm3  1  0.019088  0.926151  0.740114  1
  Ni  Ni4  1  0.000000  0.500000  0.000000  1
  Ni  Ni5  1  0.499999  0.000000  0.500000  1
  Ni  Ni6  1  0.000000  0.500000  0.500000  1
  Sn  Sn7  1  0.499999  0.000000  0.000000  1
  O  O8  1  0.694592  0.300799  0.058192  1
  O  O9  1  0.804924  0.804683  0.055168  1
  O  O10  1  0.097760  0.471780  0.257901  1
  O  O11  1  0.396311  0.967643  0.256652  1
  O  O12  1  0.707162  0.306411  0.452110  1
  O  O13  1  0.789758  0.807658  0.451960  1
  O  O14  1  0.210240  0.192342  0.548040  1
  O  O15  1  0.292839  0.693590  0.547890  1
  O  O16  1  0.603690  0.032358  0.743347  1
  O  O17  1  0.902240  0.528222  0.742098  1
  O  O18  1  0.195074  0.195317  0.944832  1
  O  O19  1  0.305409  0.699202  0.941808  1
