# generated using pymatgen
data_Tb2Zn14CoCu2
_symmetry_space_group_name_H-M   'P 1'
_cell_length_a   6.71343310
_cell_length_b   6.71343245
_cell_length_c   6.70982715
_cell_angle_alpha   82.81964141
_cell_angle_beta   97.18024795
_cell_angle_gamma   97.21810371
_symmetry_Int_Tables_number   1
_chemical_formula_structural   Tb2Zn14CoCu2
_chemical_formula_sum   'Tb2 Zn14 Co1 Cu2'
_cell_volume   295.82322180
_cell_formula_units_Z   1
loop_
 _symmetry_equiv_pos_site_id
 _symmetry_equiv_pos_as_xyz
  1  'x, y, z'
loop_
 _atom_site_type_symbol
 _atom_site_label
 _atom_site_symmetry_multiplicity
 _atom_site_fract_x
 _atom_site_fract_y
 _atom_site_fract_z
 _atom_site_occupancy
  Tb  Tb0  1  0.664541  0.335458  0.342708  1
  Tb  Tb1  1  0.335458  0.664541  0.657292  1
  Zn  Zn2  1  0.298509  0.298509  0.000000  1
  Zn  Zn3  1  0.701491  0.701491  0.000000  1
  Zn  Zn4  1  0.899519  0.100479  0.112955  1
  Zn  Zn5  1  0.351219  0.648782  0.156313  1
  Zn  Zn6  1  0.999656  0.708361  0.295566  1
  Zn  Zn7  1  0.291639  0.000344  0.295567  1
  Zn  Zn8  1  0.654060  0.851721  0.350715  1
  Zn  Zn9  1  0.148279  0.345940  0.350717  1
  Zn  Zn10  1  0.851721  0.654060  0.649283  1
  Zn  Zn11  1  0.345940  0.148278  0.649284  1
  Zn  Zn12  1  0.000344  0.291639  0.704432  1
  Zn  Zn13  1  0.708361  0.999656  0.704433  1
  Zn  Zn14  1  0.648782  0.351218  0.843687  1
  Zn  Zn15  1  0.100479  0.899521  0.887045  1
  Co  Co16  1  0.000000  0.000000  0.500000  1
  Cu  Cu17  1  0.500000  0.000000  0.000000  1
  Cu  Cu18  1  0.000000  0.499999  0.000000  1
