# generated using pymatgen
data_Tb7HoTc2(B12Os)2
_symmetry_space_group_name_H-M   'P 1'
_cell_length_a   3.68647600
_cell_length_b   9.18079306
_cell_length_c   11.57328509
_cell_angle_alpha   89.93113005
_cell_angle_beta   90.00000000
_cell_angle_gamma   90.00000000
_symmetry_Int_Tables_number   1
_chemical_formula_structural   Tb7HoTc2(B12Os)2
_chemical_formula_sum   'Tb7 Ho1 Tc2 B24 Os2'
_cell_volume   391.69492687
_cell_formula_units_Z   1
loop_
 _symmetry_equiv_pos_site_id
 _symmetry_equiv_pos_as_xyz
  1  'x, y, z'
loop_
 _atom_site_type_symbol
 _atom_site_label
 _atom_site_symmetry_multiplicity
 _atom_site_fract_x
 _atom_site_fract_y
 _atom_site_fract_z
 _atom_site_occupancy
  Tb  Tb0  1  0.000000  0.324921  0.415322  1
  Tb  Tb1  1  0.000000  0.675076  0.584867  1
  Tb  Tb2  1  0.000000  0.821095  0.087116  1
  Tb  Tb3  1  0.000000  0.178935  0.912728  1
  Tb  Tb4  1  0.000000  0.941444  0.370703  1
  Tb  Tb5  1  0.000000  0.058553  0.629382  1
  Tb  Tb6  1  0.000000  0.443496  0.129832  1
  Ho  Ho7  1  0.000000  0.556650  0.869740  1
  Tc  Tc8  1  0.000000  0.638141  0.320352  1
  Tc  Tc9  1  0.000000  0.362238  0.679920  1
  B  B10  1  0.500000  0.553235  0.432749  1
  B  B11  1  0.500000  0.446804  0.567396  1
  B  B12  1  0.500000  0.053780  0.067228  1
  B  B13  1  0.500000  0.946002  0.932706  1
  B  B14  1  0.500000  0.747622  0.418502  1
  B  B15  1  0.500000  0.252446  0.581528  1
  B  B16  1  0.500000  0.248076  0.081669  1
  B  B17  1  0.500000  0.751295  0.918289  1
  B  B18  1  0.500000  0.790505  0.265479  1
  B  B19  1  0.500000  0.209698  0.734593  1
  B  B20  1  0.500000  0.289834  0.234108  1
  B  B21  1  0.500000  0.709604  0.766040  1
  B  B22  1  0.500000  0.631274  0.185672  1
  B  B23  1  0.500000  0.369240  0.814558  1
  B  B24  1  0.500000  0.130797  0.313501  1
  B  B25  1  0.500000  0.869057  0.686597  1
  B  B26  1  0.500000  0.983373  0.211715  1
  B  B27  1  0.500000  0.016530  0.788322  1
  B  B28  1  0.500000  0.483298  0.287895  1
  B  B29  1  0.500000  0.517070  0.712573  1
  B  B30  1  0.500000  0.603478  0.027903  1
  B  B31  1  0.500000  0.397056  0.970996  1
  B  B32  1  0.500000  0.103738  0.470953  1
  B  B33  1  0.500000  0.896249  0.529085  1
  Os  Os34  1  0.000000  0.137179  0.177971  1
  Os  Os35  1  0.000000  0.862212  0.822012  1
