# generated using pymatgen
data_Ac2Nd3Si4
_symmetry_space_group_name_H-M   'P 1'
_cell_length_a   8.05173900
_cell_length_b   8.05173900
_cell_length_c   15.56025000
_cell_angle_alpha   90.00000000
_cell_angle_beta   90.00000000
_cell_angle_gamma   90.00000000
_symmetry_Int_Tables_number   1
_chemical_formula_structural   Ac2Nd3Si4
_chemical_formula_sum   'Ac8 Nd12 Si16'
_cell_volume   1008.77880200
_cell_formula_units_Z   4
loop_
 _symmetry_equiv_pos_site_id
 _symmetry_equiv_pos_as_xyz
  1  'x, y, z'
loop_
 _atom_site_type_symbol
 _atom_site_label
 _atom_site_symmetry_multiplicity
 _atom_site_fract_x
 _atom_site_fract_y
 _atom_site_fract_z
 _atom_site_occupancy
  Ac  Ac0  1  0.983202  0.626264  0.050929  1
  Ac  Ac1  1  0.016798  0.373736  0.550929  1
  Ac  Ac2  1  0.626264  0.983202  0.949071  1
  Ac  Ac3  1  0.126264  0.516798  0.800929  1
  Ac  Ac4  1  0.873736  0.483202  0.300929  1
  Ac  Ac5  1  0.516798  0.126264  0.199071  1
  Ac  Ac6  1  0.483202  0.873736  0.699071  1
  Ac  Ac7  1  0.373736  0.016798  0.449071  1
  Nd  Nd8  1  0.372437  0.483676  0.372569  1
  Nd  Nd9  1  0.872437  0.016324  0.377431  1
  Nd  Nd10  1  0.983676  0.127563  0.122569  1
  Nd  Nd11  1  0.016324  0.872437  0.622569  1
  Nd  Nd12  1  0.627563  0.516324  0.872569  1
  Nd  Nd13  1  0.483676  0.372437  0.627431  1
  Nd  Nd14  1  0.516324  0.627563  0.127431  1
  Nd  Nd15  1  0.127563  0.983676  0.877431  1
  Nd  Nd16  1  0.690515  0.690515  0.500000  1
  Nd  Nd17  1  0.809485  0.190515  0.750000  1
  Nd  Nd18  1  0.190515  0.809485  0.250000  1
  Nd  Nd19  1  0.309485  0.309485  0.000000  1
  Si  Si20  1  0.080061  0.717702  0.439015  1
  Si  Si21  1  0.919939  0.282298  0.939015  1
  Si  Si22  1  0.717702  0.080061  0.560985  1
  Si  Si23  1  0.217703  0.419939  0.189015  1
  Si  Si24  1  0.782298  0.580061  0.689015  1
  Si  Si25  1  0.419939  0.217703  0.810985  1
  Si  Si26  1  0.580061  0.782298  0.310985  1
  Si  Si27  1  0.282298  0.919939  0.060985  1
  Si  Si28  1  0.834450  0.805097  0.795003  1
  Si  Si29  1  0.165550  0.194903  0.295003  1
  Si  Si30  1  0.805097  0.834450  0.204997  1
  Si  Si31  1  0.305097  0.665550  0.545003  1
  Si  Si32  1  0.694903  0.334450  0.045003  1
  Si  Si33  1  0.665550  0.305097  0.454997  1
  Si  Si34  1  0.334450  0.694903  0.954997  1
  Si  Si35  1  0.194903  0.165550  0.704997  1
