# generated using pymatgen
data_CaDy5ErCoI12
_symmetry_space_group_name_H-M   'P 1'
_cell_length_a   9.77863122
_cell_length_b   9.73630614
_cell_length_c   9.77876411
_cell_angle_alpha   106.90255576
_cell_angle_beta   106.81376215
_cell_angle_gamma   106.86070026
_symmetry_Int_Tables_number   1
_chemical_formula_structural   CaDy5ErCoI12
_chemical_formula_sum   'Ca1 Dy5 Er1 Co1 I12'
_cell_volume   778.31998119
_cell_formula_units_Z   1
loop_
 _symmetry_equiv_pos_site_id
 _symmetry_equiv_pos_as_xyz
  1  'x, y, z'
loop_
 _atom_site_type_symbol
 _atom_site_label
 _atom_site_symmetry_multiplicity
 _atom_site_fract_x
 _atom_site_fract_y
 _atom_site_fract_z
 _atom_site_occupancy
  Ca  Ca0  1  0.499952  0.500204  0.499813  1
  Dy  Dy1  1  0.295073  0.095707  0.023761  1
  Dy  Dy2  1  0.022135  0.280315  0.090372  1
  Dy  Dy3  1  0.096164  0.022806  0.296003  1
  Dy  Dy4  1  0.704924  0.904315  0.976393  1
  Dy  Dy5  1  0.977623  0.719588  0.908783  1
  Er  Er6  1  0.904691  0.977033  0.707473  1
  Co  Co7  1  0.000072  0.999914  0.000332  1
  I  I8  1  0.456338  0.148424  0.377669  1
  I  I9  1  0.375761  0.456044  0.149109  1
  I  I10  1  0.148416  0.377716  0.453548  1
  I  I11  1  0.545805  0.852746  0.622311  1
  I  I12  1  0.624131  0.543876  0.850362  1
  I  I13  1  0.851586  0.624230  0.546106  1
  I  I14  1  0.319213  0.774891  0.927409  1
  I  I15  1  0.929116  0.318867  0.777632  1
  I  I16  1  0.777079  0.928808  0.322931  1
  I  I17  1  0.680706  0.225093  0.072128  1
  I  I18  1  0.070164  0.678610  0.220281  1
  I  I19  1  0.221052  0.070815  0.677581  1
