# generated using pymatgen
data_V8C3N
_symmetry_space_group_name_H-M   'P 1'
_cell_length_a   4.51865342
_cell_length_b   5.00137147
_cell_length_c   5.74798100
_cell_angle_alpha   90.00000000
_cell_angle_beta   90.00000000
_cell_angle_gamma   90.04967644
_symmetry_Int_Tables_number   1
_chemical_formula_structural   V8C3N
_chemical_formula_sum   'V8 C3 N1'
_cell_volume   129.90124270
_cell_formula_units_Z   1
loop_
 _symmetry_equiv_pos_site_id
 _symmetry_equiv_pos_as_xyz
  1  'x, y, z'
loop_
 _atom_site_type_symbol
 _atom_site_label
 _atom_site_symmetry_multiplicity
 _atom_site_fract_x
 _atom_site_fract_y
 _atom_site_fract_z
 _atom_site_occupancy
  V  V0  1  0.244382  0.074102  0.881824  1
  V  V1  1  0.741996  0.921610  0.618322  1
  V  V2  1  0.258004  0.578390  0.618322  1
  V  V3  1  0.755618  0.425898  0.881824  1
  V  V4  1  0.244585  0.578816  0.115475  1
  V  V5  1  0.743806  0.422223  0.383800  1
  V  V6  1  0.256194  0.077777  0.383800  1
  V  V7  1  0.755415  0.921184  0.115475  1
  C  C8  1  0.000000  0.250000  0.628247  1
  C  C9  1  0.500000  0.250000  0.126080  1
  C  C10  1  0.000000  0.750000  0.372997  1
  N  N11  1  0.500000  0.750000  0.873833  1
