# generated using pymatgen
data_Sr2AlSiPt4
_symmetry_space_group_name_H-M   'P 1'
_cell_length_a   4.30488761
_cell_length_b   4.30902200
_cell_length_c   9.27051647
_cell_angle_alpha   90.00000000
_cell_angle_beta   103.42554397
_cell_angle_gamma   90.00000000
_symmetry_Int_Tables_number   1
_chemical_formula_structural   Sr2AlSiPt4
_chemical_formula_sum   'Sr2 Al1 Si1 Pt4'
_cell_volume   167.26731271
_cell_formula_units_Z   1
loop_
 _symmetry_equiv_pos_site_id
 _symmetry_equiv_pos_as_xyz
  1  'x, y, z'
loop_
 _atom_site_type_symbol
 _atom_site_label
 _atom_site_symmetry_multiplicity
 _atom_site_fract_x
 _atom_site_fract_y
 _atom_site_fract_z
 _atom_site_occupancy
  Sr  Sr0  1  0.597774  0.250000  0.195546  1
  Sr  Sr1  1  0.404771  0.750000  0.809542  1
  Al  Al2  1  0.820479  0.250000  0.640958  1
  Si  Si3  1  0.179712  0.750000  0.359425  1
  Pt  Pt4  1  0.956052  0.250000  0.912103  1
  Pt  Pt5  1  0.049650  0.750000  0.099300  1
  Pt  Pt6  1  0.246642  0.250000  0.493283  1
  Pt  Pt7  1  0.744920  0.750000  0.489842  1
