# generated using pymatgen
data_Lu15Th(InCo)4
_symmetry_space_group_name_H-M   'P 1'
_cell_length_a   9.37068989
_cell_length_b   9.37069035
_cell_length_c   9.37068974
_cell_angle_alpha   60.05305105
_cell_angle_beta   60.05304872
_cell_angle_gamma   60.05305540
_symmetry_Int_Tables_number   1
_chemical_formula_structural   Lu15Th(InCo)4
_chemical_formula_sum   'Lu15 Th1 In4 Co4'
_cell_volume   582.53443262
_cell_formula_units_Z   1
loop_
 _symmetry_equiv_pos_site_id
 _symmetry_equiv_pos_as_xyz
  1  'x, y, z'
loop_
 _atom_site_type_symbol
 _atom_site_label
 _atom_site_symmetry_multiplicity
 _atom_site_fract_x
 _atom_site_fract_y
 _atom_site_fract_z
 _atom_site_occupancy
  Lu  Lu0  1  0.597667  0.597667  0.204806  1
  Lu  Lu1  1  0.597667  0.204806  0.597667  1
  Lu  Lu2  1  0.204806  0.597667  0.597667  1
  Lu  Lu3  1  0.064962  0.437468  0.437468  1
  Lu  Lu4  1  0.438745  0.062270  0.062270  1
  Lu  Lu5  1  0.437468  0.064962  0.437468  1
  Lu  Lu6  1  0.062270  0.438745  0.062270  1
  Lu  Lu7  1  0.437468  0.437468  0.064962  1
  Lu  Lu8  1  0.062270  0.062270  0.438745  1
  Lu  Lu9  1  0.187419  0.812507  0.812507  1
  Lu  Lu10  1  0.810854  0.190367  0.190367  1
  Lu  Lu11  1  0.812507  0.187419  0.812507  1
  Lu  Lu12  1  0.190367  0.810854  0.190367  1
  Lu  Lu13  1  0.812507  0.812507  0.187419  1
  Lu  Lu14  1  0.190367  0.190367  0.810854  1
  Th  Th15  1  0.591239  0.591239  0.591239  1
  In  In16  1  0.833089  0.833089  0.833089  1
  In  In17  1  0.833873  0.833873  0.499421  1
  In  In18  1  0.833873  0.499421  0.833873  1
  In  In19  1  0.499421  0.833873  0.833873  1
  Co  Co20  1  0.391524  0.391524  0.391524  1
  Co  Co21  1  0.392384  0.392384  0.824869  1
  Co  Co22  1  0.392384  0.824869  0.392384  1
  Co  Co23  1  0.824869  0.392384  0.392384  1
