# generated using pymatgen
data_Sr8Li13AlAs12
_symmetry_space_group_name_H-M   'P 1'
_cell_length_a   8.58303644
_cell_length_b   8.58302040
_cell_length_c   19.45244477
_cell_angle_alpha   83.42035273
_cell_angle_beta   83.42050294
_cell_angle_gamma   30.65604365
_symmetry_Int_Tables_number   1
_chemical_formula_structural   Sr8Li13AlAs12
_chemical_formula_sum   'Sr8 Li13 Al1 As12'
_cell_volume   725.50248267
_cell_formula_units_Z   1
loop_
 _symmetry_equiv_pos_site_id
 _symmetry_equiv_pos_as_xyz
  1  'x, y, z'
loop_
 _atom_site_type_symbol
 _atom_site_label
 _atom_site_symmetry_multiplicity
 _atom_site_fract_x
 _atom_site_fract_y
 _atom_site_fract_z
 _atom_site_occupancy
  Sr  Sr0  1  0.115217  0.115217  0.961407  1
  Sr  Sr1  1  0.611819  0.611816  0.450842  1
  Sr  Sr2  1  0.389266  0.389265  0.538174  1
  Sr  Sr3  1  0.886754  0.886759  0.045535  1
  Sr  Sr4  1  0.565520  0.565519  0.665977  1
  Sr  Sr5  1  0.068983  0.068984  0.171287  1
  Sr  Sr6  1  0.929914  0.929913  0.833858  1
  Sr  Sr7  1  0.431003  0.431001  0.327880  1
  Li  Li8  1  0.889964  0.889963  0.659052  1
  Li  Li9  1  0.387562  0.387564  0.159727  1
  Li  Li10  1  0.612607  0.612604  0.840579  1
  Li  Li11  1  0.112854  0.112853  0.338680  1
  Li  Li12  1  0.187566  0.187566  0.542241  1
  Li  Li13  1  0.692349  0.692349  0.044899  1
  Li  Li14  1  0.308808  0.308809  0.956826  1
  Li  Li15  1  0.809482  0.809486  0.452854  1
  Li  Li16  1  0.752774  0.752776  0.760483  1
  Li  Li17  1  0.249851  0.249854  0.246972  1
  Li  Li18  1  0.741966  0.741968  0.173453  1
  Li  Li19  1  0.256435  0.256434  0.831020  1
  Li  Li20  1  0.758458  0.758455  0.325833  1
  Al  Al21  1  0.242939  0.242939  0.673903  1
  As  As22  1  0.750279  0.750272  0.600921  1
  As  As23  1  0.249908  0.249917  0.091156  1
  As  As24  1  0.749003  0.749008  0.904849  1
  As  As25  1  0.250337  0.250338  0.412551  1
  As  As26  1  0.023443  0.023444  0.559394  1
  As  As27  1  0.523896  0.523888  0.058048  1
  As  As28  1  0.477768  0.477768  0.938323  1
  As  As29  1  0.975805  0.975804  0.440192  1
  As  As30  1  0.374142  0.374138  0.727562  1
  As  As31  1  0.879428  0.879428  0.228097  1
  As  As32  1  0.122745  0.122741  0.764857  1
  As  As33  1  0.621157  0.621159  0.272559  1
