# generated using pymatgen
data_Ca5Tm3(OsC2)4
_symmetry_space_group_name_H-M   'P 1'
_cell_length_a   5.12820300
_cell_length_b   6.46319183
_cell_length_c   10.09743542
_cell_angle_alpha   90.28351043
_cell_angle_beta   90.00000000
_cell_angle_gamma   90.00000000
_symmetry_Int_Tables_number   1
_chemical_formula_structural   Ca5Tm3(OsC2)4
_chemical_formula_sum   'Ca5 Tm3 Os4 C8'
_cell_volume   334.67095445
_cell_formula_units_Z   1
loop_
 _symmetry_equiv_pos_site_id
 _symmetry_equiv_pos_as_xyz
  1  'x, y, z'
loop_
 _atom_site_type_symbol
 _atom_site_label
 _atom_site_symmetry_multiplicity
 _atom_site_fract_x
 _atom_site_fract_y
 _atom_site_fract_z
 _atom_site_occupancy
  Ca  Ca0  1  0.250000  0.193598  0.946771  1
  Ca  Ca1  1  0.250000  0.532860  0.222632  1
  Ca  Ca2  1  0.750000  0.465793  0.779171  1
  Ca  Ca3  1  0.750000  0.966317  0.722106  1
  Ca  Ca4  1  0.250000  0.033480  0.280435  1
  Tm  Tm5  1  0.250000  0.681183  0.554057  1
  Tm  Tm6  1  0.750000  0.320435  0.440785  1
  Tm  Tm7  1  0.750000  0.818024  0.061077  1
  Os  Os8  1  0.250000  0.728477  0.854481  1
  Os  Os9  1  0.750000  0.272713  0.143316  1
  Os  Os10  1  0.750000  0.774525  0.361847  1
  Os  Os11  1  0.250000  0.227610  0.639994  1
  C  C12  1  0.250000  0.467033  0.753072  1
  C  C13  1  0.750000  0.539459  0.241825  1
  C  C14  1  0.750000  0.038247  0.261345  1
  C  C15  1  0.250000  0.959853  0.733556  1
  C  C16  1  0.250000  0.799774  0.034699  1
  C  C17  1  0.750000  0.180425  0.968421  1
  C  C18  1  0.750000  0.679061  0.538088  1
  C  C19  1  0.250000  0.321134  0.462323  1
