# generated using pymatgen
data_CaNd3Au4
_symmetry_space_group_name_H-M   'P 1'
_cell_length_a   4.86764200
_cell_length_b   5.80444008
_cell_length_c   7.45843240
_cell_angle_alpha   89.92987843
_cell_angle_beta   90.00000000
_cell_angle_gamma   90.00000000
_symmetry_Int_Tables_number   1
_chemical_formula_structural   CaNd3Au4
_chemical_formula_sum   'Ca1 Nd3 Au4'
_cell_volume   210.72991640
_cell_formula_units_Z   1
loop_
 _symmetry_equiv_pos_site_id
 _symmetry_equiv_pos_as_xyz
  1  'x, y, z'
loop_
 _atom_site_type_symbol
 _atom_site_label
 _atom_site_symmetry_multiplicity
 _atom_site_fract_x
 _atom_site_fract_y
 _atom_site_fract_z
 _atom_site_occupancy
  Ca  Ca0  1  0.250000  0.351638  0.685778  1
  Nd  Nd1  1  0.250000  0.147428  0.186994  1
  Nd  Nd2  1  0.750000  0.647430  0.314280  1
  Nd  Nd3  1  0.750000  0.850814  0.812282  1
  Au  Au4  1  0.250000  0.849242  0.539453  1
  Au  Au5  1  0.250000  0.655145  0.039902  1
  Au  Au6  1  0.750000  0.151329  0.457946  1
  Au  Au7  1  0.750000  0.346974  0.963365  1
