# generated using pymatgen
data_Th4Si4Tc
_symmetry_space_group_name_H-M   'P 1'
_cell_length_a   5.83202521
_cell_length_b   5.83202482
_cell_length_c   9.43342462
_cell_angle_alpha   73.18301368
_cell_angle_beta   73.18301344
_cell_angle_gamma   41.65276915
_symmetry_Int_Tables_number   1
_chemical_formula_structural   Th4Si4Tc
_chemical_formula_sum   'Th4 Si4 Tc1'
_cell_volume   202.77137501
_cell_formula_units_Z   1
loop_
 _symmetry_equiv_pos_site_id
 _symmetry_equiv_pos_as_xyz
  1  'x, y, z'
loop_
 _atom_site_type_symbol
 _atom_site_label
 _atom_site_symmetry_multiplicity
 _atom_site_fract_x
 _atom_site_fract_y
 _atom_site_fract_z
 _atom_site_occupancy
  Th  Th0  1  0.107540  0.107540  0.619002  1
  Th  Th1  1  0.892460  0.892460  0.380998  1
  Th  Th2  1  0.746561  0.746561  0.850163  1
  Th  Th3  1  0.253439  0.253439  0.149837  1
  Si  Si4  1  0.391883  0.391883  0.619456  1
  Si  Si5  1  0.608117  0.608117  0.380544  1
  Si  Si6  1  0.465554  0.465554  0.855936  1
  Si  Si7  1  0.534446  0.534446  0.144064  1
  Tc  Tc8  1  0.000000  0.000000  0.000000  1
