# generated using pymatgen
data_CaLu2(SiRh2)3
_symmetry_space_group_name_H-M   'P 1'
_cell_length_a   5.55801300
_cell_length_b   5.55801236
_cell_length_c   14.90813800
_cell_angle_alpha   90.00000000
_cell_angle_beta   90.00000000
_cell_angle_gamma   119.99999787
_symmetry_Int_Tables_number   1
_chemical_formula_structural   CaLu2(SiRh2)3
_chemical_formula_sum   'Ca2 Lu4 Si6 Rh12'
_cell_volume   398.83486087
_cell_formula_units_Z   2
loop_
 _symmetry_equiv_pos_site_id
 _symmetry_equiv_pos_as_xyz
  1  'x, y, z'
loop_
 _atom_site_type_symbol
 _atom_site_label
 _atom_site_symmetry_multiplicity
 _atom_site_fract_x
 _atom_site_fract_y
 _atom_site_fract_z
 _atom_site_occupancy
  Ca  Ca0  1  0.333333  0.666667  0.750000  1
  Ca  Ca1  1  0.666667  0.333333  0.250000  1
  Lu  Lu2  1  0.333333  0.666667  0.539934  1
  Lu  Lu3  1  0.666667  0.333333  0.460066  1
  Lu  Lu4  1  0.666667  0.333333  0.039934  1
  Lu  Lu5  1  0.333333  0.666667  0.960066  1
  Si  Si6  1  0.000000  0.000000  0.250000  1
  Si  Si7  1  0.000000  0.000000  0.750000  1
  Si  Si8  1  0.333333  0.666667  0.250000  1
  Si  Si9  1  0.666667  0.333333  0.750000  1
  Si  Si10  1  0.000000  0.000000  0.000000  1
  Si  Si11  1  0.000000  0.000000  0.500000  1
  Rh  Rh12  1  0.167308  0.334616  0.127900  1
  Rh  Rh13  1  0.832692  0.665384  0.872100  1
  Rh  Rh14  1  0.665384  0.832692  0.127900  1
  Rh  Rh15  1  0.832692  0.665384  0.627900  1
  Rh  Rh16  1  0.334616  0.167308  0.872100  1
  Rh  Rh17  1  0.167308  0.334616  0.372100  1
  Rh  Rh18  1  0.167308  0.832692  0.127900  1
  Rh  Rh19  1  0.334616  0.167308  0.627900  1
  Rh  Rh20  1  0.832692  0.167308  0.872100  1
  Rh  Rh21  1  0.665384  0.832692  0.372100  1
  Rh  Rh22  1  0.832692  0.167308  0.627900  1
  Rh  Rh23  1  0.167308  0.832692  0.372100  1
