# generated using pymatgen
data_Ca3(GeRh)2
_symmetry_space_group_name_H-M   'P 1'
_cell_length_a   5.79371000
_cell_length_b   7.78682000
_cell_length_c   13.60290300
_cell_angle_alpha   90.00000000
_cell_angle_beta   90.00000000
_cell_angle_gamma   90.00000000
_symmetry_Int_Tables_number   1
_chemical_formula_structural   Ca3(GeRh)2
_chemical_formula_sum   'Ca12 Ge8 Rh8'
_cell_volume   613.68921349
_cell_formula_units_Z   4
loop_
 _symmetry_equiv_pos_site_id
 _symmetry_equiv_pos_as_xyz
  1  'x, y, z'
loop_
 _atom_site_type_symbol
 _atom_site_label
 _atom_site_symmetry_multiplicity
 _atom_site_fract_x
 _atom_site_fract_y
 _atom_site_fract_z
 _atom_site_occupancy
  Ca  Ca0  1  0.858396  0.102643  0.098841  1
  Ca  Ca1  1  0.141604  0.602642  0.098841  1
  Ca  Ca2  1  0.367327  0.259168  0.250000  1
  Ca  Ca3  1  0.632673  0.759167  0.250000  1
  Ca  Ca4  1  0.858396  0.102643  0.401159  1
  Ca  Ca5  1  0.141604  0.602642  0.401159  1
  Ca  Ca6  1  0.858396  0.397358  0.598840  1
  Ca  Ca7  1  0.141604  0.897358  0.598840  1
  Ca  Ca8  1  0.367327  0.240833  0.750000  1
  Ca  Ca9  1  0.632673  0.740833  0.750000  1
  Ca  Ca10  1  0.858396  0.397358  0.901159  1
  Ca  Ca11  1  0.141604  0.897358  0.901159  1
  Ge  Ge12  1  0.393481  0.250000  0.000000  1
  Ge  Ge13  1  0.606518  0.750000  0.000000  1
  Ge  Ge14  1  0.851216  0.409376  0.250000  1
  Ge  Ge15  1  0.148783  0.909377  0.250000  1
  Ge  Ge16  1  0.393481  0.250000  0.500000  1
  Ge  Ge17  1  0.606518  0.750000  0.500000  1
  Ge  Ge18  1  0.851216  0.090623  0.750000  1
  Ge  Ge19  1  0.148783  0.590623  0.750000  1
  Rh  Rh20  1  0.637738  0.470172  0.091491  1
  Rh  Rh21  1  0.362263  0.970171  0.091491  1
  Rh  Rh22  1  0.637738  0.470172  0.408509  1
  Rh  Rh23  1  0.362263  0.970171  0.408509  1
  Rh  Rh24  1  0.637738  0.029829  0.591491  1
  Rh  Rh25  1  0.362263  0.529828  0.591491  1
  Rh  Rh26  1  0.637738  0.029829  0.908509  1
  Rh  Rh27  1  0.362263  0.529828  0.908509  1
