# generated using pymatgen
data_TaTi2MnPt12
_symmetry_space_group_name_H-M   'P 1'
_cell_length_a   5.61586000
_cell_length_b   5.61585963
_cell_length_c   9.12403300
_cell_angle_alpha   90.00000000
_cell_angle_beta   90.00000000
_cell_angle_gamma   120.00000216
_symmetry_Int_Tables_number   1
_chemical_formula_structural   TaTi2MnPt12
_chemical_formula_sum   'Ta1 Ti2 Mn1 Pt12'
_cell_volume   249.20111796
_cell_formula_units_Z   1
loop_
 _symmetry_equiv_pos_site_id
 _symmetry_equiv_pos_as_xyz
  1  'x, y, z'
loop_
 _atom_site_type_symbol
 _atom_site_label
 _atom_site_symmetry_multiplicity
 _atom_site_fract_x
 _atom_site_fract_y
 _atom_site_fract_z
 _atom_site_occupancy
  Ta  Ta0  1  0.000000  0.000000  0.497271  1
  Ti  Ti1  1  0.000000  0.000000  0.002032  1
  Ti  Ti2  1  0.666667  0.333333  0.751859  1
  Mn  Mn3  1  0.333333  0.666667  0.249397  1
  Pt  Pt4  1  0.501363  0.498637  0.502810  1
  Pt  Pt5  1  0.501363  0.002725  0.502810  1
  Pt  Pt6  1  0.997275  0.498637  0.502810  1
  Pt  Pt7  1  0.501402  0.498598  0.997138  1
  Pt  Pt8  1  0.501402  0.002804  0.997138  1
  Pt  Pt9  1  0.997196  0.498598  0.997138  1
  Pt  Pt10  1  0.832457  0.664915  0.249689  1
  Pt  Pt11  1  0.335085  0.167543  0.249689  1
  Pt  Pt12  1  0.832457  0.167543  0.249689  1
  Pt  Pt13  1  0.166936  0.333870  0.750175  1
  Pt  Pt14  1  0.666130  0.833064  0.750175  1
  Pt  Pt15  1  0.166936  0.833064  0.750175  1
