# generated using pymatgen
data_Tb5NdC2Cl7
_symmetry_space_group_name_H-M   'P 1'
_cell_length_a   10.26557854
_cell_length_b   10.26557795
_cell_length_c   11.69044226
_cell_angle_alpha   56.31637373
_cell_angle_beta   56.31637600
_cell_angle_gamma   21.13005339
_symmetry_Int_Tables_number   1
_chemical_formula_structural   Tb5NdC2Cl7
_chemical_formula_sum   'Tb5 Nd1 C2 Cl7'
_cell_volume   366.67946196
_cell_formula_units_Z   1
loop_
 _symmetry_equiv_pos_site_id
 _symmetry_equiv_pos_as_xyz
  1  'x, y, z'
loop_
 _atom_site_type_symbol
 _atom_site_label
 _atom_site_symmetry_multiplicity
 _atom_site_fract_x
 _atom_site_fract_y
 _atom_site_fract_z
 _atom_site_occupancy
  Tb  Tb0  1  0.318776  0.318776  0.358571  1
  Tb  Tb1  1  0.127844  0.127844  0.442429  1
  Tb  Tb2  1  0.871015  0.871015  0.559333  1
  Tb  Tb3  1  0.682382  0.682382  0.641627  1
  Tb  Tb4  1  0.775681  0.775681  0.150082  1
  Nd  Nd5  1  0.223093  0.223093  0.855753  1
  C  C6  1  0.280114  0.280114  0.605277  1
  C  C7  1  0.721206  0.721206  0.388086  1
  Cl  Cl8  1  0.169778  0.169778  0.165784  1
  Cl  Cl9  1  0.837116  0.837116  0.835639  1
  Cl  Cl10  1  0.059748  0.059748  0.713927  1
  Cl  Cl11  1  0.940799  0.940799  0.284275  1
  Cl  Cl12  1  0.500881  0.500881  0.498665  1
  Cl  Cl13  1  0.389272  0.389272  0.066343  1
  Cl  Cl14  1  0.602297  0.602297  0.934209  1
