# generated using pymatgen
data_Y5TcWC7
_symmetry_space_group_name_H-M   'P 1'
_cell_length_a   8.39178806
_cell_length_b   8.39178846
_cell_length_c   3.43959000
_cell_angle_alpha   90.00000000
_cell_angle_beta   90.00000000
_cell_angle_gamma   122.53529729
_symmetry_Int_Tables_number   1
_chemical_formula_structural   Y5TcWC7
_chemical_formula_sum   'Y5 Tc1 W1 C7'
_cell_volume   204.20874710
_cell_formula_units_Z   1
loop_
 _symmetry_equiv_pos_site_id
 _symmetry_equiv_pos_as_xyz
  1  'x, y, z'
loop_
 _atom_site_type_symbol
 _atom_site_label
 _atom_site_symmetry_multiplicity
 _atom_site_fract_x
 _atom_site_fract_y
 _atom_site_fract_z
 _atom_site_occupancy
  Y  Y0  1  0.501437  0.498563  0.000000  1
  Y  Y1  1  0.073198  0.332366  0.500000  1
  Y  Y2  1  0.923851  0.664366  0.500000  1
  Y  Y3  1  0.667634  0.926802  0.500000  1
  Y  Y4  1  0.335634  0.076149  0.500000  1
  Tc  Tc5  1  0.712341  0.287659  0.000000  1
  W  W6  1  0.286511  0.713489  0.000000  1
  C  C7  1  0.627490  0.372510  0.500000  1
  C  C8  1  0.374501  0.625499  0.500000  1
  C  C9  1  0.999761  0.000239  0.000000  1
  C  C10  1  0.167452  0.168599  0.000000  1
  C  C11  1  0.831401  0.832548  0.000000  1
  C  C12  1  0.000146  0.501360  0.000000  1
  C  C13  1  0.498640  0.999854  0.000000  1
