# generated using pymatgen
data_YHo11(CoTc)2
_symmetry_space_group_name_H-M   'P 1'
_cell_length_a   6.26780791
_cell_length_b   7.16336123
_cell_length_c   9.14153504
_cell_angle_alpha   89.97216043
_cell_angle_beta   89.91090315
_cell_angle_gamma   90.00847448
_symmetry_Int_Tables_number   1
_chemical_formula_structural   YHo11(CoTc)2
_chemical_formula_sum   'Y1 Ho11 Co2 Tc2'
_cell_volume   410.44132146
_cell_formula_units_Z   1
loop_
 _symmetry_equiv_pos_site_id
 _symmetry_equiv_pos_as_xyz
  1  'x, y, z'
loop_
 _atom_site_type_symbol
 _atom_site_label
 _atom_site_symmetry_multiplicity
 _atom_site_fract_x
 _atom_site_fract_y
 _atom_site_fract_z
 _atom_site_occupancy
  Y  Y0  1  0.667973  0.174530  0.063209  1
  Ho  Ho1  1  0.372097  0.546770  0.250312  1
  Ho  Ho2  1  0.142743  0.039941  0.250657  1
  Ho  Ho3  1  0.823564  0.682575  0.433889  1
  Ho  Ho4  1  0.323112  0.817450  0.933783  1
  Ho  Ho5  1  0.167782  0.326132  0.563390  1
  Ho  Ho6  1  0.668046  0.174173  0.436778  1
  Ho  Ho7  1  0.168260  0.326423  0.936052  1
  Ho  Ho8  1  0.323890  0.817497  0.565580  1
  Ho  Ho9  1  0.872132  0.953683  0.749287  1
  Ho  Ho10  1  0.642296  0.460236  0.749306  1
  Ho  Ho11  1  0.823947  0.681930  0.065939  1
  Co  Co12  1  0.537869  0.884414  0.251756  1
  Co  Co13  1  0.038902  0.614177  0.750178  1
  Tc  Tc14  1  0.964842  0.391689  0.250869  1
  Tc  Tc15  1  0.462543  0.108381  0.749014  1
