# generated using pymatgen
data_SmHo2(Co3P2)3
_symmetry_space_group_name_H-M   'P 1'
_cell_length_a   3.71477400
_cell_length_b   10.55264300
_cell_length_c   12.22118900
_cell_angle_alpha   90.00000000
_cell_angle_beta   90.00000000
_cell_angle_gamma   90.00000000
_symmetry_Int_Tables_number   1
_chemical_formula_structural   SmHo2(Co3P2)3
_chemical_formula_sum   'Sm2 Ho4 Co18 P12'
_cell_volume   479.07896623
_cell_formula_units_Z   2
loop_
 _symmetry_equiv_pos_site_id
 _symmetry_equiv_pos_as_xyz
  1  'x, y, z'
loop_
 _atom_site_type_symbol
 _atom_site_label
 _atom_site_symmetry_multiplicity
 _atom_site_fract_x
 _atom_site_fract_y
 _atom_site_fract_z
 _atom_site_occupancy
  Sm  Sm0  1  0.000000  0.500000  0.522104  1
  Sm  Sm1  1  0.500000  0.000000  0.477896  1
  Ho  Ho2  1  0.500000  0.817516  0.205266  1
  Ho  Ho3  1  0.500000  0.182484  0.205266  1
  Ho  Ho4  1  0.000000  0.682484  0.794734  1
  Ho  Ho5  1  0.000000  0.317516  0.794734  1
  Co  Co6  1  0.000000  0.500000  0.986582  1
  Co  Co7  1  0.500000  0.000000  0.013418  1
  Co  Co8  1  0.500000  0.296942  0.429517  1
  Co  Co9  1  0.500000  0.703058  0.429517  1
  Co  Co10  1  0.000000  0.203058  0.570483  1
  Co  Co11  1  0.000000  0.796942  0.570483  1
  Co  Co12  1  0.500000  0.879384  0.711676  1
  Co  Co13  1  0.500000  0.120616  0.711676  1
  Co  Co14  1  0.000000  0.620616  0.288324  1
  Co  Co15  1  0.000000  0.379384  0.288324  1
  Co  Co16  1  0.500000  0.333420  0.994912  1
  Co  Co17  1  0.500000  0.666580  0.994912  1
  Co  Co18  1  0.000000  0.166580  0.005088  1
  Co  Co19  1  0.000000  0.833420  0.005088  1
  Co  Co20  1  0.500000  0.500000  0.157404  1
  Co  Co21  1  0.000000  0.000000  0.842596  1
  Co  Co22  1  0.500000  0.500000  0.705595  1
  Co  Co23  1  0.000000  0.000000  0.294405  1
  P  P24  1  0.500000  0.308634  0.617116  1
  P  P25  1  0.500000  0.691366  0.617116  1
  P  P26  1  0.000000  0.191366  0.382884  1
  P  P27  1  0.000000  0.808634  0.382884  1
  P  P28  1  0.500000  0.500000  0.883524  1
  P  P29  1  0.000000  0.000000  0.116476  1
  P  P30  1  0.500000  0.846821  0.893759  1
  P  P31  1  0.500000  0.153179  0.893759  1
  P  P32  1  0.000000  0.653179  0.106241  1
  P  P33  1  0.000000  0.346821  0.106241  1
  P  P34  1  0.500000  0.500000  0.341088  1
  P  P35  1  0.000000  0.000000  0.658912  1
