# generated using pymatgen
data_Ca5HoU2O12
_symmetry_space_group_name_H-M   'P 1'
_cell_length_a   6.80602874
_cell_length_b   6.77010757
_cell_length_c   6.78326170
_cell_angle_alpha   90.90420113
_cell_angle_beta   90.60623601
_cell_angle_gamma   90.89534533
_symmetry_Int_Tables_number   1
_chemical_formula_structural   Ca5HoU2O12
_chemical_formula_sum   'Ca5 Ho1 U2 O12'
_cell_volume   312.46065551
_cell_formula_units_Z   1
loop_
 _symmetry_equiv_pos_site_id
 _symmetry_equiv_pos_as_xyz
  1  'x, y, z'
loop_
 _atom_site_type_symbol
 _atom_site_label
 _atom_site_symmetry_multiplicity
 _atom_site_fract_x
 _atom_site_fract_y
 _atom_site_fract_z
 _atom_site_occupancy
  Ca  Ca0  1  0.751917  0.941742  0.445390  1
  Ca  Ca1  1  0.552252  0.248130  0.060433  1
  Ca  Ca2  1  0.248884  0.057076  0.553117  1
  Ca  Ca3  1  0.060470  0.556411  0.249678  1
  Ca  Ca4  1  0.446133  0.750343  0.941634  1
  Ho  Ho5  1  0.938045  0.442302  0.750138  1
  U  U6  1  0.998446  0.999141  0.998205  1
  U  U7  1  0.499224  0.499960  0.500611  1
  O  O8  1  0.291257  0.061404  0.925675  1
  O  O9  1  0.063746  0.923471  0.291822  1
  O  O10  1  0.925852  0.302273  0.056855  1
  O  O11  1  0.706362  0.936739  0.073944  1
  O  O12  1  0.934087  0.092451  0.702972  1
  O  O13  1  0.068179  0.694348  0.923568  1
  O  O14  1  0.196827  0.411543  0.550396  1
  O  O15  1  0.411386  0.541502  0.204669  1
  O  O16  1  0.460061  0.794464  0.588420  1
  O  O17  1  0.601291  0.456955  0.797502  1
  O  O18  1  0.805586  0.584714  0.471720  1
  O  O19  1  0.539995  0.205033  0.413251  1
