# generated using pymatgen
data_BeV3ZnN
_symmetry_space_group_name_H-M   'P 1'
_cell_length_a   6.43969300
_cell_length_b   6.43969300
_cell_length_c   6.43969300
_cell_angle_alpha   90.00000000
_cell_angle_beta   90.00000000
_cell_angle_gamma   90.00000000
_symmetry_Int_Tables_number   1
_chemical_formula_structural   BeV3ZnN
_chemical_formula_sum   'Be4 V12 Zn4 N4'
_cell_volume   267.05178864
_cell_formula_units_Z   4
loop_
 _symmetry_equiv_pos_site_id
 _symmetry_equiv_pos_as_xyz
  1  'x, y, z'
loop_
 _atom_site_type_symbol
 _atom_site_label
 _atom_site_symmetry_multiplicity
 _atom_site_fract_x
 _atom_site_fract_y
 _atom_site_fract_z
 _atom_site_occupancy
  Be  Be0  1  0.175364  0.824636  0.324636  1
  Be  Be1  1  0.324636  0.175364  0.824636  1
  Be  Be2  1  0.824636  0.324636  0.175364  1
  Be  Be3  1  0.675364  0.675364  0.675364  1
  V  V4  1  0.792643  0.963520  0.373144  1
  V  V5  1  0.707357  0.036480  0.873144  1
  V  V6  1  0.207357  0.463520  0.126856  1
  V  V7  1  0.292643  0.536480  0.626856  1
  V  V8  1  0.963520  0.373144  0.792643  1
  V  V9  1  0.036480  0.873144  0.707357  1
  V  V10  1  0.463520  0.126856  0.207357  1
  V  V11  1  0.536480  0.626856  0.292643  1
  V  V12  1  0.373144  0.792643  0.963520  1
  V  V13  1  0.873144  0.707357  0.036480  1
  V  V14  1  0.126856  0.207357  0.463520  1
  V  V15  1  0.626856  0.292643  0.536480  1
  Zn  Zn16  1  0.574756  0.425244  0.925244  1
  Zn  Zn17  1  0.425244  0.925244  0.574756  1
  Zn  Zn18  1  0.925244  0.574756  0.425244  1
  Zn  Zn19  1  0.074756  0.074756  0.074756  1
  N  N20  1  0.874539  0.125461  0.625461  1
  N  N21  1  0.625461  0.874539  0.125461  1
  N  N22  1  0.125461  0.625461  0.874539  1
  N  N23  1  0.374539  0.374539  0.374539  1
