# generated using pymatgen
data_Er3Tm13(InNi)4
_symmetry_space_group_name_H-M   'P 1'
_cell_length_a   9.45279741
_cell_length_b   9.45339550
_cell_length_c   9.45339400
_cell_angle_alpha   59.99997711
_cell_angle_beta   59.99782782
_cell_angle_gamma   59.99785700
_symmetry_Int_Tables_number   1
_chemical_formula_structural   Er3Tm13(InNi)4
_chemical_formula_sum   'Er3 Tm13 In4 Ni4'
_cell_volume   597.31950982
_cell_formula_units_Z   1
loop_
 _symmetry_equiv_pos_site_id
 _symmetry_equiv_pos_as_xyz
  1  'x, y, z'
loop_
 _atom_site_type_symbol
 _atom_site_label
 _atom_site_symmetry_multiplicity
 _atom_site_fract_x
 _atom_site_fract_y
 _atom_site_fract_z
 _atom_site_occupancy
  Er  Er0  1  0.347654  0.347769  0.347755  1
  Er  Er1  1  0.347665  0.347776  0.956814  1
  Er  Er2  1  0.347669  0.956807  0.347770  1
  Tm  Tm3  1  0.956983  0.347674  0.347669  1
  Tm  Tm4  1  0.812454  0.187597  0.187596  1
  Tm  Tm5  1  0.187602  0.812423  0.812429  1
  Tm  Tm6  1  0.187603  0.812424  0.187545  1
  Tm  Tm7  1  0.812452  0.187598  0.812352  1
  Tm  Tm8  1  0.187602  0.187546  0.812427  1
  Tm  Tm9  1  0.812457  0.812349  0.187597  1
  Tm  Tm10  1  0.937790  0.562164  0.562163  1
  Tm  Tm11  1  0.562187  0.937806  0.937808  1
  Tm  Tm12  1  0.562189  0.937805  0.562200  1
  Tm  Tm13  1  0.937791  0.562163  0.937882  1
  Tm  Tm14  1  0.562187  0.562199  0.937807  1
  Tm  Tm15  1  0.937791  0.937880  0.562163  1
  In  In16  1  0.582991  0.582887  0.582892  1
  In  In17  1  0.582991  0.582888  0.251229  1
  In  In18  1  0.582990  0.251229  0.582890  1
  In  In19  1  0.251240  0.582918  0.582920  1
  Ni  Ni20  1  0.142148  0.142358  0.142357  1
  Ni  Ni21  1  0.142149  0.142360  0.573132  1
  Ni  Ni22  1  0.142146  0.573137  0.142357  1
  Ni  Ni23  1  0.573268  0.142244  0.142245  1
