# generated using pymatgen
data_Ba8Tm3(Pt2O9)2
_symmetry_space_group_name_H-M   'P 1'
_cell_length_a   8.42228200
_cell_length_b   8.42228200
_cell_length_c   8.42228200
_cell_angle_alpha   90.00000000
_cell_angle_beta   90.00000000
_cell_angle_gamma   90.00000000
_symmetry_Int_Tables_number   1
_chemical_formula_structural   Ba8Tm3(Pt2O9)2
_chemical_formula_sum   'Ba8 Tm3 Pt4 O18'
_cell_volume   597.43317631
_cell_formula_units_Z   1
loop_
 _symmetry_equiv_pos_site_id
 _symmetry_equiv_pos_as_xyz
  1  'x, y, z'
loop_
 _atom_site_type_symbol
 _atom_site_label
 _atom_site_symmetry_multiplicity
 _atom_site_fract_x
 _atom_site_fract_y
 _atom_site_fract_z
 _atom_site_occupancy
  Ba  Ba0  1  0.238057  0.238057  0.238057  1
  Ba  Ba1  1  0.761943  0.761943  0.761943  1
  Ba  Ba2  1  0.761943  0.761943  0.238057  1
  Ba  Ba3  1  0.761943  0.238057  0.761943  1
  Ba  Ba4  1  0.238057  0.238057  0.761943  1
  Ba  Ba5  1  0.238057  0.761943  0.238057  1
  Ba  Ba6  1  0.238057  0.761943  0.761943  1
  Ba  Ba7  1  0.761943  0.238057  0.238057  1
  Tm  Tm8  1  0.500000  0.000000  0.000000  1
  Tm  Tm9  1  0.000000  0.500000  0.000000  1
  Tm  Tm10  1  0.000000  0.000000  0.500000  1
  Pt  Pt11  1  0.000000  0.500000  0.500000  1
  Pt  Pt12  1  0.500000  0.000000  0.500000  1
  Pt  Pt13  1  0.500000  0.500000  0.000000  1
  Pt  Pt14  1  0.000000  0.000000  0.000000  1
  O  O15  1  0.259522  0.500000  0.000000  1
  O  O16  1  0.740478  0.500000  0.000000  1
  O  O17  1  0.000000  0.259522  0.500000  1
  O  O18  1  0.500000  0.259522  0.000000  1
  O  O19  1  0.000000  0.740478  0.500000  1
  O  O20  1  0.500000  0.740478  0.000000  1
  O  O21  1  0.500000  0.000000  0.259522  1
  O  O22  1  0.259522  0.000000  0.500000  1
  O  O23  1  0.500000  0.000000  0.740478  1
  O  O24  1  0.740478  0.000000  0.500000  1
  O  O25  1  0.000000  0.500000  0.259522  1
  O  O26  1  0.000000  0.500000  0.740478  1
  O  O27  1  0.241149  0.000000  0.000000  1
  O  O28  1  0.758851  0.000000  0.000000  1
  O  O29  1  0.000000  0.241149  0.000000  1
  O  O30  1  0.000000  0.758851  0.000000  1
  O  O31  1  0.000000  0.000000  0.241149  1
  O  O32  1  0.000000  0.000000  0.758851  1
