# generated using pymatgen
data_Hf18TiGaRe7P
_symmetry_space_group_name_H-M   'P 1'
_cell_length_a   8.59725300
_cell_length_b   8.59725232
_cell_length_c   8.63078200
_cell_angle_alpha   90.00000000
_cell_angle_beta   90.00000000
_cell_angle_gamma   119.99999878
_symmetry_Int_Tables_number   1
_chemical_formula_structural   Hf18TiGaRe7P
_chemical_formula_sum   'Hf18 Ti1 Ga1 Re7 P1'
_cell_volume   552.45914166
_cell_formula_units_Z   1
loop_
 _symmetry_equiv_pos_site_id
 _symmetry_equiv_pos_as_xyz
  1  'x, y, z'
loop_
 _atom_site_type_symbol
 _atom_site_label
 _atom_site_symmetry_multiplicity
 _atom_site_fract_x
 _atom_site_fract_y
 _atom_site_fract_z
 _atom_site_occupancy
  Hf  Hf0  1  0.194211  0.805789  0.452632  1
  Hf  Hf1  1  0.194211  0.388422  0.452632  1
  Hf  Hf2  1  0.611578  0.805789  0.452632  1
  Hf  Hf3  1  0.803256  0.196744  0.549124  1
  Hf  Hf4  1  0.803256  0.606513  0.549124  1
  Hf  Hf5  1  0.393487  0.196744  0.549124  1
  Hf  Hf6  1  0.804015  0.195985  0.950191  1
  Hf  Hf7  1  0.804015  0.608031  0.950191  1
  Hf  Hf8  1  0.391969  0.195985  0.950191  1
  Hf  Hf9  1  0.193572  0.806428  0.047679  1
  Hf  Hf10  1  0.193572  0.387143  0.047679  1
  Hf  Hf11  1  0.612857  0.806428  0.047679  1
  Hf  Hf12  1  0.540658  0.459342  0.249375  1
  Hf  Hf13  1  0.540658  0.081316  0.249375  1
  Hf  Hf14  1  0.918684  0.459342  0.249375  1
  Hf  Hf15  1  0.459179  0.540821  0.750451  1
  Hf  Hf16  1  0.459179  0.918358  0.750451  1
  Hf  Hf17  1  0.081642  0.540821  0.750451  1
  Ti  Ti18  1  0.000000  0.000000  0.500176  1
  Ga  Ga19  1  0.333333  0.666667  0.249604  1
  Re  Re20  1  0.889437  0.110563  0.251868  1
  Re  Re21  1  0.889437  0.778873  0.251868  1
  Re  Re22  1  0.221127  0.110563  0.251868  1
  Re  Re23  1  0.110043  0.889957  0.748475  1
  Re  Re24  1  0.110043  0.220086  0.748475  1
  Re  Re25  1  0.779914  0.889957  0.748475  1
  Re  Re26  1  0.000000  0.000000  0.000291  1
  P  P27  1  0.666667  0.333333  0.750547  1
