# generated using pymatgen
data_InFeP4PbO14
_symmetry_space_group_name_H-M   'P 1'
_cell_length_a   4.93667260
_cell_length_b   7.29710568
_cell_length_c   8.22093683
_cell_angle_alpha   89.94398892
_cell_angle_beta   87.89622695
_cell_angle_gamma   73.13143102
_symmetry_Int_Tables_number   1
_chemical_formula_structural   InFeP4PbO14
_chemical_formula_sum   'In1 Fe1 P4 Pb1 O14'
_cell_volume   283.19844900
_cell_formula_units_Z   1
loop_
 _symmetry_equiv_pos_site_id
 _symmetry_equiv_pos_as_xyz
  1  'x, y, z'
loop_
 _atom_site_type_symbol
 _atom_site_label
 _atom_site_symmetry_multiplicity
 _atom_site_fract_x
 _atom_site_fract_y
 _atom_site_fract_z
 _atom_site_occupancy
  In  In0  1  0.000000  0.000000  0.500000  1
  Fe  Fe1  1  0.500000  0.500001  0.000001  1
  P  P2  1  0.034592  0.382196  0.238561  1
  P  P3  1  0.620262  0.766148  0.290306  1
  P  P4  1  0.379738  0.233852  0.709694  1
  P  P5  1  0.965408  0.617804  0.761439  1
  Pb  Pb6  1  0.000001  0.000000  0.999999  1
  O  O7  1  0.877703  0.350353  0.084666  1
  O  O8  1  0.510829  0.753021  0.116734  1
  O  O9  1  0.302158  0.437290  0.195336  1
  O  O10  1  0.811549  0.901299  0.283364  1
  O  O11  1  0.096562  0.204222  0.341555  1
  O  O12  1  0.817200  0.555339  0.338728  1
  O  O13  1  0.395860  0.811445  0.425380  1
  O  O14  1  0.604141  0.188555  0.574620  1
  O  O15  1  0.182801  0.444661  0.661272  1
  O  O16  1  0.903438  0.795778  0.658445  1
  O  O17  1  0.188452  0.098701  0.716637  1
  O  O18  1  0.697842  0.562710  0.804663  1
  O  O19  1  0.489172  0.246978  0.883267  1
  O  O20  1  0.122297  0.649647  0.915333  1
