# generated using pymatgen
data_Tb15Y(In3Pt)2
_symmetry_space_group_name_H-M   'P 1'
_cell_length_a   10.54182000
_cell_length_b   10.54182057
_cell_length_c   7.05787400
_cell_angle_alpha   90.00000000
_cell_angle_beta   90.00000000
_cell_angle_gamma   120.00000450
_symmetry_Int_Tables_number   1
_chemical_formula_structural   Tb15Y(In3Pt)2
_chemical_formula_sum   'Tb15 Y1 In6 Pt2'
_cell_volume   679.25951260
_cell_formula_units_Z   1
loop_
 _symmetry_equiv_pos_site_id
 _symmetry_equiv_pos_as_xyz
  1  'x, y, z'
loop_
 _atom_site_type_symbol
 _atom_site_label
 _atom_site_symmetry_multiplicity
 _atom_site_fract_x
 _atom_site_fract_y
 _atom_site_fract_z
 _atom_site_occupancy
  Tb  Tb0  1  0.468382  0.531618  0.478724  1
  Tb  Tb1  1  0.063236  0.531618  0.478724  1
  Tb  Tb2  1  0.468382  0.936764  0.478724  1
  Tb  Tb3  1  0.531656  0.468344  0.978773  1
  Tb  Tb4  1  0.936689  0.468344  0.978773  1
  Tb  Tb5  1  0.531656  0.063311  0.978773  1
  Tb  Tb6  1  0.825119  0.174881  0.272265  1
  Tb  Tb7  1  0.349761  0.174881  0.272265  1
  Tb  Tb8  1  0.825119  0.650239  0.272265  1
  Tb  Tb9  1  0.174910  0.825090  0.772350  1
  Tb  Tb10  1  0.650181  0.825090  0.772350  1
  Tb  Tb11  1  0.174910  0.349819  0.772350  1
  Tb  Tb12  1  0.333333  0.666667  0.104629  1
  Tb  Tb13  1  0.666667  0.333333  0.604818  1
  Tb  Tb14  1  0.000000  0.000000  0.499149  1
  Y  Y15  1  0.000000  0.000000  0.998997  1
  In  In16  1  0.163176  0.836824  0.235935  1
  In  In17  1  0.673649  0.836824  0.235935  1
  In  In18  1  0.163176  0.326351  0.235935  1
  In  In19  1  0.836820  0.163180  0.736265  1
  In  In20  1  0.326361  0.163180  0.736265  1
  In  In21  1  0.836820  0.673639  0.736265  1
  Pt  Pt22  1  0.333333  0.666667  0.706798  1
  Pt  Pt23  1  0.666667  0.333333  0.207228  1
