# generated using pymatgen
data_YbNpCoO6
_symmetry_space_group_name_H-M   'P 1'
_cell_length_a   5.13690702
_cell_length_b   5.13685645
_cell_length_c   5.07434200
_cell_angle_alpha   90.00027224
_cell_angle_beta   89.99784137
_cell_angle_gamma   120.00094100
_symmetry_Int_Tables_number   1
_chemical_formula_structural   YbNpCoO6
_chemical_formula_sum   'Yb1 Np1 Co1 O6'
_cell_volume   115.95924586
_cell_formula_units_Z   1
loop_
 _symmetry_equiv_pos_site_id
 _symmetry_equiv_pos_as_xyz
  1  'x, y, z'
loop_
 _atom_site_type_symbol
 _atom_site_label
 _atom_site_symmetry_multiplicity
 _atom_site_fract_x
 _atom_site_fract_y
 _atom_site_fract_z
 _atom_site_occupancy
  Yb  Yb0  1  0.666667  0.333332  0.000001  1
  Np  Np1  1  0.333338  0.666685  0.500000  1
  Co  Co2  1  0.999997  0.999992  0.500000  1
  O  O3  1  0.301335  0.319505  0.285073  1
  O  O4  1  0.018172  0.698670  0.285071  1
  O  O5  1  0.680493  0.981825  0.285067  1
  O  O6  1  0.018168  0.319502  0.714928  1
  O  O7  1  0.680500  0.698669  0.714930  1
  O  O8  1  0.301331  0.981819  0.714933  1
