# generated using pymatgen
data_Dy15HoCd4(RuPt)2
_symmetry_space_group_name_H-M   'P 1'
_cell_length_a   9.64978210
_cell_length_b   9.64978280
_cell_length_c   9.67600700
_cell_angle_alpha   59.90856377
_cell_angle_beta   59.90856173
_cell_angle_gamma   59.81969843
_symmetry_Int_Tables_number   1
_chemical_formula_structural   Dy15HoCd4(RuPt)2
_chemical_formula_sum   'Dy15 Ho1 Cd4 Ru2 Pt2'
_cell_volume   635.36160499
_cell_formula_units_Z   1
loop_
 _symmetry_equiv_pos_site_id
 _symmetry_equiv_pos_as_xyz
  1  'x, y, z'
loop_
 _atom_site_type_symbol
 _atom_site_label
 _atom_site_symmetry_multiplicity
 _atom_site_fract_x
 _atom_site_fract_y
 _atom_site_fract_z
 _atom_site_occupancy
  Dy  Dy0  1  0.349101  0.349101  0.949086  1
  Dy  Dy1  1  0.346244  0.953788  0.350007  1
  Dy  Dy2  1  0.953788  0.346244  0.350007  1
  Dy  Dy3  1  0.815054  0.188426  0.189617  1
  Dy  Dy4  1  0.188348  0.815198  0.807026  1
  Dy  Dy5  1  0.188426  0.815054  0.189617  1
  Dy  Dy6  1  0.815198  0.188348  0.807026  1
  Dy  Dy7  1  0.188021  0.188021  0.811850  1
  Dy  Dy8  1  0.808934  0.808934  0.191110  1
  Dy  Dy9  1  0.937011  0.559656  0.566378  1
  Dy  Dy10  1  0.559727  0.936822  0.936849  1
  Dy  Dy11  1  0.559656  0.937011  0.566378  1
  Dy  Dy12  1  0.936822  0.559726  0.936849  1
  Dy  Dy13  1  0.563896  0.563896  0.936114  1
  Dy  Dy14  1  0.937716  0.937716  0.562227  1
  Ho  Ho15  1  0.349013  0.349013  0.352453  1
  Cd  Cd16  1  0.580256  0.580256  0.581303  1
  Cd  Cd17  1  0.580147  0.580147  0.258234  1
  Cd  Cd18  1  0.581338  0.255421  0.581489  1
  Cd  Cd19  1  0.255421  0.581338  0.581489  1
  Ru  Ru20  1  0.143821  0.143821  0.138441  1
  Ru  Ru21  1  0.144112  0.144112  0.573617  1
  Pt  Pt22  1  0.144822  0.573128  0.141417  1
  Pt  Pt23  1  0.573128  0.144822  0.141417  1
