# generated using pymatgen
data_Li2Ho4TmMg(B6Os)4
_symmetry_space_group_name_H-M   'P 1'
_cell_length_a   3.55058900
_cell_length_b   8.90981059
_cell_length_c   11.25996800
_cell_angle_alpha   89.94856774
_cell_angle_beta   90.00000000
_cell_angle_gamma   90.00000000
_symmetry_Int_Tables_number   1
_chemical_formula_structural   Li2Ho4TmMg(B6Os)4
_chemical_formula_sum   'Li2 Ho4 Tm1 Mg1 B24 Os4'
_cell_volume   356.20979398
_cell_formula_units_Z   1
loop_
 _symmetry_equiv_pos_site_id
 _symmetry_equiv_pos_as_xyz
  1  'x, y, z'
loop_
 _atom_site_type_symbol
 _atom_site_label
 _atom_site_symmetry_multiplicity
 _atom_site_fract_x
 _atom_site_fract_y
 _atom_site_fract_z
 _atom_site_occupancy
  Li  Li0  1  0.000000  0.054822  0.624963  1
  Li  Li1  1  0.000000  0.442198  0.131114  1
  Ho  Ho2  1  0.000000  0.321567  0.411343  1
  Ho  Ho3  1  0.000000  0.680633  0.582813  1
  Ho  Ho4  1  0.000000  0.822942  0.088879  1
  Ho  Ho5  1  0.000000  0.178003  0.915334  1
  Tm  Tm6  1  0.000000  0.556552  0.871694  1
  Mg  Mg7  1  0.000000  0.944592  0.375077  1
  B  B8  1  0.500000  0.554451  0.431790  1
  B  B9  1  0.500000  0.443722  0.565986  1
  B  B10  1  0.500000  0.056293  0.068160  1
  B  B11  1  0.500000  0.948428  0.932665  1
  B  B12  1  0.500000  0.755706  0.417605  1
  B  B13  1  0.500000  0.240395  0.581569  1
  B  B14  1  0.500000  0.256807  0.084327  1
  B  B15  1  0.500000  0.750869  0.918532  1
  B  B16  1  0.500000  0.792891  0.263337  1
  B  B17  1  0.500000  0.203576  0.734812  1
  B  B18  1  0.500000  0.293623  0.236920  1
  B  B19  1  0.500000  0.710138  0.762760  1
  B  B20  1  0.500000  0.625904  0.183007  1
  B  B21  1  0.500000  0.367856  0.815559  1
  B  B22  1  0.500000  0.127290  0.318193  1
  B  B23  1  0.500000  0.876503  0.680030  1
  B  B24  1  0.500000  0.979517  0.213896  1
  B  B25  1  0.500000  0.021282  0.785169  1
  B  B26  1  0.500000  0.479278  0.285820  1
  B  B27  1  0.500000  0.518138  0.711233  1
  B  B28  1  0.500000  0.591074  0.031178  1
  B  B29  1  0.500000  0.403873  0.980231  1
  B  B30  1  0.500000  0.092543  0.475084  1
  B  B31  1  0.500000  0.908843  0.525743  1
  Os  Os32  1  0.000000  0.639205  0.318533  1
  Os  Os33  1  0.000000  0.357151  0.678092  1
  Os  Os34  1  0.000000  0.138690  0.181604  1
  Os  Os35  1  0.000000  0.864647  0.816946  1
