# generated using pymatgen
data_Cs10SrPb12
_symmetry_space_group_name_H-M   'P 1'
_cell_length_a   11.39239687
_cell_length_b   11.39239722
_cell_length_c   11.39239800
_cell_angle_alpha   109.47121669
_cell_angle_beta   109.47121730
_cell_angle_gamma   109.47122084
_symmetry_Int_Tables_number   1
_chemical_formula_structural   Cs10SrPb12
_chemical_formula_sum   'Cs10 Sr1 Pb12'
_cell_volume   1138.21294672
_cell_formula_units_Z   1
loop_
 _symmetry_equiv_pos_site_id
 _symmetry_equiv_pos_as_xyz
  1  'x, y, z'
loop_
 _atom_site_type_symbol
 _atom_site_label
 _atom_site_symmetry_multiplicity
 _atom_site_fract_x
 _atom_site_fract_y
 _atom_site_fract_z
 _atom_site_occupancy
  Cs  Cs0  1  0.500000  0.250000  0.750000  1
  Cs  Cs1  1  0.750000  0.250000  0.500000  1
  Cs  Cs2  1  0.250000  0.750000  0.500000  1
  Cs  Cs3  1  0.500000  0.750000  0.250000  1
  Cs  Cs4  1  0.597187  0.000000  0.000000  1
  Cs  Cs5  1  0.402813  0.402813  0.402813  1
  Cs  Cs6  1  0.000000  0.597187  0.000000  1
  Cs  Cs7  1  0.000000  0.000000  0.597187  1
  Cs  Cs8  1  0.750000  0.500000  0.250000  1
  Cs  Cs9  1  0.250000  0.500000  0.750000  1
  Sr  Sr10  1  0.000000  0.000000  0.000000  1
  Pb  Pb11  1  0.000000  0.173921  0.342630  1
  Pb  Pb12  1  0.826079  0.168709  0.826079  1
  Pb  Pb13  1  0.657370  0.657370  0.831291  1
  Pb  Pb14  1  0.342630  0.173921  0.000000  1
  Pb  Pb15  1  0.173921  0.342630  0.000000  1
  Pb  Pb16  1  0.342630  0.000000  0.173921  1
  Pb  Pb17  1  0.657370  0.831291  0.657370  1
  Pb  Pb18  1  0.831291  0.657370  0.657370  1
  Pb  Pb19  1  0.000000  0.342630  0.173921  1
  Pb  Pb20  1  0.826079  0.826079  0.168709  1
  Pb  Pb21  1  0.168709  0.826079  0.826079  1
  Pb  Pb22  1  0.173921  0.000000  0.342630  1
