# generated using pymatgen
data_Ce3SbN3
_symmetry_space_group_name_H-M   'P 1'
_cell_length_a   7.02442696
_cell_length_b   7.02442756
_cell_length_c   11.96008570
_cell_angle_alpha   117.39360764
_cell_angle_beta   117.39360972
_cell_angle_gamma   32.90820044
_symmetry_Int_Tables_number   1
_chemical_formula_structural   Ce3SbN3
_chemical_formula_sum   'Ce6 Sb2 N6'
_cell_volume   281.31463246
_cell_formula_units_Z   2
loop_
 _symmetry_equiv_pos_site_id
 _symmetry_equiv_pos_as_xyz
  1  'x, y, z'
loop_
 _atom_site_type_symbol
 _atom_site_label
 _atom_site_symmetry_multiplicity
 _atom_site_fract_x
 _atom_site_fract_y
 _atom_site_fract_z
 _atom_site_occupancy
  Ce  Ce0  1  0.371405  0.371405  0.096632  1
  Ce  Ce1  1  0.147859  0.147859  0.202254  1
  Ce  Ce2  1  0.623421  0.623421  0.439907  1
  Ce  Ce3  1  0.376579  0.376579  0.560094  1
  Ce  Ce4  1  0.852141  0.852141  0.797746  1
  Ce  Ce5  1  0.628594  0.628594  0.903368  1
  Sb  Sb6  1  0.879746  0.879746  0.322477  1
  Sb  Sb7  1  0.120253  0.120253  0.677523  1
  N  N8  1  0.164999  0.164999  0.013833  1
  N  N9  1  0.563809  0.563809  0.204742  1
  N  N10  1  0.190565  0.190565  0.408834  1
  N  N11  1  0.809435  0.809435  0.591166  1
  N  N12  1  0.436191  0.436191  0.795259  1
  N  N13  1  0.835002  0.835002  0.986167  1
