# generated using pymatgen
data_CeSc(Tc2P)4
_symmetry_space_group_name_H-M   'P 1'
_cell_length_a   7.41101112
_cell_length_b   7.41101112
_cell_length_c   3.93636400
_cell_angle_alpha   90.00000000
_cell_angle_beta   90.00000000
_cell_angle_gamma   91.41389660
_symmetry_Int_Tables_number   1
_chemical_formula_structural   CeSc(Tc2P)4
_chemical_formula_sum   'Ce1 Sc1 Tc8 P4'
_cell_volume   216.13143324
_cell_formula_units_Z   1
loop_
 _symmetry_equiv_pos_site_id
 _symmetry_equiv_pos_as_xyz
  1  'x, y, z'
loop_
 _atom_site_type_symbol
 _atom_site_label
 _atom_site_symmetry_multiplicity
 _atom_site_fract_x
 _atom_site_fract_y
 _atom_site_fract_z
 _atom_site_occupancy
  Ce  Ce0  1  0.000000  0.000000  0.500000  1
  Sc  Sc1  1  0.500000  0.500000  0.000000  1
  Tc  Tc2  1  0.341698  0.085454  0.000000  1
  Tc  Tc3  1  0.580003  0.163809  0.500000  1
  Tc  Tc4  1  0.419997  0.836191  0.500000  1
  Tc  Tc5  1  0.658302  0.914546  0.000000  1
  Tc  Tc6  1  0.163809  0.580003  0.500000  1
  Tc  Tc7  1  0.836191  0.419997  0.500000  1
  Tc  Tc8  1  0.085454  0.341698  0.000000  1
  Tc  Tc9  1  0.914546  0.658302  0.000000  1
  P  P10  1  0.783351  0.216649  0.000000  1
  P  P11  1  0.705593  0.705593  0.500000  1
  P  P12  1  0.294407  0.294407  0.500000  1
  P  P13  1  0.216649  0.783351  0.000000  1
