# generated using pymatgen
data_Pr2Er15Th3Sn16
_symmetry_space_group_name_H-M   'P 1'
_cell_length_a   8.06628866
_cell_length_b   8.18930618
_cell_length_c   15.44870116
_cell_angle_alpha   90.00415513
_cell_angle_beta   89.46642762
_cell_angle_gamma   89.86649657
_symmetry_Int_Tables_number   1
_chemical_formula_structural   Pr2Er15Th3Sn16
_chemical_formula_sum   'Pr2 Er15 Th3 Sn16'
_cell_volume   1020.45257804
_cell_formula_units_Z   1
loop_
 _symmetry_equiv_pos_site_id
 _symmetry_equiv_pos_as_xyz
  1  'x, y, z'
loop_
 _atom_site_type_symbol
 _atom_site_label
 _atom_site_symmetry_multiplicity
 _atom_site_fract_x
 _atom_site_fract_y
 _atom_site_fract_z
 _atom_site_occupancy
  Pr  Pr0  1  0.982884  0.821200  0.097195  1
  Pr  Pr1  1  0.484955  0.675465  0.094882  1
  Er  Er2  1  0.358318  0.833678  0.875583  1
  Er  Er3  1  0.863053  0.664542  0.623006  1
  Er  Er4  1  0.635724  0.164534  0.377974  1
  Er  Er5  1  0.138193  0.335251  0.124031  1
  Er  Er6  1  0.639238  0.161838  0.124696  1
  Er  Er7  1  0.134243  0.338001  0.378641  1
  Er  Er8  1  0.365789  0.839165  0.623579  1
  Er  Er9  1  0.860756  0.661490  0.875137  1
  Er  Er10  1  0.523810  0.320862  0.900253  1
  Er  Er11  1  0.028890  0.175823  0.601329  1
  Er  Er12  1  0.471930  0.676775  0.400766  1
  Er  Er13  1  0.193333  0.500757  0.749319  1
  Er  Er14  1  0.693058  0.998610  0.749728  1
  Er  Er15  1  0.805558  0.499065  0.251122  1
  Er  Er16  1  0.306316  0.002715  0.250693  1
  Th  Th17  1  0.981659  0.822336  0.403820  1
  Th  Th18  1  0.517191  0.322916  0.595989  1
  Th  Th19  1  0.014716  0.178219  0.903710  1
  Sn  Sn20  1  0.302775  0.042627  0.040013  1
  Sn  Sn21  1  0.790056  0.470173  0.456650  1
  Sn  Sn22  1  0.710125  0.970520  0.544316  1
  Sn  Sn23  1  0.203171  0.530525  0.955090  1
  Sn  Sn24  1  0.694511  0.961104  0.956597  1
  Sn  Sn25  1  0.201528  0.543268  0.540812  1
  Sn  Sn26  1  0.296955  0.041010  0.460095  1
  Sn  Sn27  1  0.801868  0.452121  0.038750  1
  Sn  Sn28  1  0.558700  0.622555  0.748217  1
  Sn  Sn29  1  0.058750  0.877208  0.749875  1
  Sn  Sn30  1  0.439856  0.376131  0.251101  1
  Sn  Sn31  1  0.940169  0.124118  0.252750  1
  Sn  Sn32  1  0.327914  0.146368  0.752583  1
  Sn  Sn33  1  0.828292  0.352998  0.747489  1
  Sn  Sn34  1  0.669541  0.853116  0.253188  1
  Sn  Sn35  1  0.176174  0.642918  0.251019  1
