# generated using pymatgen
data_Nd2Er4Al24Ru5Pt3
_symmetry_space_group_name_H-M   'P 1'
_cell_length_a   8.83989020
_cell_length_b   8.85594562
_cell_length_c   9.55372115
_cell_angle_alpha   90.12128308
_cell_angle_beta   89.88861610
_cell_angle_gamma   119.72644885
_symmetry_Int_Tables_number   1
_chemical_formula_structural   Nd2Er4Al24Ru5Pt3
_chemical_formula_sum   'Nd2 Er4 Al24 Ru5 Pt3'
_cell_volume   649.49279744
_cell_formula_units_Z   1
loop_
 _symmetry_equiv_pos_site_id
 _symmetry_equiv_pos_as_xyz
  1  'x, y, z'
loop_
 _atom_site_type_symbol
 _atom_site_label
 _atom_site_symmetry_multiplicity
 _atom_site_fract_x
 _atom_site_fract_y
 _atom_site_fract_z
 _atom_site_occupancy
  Nd  Nd0  1  0.190080  0.810850  0.249416  1
  Nd  Nd1  1  0.809920  0.189150  0.750584  1
  Er  Er2  1  0.196219  0.387331  0.251029  1
  Er  Er3  1  0.803781  0.612669  0.748971  1
  Er  Er4  1  0.611191  0.804477  0.250126  1
  Er  Er5  1  0.388809  0.195523  0.749874  1
  Al  Al6  1  0.336376  0.663577  0.027945  1
  Al  Al7  1  0.663624  0.336423  0.972055  1
  Al  Al8  1  0.661297  0.331114  0.526917  1
  Al  Al9  1  0.338703  0.668886  0.473083  1
  Al  Al10  1  0.169696  0.325891  0.575878  1
  Al  Al11  1  0.830304  0.674109  0.424122  1
  Al  Al12  1  0.672166  0.834371  0.575315  1
  Al  Al13  1  0.830598  0.674724  0.076686  1
  Al  Al14  1  0.327834  0.165629  0.424685  1
  Al  Al15  1  0.169402  0.325276  0.923314  1
  Al  Al16  1  0.167318  0.843043  0.578655  1
  Al  Al17  1  0.325870  0.169752  0.077988  1
  Al  Al18  1  0.832682  0.156957  0.421345  1
  Al  Al19  1  0.674130  0.830248  0.922012  1
  Al  Al20  1  0.839194  0.162141  0.081118  1
  Al  Al21  1  0.160806  0.837859  0.918882  1
  Al  Al22  1  0.563470  0.126414  0.253329  1
  Al  Al23  1  0.436530  0.873586  0.746671  1
  Al  Al24  1  0.870925  0.435120  0.249968  1
  Al  Al25  1  0.129075  0.564880  0.750032  1
  Al  Al26  1  0.560271  0.439901  0.249582  1
  Al  Al27  1  0.439729  0.560099  0.750418  1
  Al  Al28  1  0.998499  0.003696  0.250206  1
  Al  Al29  1  0.001501  0.996304  0.749794  1
  Ru  Ru30  1  0.500000  0.000000  0.500000  1
  Ru  Ru31  1  0.500000  0.500000  0.000000  1
  Ru  Ru32  1  0.500000  0.500000  0.500000  1
  Ru  Ru33  1  0.000000  0.000000  0.000000  1
  Ru  Ru34  1  0.000000  0.000000  0.500000  1
  Pt  Pt35  1  0.500000  0.000000  0.000000  1
  Pt  Pt36  1  0.000000  0.500000  0.000000  1
  Pt  Pt37  1  0.000000  0.500000  0.500000  1
