# generated using pymatgen
data_Tm4Ga20Tc5Ag
_symmetry_space_group_name_H-M   'P 1'
_cell_length_a   9.07352000
_cell_length_b   9.07352000
_cell_length_c   6.35042700
_cell_angle_alpha   90.00000000
_cell_angle_beta   90.00000000
_cell_angle_gamma   90.00000000
_symmetry_Int_Tables_number   1
_chemical_formula_structural   Tm4Ga20Tc5Ag
_chemical_formula_sum   'Tm4 Ga20 Tc5 Ag1'
_cell_volume   522.82281334
_cell_formula_units_Z   1
loop_
 _symmetry_equiv_pos_site_id
 _symmetry_equiv_pos_as_xyz
  1  'x, y, z'
loop_
 _atom_site_type_symbol
 _atom_site_label
 _atom_site_symmetry_multiplicity
 _atom_site_fract_x
 _atom_site_fract_y
 _atom_site_fract_z
 _atom_site_occupancy
  Tm  Tm0  1  0.185447  0.319546  0.000000  1
  Tm  Tm1  1  0.680454  0.185447  0.000000  1
  Tm  Tm2  1  0.814553  0.680454  0.000000  1
  Tm  Tm3  1  0.319546  0.814553  0.000000  1
  Ga  Ga4  1  0.500000  0.000000  0.285986  1
  Ga  Ga5  1  0.500000  0.000000  0.714014  1
  Ga  Ga6  1  0.295089  0.559486  0.708034  1
  Ga  Ga7  1  0.000000  0.500000  0.285986  1
  Ga  Ga8  1  0.000000  0.500000  0.714014  1
  Ga  Ga9  1  0.063264  0.785771  0.704305  1
  Ga  Ga10  1  0.214229  0.063264  0.295695  1
  Ga  Ga11  1  0.063264  0.785771  0.295695  1
  Ga  Ga12  1  0.704911  0.440514  0.708034  1
  Ga  Ga13  1  0.214229  0.063264  0.704305  1
  Ga  Ga14  1  0.936736  0.214229  0.704305  1
  Ga  Ga15  1  0.704911  0.440514  0.291966  1
  Ga  Ga16  1  0.559486  0.704911  0.291966  1
  Ga  Ga17  1  0.936736  0.214229  0.295695  1
  Ga  Ga18  1  0.559486  0.704911  0.708034  1
  Ga  Ga19  1  0.785771  0.936736  0.295695  1
  Ga  Ga20  1  0.440514  0.295089  0.708034  1
  Ga  Ga21  1  0.785771  0.936736  0.704305  1
  Ga  Ga22  1  0.440514  0.295089  0.291966  1
  Ga  Ga23  1  0.295089  0.559486  0.291966  1
  Tc  Tc24  1  0.175789  0.318905  0.500000  1
  Tc  Tc25  1  0.318905  0.824211  0.500000  1
  Tc  Tc26  1  0.824211  0.681095  0.500000  1
  Tc  Tc27  1  0.681095  0.175789  0.500000  1
  Tc  Tc28  1  0.500000  0.500000  0.000000  1
  Ag  Ag29  1  0.000000  0.000000  0.000000  1
