# generated using pymatgen
data_GdTe29
_symmetry_space_group_name_H-M   'P 1'
_cell_length_a   8.32819673
_cell_length_b   11.19473736
_cell_length_c   13.29950500
_cell_angle_alpha   77.91591080
_cell_angle_beta   80.69908267
_cell_angle_gamma   68.35989427
_symmetry_Int_Tables_number   1
_chemical_formula_structural   GdTe29
_chemical_formula_sum   'Gd1 Te29'
_cell_volume   1122.13628957
_cell_formula_units_Z   1
loop_
 _symmetry_equiv_pos_site_id
 _symmetry_equiv_pos_as_xyz
  1  'x, y, z'
loop_
 _atom_site_type_symbol
 _atom_site_label
 _atom_site_symmetry_multiplicity
 _atom_site_fract_x
 _atom_site_fract_y
 _atom_site_fract_z
 _atom_site_occupancy
  Gd  Gd0  1  0.000000  0.000000  0.000000  1
  Te  Te1  1  0.500000  0.000000  0.000000  1
  Te  Te2  1  0.100244  0.200067  0.200873  1
  Te  Te3  1  0.699682  0.400124  0.401278  1
  Te  Te4  1  0.300318  0.599876  0.598722  1
  Te  Te5  1  0.600806  0.199628  0.200659  1
  Te  Te6  1  0.899756  0.799933  0.799127  1
  Te  Te7  1  0.199896  0.400457  0.401074  1
  Te  Te8  1  0.800104  0.599543  0.598926  1
  Te  Te9  1  0.399194  0.800372  0.799341  1
  Te  Te10  1  0.257884  0.080869  0.828993  1
  Te  Te11  1  0.647199  0.718199  0.966224  1
  Te  Te12  1  0.848997  0.288263  0.037019  1
  Te  Te13  1  0.249274  0.919162  0.171044  1
  Te  Te14  1  0.447808  0.484736  0.236326  1
  Te  Te15  1  0.750726  0.080838  0.828956  1
  Te  Te16  1  0.847364  0.117990  0.367676  1
  Te  Te17  1  0.151003  0.711737  0.962981  1
  Te  Te18  1  0.051352  0.685350  0.433134  1
  Te  Te19  1  0.352801  0.281801  0.033776  1
  Te  Te20  1  0.742116  0.919131  0.171007  1
  Te  Te21  1  0.448968  0.317069  0.566768  1
  Te  Te22  1  0.655222  0.877451  0.629939  1
  Te  Te23  1  0.953313  0.484798  0.236108  1
  Te  Te24  1  0.046687  0.515202  0.763892  1
  Te  Te25  1  0.344778  0.122549  0.370061  1
  Te  Te26  1  0.551032  0.682931  0.433232  1
  Te  Te27  1  0.948648  0.314650  0.566866  1
  Te  Te28  1  0.152636  0.882010  0.632324  1
  Te  Te29  1  0.552192  0.515264  0.763674  1
