# generated using pymatgen
data_Dy3Mg5(B6Ru)4
_symmetry_space_group_name_H-M   'P 1'
_cell_length_a   3.53689700
_cell_length_b   8.88492675
_cell_length_c   11.20316900
_cell_angle_alpha   89.92434442
_cell_angle_beta   90.00000000
_cell_angle_gamma   90.00000000
_symmetry_Int_Tables_number   1
_chemical_formula_structural   Dy3Mg5(B6Ru)4
_chemical_formula_sum   'Dy3 Mg5 B24 Ru4'
_cell_volume   352.06007155
_cell_formula_units_Z   1
loop_
 _symmetry_equiv_pos_site_id
 _symmetry_equiv_pos_as_xyz
  1  'x, y, z'
loop_
 _atom_site_type_symbol
 _atom_site_label
 _atom_site_symmetry_multiplicity
 _atom_site_fract_x
 _atom_site_fract_y
 _atom_site_fract_z
 _atom_site_occupancy
  Dy  Dy0  1  0.000000  0.322062  0.414444  1
  Dy  Dy1  1  0.000000  0.676922  0.587243  1
  Dy  Dy2  1  0.000000  0.823017  0.084458  1
  Mg  Mg3  1  0.000000  0.170470  0.913018  1
  Mg  Mg4  1  0.000000  0.945055  0.370151  1
  Mg  Mg5  1  0.000000  0.057363  0.630549  1
  Mg  Mg6  1  0.000000  0.444071  0.127231  1
  Mg  Mg7  1  0.000000  0.556848  0.872381  1
  B  B8  1  0.500000  0.555205  0.432652  1
  B  B9  1  0.500000  0.443647  0.568380  1
  B  B10  1  0.500000  0.055240  0.064910  1
  B  B11  1  0.500000  0.945357  0.932644  1
  B  B12  1  0.500000  0.755924  0.418087  1
  B  B13  1  0.500000  0.244123  0.583976  1
  B  B14  1  0.500000  0.256068  0.078051  1
  B  B15  1  0.500000  0.745098  0.917465  1
  B  B16  1  0.500000  0.794608  0.262633  1
  B  B17  1  0.500000  0.204334  0.739433  1
  B  B18  1  0.500000  0.293985  0.235913  1
  B  B19  1  0.500000  0.705766  0.763451  1
  B  B20  1  0.500000  0.628265  0.181827  1
  B  B21  1  0.500000  0.369524  0.821212  1
  B  B22  1  0.500000  0.128505  0.316958  1
  B  B23  1  0.500000  0.872373  0.682633  1
  B  B24  1  0.500000  0.981822  0.212046  1
  B  B25  1  0.500000  0.021778  0.788630  1
  B  B26  1  0.500000  0.480738  0.286083  1
  B  B27  1  0.500000  0.518913  0.714141  1
  B  B28  1  0.500000  0.592533  0.024888  1
  B  B29  1  0.500000  0.406409  0.974503  1
  B  B30  1  0.500000  0.092834  0.474919  1
  B  B31  1  0.500000  0.907438  0.525629  1
  Ru  Ru32  1  0.000000  0.641103  0.318579  1
  Ru  Ru33  1  0.000000  0.359779  0.685231  1
  Ru  Ru34  1  0.000000  0.142105  0.177779  1
  Ru  Ru35  1  0.000000  0.860715  0.817875  1
