# generated using pymatgen
data_YbHo(AlPd)2
_symmetry_space_group_name_H-M   'P 1'
_cell_length_a   4.35095700
_cell_length_b   6.97965600
_cell_length_c   7.85710300
_cell_angle_alpha   90.00000000
_cell_angle_beta   90.00000000
_cell_angle_gamma   90.00000000
_symmetry_Int_Tables_number   1
_chemical_formula_structural   YbHo(AlPd)2
_chemical_formula_sum   'Yb2 Ho2 Al4 Pd4'
_cell_volume   238.60594278
_cell_formula_units_Z   2
loop_
 _symmetry_equiv_pos_site_id
 _symmetry_equiv_pos_as_xyz
  1  'x, y, z'
loop_
 _atom_site_type_symbol
 _atom_site_label
 _atom_site_symmetry_multiplicity
 _atom_site_fract_x
 _atom_site_fract_y
 _atom_site_fract_z
 _atom_site_occupancy
  Yb  Yb0  1  0.750000  0.970002  0.677828  1
  Yb  Yb1  1  0.750000  0.470002  0.822172  1
  Ho  Ho2  1  0.250000  0.030917  0.320632  1
  Ho  Ho3  1  0.250000  0.530917  0.179368  1
  Al  Al4  1  0.250000  0.140670  0.940034  1
  Al  Al5  1  0.250000  0.640670  0.559966  1
  Al  Al6  1  0.750000  0.859806  0.064407  1
  Al  Al7  1  0.750000  0.359806  0.435593  1
  Pd  Pd8  1  0.250000  0.275054  0.619397  1
  Pd  Pd9  1  0.250000  0.775054  0.880603  1
  Pd  Pd10  1  0.750000  0.723552  0.377015  1
  Pd  Pd11  1  0.750000  0.223552  0.122985  1
