# generated using pymatgen
data_Zr8Cd3InAu8
_symmetry_space_group_name_H-M   'P 1'
_cell_length_a   7.62999500
_cell_length_b   7.62999500
_cell_length_c   7.13222100
_cell_angle_alpha   90.00000000
_cell_angle_beta   90.00000000
_cell_angle_gamma   90.00000000
_symmetry_Int_Tables_number   1
_chemical_formula_structural   Zr8Cd3InAu8
_chemical_formula_sum   'Zr8 Cd3 In1 Au8'
_cell_volume   415.21525255
_cell_formula_units_Z   1
loop_
 _symmetry_equiv_pos_site_id
 _symmetry_equiv_pos_as_xyz
  1  'x, y, z'
loop_
 _atom_site_type_symbol
 _atom_site_label
 _atom_site_symmetry_multiplicity
 _atom_site_fract_x
 _atom_site_fract_y
 _atom_site_fract_z
 _atom_site_occupancy
  Zr  Zr0  1  0.145874  0.147140  0.001145  1
  Zr  Zr1  1  0.854126  0.852860  0.001145  1
  Zr  Zr2  1  0.647140  0.354126  0.498855  1
  Zr  Zr3  1  0.352860  0.645874  0.498855  1
  Zr  Zr4  1  0.694180  0.305198  0.000998  1
  Zr  Zr5  1  0.305820  0.694802  0.000998  1
  Zr  Zr6  1  0.805198  0.805820  0.499002  1
  Zr  Zr7  1  0.194802  0.194180  0.499002  1
  Cd  Cd8  1  0.500000  0.000000  0.250000  1
  Cd  Cd9  1  0.500000  0.000000  0.750000  1
  Cd  Cd10  1  0.000000  0.500000  0.250000  1
  In  In11  1  0.000000  0.500000  0.750000  1
  Au  Au12  1  0.369225  0.369360  0.206937  1
  Au  Au13  1  0.629260  0.631726  0.793424  1
  Au  Au14  1  0.630775  0.630640  0.206937  1
  Au  Au15  1  0.868274  0.129260  0.706576  1
  Au  Au16  1  0.869360  0.130775  0.293063  1
  Au  Au17  1  0.370740  0.368274  0.793424  1
  Au  Au18  1  0.130640  0.869225  0.293063  1
  Au  Au19  1  0.131726  0.870740  0.706576  1
