# generated using pymatgen
data_Na3Ac5Te8
_symmetry_space_group_name_H-M   'P 1'
_cell_length_a   9.41893526
_cell_length_b   9.47514652
_cell_length_c   9.41893500
_cell_angle_alpha   60.19604950
_cell_angle_beta   59.99999741
_cell_angle_gamma   60.19605237
_symmetry_Int_Tables_number   1
_chemical_formula_structural   Na3Ac5Te8
_chemical_formula_sum   'Na3 Ac5 Te8'
_cell_volume   596.14945655
_cell_formula_units_Z   1
loop_
 _symmetry_equiv_pos_site_id
 _symmetry_equiv_pos_as_xyz
  1  'x, y, z'
loop_
 _atom_site_type_symbol
 _atom_site_label
 _atom_site_symmetry_multiplicity
 _atom_site_fract_x
 _atom_site_fract_y
 _atom_site_fract_z
 _atom_site_occupancy
  Na  Na0  1  0.125000  0.125000  0.625000  1
  Na  Na1  1  0.625000  0.125000  0.125000  1
  Na  Na2  1  0.125000  0.125000  0.125000  1
  Ac  Ac3  1  0.125000  0.625000  0.125000  1
  Ac  Ac4  1  0.625000  0.125000  0.625000  1
  Ac  Ac5  1  0.625000  0.625000  0.625000  1
  Ac  Ac6  1  0.125000  0.625000  0.625000  1
  Ac  Ac7  1  0.625000  0.625000  0.125000  1
  Te  Te8  1  0.375373  0.873880  0.375373  1
  Te  Te9  1  0.874627  0.376120  0.874627  1
  Te  Te10  1  0.874388  0.879166  0.372059  1
  Te  Te11  1  0.874388  0.879166  0.874388  1
  Te  Te12  1  0.877941  0.370834  0.375612  1
  Te  Te13  1  0.375612  0.370834  0.877941  1
  Te  Te14  1  0.375612  0.370834  0.375612  1
  Te  Te15  1  0.372059  0.879166  0.874388  1
