# generated using pymatgen
data_Y4Tm3LuPt4
_symmetry_space_group_name_H-M   'P 1'
_cell_length_a   4.75480500
_cell_length_b   7.13485849
_cell_length_c   8.68328146
_cell_angle_alpha   89.94876766
_cell_angle_beta   90.00000000
_cell_angle_gamma   90.00000000
_symmetry_Int_Tables_number   1
_chemical_formula_structural   Y4Tm3LuPt4
_chemical_formula_sum   'Y4 Tm3 Lu1 Pt4'
_cell_volume   294.57899699
_cell_formula_units_Z   1
loop_
 _symmetry_equiv_pos_site_id
 _symmetry_equiv_pos_as_xyz
  1  'x, y, z'
loop_
 _atom_site_type_symbol
 _atom_site_label
 _atom_site_symmetry_multiplicity
 _atom_site_fract_x
 _atom_site_fract_y
 _atom_site_fract_z
 _atom_site_occupancy
  Y  Y0  1  0.250000  0.988250  0.330135  1
  Y  Y1  1  0.250000  0.489166  0.170637  1
  Y  Y2  1  0.750000  0.010570  0.670385  1
  Y  Y3  1  0.750000  0.511623  0.828896  1
  Tm  Tm4  1  0.250000  0.856508  0.921919  1
  Tm  Tm5  1  0.250000  0.356557  0.577667  1
  Tm  Tm6  1  0.750000  0.143905  0.078547  1
  Lu  Lu7  1  0.750000  0.643762  0.421817  1
  Pt  Pt8  1  0.250000  0.253215  0.906146  1
  Pt  Pt9  1  0.250000  0.752365  0.593725  1
  Pt  Pt10  1  0.750000  0.746577  0.093861  1
  Pt  Pt11  1  0.750000  0.247504  0.406265  1
