# generated using pymatgen
data_NaNd6OsI12
_symmetry_space_group_name_H-M   'P 1'
_cell_length_a   10.03128148
_cell_length_b   10.03128103
_cell_length_c   10.03128153
_cell_angle_alpha   107.13795399
_cell_angle_beta   107.13795145
_cell_angle_gamma   107.13795497
_symmetry_Int_Tables_number   1
_chemical_formula_structural   NaNd6OsI12
_chemical_formula_sum   'Na1 Nd6 Os1 I12'
_cell_volume   837.46578201
_cell_formula_units_Z   1
loop_
 _symmetry_equiv_pos_site_id
 _symmetry_equiv_pos_as_xyz
  1  'x, y, z'
loop_
 _atom_site_type_symbol
 _atom_site_label
 _atom_site_symmetry_multiplicity
 _atom_site_fract_x
 _atom_site_fract_y
 _atom_site_fract_z
 _atom_site_occupancy
  Na  Na0  1  0.500000  0.500000  0.500000  1
  Nd  Nd1  1  0.102623  0.308174  0.032652  1
  Nd  Nd2  1  0.308174  0.032653  0.102623  1
  Nd  Nd3  1  0.032653  0.102623  0.308174  1
  Nd  Nd4  1  0.967347  0.897378  0.691826  1
  Nd  Nd5  1  0.691826  0.967348  0.897377  1
  Nd  Nd6  1  0.897377  0.691826  0.967348  1
  Os  Os7  1  0.000000  0.000000  0.000000  1
  I  I8  1  0.227588  0.684362  0.073157  1
  I  I9  1  0.457185  0.380197  0.150234  1
  I  I10  1  0.684362  0.073157  0.227588  1
  I  I11  1  0.926843  0.772412  0.315639  1
  I  I12  1  0.150234  0.457185  0.380197  1
  I  I13  1  0.380197  0.150234  0.457186  1
  I  I14  1  0.619803  0.849766  0.542815  1
  I  I15  1  0.849766  0.542815  0.619803  1
  I  I16  1  0.073157  0.227588  0.684362  1
  I  I17  1  0.315638  0.926843  0.772412  1
  I  I18  1  0.542815  0.619803  0.849767  1
  I  I19  1  0.772412  0.315639  0.926843  1
