# generated using pymatgen
data_La4Pr3P12Pd17
_symmetry_space_group_name_H-M   'P 1'
_cell_length_a   12.49022152
_cell_length_b   12.49022181
_cell_length_c   13.71858627
_cell_angle_alpha   68.17925124
_cell_angle_beta   68.17925024
_cell_angle_gamma   19.02360880
_symmetry_Int_Tables_number   1
_chemical_formula_structural   La4Pr3P12Pd17
_chemical_formula_sum   'La4 Pr3 P12 Pd17'
_cell_volume   646.16547445
_cell_formula_units_Z   1
loop_
 _symmetry_equiv_pos_site_id
 _symmetry_equiv_pos_as_xyz
  1  'x, y, z'
loop_
 _atom_site_type_symbol
 _atom_site_label
 _atom_site_symmetry_multiplicity
 _atom_site_fract_x
 _atom_site_fract_y
 _atom_site_fract_z
 _atom_site_occupancy
  La  La0  1  0.500040  0.500040  0.499700  1
  La  La1  1  0.766620  0.766620  0.686219  1
  La  La2  1  0.417781  0.417781  0.261759  1
  La  La3  1  0.582011  0.582011  0.738194  1
  Pr  Pr4  1  0.364782  0.364782  0.999917  1
  Pr  Pr5  1  0.635085  0.635085  0.000583  1
  Pr  Pr6  1  0.233127  0.233127  0.314331  1
  P  P7  1  0.060553  0.060553  0.926725  1
  P  P8  1  0.939310  0.939310  0.073516  1
  P  P9  1  0.886798  0.886798  0.827266  1
  P  P10  1  0.113226  0.113226  0.172905  1
  P  P11  1  0.188134  0.188134  0.618242  1
  P  P12  1  0.811342  0.811342  0.380939  1
  P  P13  1  0.364994  0.364994  0.578626  1
  P  P14  1  0.635504  0.635504  0.420164  1
  P  P15  1  0.010416  0.010416  0.671086  1
  P  P16  1  0.989590  0.989590  0.328558  1
  P  P17  1  0.232979  0.232979  0.883559  1
  P  P18  1  0.767047  0.767047  0.117946  1
  Pd  Pd19  1  0.838731  0.838731  0.193562  1
  Pd  Pd20  1  0.161243  0.161243  0.806648  1
  Pd  Pd21  1  0.026517  0.026517  0.124381  1
  Pd  Pd22  1  0.973354  0.973354  0.875818  1
  Pd  Pd23  1  0.889909  0.889909  0.458690  1
  Pd  Pd24  1  0.110085  0.110085  0.541043  1
  Pd  Pd25  1  0.499927  0.499927  0.000235  1
  Pd  Pd26  1  0.547745  0.547745  0.252179  1
  Pd  Pd27  1  0.452516  0.452516  0.747522  1
  Pd  Pd28  1  0.296657  0.296657  0.486710  1
  Pd  Pd29  1  0.703623  0.703623  0.511471  1
  Pd  Pd30  1  0.666576  0.666576  0.223219  1
  Pd  Pd31  1  0.333746  0.333746  0.777395  1
  Pd  Pd32  1  0.907438  0.907438  0.644286  1
  Pd  Pd33  1  0.092648  0.092648  0.355500  1
  Pd  Pd34  1  0.217293  0.217293  0.070794  1
  Pd  Pd35  1  0.782652  0.782652  0.930312  1
