# generated using pymatgen
data_ErHf7Ta11TiSi16
_symmetry_space_group_name_H-M   'P 1'
_cell_length_a   6.86496814
_cell_length_b   6.86377257
_cell_length_c   12.69785521
_cell_angle_alpha   89.98355011
_cell_angle_beta   89.98375647
_cell_angle_gamma   89.95450112
_symmetry_Int_Tables_number   1
_chemical_formula_structural   ErHf7Ta11TiSi16
_chemical_formula_sum   'Er1 Hf7 Ta11 Ti1 Si16'
_cell_volume   598.31736769
_cell_formula_units_Z   1
loop_
 _symmetry_equiv_pos_site_id
 _symmetry_equiv_pos_as_xyz
  1  'x, y, z'
loop_
 _atom_site_type_symbol
 _atom_site_label
 _atom_site_symmetry_multiplicity
 _atom_site_fract_x
 _atom_site_fract_y
 _atom_site_fract_z
 _atom_site_occupancy
  Er  Er0  1  0.996888  0.661369  0.030462  1
  Hf  Hf1  1  0.341649  0.998457  0.469785  1
  Hf  Hf2  1  0.502376  0.840662  0.718706  1
  Hf  Hf3  1  0.498234  0.161195  0.220944  1
  Hf  Hf4  1  0.840555  0.501885  0.281952  1
  Hf  Hf5  1  0.161130  0.496697  0.779898  1
  Hf  Hf6  1  0.656602  0.003026  0.968215  1
  Hf  Hf7  1  0.998520  0.340397  0.530339  1
  Ta  Ta8  1  0.332013  0.327668  0.999777  1
  Ta  Ta9  1  0.170570  0.830618  0.251920  1
  Ta  Ta10  1  0.830169  0.169853  0.748714  1
  Ta  Ta11  1  0.669682  0.670828  0.500392  1
  Ta  Ta12  1  0.155160  0.003450  0.871446  1
  Ta  Ta13  1  0.496644  0.651872  0.124669  1
  Ta  Ta14  1  0.502834  0.348266  0.622733  1
  Ta  Ta15  1  0.652442  0.492986  0.874066  1
  Ta  Ta16  1  0.347402  0.503852  0.377763  1
  Ta  Ta17  1  0.847221  0.997057  0.374628  1
  Ta  Ta18  1  0.004862  0.152329  0.127285  1
  Ti  Ti19  1  0.994785  0.847843  0.625704  1
  Si  Si20  1  0.205219  0.132409  0.675209  1
  Si  Si21  1  0.366499  0.706382  0.925804  1
  Si  Si22  1  0.636897  0.293218  0.427296  1
  Si  Si23  1  0.704812  0.360052  0.072668  1
  Si  Si24  1  0.289506  0.639485  0.575001  1
  Si  Si25  1  0.790185  0.866822  0.179800  1
  Si  Si26  1  0.136699  0.207152  0.323861  1
  Si  Si27  1  0.863022  0.795347  0.818793  1
  Si  Si28  1  0.301096  0.956621  0.063963  1
  Si  Si29  1  0.542701  0.800087  0.314474  1
  Si  Si30  1  0.454996  0.200549  0.811727  1
  Si  Si31  1  0.802285  0.545796  0.685051  1
  Si  Si32  1  0.201857  0.454947  0.187999  1
  Si  Si33  1  0.703749  0.042848  0.564614  1
  Si  Si34  1  0.956675  0.295512  0.935401  1
  Si  Si35  1  0.044064  0.702464  0.438943  1
