# generated using pymatgen
data_ErTm9(In2Cu)4
_symmetry_space_group_name_H-M   'P 1'
_cell_length_a   3.62493700
_cell_length_b   7.99180001
_cell_length_c   17.84076303
_cell_angle_alpha   89.99324795
_cell_angle_beta   90.00000000
_cell_angle_gamma   90.00000000
_symmetry_Int_Tables_number   1
_chemical_formula_structural   ErTm9(In2Cu)4
_chemical_formula_sum   'Er1 Tm9 In8 Cu4'
_cell_volume   516.84282600
_cell_formula_units_Z   1
loop_
 _symmetry_equiv_pos_site_id
 _symmetry_equiv_pos_as_xyz
  1  'x, y, z'
loop_
 _atom_site_type_symbol
 _atom_site_label
 _atom_site_symmetry_multiplicity
 _atom_site_fract_x
 _atom_site_fract_y
 _atom_site_fract_z
 _atom_site_occupancy
  Er  Er0  1  0.000000  0.000000  0.000000  1
  Tm  Tm1  1  0.000000  0.500000  0.500000  1
  Tm  Tm2  1  0.000000  0.738811  0.280180  1
  Tm  Tm3  1  0.000000  0.261189  0.719820  1
  Tm  Tm4  1  0.000000  0.761190  0.780181  1
  Tm  Tm5  1  0.000000  0.238810  0.219819  1
  Tm  Tm6  1  0.000000  0.618043  0.083280  1
  Tm  Tm7  1  0.000000  0.381957  0.916720  1
  Tm  Tm8  1  0.000000  0.881923  0.583251  1
  Tm  Tm9  1  0.000000  0.118077  0.416749  1
  In  In10  1  0.500000  0.707174  0.931120  1
  In  In11  1  0.500000  0.292826  0.068880  1
  In  In12  1  0.500000  0.792678  0.431164  1
  In  In13  1  0.500000  0.207322  0.568836  1
  In  In14  1  0.500000  0.578601  0.650112  1
  In  In15  1  0.500000  0.421399  0.349888  1
  In  In16  1  0.500000  0.921353  0.150166  1
  In  In17  1  0.500000  0.078647  0.849834  1
  Cu  Cu18  1  0.500000  0.524376  0.197260  1
  Cu  Cu19  1  0.500000  0.475624  0.802740  1
  Cu  Cu20  1  0.500000  0.975627  0.697263  1
  Cu  Cu21  1  0.500000  0.024373  0.302737  1
