# generated using pymatgen
data_Tb12Co3HgOs2
_symmetry_space_group_name_H-M   'P 1'
_cell_length_a   8.35079017
_cell_length_b   8.35079161
_cell_length_c   8.35079172
_cell_angle_alpha   111.87696777
_cell_angle_beta   110.23317600
_cell_angle_gamma   106.35236039
_symmetry_Int_Tables_number   1
_chemical_formula_structural   Tb12Co3HgOs2
_chemical_formula_sum   'Tb12 Co3 Hg1 Os2'
_cell_volume   447.20500930
_cell_formula_units_Z   1
loop_
 _symmetry_equiv_pos_site_id
 _symmetry_equiv_pos_as_xyz
  1  'x, y, z'
loop_
 _atom_site_type_symbol
 _atom_site_label
 _atom_site_symmetry_multiplicity
 _atom_site_fract_x
 _atom_site_fract_y
 _atom_site_fract_z
 _atom_site_occupancy
  Tb  Tb0  1  0.820269  0.727349  0.547618  1
  Tb  Tb1  1  0.175330  0.272836  0.448166  1
  Tb  Tb2  1  0.175330  0.727164  0.902496  1
  Tb  Tb3  1  0.820269  0.272651  0.092919  1
  Tb  Tb4  1  0.678915  0.364271  0.686058  1
  Tb  Tb5  1  0.321788  0.635729  0.314644  1
  Tb  Tb6  1  0.678915  0.992856  0.314644  1
  Tb  Tb7  1  0.321788  0.007144  0.686058  1
  Tb  Tb8  1  0.580581  0.766303  0.814279  1
  Tb  Tb9  1  0.419064  0.226987  0.192076  1
  Tb  Tb10  1  0.965089  0.773013  0.192076  1
  Tb  Tb11  1  0.047976  0.233697  0.814279  1
  Co  Co12  1  0.338217  0.000000  0.338217  1
  Co  Co13  1  0.108744  0.610301  0.498443  1
  Co  Co14  1  0.888142  0.389699  0.498443  1
  Hg  Hg15  1  0.505707  0.500000  0.005707  1
  Os  Os16  1  0.653971  0.000000  0.653971  1
  Os  Os17  1  0.999906  0.000000  0.999906  1
