# generated using pymatgen
data_KH9Ir
_symmetry_space_group_name_H-M   'P 1'
_cell_length_a   7.37707788
_cell_length_b   8.59762613
_cell_length_c   7.56874712
_cell_angle_alpha   98.49925447
_cell_angle_beta   89.86079046
_cell_angle_gamma   115.58710271
_symmetry_Int_Tables_number   1
_chemical_formula_structural   KH9Ir
_chemical_formula_sum   'K3 H27 Ir3'
_cell_volume   427.20118011
_cell_formula_units_Z   3
loop_
 _symmetry_equiv_pos_site_id
 _symmetry_equiv_pos_as_xyz
  1  'x, y, z'
loop_
 _atom_site_type_symbol
 _atom_site_label
 _atom_site_symmetry_multiplicity
 _atom_site_fract_x
 _atom_site_fract_y
 _atom_site_fract_z
 _atom_site_occupancy
  K  K0  1  0.761711  0.334167  0.500663  1
  K  K1  1  0.414890  0.674645  0.182271  1
  K  K2  1  0.066166  0.991584  0.805944  1
  H  H3  1  0.427686  0.137276  0.981418  1
  H  H4  1  0.640595  0.529456  0.014508  1
  H  H5  1  0.084271  0.319355  0.972921  1
  H  H6  1  0.669220  0.216367  0.125166  1
  H  H7  1  0.474052  0.350983  0.160436  1
  H  H8  1  0.815159  0.448322  0.134599  1
  H  H9  1  0.686973  0.203667  0.863325  1
  H  H10  1  0.462893  0.319394  0.833349  1
  H  H11  1  0.793354  0.435439  0.873518  1
  H  H12  1  0.144666  0.491488  0.682779  1
  H  H13  1  0.386776  0.896806  0.699236  1
  H  H14  1  0.470835  0.621900  0.758436  1
  H  H15  1  0.194540  0.011110  0.235608  1
  H  H16  1  0.825937  0.759125  0.305301  1
  H  H17  1  0.050486  0.275846  0.277985  1
  H  H18  1  0.143954  0.359391  0.897294  1
  H  H19  1  0.182808  0.713847  0.822472  1
  H  H20  1  0.509442  0.740111  0.809562  1
  H  H21  1  0.099311  0.897378  0.175204  1
  H  H22  1  0.809255  0.927633  0.154874  1
  H  H23  1  0.048351  0.358947  0.253912  1
  H  H24  1  0.331532  0.541623  0.495670  1
  H  H25  1  0.146845  0.689241  0.518274  1
  H  H26  1  0.493101  0.795027  0.531180  1
  H  H27  1  0.034953  0.867107  0.463133  1
  H  H28  1  0.800868  0.986427  0.457452  1
  H  H29  1  0.129592  0.122972  0.484948  1
  Ir  Ir30  1  0.616021  0.330272  0.998235  1
  Ir  Ir31  1  0.313846  0.685657  0.653599  1
  Ir  Ir32  1  0.969909  0.967441  0.329736  1
