# generated using pymatgen
data_DyHo5CoNi
_symmetry_space_group_name_H-M   'P 1'
_cell_length_a   6.22628602
_cell_length_b   6.86404702
_cell_length_c   9.44238100
_cell_angle_alpha   90.00000000
_cell_angle_beta   90.00000000
_cell_angle_gamma   89.99174637
_symmetry_Int_Tables_number   1
_chemical_formula_structural   DyHo5CoNi
_chemical_formula_sum   'Dy2 Ho10 Co2 Ni2'
_cell_volume   403.54394228
_cell_formula_units_Z   2
loop_
 _symmetry_equiv_pos_site_id
 _symmetry_equiv_pos_as_xyz
  1  'x, y, z'
loop_
 _atom_site_type_symbol
 _atom_site_label
 _atom_site_symmetry_multiplicity
 _atom_site_fract_x
 _atom_site_fract_y
 _atom_site_fract_z
 _atom_site_occupancy
  Dy  Dy0  1  0.365636  0.540563  0.250000  1
  Dy  Dy1  1  0.141199  0.035840  0.250000  1
  Ho  Ho2  1  0.674141  0.175605  0.067142  1
  Ho  Ho3  1  0.822789  0.679556  0.434974  1
  Ho  Ho4  1  0.322298  0.820079  0.934051  1
  Ho  Ho5  1  0.174397  0.324487  0.567877  1
  Ho  Ho6  1  0.674141  0.175605  0.432858  1
  Ho  Ho7  1  0.174397  0.324487  0.932123  1
  Ho  Ho8  1  0.322298  0.820079  0.565949  1
  Ho  Ho9  1  0.864537  0.959396  0.750000  1
  Ho  Ho10  1  0.642993  0.464791  0.750000  1
  Ho  Ho11  1  0.822789  0.679556  0.065026  1
  Co  Co12  1  0.552343  0.888158  0.250000  1
  Co  Co13  1  0.051386  0.611604  0.750000  1
  Ni  Ni14  1  0.947002  0.389953  0.250000  1
  Ni  Ni15  1  0.447654  0.110240  0.750000  1
