# generated using pymatgen
data_Gd3Pa(Al8Pt3)3
_symmetry_space_group_name_H-M   'P 1'
_cell_length_a   7.68339818
_cell_length_b   7.68623797
_cell_length_c   13.36333700
_cell_angle_alpha   84.53375308
_cell_angle_beta   100.98339806
_cell_angle_gamma   119.91313328
_symmetry_Int_Tables_number   1
_chemical_formula_structural   Gd3Pa(Al8Pt3)3
_chemical_formula_sum   'Gd3 Pa1 Al24 Pt9'
_cell_volume   671.52657413
_cell_formula_units_Z   1
loop_
 _symmetry_equiv_pos_site_id
 _symmetry_equiv_pos_as_xyz
  1  'x, y, z'
loop_
 _atom_site_type_symbol
 _atom_site_label
 _atom_site_symmetry_multiplicity
 _atom_site_fract_x
 _atom_site_fract_y
 _atom_site_fract_z
 _atom_site_occupancy
  Gd  Gd0  1  0.437083  0.832200  0.807449  1
  Gd  Gd1  1  0.563164  0.168572  0.192359  1
  Gd  Gd2  1  0.767919  0.501886  0.807138  1
  Pa  Pa3  1  0.234047  0.498197  0.197376  1
  Al  Al4  1  0.481569  0.166823  0.946136  1
  Al  Al5  1  0.518650  0.834208  0.054579  1
  Al  Al6  1  0.019483  0.165291  0.560892  1
  Al  Al7  1  0.978996  0.833156  0.440143  1
  Al  Al8  1  0.352616  0.834376  0.558181  1
  Al  Al9  1  0.647510  0.166794  0.441686  1
  Al  Al10  1  0.620387  0.837531  0.331436  1
  Al  Al11  1  0.382864  0.165610  0.668407  1
  Al  Al12  1  0.055796  0.494307  0.667631  1
  Al  Al13  1  0.940586  0.505491  0.331655  1
  Al  Al14  1  0.729616  0.839852  0.667544  1
  Al  Al15  1  0.269924  0.156227  0.332848  1
  Al  Al16  1  0.148350  0.499724  0.946955  1
  Al  Al17  1  0.852167  0.499773  0.054174  1
  Al  Al18  1  0.817700  0.833453  0.953426  1
  Al  Al19  1  0.182960  0.167482  0.046102  1
  Al  Al20  1  0.313278  0.499348  0.442526  1
  Al  Al21  1  0.686836  0.499767  0.558458  1
  Al  Al22  1  0.099988  0.832957  0.182517  1
  Al  Al23  1  0.898225  0.164522  0.816256  1
  Al  Al24  1  0.307099  0.368823  0.815151  1
  Al  Al25  1  0.692378  0.632959  0.183858  1
  Al  Al26  1  0.102335  0.960172  0.815778  1
  Al  Al27  1  0.900614  0.041128  0.183438  1
  Pt  Pt28  1  0.385476  0.506297  0.637177  1
  Pt  Pt29  1  0.610864  0.493154  0.360352  1
  Pt  Pt30  1  0.171936  0.829186  0.000473  1
  Pt  Pt31  1  0.828981  0.171011  0.001281  1
  Pt  Pt32  1  0.293139  0.831028  0.360413  1
  Pt  Pt33  1  0.706311  0.166702  0.637208  1
  Pt  Pt34  1  0.045905  0.827062  0.636416  1
  Pt  Pt35  1  0.954977  0.174423  0.361834  1
  Pt  Pt36  1  0.500264  0.500506  0.000748  1
