# generated using pymatgen
data_NdHo(Er2Rh9)2
_symmetry_space_group_name_H-M   'P 1'
_cell_length_a   5.26632400
_cell_length_b   5.26632368
_cell_length_c   17.55582900
_cell_angle_alpha   90.00000000
_cell_angle_beta   90.00000000
_cell_angle_gamma   120.00000200
_symmetry_Int_Tables_number   1
_chemical_formula_structural   NdHo(Er2Rh9)2
_chemical_formula_sum   'Nd1 Ho1 Er4 Rh18'
_cell_volume   421.66454733
_cell_formula_units_Z   1
loop_
 _symmetry_equiv_pos_site_id
 _symmetry_equiv_pos_as_xyz
  1  'x, y, z'
loop_
 _atom_site_type_symbol
 _atom_site_label
 _atom_site_symmetry_multiplicity
 _atom_site_fract_x
 _atom_site_fract_y
 _atom_site_fract_z
 _atom_site_occupancy
  Nd  Nd0  1  0.666667  0.333333  0.250000  1
  Ho  Ho1  1  0.333333  0.666667  0.750000  1
  Er  Er2  1  0.333333  0.666667  0.542200  1
  Er  Er3  1  0.666667  0.333333  0.041140  1
  Er  Er4  1  0.666667  0.333333  0.458860  1
  Er  Er5  1  0.333333  0.666667  0.957800  1
  Rh  Rh6  1  0.167352  0.334704  0.124474  1
  Rh  Rh7  1  0.832622  0.665244  0.625523  1
  Rh  Rh8  1  0.665296  0.832648  0.124474  1
  Rh  Rh9  1  0.167352  0.832648  0.124474  1
  Rh  Rh10  1  0.832622  0.167378  0.625523  1
  Rh  Rh11  1  0.334756  0.167378  0.625523  1
  Rh  Rh12  1  0.832622  0.665244  0.874477  1
  Rh  Rh13  1  0.832622  0.167378  0.874477  1
  Rh  Rh14  1  0.334756  0.167378  0.874477  1
  Rh  Rh15  1  0.665296  0.832648  0.375526  1
  Rh  Rh16  1  0.167352  0.832648  0.375526  1
  Rh  Rh17  1  0.167352  0.334704  0.375526  1
  Rh  Rh18  1  0.000000  0.000000  0.250000  1
  Rh  Rh19  1  0.000000  0.000000  0.750000  1
  Rh  Rh20  1  0.333333  0.666667  0.250000  1
  Rh  Rh21  1  0.666667  0.333333  0.750000  1
  Rh  Rh22  1  0.000000  0.000000  0.999573  1
  Rh  Rh23  1  0.000000  0.000000  0.500427  1
