# generated using pymatgen
data_Ti4AlSbRh10
_symmetry_space_group_name_H-M   'P 1'
_cell_length_a   4.03551300
_cell_length_b   5.46630105
_cell_length_c   10.76643323
_cell_angle_alpha   89.36698257
_cell_angle_beta   90.00000000
_cell_angle_gamma   90.00000000
_symmetry_Int_Tables_number   1
_chemical_formula_structural   Ti4AlSbRh10
_chemical_formula_sum   'Ti4 Al1 Sb1 Rh10'
_cell_volume   237.48579713
_cell_formula_units_Z   1
loop_
 _symmetry_equiv_pos_site_id
 _symmetry_equiv_pos_as_xyz
  1  'x, y, z'
loop_
 _atom_site_type_symbol
 _atom_site_label
 _atom_site_symmetry_multiplicity
 _atom_site_fract_x
 _atom_site_fract_y
 _atom_site_fract_z
 _atom_site_occupancy
  Ti  Ti0  1  0.500000  0.321849  0.135666  1
  Ti  Ti1  1  0.500000  0.678151  0.864334  1
  Ti  Ti2  1  0.500000  0.828239  0.351284  1
  Ti  Ti3  1  0.500000  0.171761  0.648716  1
  Al  Al4  1  0.000000  0.000000  0.000000  1
  Sb  Sb5  1  0.000000  0.500000  0.500000  1
  Rh  Rh6  1  0.000000  0.000000  0.500000  1
  Rh  Rh7  1  0.000000  0.500000  0.000000  1
  Rh  Rh8  1  0.000000  0.068055  0.241710  1
  Rh  Rh9  1  0.000000  0.931945  0.758290  1
  Rh  Rh10  1  0.000000  0.571004  0.250652  1
  Rh  Rh11  1  0.000000  0.428996  0.749348  1
  Rh  Rh12  1  0.500000  0.295581  0.381240  1
  Rh  Rh13  1  0.500000  0.704419  0.618760  1
  Rh  Rh14  1  0.500000  0.808338  0.108350  1
  Rh  Rh15  1  0.500000  0.191662  0.891650  1
