# generated using pymatgen
data_HoTi2(Nb2Sn3)2
_symmetry_space_group_name_H-M   'P 1'
_cell_length_a   5.76489900
_cell_length_b   5.76308144
_cell_length_c   9.66367600
_cell_angle_alpha   90.00000000
_cell_angle_beta   90.00000000
_cell_angle_gamma   120.01041602
_symmetry_Int_Tables_number   1
_chemical_formula_structural   HoTi2(Nb2Sn3)2
_chemical_formula_sum   'Ho1 Ti2 Nb4 Sn6'
_cell_volume   278.01860464
_cell_formula_units_Z   1
loop_
 _symmetry_equiv_pos_site_id
 _symmetry_equiv_pos_as_xyz
  1  'x, y, z'
loop_
 _atom_site_type_symbol
 _atom_site_label
 _atom_site_symmetry_multiplicity
 _atom_site_fract_x
 _atom_site_fract_y
 _atom_site_fract_z
 _atom_site_occupancy
  Ho  Ho0  1  0.000000  0.000000  0.000000  1
  Ti  Ti1  1  0.500000  0.000000  0.751009  1
  Ti  Ti2  1  0.500000  0.000000  0.248991  1
  Nb  Nb3  1  0.000000  0.500000  0.751983  1
  Nb  Nb4  1  0.500000  0.500000  0.751983  1
  Nb  Nb5  1  0.000000  0.500000  0.248017  1
  Nb  Nb6  1  0.500000  0.500000  0.248017  1
  Sn  Sn7  1  0.665334  0.330667  0.500000  1
  Sn  Sn8  1  0.334666  0.669333  0.500000  1
  Sn  Sn9  1  0.663897  0.327792  0.000000  1
  Sn  Sn10  1  0.336103  0.672208  0.000000  1
  Sn  Sn11  1  0.000000  0.000000  0.678983  1
  Sn  Sn12  1  0.000000  0.000000  0.321017  1
