# generated using pymatgen
data_YbPr3(Pd2Pb)2
_symmetry_space_group_name_H-M   'P 1'
_cell_length_a   8.01045732
_cell_length_b   8.01045732
_cell_length_c   3.84216200
_cell_angle_alpha   90.00000000
_cell_angle_beta   90.00000000
_cell_angle_gamma   90.03237277
_symmetry_Int_Tables_number   1
_chemical_formula_structural   YbPr3(Pd2Pb)2
_chemical_formula_sum   'Yb1 Pr3 Pd4 Pb2'
_cell_volume   246.54160827
_cell_formula_units_Z   1
loop_
 _symmetry_equiv_pos_site_id
 _symmetry_equiv_pos_as_xyz
  1  'x, y, z'
loop_
 _atom_site_type_symbol
 _atom_site_label
 _atom_site_symmetry_multiplicity
 _atom_site_fract_x
 _atom_site_fract_y
 _atom_site_fract_z
 _atom_site_occupancy
  Yb  Yb0  1  0.326395  0.826395  0.500000  1
  Pr  Pr1  1  0.673034  0.173034  0.500000  1
  Pr  Pr2  1  0.825905  0.677084  0.500000  1
  Pr  Pr3  1  0.177084  0.325905  0.500000  1
  Pd  Pd4  1  0.876944  0.376944  0.000000  1
  Pd  Pd5  1  0.619172  0.873554  0.000000  1
  Pd  Pd6  1  0.373554  0.119172  0.000000  1
  Pd  Pd7  1  0.127250  0.627250  0.000000  1
  Pb  Pb8  1  0.496102  0.504560  0.000000  1
  Pb  Pb9  1  0.004560  0.996102  0.000000  1
