# generated using pymatgen
data_Li3Ac2ErGe3
_symmetry_space_group_name_H-M   'P 1'
_cell_length_a   7.42922628
_cell_length_b   7.42922525
_cell_length_c   4.47431300
_cell_angle_alpha   90.00000000
_cell_angle_beta   90.00000000
_cell_angle_gamma   118.56775450
_symmetry_Int_Tables_number   1
_chemical_formula_structural   Li3Ac2ErGe3
_chemical_formula_sum   'Li3 Ac2 Er1 Ge3'
_cell_volume   216.88660957
_cell_formula_units_Z   1
loop_
 _symmetry_equiv_pos_site_id
 _symmetry_equiv_pos_as_xyz
  1  'x, y, z'
loop_
 _atom_site_type_symbol
 _atom_site_label
 _atom_site_symmetry_multiplicity
 _atom_site_fract_x
 _atom_site_fract_y
 _atom_site_fract_z
 _atom_site_occupancy
  Li  Li0  1  0.232173  0.011138  0.500000  1
  Li  Li1  1  0.764173  0.764173  0.500000  1
  Li  Li2  1  0.011138  0.232173  0.500000  1
  Ac  Ac3  1  0.996265  0.577208  0.000000  1
  Ac  Ac4  1  0.577208  0.996265  0.000000  1
  Er  Er5  1  0.409142  0.409142  0.000000  1
  Ge  Ge6  1  0.342654  0.646323  0.500000  1
  Ge  Ge7  1  0.646323  0.342654  0.500000  1
  Ge  Ge8  1  0.020924  0.020924  0.000000  1
