# generated using pymatgen
data_TbY7(AlPt)2
_symmetry_space_group_name_H-M   'P 1'
_cell_length_a   9.64376293
_cell_length_b   9.64376237
_cell_length_c   9.65356300
_cell_angle_alpha   59.96637993
_cell_angle_beta   59.96638183
_cell_angle_gamma   59.93773257
_symmetry_Int_Tables_number   1
_chemical_formula_structural   TbY7(AlPt)2
_chemical_formula_sum   'Tb2 Y14 Al4 Pt4'
_cell_volume   634.22039900
_cell_formula_units_Z   2
loop_
 _symmetry_equiv_pos_site_id
 _symmetry_equiv_pos_as_xyz
  1  'x, y, z'
loop_
 _atom_site_type_symbol
 _atom_site_label
 _atom_site_symmetry_multiplicity
 _atom_site_fract_x
 _atom_site_fract_y
 _atom_site_fract_z
 _atom_site_occupancy
  Tb  Tb0  1  0.353000  0.353000  0.353865  1
  Tb  Tb1  1  0.353000  0.353000  0.940136  1
  Y  Y2  1  0.354662  0.934863  0.355237  1
  Y  Y3  1  0.934863  0.354662  0.355237  1
  Y  Y4  1  0.807613  0.194510  0.192067  1
  Y  Y5  1  0.194510  0.807613  0.805811  1
  Y  Y6  1  0.194510  0.807613  0.192067  1
  Y  Y7  1  0.807613  0.194510  0.805811  1
  Y  Y8  1  0.192932  0.192932  0.807068  1
  Y  Y9  1  0.806550  0.806550  0.193450  1
  Y  Y10  1  0.935479  0.563459  0.564342  1
  Y  Y11  1  0.563459  0.935479  0.936721  1
  Y  Y12  1  0.563459  0.935479  0.564342  1
  Y  Y13  1  0.935479  0.563459  0.936721  1
  Y  Y14  1  0.564412  0.564412  0.935588  1
  Y  Y15  1  0.936957  0.936957  0.563043  1
  Al  Al16  1  0.578920  0.578920  0.578256  1
  Al  Al17  1  0.578920  0.578920  0.263904  1
  Al  Al18  1  0.578232  0.266596  0.577586  1
  Al  Al19  1  0.266596  0.578232  0.577586  1
  Pt  Pt20  1  0.143316  0.143316  0.144649  1
  Pt  Pt21  1  0.143316  0.143316  0.568719  1
  Pt  Pt22  1  0.142742  0.569461  0.143898  1
  Pt  Pt23  1  0.569461  0.142742  0.143898  1
