# generated using pymatgen
data_Zr4VGe3N
_symmetry_space_group_name_H-M   'P 1'
_cell_length_a   7.90782800
_cell_length_b   7.90782755
_cell_length_c   5.50422100
_cell_angle_alpha   90.00000000
_cell_angle_beta   90.00000000
_cell_angle_gamma   119.99999350
_symmetry_Int_Tables_number   1
_chemical_formula_structural   Zr4VGe3N
_chemical_formula_sum   'Zr8 V2 Ge6 N2'
_cell_volume   298.08555283
_cell_formula_units_Z   2
loop_
 _symmetry_equiv_pos_site_id
 _symmetry_equiv_pos_as_xyz
  1  'x, y, z'
loop_
 _atom_site_type_symbol
 _atom_site_label
 _atom_site_symmetry_multiplicity
 _atom_site_fract_x
 _atom_site_fract_y
 _atom_site_fract_z
 _atom_site_occupancy
  Zr  Zr0  1  0.234183  0.000000  0.750163  1
  Zr  Zr1  1  0.765817  0.000000  0.249837  1
  Zr  Zr2  1  0.000000  0.234183  0.750163  1
  Zr  Zr3  1  0.000000  0.765817  0.249837  1
  Zr  Zr4  1  0.765817  0.765817  0.750163  1
  Zr  Zr5  1  0.234183  0.234183  0.249837  1
  Zr  Zr6  1  0.666667  0.333333  0.000000  1
  Zr  Zr7  1  0.333333  0.666667  0.000000  1
  V  V8  1  0.333333  0.666667  0.500000  1
  V  V9  1  0.666667  0.333333  0.500000  1
  Ge  Ge10  1  0.590897  0.000000  0.727318  1
  Ge  Ge11  1  0.409103  0.000000  0.272682  1
  Ge  Ge12  1  0.000000  0.590897  0.727318  1
  Ge  Ge13  1  0.000000  0.409103  0.272682  1
  Ge  Ge14  1  0.409103  0.409103  0.727318  1
  Ge  Ge15  1  0.590897  0.590897  0.272682  1
  N  N16  1  0.000000  0.000000  0.500000  1
  N  N17  1  0.000000  0.000000  0.000000  1
