# generated using pymatgen
data_Sm2ErZn3(Ni5B)2
_symmetry_space_group_name_H-M   'P 1'
_cell_length_a   5.10868800
_cell_length_b   5.10868886
_cell_length_c   10.80132900
_cell_angle_alpha   90.00000000
_cell_angle_beta   90.00000000
_cell_angle_gamma   120.00000740
_symmetry_Int_Tables_number   1
_chemical_formula_structural   Sm2ErZn3(Ni5B)2
_chemical_formula_sum   'Sm2 Er1 Zn3 Ni10 B2'
_cell_volume   244.13307808
_cell_formula_units_Z   1
loop_
 _symmetry_equiv_pos_site_id
 _symmetry_equiv_pos_as_xyz
  1  'x, y, z'
loop_
 _atom_site_type_symbol
 _atom_site_label
 _atom_site_symmetry_multiplicity
 _atom_site_fract_x
 _atom_site_fract_y
 _atom_site_fract_z
 _atom_site_occupancy
  Sm  Sm0  1  0.000000  0.000000  0.658400  1
  Sm  Sm1  1  0.000000  0.000000  0.326317  1
  Er  Er2  1  0.000000  0.000000  0.998393  1
  Zn  Zn3  1  0.666667  0.333333  0.686430  1
  Zn  Zn4  1  0.333333  0.666667  0.686029  1
  Zn  Zn5  1  0.333333  0.666667  0.316677  1
  Ni  Ni6  1  0.501782  0.498218  0.500180  1
  Ni  Ni7  1  0.501782  0.003564  0.500180  1
  Ni  Ni8  1  0.996436  0.498218  0.500180  1
  Ni  Ni9  1  0.666667  0.333333  0.318236  1
  Ni  Ni10  1  0.499631  0.500369  0.873787  1
  Ni  Ni11  1  0.499631  0.999262  0.873787  1
  Ni  Ni12  1  0.000738  0.500369  0.873787  1
  Ni  Ni13  1  0.501523  0.498477  0.128628  1
  Ni  Ni14  1  0.501523  0.003048  0.128628  1
  Ni  Ni15  1  0.996952  0.498477  0.128628  1
  B  B16  1  0.666667  0.333333  0.000928  1
  B  B17  1  0.333333  0.666667  0.000808  1
