# generated using pymatgen
data_Er4SiB4Ir9
_symmetry_space_group_name_H-M   'P 1'
_cell_length_a   10.67975122
_cell_length_b   10.67975077
_cell_length_c   10.67975103
_cell_angle_alpha   29.81148906
_cell_angle_beta   29.81149421
_cell_angle_gamma   29.81149608
_symmetry_Int_Tables_number   1
_chemical_formula_structural   Er4SiB4Ir9
_chemical_formula_sum   'Er4 Si1 B4 Ir9'
_cell_volume   266.60030200
_cell_formula_units_Z   1
loop_
 _symmetry_equiv_pos_site_id
 _symmetry_equiv_pos_as_xyz
  1  'x, y, z'
loop_
 _atom_site_type_symbol
 _atom_site_label
 _atom_site_symmetry_multiplicity
 _atom_site_fract_x
 _atom_site_fract_y
 _atom_site_fract_z
 _atom_site_occupancy
  Er  Er0  1  0.150334  0.150334  0.150334  1
  Er  Er1  1  0.949991  0.949991  0.949991  1
  Er  Er2  1  0.849666  0.849666  0.849666  1
  Er  Er3  1  0.050009  0.050009  0.050009  1
  Si  Si4  1  0.500000  0.500000  0.500000  1
  B  B5  1  0.615536  0.615536  0.615536  1
  B  B6  1  0.718328  0.718328  0.718328  1
  B  B7  1  0.384464  0.384464  0.384464  1
  B  B8  1  0.281672  0.281672  0.281672  1
  Ir  Ir9  1  0.401366  0.898809  0.401366  1
  Ir  Ir10  1  0.898809  0.401366  0.401366  1
  Ir  Ir11  1  0.500000  0.500000  0.000000  1
  Ir  Ir12  1  0.500000  0.000000  0.500000  1
  Ir  Ir13  1  0.000000  0.500000  0.500000  1
  Ir  Ir14  1  0.598634  0.101191  0.598634  1
  Ir  Ir15  1  0.598634  0.598634  0.101191  1
  Ir  Ir16  1  0.101191  0.598634  0.598634  1
  Ir  Ir17  1  0.401366  0.401366  0.898809  1
