# generated using pymatgen
data_Ho24ZnRu13
_symmetry_space_group_name_H-M   'P 1'
_cell_length_a   11.25040855
_cell_length_b   8.39541659
_cell_length_c   11.26295963
_cell_angle_alpha   56.22554171
_cell_angle_beta   89.95433078
_cell_angle_gamma   89.82689471
_symmetry_Int_Tables_number   1
_chemical_formula_structural   Ho24ZnRu13
_chemical_formula_sum   'Ho24 Zn1 Ru13'
_cell_volume   884.26675262
_cell_formula_units_Z   1
loop_
 _symmetry_equiv_pos_site_id
 _symmetry_equiv_pos_as_xyz
  1  'x, y, z'
loop_
 _atom_site_type_symbol
 _atom_site_label
 _atom_site_symmetry_multiplicity
 _atom_site_fract_x
 _atom_site_fract_y
 _atom_site_fract_z
 _atom_site_occupancy
  Ho  Ho0  1  0.706285  0.239999  0.532556  1
  Ho  Ho1  1  0.205052  0.756103  0.968582  1
  Ho  Ho2  1  0.847788  0.506842  0.657829  1
  Ho  Ho3  1  0.343363  0.491270  0.843810  1
  Ho  Ho4  1  0.153266  0.491699  0.345357  1
  Ho  Ho5  1  0.653680  0.489237  0.161373  1
  Ho  Ho6  1  0.006012  0.851416  0.361134  1
  Ho  Ho7  1  0.502151  0.151708  0.139355  1
  Ho  Ho8  1  0.994453  0.149322  0.638833  1
  Ho  Ho9  1  0.489566  0.850629  0.855117  1
  Ho  Ho10  1  0.798775  0.250561  0.028270  1
  Ho  Ho11  1  0.294250  0.757119  0.468813  1
  Ho  Ho12  1  0.933176  0.779354  0.089074  1
  Ho  Ho13  1  0.430611  0.221904  0.410844  1
  Ho  Ho14  1  0.070770  0.223590  0.910105  1
  Ho  Ho15  1  0.567045  0.780618  0.590918  1
  Ho  Ho16  1  0.302837  0.242608  0.674782  1
  Ho  Ho17  1  0.800439  0.760796  0.823651  1
  Ho  Ho18  1  0.699306  0.750268  0.340451  1
  Ho  Ho19  1  0.197964  0.240998  0.176322  1
  Ho  Ho20  1  0.926269  0.278727  0.292871  1
  Ho  Ho21  1  0.422760  0.718807  0.206845  1
  Ho  Ho22  1  0.074134  0.720892  0.706776  1
  Ho  Ho23  1  0.576028  0.288824  0.786132  1
  Zn  Zn24  1  0.655871  0.915526  0.036040  1
  Ru  Ru25  1  0.500823  0.504293  0.496938  1
  Ru  Ru26  1  0.000578  0.501890  0.998987  1
  Ru  Ru27  1  0.145083  0.077246  0.464558  1
  Ru  Ru28  1  0.351706  0.080570  0.962897  1
  Ru  Ru29  1  0.853933  0.925049  0.535171  1
  Ru  Ru30  1  0.399940  0.487648  0.102683  1
  Ru  Ru31  1  0.893633  0.519073  0.393078  1
  Ru  Ru32  1  0.602509  0.512320  0.899093  1
  Ru  Ru33  1  0.102632  0.484832  0.602722  1
  Ru  Ru34  1  0.815169  0.101462  0.849779  1
  Ru  Ru35  1  0.318956  0.901779  0.650299  1
  Ru  Ru36  1  0.182404  0.899129  0.151234  1
  Ru  Ru37  1  0.680783  0.095894  0.346725  1
