# generated using pymatgen
data_YHoFe6(CoB4)2
_symmetry_space_group_name_H-M   'P 1'
_cell_length_a   6.92734396
_cell_length_b   6.95381522
_cell_length_c   3.80817600
_cell_angle_alpha   90.00000000
_cell_angle_beta   90.00000000
_cell_angle_gamma   89.65673983
_symmetry_Int_Tables_number   1
_chemical_formula_structural   YHoFe6(CoB4)2
_chemical_formula_sum   'Y1 Ho1 Fe6 Co2 B8'
_cell_volume   183.44214329
_cell_formula_units_Z   1
loop_
 _symmetry_equiv_pos_site_id
 _symmetry_equiv_pos_as_xyz
  1  'x, y, z'
loop_
 _atom_site_type_symbol
 _atom_site_label
 _atom_site_symmetry_multiplicity
 _atom_site_fract_x
 _atom_site_fract_y
 _atom_site_fract_z
 _atom_site_occupancy
  Y  Y0  1  0.000000  0.000000  0.996944  1
  Ho  Ho1  1  0.500000  0.500000  0.499009  1
  Fe  Fe2  1  0.867230  0.385532  0.107792  1
  Fe  Fe3  1  0.132770  0.614468  0.107792  1
  Fe  Fe4  1  0.884486  0.632527  0.607958  1
  Fe  Fe5  1  0.115514  0.367473  0.607958  1
  Fe  Fe6  1  0.631896  0.115587  0.391977  1
  Fe  Fe7  1  0.368104  0.884413  0.391977  1
  Co  Co8  1  0.615095  0.863966  0.891374  1
  Co  Co9  1  0.384905  0.136034  0.891374  1
  B  B10  1  0.333210  0.796258  0.894831  1
  B  B11  1  0.666790  0.203742  0.894831  1
  B  B12  1  0.298743  0.164230  0.395388  1
  B  B13  1  0.701257  0.835770  0.395388  1
  B  B14  1  0.166839  0.699734  0.605276  1
  B  B15  1  0.833161  0.300266  0.605276  1
  B  B16  1  0.197200  0.334028  0.107427  1
  B  B17  1  0.802800  0.665972  0.107427  1
