# generated using pymatgen
data_TbDy3Ga4Ru3Au
_symmetry_space_group_name_H-M   'P 1'
_cell_length_a   4.29709400
_cell_length_b   6.96692411
_cell_length_c   7.87635563
_cell_angle_alpha   89.78707963
_cell_angle_beta   90.00000000
_cell_angle_gamma   90.00000000
_symmetry_Int_Tables_number   1
_chemical_formula_structural   TbDy3Ga4Ru3Au
_chemical_formula_sum   'Tb1 Dy3 Ga4 Ru3 Au1'
_cell_volume   235.79698726
_cell_formula_units_Z   1
loop_
 _symmetry_equiv_pos_site_id
 _symmetry_equiv_pos_as_xyz
  1  'x, y, z'
loop_
 _atom_site_type_symbol
 _atom_site_label
 _atom_site_symmetry_multiplicity
 _atom_site_fract_x
 _atom_site_fract_y
 _atom_site_fract_z
 _atom_site_occupancy
  Tb  Tb0  1  0.250000  0.532386  0.193268  1
  Dy  Dy1  1  0.250000  0.017286  0.319992  1
  Dy  Dy2  1  0.750000  0.978727  0.687838  1
  Dy  Dy3  1  0.750000  0.483585  0.800687  1
  Ga  Ga4  1  0.250000  0.151771  0.919189  1
  Ga  Ga5  1  0.250000  0.664010  0.570809  1
  Ga  Ga6  1  0.750000  0.824340  0.068348  1
  Ga  Ga7  1  0.750000  0.342555  0.439127  1
  Ru  Ru8  1  0.250000  0.278943  0.609991  1
  Ru  Ru9  1  0.250000  0.771456  0.891337  1
  Ru  Ru10  1  0.750000  0.730196  0.390028  1
  Au  Au11  1  0.750000  0.224748  0.109389  1
