# generated using pymatgen
data_Pr4PdPt3
_symmetry_space_group_name_H-M   'P 1'
_cell_length_a   4.67455300
_cell_length_b   5.77303369
_cell_length_c   7.40935088
_cell_angle_alpha   89.94405783
_cell_angle_beta   90.00000000
_cell_angle_gamma   90.00000000
_symmetry_Int_Tables_number   1
_chemical_formula_structural   Pr4PdPt3
_chemical_formula_sum   'Pr4 Pd1 Pt3'
_cell_volume   199.95125530
_cell_formula_units_Z   1
loop_
 _symmetry_equiv_pos_site_id
 _symmetry_equiv_pos_as_xyz
  1  'x, y, z'
loop_
 _atom_site_type_symbol
 _atom_site_label
 _atom_site_symmetry_multiplicity
 _atom_site_fract_x
 _atom_site_fract_y
 _atom_site_fract_z
 _atom_site_occupancy
  Pr  Pr0  1  0.250000  0.359689  0.683065  1
  Pr  Pr1  1  0.250000  0.139931  0.181269  1
  Pr  Pr2  1  0.750000  0.636790  0.314334  1
  Pr  Pr3  1  0.750000  0.862417  0.821680  1
  Pd  Pd4  1  0.250000  0.851312  0.543347  1
  Pt  Pt5  1  0.250000  0.652438  0.044329  1
  Pt  Pt6  1  0.750000  0.149026  0.456540  1
  Pt  Pt7  1  0.750000  0.348397  0.955434  1
