# generated using pymatgen
data_ErMn2(Ga3Fe2)2
_symmetry_space_group_name_H-M   'P 1'
_cell_length_a   5.03306176
_cell_length_b   6.60546219
_cell_length_c   6.60546247
_cell_angle_alpha   79.81079911
_cell_angle_beta   67.60577851
_cell_angle_gamma   67.60577451
_symmetry_Int_Tables_number   1
_chemical_formula_structural   ErMn2(Ga3Fe2)2
_chemical_formula_sum   'Er1 Mn2 Ga6 Fe4'
_cell_volume   187.59964613
_cell_formula_units_Z   1
loop_
 _symmetry_equiv_pos_site_id
 _symmetry_equiv_pos_as_xyz
  1  'x, y, z'
loop_
 _atom_site_type_symbol
 _atom_site_label
 _atom_site_symmetry_multiplicity
 _atom_site_fract_x
 _atom_site_fract_y
 _atom_site_fract_z
 _atom_site_occupancy
  Er  Er0  1  0.000000  0.000000  0.000000  1
  Mn  Mn1  1  0.500000  0.242370  0.757630  1
  Mn  Mn2  1  0.500000  0.757630  0.242370  1
  Ga  Ga3  1  0.000000  0.668651  0.331349  1
  Ga  Ga4  1  0.000000  0.331349  0.668651  1
  Ga  Ga5  1  0.342746  0.657254  0.657254  1
  Ga  Ga6  1  0.657254  0.342746  0.342746  1
  Ga  Ga7  1  0.318154  0.181846  0.181846  1
  Ga  Ga8  1  0.681846  0.818154  0.818154  1
  Fe  Fe9  1  0.000000  0.500000  0.000000  1
  Fe  Fe10  1  0.500000  0.500000  0.000000  1
  Fe  Fe11  1  0.000000  0.000000  0.500000  1
  Fe  Fe12  1  0.500000  0.000000  0.500000  1
