# generated using pymatgen
data_NdEu(BPd4)2
_symmetry_space_group_name_H-M   'P 1'
_cell_length_a   5.55446800
_cell_length_b   6.21863300
_cell_length_c   11.93886400
_cell_angle_alpha   90.00000000
_cell_angle_beta   90.00000000
_cell_angle_gamma   90.00000000
_symmetry_Int_Tables_number   1
_chemical_formula_structural   NdEu(BPd4)2
_chemical_formula_sum   'Nd2 Eu2 B4 Pd16'
_cell_volume   412.38266535
_cell_formula_units_Z   2
loop_
 _symmetry_equiv_pos_site_id
 _symmetry_equiv_pos_as_xyz
  1  'x, y, z'
loop_
 _atom_site_type_symbol
 _atom_site_label
 _atom_site_symmetry_multiplicity
 _atom_site_fract_x
 _atom_site_fract_y
 _atom_site_fract_z
 _atom_site_occupancy
  Nd  Nd0  1  0.750000  0.308338  0.155490  1
  Nd  Nd1  1  0.750000  0.808338  0.344510  1
  Eu  Eu2  1  0.250000  0.687822  0.839980  1
  Eu  Eu3  1  0.250000  0.187822  0.660020  1
  B  B4  1  0.750000  0.399944  0.550950  1
  B  B5  1  0.750000  0.899944  0.949050  1
  B  B6  1  0.250000  0.597609  0.447522  1
  B  B7  1  0.250000  0.097609  0.052478  1
  Pd  Pd8  1  0.750000  0.385292  0.733383  1
  Pd  Pd9  1  0.750000  0.885292  0.766617  1
  Pd  Pd10  1  0.250000  0.620322  0.266386  1
  Pd  Pd11  1  0.250000  0.120322  0.233614  1
  Pd  Pd12  1  0.750000  0.059804  0.555432  1
  Pd  Pd13  1  0.750000  0.559804  0.944568  1
  Pd  Pd14  1  0.250000  0.939589  0.440829  1
  Pd  Pd15  1  0.250000  0.439589  0.059171  1
  Pd  Pd16  1  0.998494  0.161183  0.915090  1
  Pd  Pd17  1  0.501506  0.661183  0.584910  1
  Pd  Pd18  1  0.501273  0.839458  0.090613  1
  Pd  Pd19  1  0.998727  0.339458  0.409387  1
  Pd  Pd20  1  0.998727  0.839458  0.090613  1
  Pd  Pd21  1  0.501273  0.339458  0.409387  1
  Pd  Pd22  1  0.501506  0.161183  0.915090  1
  Pd  Pd23  1  0.998494  0.661183  0.584910  1
