# generated using pymatgen
data_Dy8Ti3Si16(Mo2W)3
_symmetry_space_group_name_H-M   'P 1'
_cell_length_a   6.90290933
_cell_length_b   6.90290947
_cell_length_c   12.80639339
_cell_angle_alpha   90.04560303
_cell_angle_beta   89.95439459
_cell_angle_gamma   89.85761482
_symmetry_Int_Tables_number   1
_chemical_formula_structural   Dy8Ti3Si16(Mo2W)3
_chemical_formula_sum   'Dy8 Ti3 Si16 Mo6 W3'
_cell_volume   610.22439954
_cell_formula_units_Z   1
loop_
 _symmetry_equiv_pos_site_id
 _symmetry_equiv_pos_as_xyz
  1  'x, y, z'
loop_
 _atom_site_type_symbol
 _atom_site_label
 _atom_site_symmetry_multiplicity
 _atom_site_fract_x
 _atom_site_fract_y
 _atom_site_fract_z
 _atom_site_occupancy
  Dy  Dy0  1  0.997920  0.660833  0.031291  1
  Dy  Dy1  1  0.000551  0.340088  0.531162  1
  Dy  Dy2  1  0.660833  0.997920  0.968709  1
  Dy  Dy3  1  0.161810  0.503025  0.780730  1
  Dy  Dy4  1  0.838245  0.500750  0.282689  1
  Dy  Dy5  1  0.503025  0.161810  0.219270  1
  Dy  Dy6  1  0.500750  0.838245  0.717311  1
  Dy  Dy7  1  0.340088  0.000551  0.468838  1
  Ti  Ti8  1  0.829458  0.168572  0.748613  1
  Ti  Ti9  1  0.168572  0.829458  0.251387  1
  Ti  Ti10  1  0.331462  0.331462  0.000000  1
  Si  Si11  1  0.036006  0.711935  0.437997  1
  Si  Si12  1  0.959400  0.289474  0.936093  1
  Si  Si13  1  0.711935  0.036006  0.562003  1
  Si  Si14  1  0.208593  0.460234  0.186313  1
  Si  Si15  1  0.789763  0.540767  0.685504  1
  Si  Si16  1  0.460234  0.208593  0.813687  1
  Si  Si17  1  0.540767  0.789763  0.314496  1
  Si  Si18  1  0.289474  0.959400  0.063907  1
  Si  Si19  1  0.799908  0.871642  0.183563  1
  Si  Si20  1  0.302508  0.625853  0.565815  1
  Si  Si21  1  0.701073  0.371773  0.066198  1
  Si  Si22  1  0.625853  0.302508  0.434185  1
  Si  Si23  1  0.371773  0.701073  0.933802  1
  Si  Si24  1  0.127420  0.202587  0.315550  1
  Si  Si25  1  0.202587  0.127420  0.684450  1
  Si  Si26  1  0.871642  0.799908  0.816437  1
  Mo  Mo27  1  0.334518  0.505734  0.374824  1
  Mo  Mo28  1  0.842144  0.997162  0.373137  1
  Mo  Mo29  1  0.006378  0.160335  0.125539  1
  Mo  Mo30  1  0.997162  0.842144  0.626863  1
  Mo  Mo31  1  0.505734  0.334518  0.625176  1
  Mo  Mo32  1  0.160335  0.006378  0.874461  1
  W  W33  1  0.668137  0.668137  0.500000  1
  W  W34  1  0.493857  0.660089  0.124883  1
  W  W35  1  0.660089  0.493857  0.875117  1
