# generated using pymatgen
data_Gd3TmB16Mo3W
_symmetry_space_group_name_H-M   'P 1'
_cell_length_a   6.04223648
_cell_length_b   11.68233951
_cell_length_c   3.63562700
_cell_angle_alpha   90.00000000
_cell_angle_beta   90.00000000
_cell_angle_gamma   90.07842885
_symmetry_Int_Tables_number   1
_chemical_formula_structural   Gd3TmB16Mo3W
_chemical_formula_sum   'Gd3 Tm1 B16 Mo3 W1'
_cell_volume   256.62942755
_cell_formula_units_Z   1
loop_
 _symmetry_equiv_pos_site_id
 _symmetry_equiv_pos_as_xyz
  1  'x, y, z'
loop_
 _atom_site_type_symbol
 _atom_site_label
 _atom_site_symmetry_multiplicity
 _atom_site_fract_x
 _atom_site_fract_y
 _atom_site_fract_z
 _atom_site_occupancy
  Gd  Gd0  1  0.373217  0.649717  0.000000  1
  Gd  Gd1  1  0.126985  0.150516  0.000000  1
  Gd  Gd2  1  0.873421  0.849795  0.000000  1
  Tm  Tm3  1  0.626550  0.350786  0.000000  1
  B  B4  1  0.786402  0.187551  0.500000  1
  B  B5  1  0.214308  0.814053  0.500000  1
  B  B6  1  0.287504  0.314419  0.500000  1
  B  B7  1  0.714101  0.685305  0.500000  1
  B  B8  1  0.866194  0.032464  0.500000  1
  B  B9  1  0.134482  0.968087  0.500000  1
  B  B10  1  0.366532  0.467110  0.500000  1
  B  B11  1  0.633249  0.530694  0.500000  1
  B  B12  1  0.884600  0.451584  0.500000  1
  B  B13  1  0.113038  0.546435  0.500000  1
  B  B14  1  0.386556  0.047678  0.500000  1
  B  B15  1  0.613613  0.953080  0.500000  1
  B  B16  1  0.975524  0.306988  0.500000  1
  B  B17  1  0.023764  0.692361  0.500000  1
  B  B18  1  0.476886  0.194540  0.500000  1
  B  B19  1  0.523727  0.807166  0.500000  1
  Mo  Mo20  1  0.370177  0.916308  0.000000  1
  Mo  Mo21  1  0.129196  0.415802  0.000000  1
  Mo  Mo22  1  0.869809  0.582551  0.000000  1
  W  W23  1  0.630165  0.085009  0.000000  1
