# generated using pymatgen
data_Zr6Al16Cu4Ir2Ru
_symmetry_space_group_name_H-M   'P 1'
_cell_length_a   8.70531304
_cell_length_b   8.65162793
_cell_length_c   8.70531397
_cell_angle_alpha   60.20379084
_cell_angle_beta   59.59241367
_cell_angle_gamma   60.20378744
_symmetry_Int_Tables_number   1
_chemical_formula_structural   Zr6Al16Cu4Ir2Ru
_chemical_formula_sum   'Zr6 Al16 Cu4 Ir2 Ru1'
_cell_volume   463.57372105
_cell_formula_units_Z   1
loop_
 _symmetry_equiv_pos_site_id
 _symmetry_equiv_pos_as_xyz
  1  'x, y, z'
loop_
 _atom_site_type_symbol
 _atom_site_label
 _atom_site_symmetry_multiplicity
 _atom_site_fract_x
 _atom_site_fract_y
 _atom_site_fract_z
 _atom_site_occupancy
  Zr  Zr0  1  0.188933  0.811067  0.811067  1
  Zr  Zr1  1  0.811067  0.188933  0.188933  1
  Zr  Zr2  1  0.801239  0.198761  0.801239  1
  Zr  Zr3  1  0.811067  0.811067  0.188933  1
  Zr  Zr4  1  0.198761  0.801239  0.198761  1
  Zr  Zr5  1  0.188933  0.188933  0.811067  1
  Al  Al6  1  0.832187  0.836611  0.832187  1
  Al  Al7  1  0.836611  0.832187  0.499014  1
  Al  Al8  1  0.499014  0.832187  0.836611  1
  Al  Al9  1  0.832187  0.499014  0.832187  1
  Al  Al10  1  0.167813  0.163389  0.167813  1
  Al  Al11  1  0.163389  0.167813  0.500986  1
  Al  Al12  1  0.167813  0.500986  0.167813  1
  Al  Al13  1  0.500986  0.167813  0.163389  1
  Al  Al14  1  0.615238  0.624556  0.615238  1
  Al  Al15  1  0.624556  0.615238  0.144967  1
  Al  Al16  1  0.144967  0.615238  0.624556  1
  Al  Al17  1  0.615238  0.144967  0.615238  1
  Al  Al18  1  0.384762  0.375444  0.384762  1
  Al  Al19  1  0.375444  0.384762  0.855033  1
  Al  Al20  1  0.384762  0.855033  0.384762  1
  Al  Al21  1  0.855033  0.384762  0.375444  1
  Cu  Cu22  1  0.000000  0.500000  0.500000  1
  Cu  Cu23  1  0.500000  0.000000  0.000000  1
  Cu  Cu24  1  0.500000  0.500000  0.000000  1
  Cu  Cu25  1  0.000000  0.000000  0.500000  1
  Ir  Ir26  1  0.500000  0.000000  0.500000  1
  Ir  Ir27  1  0.000000  0.500000  0.000000  1
  Ru  Ru28  1  0.500000  0.500000  0.500000  1
