# generated using pymatgen
data_Tb7Y(TcC2)4
_symmetry_space_group_name_H-M   'P 1'
_cell_length_a   5.13487400
_cell_length_b   6.59233923
_cell_length_c   9.92079186
_cell_angle_alpha   90.07010232
_cell_angle_beta   90.00000000
_cell_angle_gamma   90.00000000
_symmetry_Int_Tables_number   1
_chemical_formula_structural   Tb7Y(TcC2)4
_chemical_formula_sum   'Tb7 Y1 Tc4 C8'
_cell_volume   335.82680042
_cell_formula_units_Z   1
loop_
 _symmetry_equiv_pos_site_id
 _symmetry_equiv_pos_as_xyz
  1  'x, y, z'
loop_
 _atom_site_type_symbol
 _atom_site_label
 _atom_site_symmetry_multiplicity
 _atom_site_fract_x
 _atom_site_fract_y
 _atom_site_fract_z
 _atom_site_occupancy
  Tb  Tb0  1  0.250000  0.678854  0.556663  1
  Tb  Tb1  1  0.750000  0.320697  0.443259  1
  Tb  Tb2  1  0.750000  0.821046  0.056723  1
  Tb  Tb3  1  0.250000  0.179126  0.943310  1
  Tb  Tb4  1  0.250000  0.531574  0.215772  1
  Tb  Tb5  1  0.750000  0.468411  0.784337  1
  Tb  Tb6  1  0.750000  0.968452  0.715776  1
  Y  Y7  1  0.250000  0.032034  0.284020  1
  Tc  Tc8  1  0.250000  0.720538  0.864779  1
  Tc  Tc9  1  0.750000  0.279514  0.135291  1
  Tc  Tc10  1  0.750000  0.779573  0.364790  1
  Tc  Tc11  1  0.250000  0.220307  0.635230  1
  C  C12  1  0.250000  0.453893  0.758281  1
  C  C13  1  0.750000  0.546196  0.241712  1
  C  C14  1  0.750000  0.046099  0.258440  1
  C  C15  1  0.250000  0.953889  0.741704  1
  C  C16  1  0.250000  0.820147  0.046862  1
  C  C17  1  0.750000  0.179973  0.953210  1
  C  C18  1  0.750000  0.679995  0.546678  1
  C  C19  1  0.250000  0.319683  0.453163  1
