# generated using pymatgen
data_Ca2Fe2Ni10As7
_symmetry_space_group_name_H-M   'P 1'
_cell_length_a   9.44683945
_cell_length_b   9.43366106
_cell_length_c   3.84200700
_cell_angle_alpha   90.00000000
_cell_angle_beta   90.00000000
_cell_angle_gamma   119.88710257
_symmetry_Int_Tables_number   1
_chemical_formula_structural   Ca2Fe2Ni10As7
_chemical_formula_sum   'Ca2 Fe2 Ni10 As7'
_cell_volume   296.85784443
_cell_formula_units_Z   1
loop_
 _symmetry_equiv_pos_site_id
 _symmetry_equiv_pos_as_xyz
  1  'x, y, z'
loop_
 _atom_site_type_symbol
 _atom_site_label
 _atom_site_symmetry_multiplicity
 _atom_site_fract_x
 _atom_site_fract_y
 _atom_site_fract_z
 _atom_site_occupancy
  Ca  Ca0  1  0.334308  0.666131  0.000000  1
  Ca  Ca1  1  0.666916  0.333962  0.499999  1
  Fe  Fe2  1  0.209030  0.096677  0.499999  1
  Fe  Fe3  1  0.905653  0.113937  0.499999  1
  Ni  Ni4  1  0.433802  0.055301  0.000000  1
  Ni  Ni5  1  0.152659  0.279844  0.000000  1
  Ni  Ni6  1  0.944526  0.379528  0.000000  1
  Ni  Ni7  1  0.619212  0.563529  0.000000  1
  Ni  Ni8  1  0.127003  0.846261  0.000000  1
  Ni  Ni9  1  0.720617  0.872471  0.000000  1
  Ni  Ni10  1  0.375665  0.425121  0.499999  1
  Ni  Ni11  1  0.048151  0.624427  0.499999  1
  Ni  Ni12  1  0.887177  0.791734  0.499999  1
  Ni  Ni13  1  0.574799  0.950990  0.499999  1
  As  As14  1  0.999465  0.998980  0.000000  1
  As  As15  1  0.710813  0.115707  0.000000  1
  As  As16  1  0.404987  0.289371  0.000000  1
  As  As17  1  0.883312  0.595607  0.000000  1
  As  As18  1  0.108303  0.406101  0.499999  1
  As  As19  1  0.595658  0.702536  0.499999  1
  As  As20  1  0.297938  0.891783  0.499999  1
