# generated using pymatgen
data_Ho5Lu6Th5(MgRu)4
_symmetry_space_group_name_H-M   'P 1'
_cell_length_a   9.67348768
_cell_length_b   9.69732721
_cell_length_c   9.69732791
_cell_angle_alpha   59.86074564
_cell_angle_beta   60.08128988
_cell_angle_gamma   60.08129191
_symmetry_Int_Tables_number   1
_chemical_formula_structural   Ho5Lu6Th5(MgRu)4
_chemical_formula_sum   'Ho5 Lu6 Th5 Mg4 Ru4'
_cell_volume   643.34582665
_cell_formula_units_Z   1
loop_
 _symmetry_equiv_pos_site_id
 _symmetry_equiv_pos_as_xyz
  1  'x, y, z'
loop_
 _atom_site_type_symbol
 _atom_site_label
 _atom_site_symmetry_multiplicity
 _atom_site_fract_x
 _atom_site_fract_y
 _atom_site_fract_z
 _atom_site_occupancy
  Ho  Ho0  1  0.564610  0.935390  0.935390  1
  Ho  Ho1  1  0.562884  0.934655  0.565282  1
  Ho  Ho2  1  0.937179  0.565282  0.934655  1
  Ho  Ho3  1  0.562884  0.565282  0.934655  1
  Ho  Ho4  1  0.937179  0.934655  0.565282  1
  Lu  Lu5  1  0.184871  0.815129  0.815129  1
  Lu  Lu6  1  0.190157  0.810565  0.183885  1
  Lu  Lu7  1  0.815392  0.183885  0.810565  1
  Lu  Lu8  1  0.190157  0.183885  0.810565  1
  Lu  Lu9  1  0.815392  0.810565  0.183885  1
  Lu  Lu10  1  0.933563  0.566437  0.566437  1
  Th  Th11  1  0.342223  0.349764  0.349764  1
  Th  Th12  1  0.346965  0.348355  0.957714  1
  Th  Th13  1  0.346965  0.957714  0.348355  1
  Th  Th14  1  0.958248  0.349764  0.349764  1
  Th  Th15  1  0.817059  0.182941  0.182941  1
  Mg  Mg16  1  0.582062  0.579807  0.579807  1
  Mg  Mg17  1  0.579514  0.582674  0.258298  1
  Mg  Mg18  1  0.579514  0.258298  0.582674  1
  Mg  Mg19  1  0.258326  0.579807  0.579807  1
  Ru  Ru20  1  0.130403  0.145758  0.145758  1
  Ru  Ru21  1  0.143185  0.142867  0.570762  1
  Ru  Ru22  1  0.143185  0.570762  0.142867  1
  Ru  Ru23  1  0.578081  0.145758  0.145758  1
