# generated using pymatgen
data_LaPr(Zn2Si)3
_symmetry_space_group_name_H-M   'P 1'
_cell_length_a   7.60294200
_cell_length_b   7.60294207
_cell_length_c   4.10562100
_cell_angle_alpha   90.00000000
_cell_angle_beta   90.00000000
_cell_angle_gamma   119.99999968
_symmetry_Int_Tables_number   1
_chemical_formula_structural   LaPr(Zn2Si)3
_chemical_formula_sum   'La1 Pr1 Zn6 Si3'
_cell_volume   205.52887650
_cell_formula_units_Z   1
loop_
 _symmetry_equiv_pos_site_id
 _symmetry_equiv_pos_as_xyz
  1  'x, y, z'
loop_
 _atom_site_type_symbol
 _atom_site_label
 _atom_site_symmetry_multiplicity
 _atom_site_fract_x
 _atom_site_fract_y
 _atom_site_fract_z
 _atom_site_occupancy
  La  La0  1  0.666667  0.333334  0.000000  1
  Pr  Pr1  1  0.333333  0.666666  0.000000  1
  Zn  Zn2  1  0.808344  0.999427  0.000000  1
  Zn  Zn3  1  0.191084  0.191657  0.000000  1
  Zn  Zn4  1  0.000573  0.808916  0.000000  1
  Zn  Zn5  1  0.296575  0.999726  0.500000  1
  Zn  Zn6  1  0.000274  0.296850  0.500000  1
  Zn  Zn7  1  0.703151  0.703424  0.500000  1
  Si  Si8  1  0.625768  0.999756  0.500000  1
  Si  Si9  1  0.373988  0.374233  0.500000  1
  Si  Si10  1  0.000244  0.626011  0.500000  1
