# generated using pymatgen
data_Nd16Tm4Ir7Pt5
_symmetry_space_group_name_H-M   'P 1'
_cell_length_a   11.30669019
_cell_length_b   11.30669019
_cell_length_c   6.47792665
_cell_angle_alpha   90.03639641
_cell_angle_beta   90.03639641
_cell_angle_gamma   89.88576431
_symmetry_Int_Tables_number   1
_chemical_formula_structural   Nd16Tm4Ir7Pt5
_chemical_formula_sum   'Nd16 Tm4 Ir7 Pt5'
_cell_volume   828.14421580
_cell_formula_units_Z   1
loop_
 _symmetry_equiv_pos_site_id
 _symmetry_equiv_pos_as_xyz
  1  'x, y, z'
loop_
 _atom_site_type_symbol
 _atom_site_label
 _atom_site_symmetry_multiplicity
 _atom_site_fract_x
 _atom_site_fract_y
 _atom_site_fract_z
 _atom_site_occupancy
  Nd  Nd0  1  0.292221  0.089332  0.377500  1
  Nd  Nd1  1  0.292597  0.910220  0.876975  1
  Nd  Nd2  1  0.707895  0.086392  0.877359  1
  Nd  Nd3  1  0.707685  0.910282  0.377195  1
  Nd  Nd4  1  0.585393  0.787212  0.881849  1
  Nd  Nd5  1  0.583972  0.210110  0.377613  1
  Nd  Nd6  1  0.414430  0.788171  0.381776  1
  Nd  Nd7  1  0.411732  0.210853  0.882938  1
  Nd  Nd8  1  0.212788  0.414607  0.618151  1
  Nd  Nd9  1  0.211829  0.585570  0.118224  1
  Nd  Nd10  1  0.789890  0.416028  0.122387  1
  Nd  Nd11  1  0.789147  0.588268  0.617062  1
  Nd  Nd12  1  0.910668  0.707779  0.122500  1
  Nd  Nd13  1  0.913608  0.292105  0.622641  1
  Nd  Nd14  1  0.089780  0.707403  0.623025  1
  Nd  Nd15  1  0.089718  0.292315  0.122805  1
  Tm  Tm16  1  0.999978  0.999876  0.499834  1
  Tm  Tm17  1  0.000124  0.000022  0.000166  1
  Tm  Tm18  1  0.498441  0.501275  0.001214  1
  Tm  Tm19  1  0.498725  0.501559  0.498786  1
  Ir  Ir20  1  0.647999  0.647158  0.250050  1
  Ir  Ir21  1  0.352842  0.352001  0.249950  1
  Ir  Ir22  1  0.351976  0.648024  0.750000  1
  Ir  Ir23  1  0.500342  0.000306  0.119583  1
  Ir  Ir24  1  0.500170  0.000852  0.620354  1
  Ir  Ir25  1  0.999148  0.499830  0.879646  1
  Ir  Ir26  1  0.999694  0.499658  0.380417  1
  Pt  Pt27  1  0.853541  0.146459  0.250000  1
  Pt  Pt28  1  0.853920  0.854190  0.749899  1
  Pt  Pt29  1  0.145810  0.146080  0.750101  1
  Pt  Pt30  1  0.146089  0.853911  0.250000  1
  Pt  Pt31  1  0.647850  0.352150  0.750000  1
