# generated using pymatgen
data_Pr3Dy3Al24Os5Pt3
_symmetry_space_group_name_H-M   'P 1'
_cell_length_a   8.87621505
_cell_length_b   8.88271727
_cell_length_c   9.64551197
_cell_angle_alpha   90.03576697
_cell_angle_beta   89.86984796
_cell_angle_gamma   119.58028126
_symmetry_Int_Tables_number   1
_chemical_formula_structural   Pr3Dy3Al24Os5Pt3
_chemical_formula_sum   'Pr3 Dy3 Al24 Os5 Pt3'
_cell_volume   661.37789432
_cell_formula_units_Z   1
loop_
 _symmetry_equiv_pos_site_id
 _symmetry_equiv_pos_as_xyz
  1  'x, y, z'
loop_
 _atom_site_type_symbol
 _atom_site_label
 _atom_site_symmetry_multiplicity
 _atom_site_fract_x
 _atom_site_fract_y
 _atom_site_fract_z
 _atom_site_occupancy
  Pr  Pr0  1  0.187245  0.378805  0.249553  1
  Pr  Pr1  1  0.812544  0.622234  0.750515  1
  Pr  Pr2  1  0.617925  0.813123  0.251563  1
  Dy  Dy3  1  0.388049  0.186446  0.747986  1
  Dy  Dy4  1  0.195416  0.808484  0.250914  1
  Dy  Dy5  1  0.803312  0.191080  0.748987  1
  Al  Al6  1  0.334194  0.671711  0.025689  1
  Al  Al7  1  0.663971  0.328202  0.969937  1
  Al  Al8  1  0.669332  0.331189  0.528520  1
  Al  Al9  1  0.329551  0.669054  0.475296  1
  Al  Al10  1  0.157531  0.324977  0.575417  1
  Al  Al11  1  0.843354  0.673825  0.426512  1
  Al  Al12  1  0.673064  0.842421  0.575918  1
  Al  Al13  1  0.837904  0.675028  0.076768  1
  Al  Al14  1  0.326479  0.157859  0.427549  1
  Al  Al15  1  0.162988  0.323308  0.921296  1
  Al  Al16  1  0.165106  0.836076  0.574836  1
  Al  Al17  1  0.326086  0.157456  0.073177  1
  Al  Al18  1  0.835059  0.165775  0.427415  1
  Al  Al19  1  0.673678  0.842886  0.923422  1
  Al  Al20  1  0.830860  0.160059  0.074557  1
  Al  Al21  1  0.169435  0.842283  0.923010  1
  Al  Al22  1  0.559871  0.125397  0.249809  1
  Al  Al23  1  0.438793  0.875449  0.750266  1
  Al  Al24  1  0.872913  0.437494  0.253287  1
  Al  Al25  1  0.126402  0.561955  0.747293  1
  Al  Al26  1  0.563723  0.433990  0.249767  1
  Al  Al27  1  0.435152  0.562531  0.750299  1
  Al  Al28  1  0.001190  0.000016  0.250169  1
  Al  Al29  1  0.005216  0.003764  0.749805  1
  Os  Os30  1  0.499285  0.001037  0.998347  1
  Os  Os31  1  0.499141  0.001148  0.501842  1
  Os  Os32  1  0.999526  0.499642  0.500545  1
  Os  Os33  1  0.999838  0.999918  0.999720  1
  Os  Os34  1  0.999803  0.999912  0.500288  1
  Pt  Pt35  1  0.998853  0.499457  0.999554  1
  Pt  Pt36  1  0.498725  0.498130  0.998542  1
  Pt  Pt37  1  0.498486  0.497880  0.501630  1
