# generated using pymatgen
data_La2CuSi4(PPd10)2
_symmetry_space_group_name_H-M   'P 1'
_cell_length_a   8.70413568
_cell_length_b   8.70413575
_cell_length_c   8.70282800
_cell_angle_alpha   60.00496994
_cell_angle_beta   60.00496967
_cell_angle_gamma   59.99005810
_symmetry_Int_Tables_number   1
_chemical_formula_structural   La2CuSi4(PPd10)2
_chemical_formula_sum   'La2 Cu1 Si4 P2 Pd20'
_cell_volume   466.22620864
_cell_formula_units_Z   1
loop_
 _symmetry_equiv_pos_site_id
 _symmetry_equiv_pos_as_xyz
  1  'x, y, z'
loop_
 _atom_site_type_symbol
 _atom_site_label
 _atom_site_symmetry_multiplicity
 _atom_site_fract_x
 _atom_site_fract_y
 _atom_site_fract_z
 _atom_site_occupancy
  La  La0  1  0.250000  0.250000  0.250000  1
  La  La1  1  0.750000  0.750000  0.750000  1
  Cu  Cu2  1  0.000000  0.000000  0.000000  1
  Si  Si3  1  0.736820  0.263180  0.263180  1
  Si  Si4  1  0.263180  0.736820  0.736820  1
  Si  Si5  1  0.263180  0.736820  0.263180  1
  Si  Si6  1  0.736820  0.263180  0.736820  1
  P  P7  1  0.264169  0.264169  0.735831  1
  P  P8  1  0.735831  0.735831  0.264169  1
  Pd  Pd9  1  0.385363  0.385363  0.386984  1
  Pd  Pd10  1  0.614637  0.614637  0.613016  1
  Pd  Pd11  1  0.385363  0.385363  0.842287  1
  Pd  Pd12  1  0.386984  0.842287  0.385363  1
  Pd  Pd13  1  0.614637  0.614637  0.157713  1
  Pd  Pd14  1  0.613016  0.157713  0.614637  1
  Pd  Pd15  1  0.842287  0.386984  0.385363  1
  Pd  Pd16  1  0.157713  0.613016  0.614637  1
  Pd  Pd17  1  0.342701  0.002138  0.997862  1
  Pd  Pd18  1  0.657299  0.997862  0.002138  1
  Pd  Pd19  1  0.002138  0.342701  0.657299  1
  Pd  Pd20  1  0.997862  0.657299  0.342701  1
  Pd  Pd21  1  0.002138  0.342701  0.997862  1
  Pd  Pd22  1  0.657299  0.997862  0.342701  1
  Pd  Pd23  1  0.997862  0.657299  0.002138  1
  Pd  Pd24  1  0.342701  0.002138  0.657299  1
  Pd  Pd25  1  0.000000  0.000000  0.344315  1
  Pd  Pd26  1  0.000000  0.000000  0.655685  1
  Pd  Pd27  1  0.655685  0.344315  0.000000  1
  Pd  Pd28  1  0.344315  0.655685  0.000000  1
