# generated using pymatgen
data_Tb16Cd4OsPdPt2
_symmetry_space_group_name_H-M   'P 1'
_cell_length_a   9.76518240
_cell_length_b   9.76518237
_cell_length_c   9.75337886
_cell_angle_alpha   59.52349412
_cell_angle_beta   59.52349310
_cell_angle_gamma   59.56513936
_symmetry_Int_Tables_number   1
_chemical_formula_structural   Tb16Cd4OsPdPt2
_chemical_formula_sum   'Tb16 Cd4 Os1 Pd1 Pt2'
_cell_volume   650.74096621
_cell_formula_units_Z   1
loop_
 _symmetry_equiv_pos_site_id
 _symmetry_equiv_pos_as_xyz
  1  'x, y, z'
loop_
 _atom_site_type_symbol
 _atom_site_label
 _atom_site_symmetry_multiplicity
 _atom_site_fract_x
 _atom_site_fract_y
 _atom_site_fract_z
 _atom_site_occupancy
  Tb  Tb0  1  0.352660  0.352660  0.350914  1
  Tb  Tb1  1  0.349448  0.349448  0.949627  1
  Tb  Tb2  1  0.350319  0.948371  0.348742  1
  Tb  Tb3  1  0.948371  0.350319  0.348742  1
  Tb  Tb4  1  0.814408  0.189224  0.188910  1
  Tb  Tb5  1  0.188221  0.808362  0.810588  1
  Tb  Tb6  1  0.189224  0.814408  0.188910  1
  Tb  Tb7  1  0.808362  0.188221  0.810588  1
  Tb  Tb8  1  0.188979  0.188979  0.815727  1
  Tb  Tb9  1  0.809470  0.809470  0.188050  1
  Tb  Tb10  1  0.935080  0.566620  0.565066  1
  Tb  Tb11  1  0.558536  0.937412  0.937155  1
  Tb  Tb12  1  0.566620  0.935080  0.565066  1
  Tb  Tb13  1  0.937412  0.558536  0.937155  1
  Tb  Tb14  1  0.565406  0.565406  0.934949  1
  Tb  Tb15  1  0.936997  0.936997  0.558360  1
  Cd  Cd16  1  0.580313  0.580313  0.580307  1
  Cd  Cd17  1  0.581040  0.581040  0.254527  1
  Cd  Cd18  1  0.580955  0.254574  0.581113  1
  Cd  Cd19  1  0.254574  0.580955  0.581113  1
  Os  Os20  1  0.143491  0.143491  0.143446  1
  Pd  Pd21  1  0.144048  0.144048  0.571939  1
  Pt  Pt22  1  0.143839  0.572232  0.144505  1
  Pt  Pt23  1  0.572232  0.143839  0.144505  1
