# generated using pymatgen
data_Ba2TbAlSe5
_symmetry_space_group_name_H-M   'P 1'
_cell_length_a   7.40464290
_cell_length_b   8.80854791
_cell_length_c   9.55191857
_cell_angle_alpha   103.56357185
_cell_angle_beta   102.94299932
_cell_angle_gamma   107.46616377
_symmetry_Int_Tables_number   1
_chemical_formula_structural   Ba2TbAlSe5
_chemical_formula_sum   'Ba4 Tb2 Al2 Se10'
_cell_volume   547.83345490
_cell_formula_units_Z   2
loop_
 _symmetry_equiv_pos_site_id
 _symmetry_equiv_pos_as_xyz
  1  'x, y, z'
loop_
 _atom_site_type_symbol
 _atom_site_label
 _atom_site_symmetry_multiplicity
 _atom_site_fract_x
 _atom_site_fract_y
 _atom_site_fract_z
 _atom_site_occupancy
  Ba  Ba0  1  0.633175  0.977529  0.290061  1
  Ba  Ba1  1  0.366825  0.022471  0.709939  1
  Ba  Ba2  1  0.341463  0.510146  0.706261  1
  Ba  Ba3  1  0.658537  0.489854  0.293739  1
  Tb  Tb4  1  0.997988  0.729440  0.998399  1
  Tb  Tb5  1  0.002012  0.270560  0.001601  1
  Al  Al6  1  0.806419  0.872663  0.690482  1
  Al  Al7  1  0.193581  0.127337  0.309518  1
  Se  Se8  1  0.987730  0.686927  0.686063  1
  Se  Se9  1  0.012270  0.313073  0.313937  1
  Se  Se10  1  0.983736  0.149873  0.689121  1
  Se  Se11  1  0.016264  0.850127  0.310879  1
  Se  Se12  1  0.713145  0.907872  0.923806  1
  Se  Se13  1  0.286855  0.092128  0.076194  1
  Se  Se14  1  0.706747  0.411509  0.946309  1
  Se  Se15  1  0.293253  0.588491  0.053691  1
  Se  Se16  1  0.494969  0.743657  0.495148  1
  Se  Se17  1  0.505031  0.256343  0.504852  1
