# generated using pymatgen
data_Y3Ho5MgCdPt2
_symmetry_space_group_name_H-M   'P 1'
_cell_length_a   9.70378604
_cell_length_b   9.70378656
_cell_length_c   9.72044300
_cell_angle_alpha   59.94321300
_cell_angle_beta   59.94321120
_cell_angle_gamma   59.83198314
_symmetry_Int_Tables_number   1
_chemical_formula_structural   Y3Ho5MgCdPt2
_chemical_formula_sum   'Y6 Ho10 Mg2 Cd2 Pt4'
_cell_volume   645.84253789
_cell_formula_units_Z   2
loop_
 _symmetry_equiv_pos_site_id
 _symmetry_equiv_pos_as_xyz
  1  'x, y, z'
loop_
 _atom_site_type_symbol
 _atom_site_label
 _atom_site_symmetry_multiplicity
 _atom_site_fract_x
 _atom_site_fract_y
 _atom_site_fract_z
 _atom_site_occupancy
  Y  Y0  1  0.938064  0.563763  0.564280  1
  Y  Y1  1  0.563763  0.938064  0.933894  1
  Y  Y2  1  0.563763  0.938064  0.564280  1
  Y  Y3  1  0.938064  0.563763  0.933894  1
  Y  Y4  1  0.565903  0.565903  0.934097  1
  Y  Y5  1  0.936990  0.936990  0.563010  1
  Ho  Ho6  1  0.350922  0.350922  0.349662  1
  Ho  Ho7  1  0.350922  0.350922  0.948496  1
  Ho  Ho8  1  0.351825  0.946649  0.350763  1
  Ho  Ho9  1  0.946649  0.351825  0.350763  1
  Ho  Ho10  1  0.811432  0.188672  0.189072  1
  Ho  Ho11  1  0.188672  0.811432  0.810824  1
  Ho  Ho12  1  0.188672  0.811432  0.189072  1
  Ho  Ho13  1  0.811432  0.188672  0.810824  1
  Ho  Ho14  1  0.190869  0.190869  0.809131  1
  Ho  Ho15  1  0.813103  0.813103  0.186897  1
  Mg  Mg16  1  0.576723  0.576723  0.580802  1
  Mg  Mg17  1  0.576723  0.576723  0.265752  1
  Cd  Cd18  1  0.581573  0.254635  0.581896  1
  Cd  Cd19  1  0.254635  0.581573  0.581896  1
  Pt  Pt20  1  0.143033  0.143033  0.143684  1
  Pt  Pt21  1  0.143033  0.143033  0.570251  1
  Pt  Pt22  1  0.142320  0.570918  0.143382  1
  Pt  Pt23  1  0.570918  0.142320  0.143382  1
