# generated using pymatgen
data_DyHoEr(Co3P2)3
_symmetry_space_group_name_H-M   'P 1'
_cell_length_a   3.69098500
_cell_length_b   10.49980800
_cell_length_c   12.15700500
_cell_angle_alpha   90.00000000
_cell_angle_beta   90.00000000
_cell_angle_gamma   90.00000000
_symmetry_Int_Tables_number   1
_chemical_formula_structural   DyHoEr(Co3P2)3
_chemical_formula_sum   'Dy2 Ho2 Er2 Co18 P12'
_cell_volume   471.14027726
_cell_formula_units_Z   2
loop_
 _symmetry_equiv_pos_site_id
 _symmetry_equiv_pos_as_xyz
  1  'x, y, z'
loop_
 _atom_site_type_symbol
 _atom_site_label
 _atom_site_symmetry_multiplicity
 _atom_site_fract_x
 _atom_site_fract_y
 _atom_site_fract_z
 _atom_site_occupancy
  Dy  Dy0  1  0.750000  0.250000  0.477856  1
  Dy  Dy1  1  0.250000  0.750000  0.521857  1
  Ho  Ho2  1  0.250000  0.932443  0.794222  1
  Ho  Ho3  1  0.250000  0.567557  0.794222  1
  Er  Er4  1  0.750000  0.067631  0.205779  1
  Er  Er5  1  0.750000  0.432369  0.205779  1
  Co  Co6  1  0.250000  0.250000  0.841301  1
  Co  Co7  1  0.750000  0.750000  0.158762  1
  Co  Co8  1  0.250000  0.250000  0.296229  1
  Co  Co9  1  0.750000  0.750000  0.703727  1
  Co  Co10  1  0.750000  0.250000  0.014265  1
  Co  Co11  1  0.250000  0.750000  0.986556  1
  Co  Co12  1  0.250000  0.416495  0.005667  1
  Co  Co13  1  0.250000  0.083505  0.005667  1
  Co  Co14  1  0.750000  0.583175  0.994974  1
  Co  Co15  1  0.750000  0.916825  0.994974  1
  Co  Co16  1  0.250000  0.452598  0.569315  1
  Co  Co17  1  0.250000  0.047402  0.569315  1
  Co  Co18  1  0.750000  0.547314  0.430104  1
  Co  Co19  1  0.750000  0.952686  0.430104  1
  Co  Co20  1  0.250000  0.871148  0.289849  1
  Co  Co21  1  0.250000  0.628852  0.289849  1
  Co  Co22  1  0.750000  0.129144  0.709841  1
  Co  Co23  1  0.750000  0.370856  0.709841  1
  P  P24  1  0.250000  0.250000  0.117855  1
  P  P25  1  0.750000  0.750000  0.882826  1
  P  P26  1  0.250000  0.250000  0.656190  1
  P  P27  1  0.750000  0.750000  0.343644  1
  P  P28  1  0.250000  0.439384  0.383371  1
  P  P29  1  0.250000  0.060616  0.383371  1
  P  P30  1  0.750000  0.560510  0.616031  1
  P  P31  1  0.750000  0.939490  0.616031  1
  P  P32  1  0.250000  0.903130  0.107159  1
  P  P33  1  0.250000  0.596870  0.107159  1
  P  P34  1  0.750000  0.097402  0.893153  1
  P  P35  1  0.750000  0.402598  0.893153  1
