# generated using pymatgen
data_Sr2TbY(BO4)2
_symmetry_space_group_name_H-M   'P 1'
_cell_length_a   3.69524800
_cell_length_b   9.77866523
_cell_length_c   10.99427539
_cell_angle_alpha   89.94246136
_cell_angle_beta   90.00000000
_cell_angle_gamma   90.00000000
_symmetry_Int_Tables_number   1
_chemical_formula_structural   Sr2TbY(BO4)2
_chemical_formula_sum   'Sr4 Tb2 Y2 B4 O16'
_cell_volume   397.27346766
_cell_formula_units_Z   2
loop_
 _symmetry_equiv_pos_site_id
 _symmetry_equiv_pos_as_xyz
  1  'x, y, z'
loop_
 _atom_site_type_symbol
 _atom_site_label
 _atom_site_symmetry_multiplicity
 _atom_site_fract_x
 _atom_site_fract_y
 _atom_site_fract_z
 _atom_site_occupancy
  Sr  Sr0  1  0.250000  0.659281  0.083966  1
  Sr  Sr1  1  0.750000  0.340719  0.916034  1
  Sr  Sr2  1  0.750000  0.159549  0.416742  1
  Sr  Sr3  1  0.250000  0.840451  0.583258  1
  Tb  Tb4  1  0.250000  0.082672  0.110665  1
  Tb  Tb5  1  0.750000  0.917328  0.889335  1
  Y  Y6  1  0.750000  0.581441  0.389514  1
  Y  Y7  1  0.250000  0.418559  0.610486  1
  B  B8  1  0.250000  0.363969  0.204523  1
  B  B9  1  0.750000  0.636031  0.795477  1
  B  B10  1  0.750000  0.863572  0.296171  1
  B  B11  1  0.250000  0.136428  0.703829  1
  O  O12  1  0.250000  0.490333  0.262209  1
  O  O13  1  0.750000  0.509667  0.737791  1
  O  O14  1  0.750000  0.989698  0.237601  1
  O  O15  1  0.250000  0.010302  0.762399  1
  O  O16  1  0.250000  0.242043  0.270901  1
  O  O17  1  0.750000  0.757957  0.729099  1
  O  O18  1  0.750000  0.741064  0.230781  1
  O  O19  1  0.250000  0.258936  0.769219  1
  O  O20  1  0.250000  0.357261  0.076983  1
  O  O21  1  0.750000  0.642739  0.923017  1
  O  O22  1  0.750000  0.857648  0.423591  1
  O  O23  1  0.250000  0.142352  0.576409  1
  O  O24  1  0.250000  0.612937  0.500071  1
  O  O25  1  0.750000  0.387063  0.499929  1
  O  O26  1  0.750000  0.113154  0.998908  1
  O  O27  1  0.250000  0.886846  0.001092  1
