# generated using pymatgen
data_Er2Tm3Hf3Pt4
_symmetry_space_group_name_H-M   'P 1'
_cell_length_a   4.68808400
_cell_length_b   6.99727662
_cell_length_c   8.30739119
_cell_angle_alpha   89.61503515
_cell_angle_beta   90.00000000
_cell_angle_gamma   90.00000000
_symmetry_Int_Tables_number   1
_chemical_formula_structural   Er2Tm3Hf3Pt4
_chemical_formula_sum   'Er2 Tm3 Hf3 Pt4'
_cell_volume   272.50801892
_cell_formula_units_Z   1
loop_
 _symmetry_equiv_pos_site_id
 _symmetry_equiv_pos_as_xyz
  1  'x, y, z'
loop_
 _atom_site_type_symbol
 _atom_site_label
 _atom_site_symmetry_multiplicity
 _atom_site_fract_x
 _atom_site_fract_y
 _atom_site_fract_z
 _atom_site_occupancy
  Er  Er0  1  0.250000  0.988470  0.325726  1
  Er  Er1  1  0.250000  0.479638  0.171813  1
  Tm  Tm2  1  0.750000  0.646833  0.419954  1
  Tm  Tm3  1  0.750000  0.019155  0.681003  1
  Tm  Tm4  1  0.750000  0.516700  0.821419  1
  Hf  Hf5  1  0.250000  0.856755  0.924701  1
  Hf  Hf6  1  0.250000  0.354370  0.577857  1
  Hf  Hf7  1  0.750000  0.147181  0.077168  1
  Pt  Pt8  1  0.250000  0.232493  0.902750  1
  Pt  Pt9  1  0.250000  0.736512  0.609014  1
  Pt  Pt10  1  0.750000  0.769380  0.083500  1
  Pt  Pt11  1  0.750000  0.252513  0.405094  1
