# generated using pymatgen
data_ScPaNi2Hg
_symmetry_space_group_name_H-M   'P 1'
_cell_length_a   7.40481800
_cell_length_b   7.22656200
_cell_length_c   3.43649200
_cell_angle_alpha   90.00000000
_cell_angle_beta   90.00000000
_cell_angle_gamma   90.00000000
_symmetry_Int_Tables_number   1
_chemical_formula_structural   ScPaNi2Hg
_chemical_formula_sum   'Sc2 Pa2 Ni4 Hg2'
_cell_volume   183.89141682
_cell_formula_units_Z   2
loop_
 _symmetry_equiv_pos_site_id
 _symmetry_equiv_pos_as_xyz
  1  'x, y, z'
loop_
 _atom_site_type_symbol
 _atom_site_label
 _atom_site_symmetry_multiplicity
 _atom_site_fract_x
 _atom_site_fract_y
 _atom_site_fract_z
 _atom_site_occupancy
  Sc  Sc0  1  0.827513  0.670530  0.500000  1
  Sc  Sc1  1  0.327513  0.829470  0.500000  1
  Pa  Pa2  1  0.672492  0.165360  0.500000  1
  Pa  Pa3  1  0.172492  0.334640  0.500000  1
  Ni  Ni4  1  0.873973  0.362488  0.000000  1
  Ni  Ni5  1  0.373973  0.137512  0.000000  1
  Ni  Ni6  1  0.620389  0.890332  0.000000  1
  Ni  Ni7  1  0.120389  0.609668  0.000000  1
  Hg  Hg8  1  0.005633  0.978604  0.000000  1
  Hg  Hg9  1  0.505633  0.521396  0.000000  1
