# generated using pymatgen
data_ScIn3(SeO4)6
_symmetry_space_group_name_H-M   'P 1'
_cell_length_a   9.02500708
_cell_length_b   9.02547266
_cell_length_c   9.70890400
_cell_angle_alpha   62.30107673
_cell_angle_beta   117.69701896
_cell_angle_gamma   119.99092111
_symmetry_Int_Tables_number   1
_chemical_formula_structural   ScIn3(SeO4)6
_chemical_formula_sum   'Sc1 In3 Se6 O24'
_cell_volume   577.92317122
_cell_formula_units_Z   1
loop_
 _symmetry_equiv_pos_site_id
 _symmetry_equiv_pos_as_xyz
  1  'x, y, z'
loop_
 _atom_site_type_symbol
 _atom_site_label
 _atom_site_symmetry_multiplicity
 _atom_site_fract_x
 _atom_site_fract_y
 _atom_site_fract_z
 _atom_site_occupancy
  Sc  Sc0  1  0.144022  0.855903  0.432248  1
  In  In1  1  0.347704  0.652379  0.043045  1
  In  In2  1  0.854287  0.145735  0.562770  1
  In  In3  1  0.649830  0.350095  0.949575  1
  Se  Se4  1  0.459849  0.961060  0.248137  1
  Se  Se5  1  0.749309  0.540024  0.248175  1
  Se  Se6  1  0.039037  0.250786  0.248188  1
  Se  Se7  1  0.542255  0.036710  0.750830  1
  Se  Se8  1  0.245346  0.457739  0.750818  1
  Se  Se9  1  0.963180  0.754701  0.750803  1
  O  O10  1  0.825951  0.539433  0.795898  1
  O  O11  1  0.509309  0.173973  0.795904  1
  O  O12  1  0.460624  0.490684  0.795804  1
  O  O13  1  0.173388  0.465378  0.195935  1
  O  O14  1  0.487883  0.826697  0.195894  1
  O  O15  1  0.534707  0.512075  0.195942  1
  O  O16  1  0.869630  0.885236  0.731612  1
  O  O17  1  0.747149  0.130246  0.731636  1
  O  O18  1  0.114808  0.252875  0.731634  1
  O  O19  1  0.126486  0.111329  0.275005  1
  O  O20  1  0.888730  0.740090  0.274953  1
  O  O21  1  0.259782  0.873565  0.274966  1
  O  O22  1  0.783878  0.382155  0.427068  1
  O  O23  1  0.617815  0.974687  0.426963  1
  O  O24  1  0.025388  0.216279  0.426998  1
  O  O25  1  0.195991  0.615071  0.576412  1
  O  O26  1  0.384912  0.004463  0.576443  1
  O  O27  1  0.995413  0.804018  0.576401  1
  O  O28  1  0.792055  0.523803  0.105733  1
  O  O29  1  0.475981  0.162427  0.105656  1
  O  O30  1  0.837647  0.207991  0.105742  1
  O  O31  1  0.206209  0.469679  0.897599  1
  O  O32  1  0.530394  0.838843  0.897632  1
  O  O33  1  0.161053  0.793880  0.897581  1
