# generated using pymatgen
data_Ho11Er(LuRh3)2
_symmetry_space_group_name_H-M   'P 1'
_cell_length_a   9.72434704
_cell_length_b   9.72437403
_cell_length_c   6.14014700
_cell_angle_alpha   89.99968884
_cell_angle_beta   90.00036928
_cell_angle_gamma   120.00975028
_symmetry_Int_Tables_number   1
_chemical_formula_structural   Ho11Er(LuRh3)2
_chemical_formula_sum   'Ho11 Er1 Lu2 Rh6'
_cell_volume   502.79254142
_cell_formula_units_Z   1
loop_
 _symmetry_equiv_pos_site_id
 _symmetry_equiv_pos_as_xyz
  1  'x, y, z'
loop_
 _atom_site_type_symbol
 _atom_site_label
 _atom_site_symmetry_multiplicity
 _atom_site_fract_x
 _atom_site_fract_y
 _atom_site_fract_z
 _atom_site_occupancy
  Ho  Ho0  1  0.752770  0.876321  0.254005  1
  Ho  Ho1  1  0.123679  0.247232  0.254006  1
  Ho  Ho2  1  0.876317  0.123684  0.754004  1
  Ho  Ho3  1  0.247304  0.123579  0.754001  1
  Ho  Ho4  1  0.876421  0.752696  0.754002  1
  Ho  Ho5  1  0.540954  0.459045  0.446928  1
  Ho  Ho6  1  0.918114  0.459117  0.447009  1
  Ho  Ho7  1  0.540885  0.081887  0.447009  1
  Ho  Ho8  1  0.459037  0.540963  0.947009  1
  Ho  Ho9  1  0.081907  0.541028  0.947086  1
  Ho  Ho10  1  0.458971  0.918093  0.947086  1
  Er  Er11  1  0.123696  0.876301  0.254146  1
  Lu  Lu12  1  0.333309  0.666692  0.459587  1
  Lu  Lu13  1  0.666665  0.333336  0.959630  1
  Rh  Rh14  1  0.809401  0.190597  0.179726  1
  Rh  Rh15  1  0.381047  0.190417  0.179740  1
  Rh  Rh16  1  0.809581  0.618952  0.179740  1
  Rh  Rh17  1  0.190567  0.809435  0.679436  1
  Rh  Rh18  1  0.618773  0.809398  0.679696  1
  Rh  Rh19  1  0.190603  0.381228  0.679696  1
