# generated using pymatgen
data_Tb2AlRe3
_symmetry_space_group_name_H-M   'P 1'
_cell_length_a   5.49730041
_cell_length_b   5.49730011
_cell_length_c   5.49730160
_cell_angle_alpha   58.49370062
_cell_angle_beta   58.49369756
_cell_angle_gamma   58.49370151
_symmetry_Int_Tables_number   1
_chemical_formula_structural   Tb2AlRe3
_chemical_formula_sum   'Tb2 Al1 Re3'
_cell_volume   113.42378804
_cell_formula_units_Z   1
loop_
 _symmetry_equiv_pos_site_id
 _symmetry_equiv_pos_as_xyz
  1  'x, y, z'
loop_
 _atom_site_type_symbol
 _atom_site_label
 _atom_site_symmetry_multiplicity
 _atom_site_fract_x
 _atom_site_fract_y
 _atom_site_fract_z
 _atom_site_occupancy
  Tb  Tb0  1  0.621814  0.621814  0.621814  1
  Tb  Tb1  1  0.378186  0.378186  0.378186  1
  Al  Al2  1  0.000000  0.000000  0.000000  1
  Re  Re3  1  0.000000  0.500000  0.000000  1
  Re  Re4  1  0.500000  0.000000  0.000000  1
  Re  Re5  1  0.000000  0.000000  0.500000  1
