# generated using pymatgen
data_Ca4As2BrClO8
_symmetry_space_group_name_H-M   'P 1'
_cell_length_a   6.43718300
_cell_length_b   7.21494200
_cell_length_c   11.27389300
_cell_angle_alpha   90.00000000
_cell_angle_beta   90.00000000
_cell_angle_gamma   90.00000000
_symmetry_Int_Tables_number   1
_chemical_formula_structural   Ca4As2BrClO8
_chemical_formula_sum   'Ca8 As4 Br2 Cl2 O16'
_cell_volume   523.60358152
_cell_formula_units_Z   2
loop_
 _symmetry_equiv_pos_site_id
 _symmetry_equiv_pos_as_xyz
  1  'x, y, z'
loop_
 _atom_site_type_symbol
 _atom_site_label
 _atom_site_symmetry_multiplicity
 _atom_site_fract_x
 _atom_site_fract_y
 _atom_site_fract_z
 _atom_site_occupancy
  Ca  Ca0  1  0.862100  0.976632  0.250000  1
  Ca  Ca1  1  0.123849  0.020937  0.750000  1
  Ca  Ca2  1  0.137900  0.476632  0.250000  1
  Ca  Ca3  1  0.876151  0.520937  0.750000  1
  Ca  Ca4  1  0.625167  0.250957  0.494866  1
  Ca  Ca5  1  0.625167  0.250957  0.005134  1
  Ca  Ca6  1  0.374833  0.750957  0.494866  1
  Ca  Ca7  1  0.374833  0.750957  0.005134  1
  As  As8  1  0.129842  0.249459  0.001726  1
  As  As9  1  0.870158  0.749459  0.498274  1
  As  As10  1  0.129842  0.249459  0.498274  1
  As  As11  1  0.870158  0.749459  0.001726  1
  Br  Br12  1  0.514716  0.807587  0.750000  1
  Br  Br13  1  0.485284  0.307587  0.750000  1
  Cl  Cl14  1  0.499980  0.697407  0.250000  1
  Cl  Cl15  1  0.500020  0.197407  0.250000  1
  O  O16  1  0.969830  0.262044  0.621469  1
  O  O17  1  0.291614  0.065072  0.524227  1
  O  O18  1  0.291742  0.433458  0.031197  1
  O  O19  1  0.291742  0.433458  0.468803  1
  O  O20  1  0.708386  0.565072  0.524227  1
  O  O21  1  0.031613  0.737730  0.375821  1
  O  O22  1  0.968387  0.237730  0.124179  1
  O  O23  1  0.030170  0.762044  0.621469  1
  O  O24  1  0.031613  0.737730  0.124179  1
  O  O25  1  0.030170  0.762044  0.878531  1
  O  O26  1  0.968387  0.237730  0.375821  1
  O  O27  1  0.291614  0.065072  0.975773  1
  O  O28  1  0.708258  0.933458  0.468803  1
  O  O29  1  0.708386  0.565072  0.975773  1
  O  O30  1  0.708258  0.933458  0.031197  1
  O  O31  1  0.969830  0.262044  0.878531  1
