# generated using pymatgen
data_KAsPbO5
_symmetry_space_group_name_H-M   'P 1'
_cell_length_a   6.92512000
_cell_length_b   11.12054100
_cell_length_c   13.87581500
_cell_angle_alpha   90.00000000
_cell_angle_beta   90.00000000
_cell_angle_gamma   90.00000000
_symmetry_Int_Tables_number   1
_chemical_formula_structural   KAsPbO5
_chemical_formula_sum   'K8 As8 Pb8 O40'
_cell_volume   1068.59151138
_cell_formula_units_Z   8
loop_
 _symmetry_equiv_pos_site_id
 _symmetry_equiv_pos_as_xyz
  1  'x, y, z'
loop_
 _atom_site_type_symbol
 _atom_site_label
 _atom_site_symmetry_multiplicity
 _atom_site_fract_x
 _atom_site_fract_y
 _atom_site_fract_z
 _atom_site_occupancy
  K  K0  1  0.773581  0.787504  0.376148  1
  K  K1  1  0.273581  0.287504  0.123852  1
  K  K2  1  0.726419  0.787504  0.876148  1
  K  K3  1  0.302839  0.050214  0.889676  1
  K  K4  1  0.802839  0.550214  0.610324  1
  K  K5  1  0.697161  0.550214  0.110324  1
  K  K6  1  0.197161  0.050214  0.389676  1
  K  K7  1  0.226419  0.287504  0.623852  1
  As  As8  1  0.000806  0.988827  0.673923  1
  As  As9  1  0.999194  0.488827  0.326077  1
  As  As10  1  0.499194  0.988827  0.173923  1
  As  As11  1  0.500806  0.488827  0.826077  1
  As  As12  1  0.171835  0.732608  0.002004  1
  As  As13  1  0.828165  0.232608  0.997996  1
  As  As14  1  0.328165  0.732608  0.502004  1
  As  As15  1  0.671835  0.232608  0.497996  1
  Pb  Pb16  1  0.745476  0.236089  0.749852  1
  Pb  Pb17  1  0.254524  0.736089  0.250148  1
  Pb  Pb18  1  0.754524  0.236089  0.249852  1
  Pb  Pb19  1  0.502646  0.983893  0.625398  1
  Pb  Pb20  1  0.497354  0.483893  0.374602  1
  Pb  Pb21  1  0.997354  0.983893  0.125398  1
  Pb  Pb22  1  0.002646  0.483893  0.874602  1
  Pb  Pb23  1  0.245476  0.736089  0.750148  1
  O  O24  1  0.479905  0.876364  0.258012  1
  O  O25  1  0.520095  0.376364  0.741988  1
  O  O26  1  0.020095  0.876364  0.758012  1
  O  O27  1  0.979905  0.376364  0.241988  1
  O  O28  1  0.992009  0.111463  0.750004  1
  O  O29  1  0.007991  0.611463  0.249996  1
  O  O30  1  0.507991  0.111463  0.250004  1
  O  O31  1  0.492009  0.611463  0.749996  1
  O  O32  1  0.035379  0.866514  0.242728  1
  O  O33  1  0.964621  0.366514  0.757272  1
  O  O34  1  0.464621  0.866514  0.742728  1
  O  O35  1  0.535379  0.366514  0.257272  1
  O  O36  1  0.504799  0.126941  0.725802  1
  O  O37  1  0.495201  0.626941  0.274198  1
  O  O38  1  0.995201  0.126941  0.225802  1
  O  O39  1  0.828239  0.212333  0.403793  1
  O  O40  1  0.004799  0.626941  0.774198  1
  O  O41  1  0.312675  0.463561  0.903921  1
  O  O42  1  0.812675  0.963561  0.596079  1
  O  O43  1  0.187325  0.463561  0.403921  1
  O  O44  1  0.187827  0.011115  0.594573  1
  O  O45  1  0.812173  0.511115  0.405427  1
  O  O46  1  0.312173  0.011115  0.094573  1
  O  O47  1  0.687827  0.511115  0.905427  1
  O  O48  1  0.506868  0.116932  0.505329  1
  O  O49  1  0.493132  0.616932  0.494671  1
  O  O50  1  0.993132  0.116932  0.005329  1
  O  O51  1  0.006868  0.616932  0.994671  1
  O  O52  1  0.020443  0.856501  0.005747  1
  O  O53  1  0.979557  0.356501  0.994253  1
  O  O54  1  0.479557  0.856501  0.505747  1
  O  O55  1  0.520443  0.356501  0.494253  1
  O  O56  1  0.825172  0.252840  0.593240  1
  O  O57  1  0.174828  0.752840  0.406760  1
  O  O58  1  0.674828  0.252840  0.093240  1
  O  O59  1  0.325172  0.752840  0.906760  1
  O  O60  1  0.328239  0.712333  0.096207  1
  O  O61  1  0.671761  0.212333  0.903793  1
  O  O62  1  0.171761  0.712333  0.596207  1
  O  O63  1  0.687325  0.963561  0.096079  1
