# generated using pymatgen
data_NdY19Pb16
_symmetry_space_group_name_H-M   'P 1'
_cell_length_a   8.24023522
_cell_length_b   8.30474144
_cell_length_c   15.70546400
_cell_angle_alpha   90.01250129
_cell_angle_beta   89.73789228
_cell_angle_gamma   89.92982441
_symmetry_Int_Tables_number   1
_chemical_formula_structural   NdY19Pb16
_chemical_formula_sum   'Nd1 Y19 Pb16'
_cell_volume   1074.76029858
_cell_formula_units_Z   1
loop_
 _symmetry_equiv_pos_site_id
 _symmetry_equiv_pos_as_xyz
  1  'x, y, z'
loop_
 _atom_site_type_symbol
 _atom_site_label
 _atom_site_symmetry_multiplicity
 _atom_site_fract_x
 _atom_site_fract_y
 _atom_site_fract_z
 _atom_site_occupancy
  Nd  Nd0  1  0.967584  0.823118  0.598063  1
  Y  Y1  1  0.624125  0.158591  0.621373  1
  Y  Y2  1  0.122038  0.341448  0.879918  1
  Y  Y3  1  0.378298  0.842519  0.121132  1
  Y  Y4  1  0.875386  0.657997  0.378059  1
  Y  Y5  1  0.375563  0.841798  0.378572  1
  Y  Y6  1  0.877849  0.658205  0.121134  1
  Y  Y7  1  0.621761  0.158157  0.879324  1
  Y  Y8  1  0.123349  0.341435  0.621351  1
  Y  Y9  1  0.464520  0.674857  0.599506  1
  Y  Y10  1  0.962654  0.824344  0.899442  1
  Y  Y11  1  0.536755  0.324726  0.100448  1
  Y  Y12  1  0.035169  0.176187  0.400144  1
  Y  Y13  1  0.534902  0.323916  0.400397  1
  Y  Y14  1  0.037103  0.175263  0.100314  1
  Y  Y15  1  0.463422  0.675329  0.900485  1
  Y  Y16  1  0.790197  0.495760  0.750584  1
  Y  Y17  1  0.290667  0.004637  0.750807  1
  Y  Y18  1  0.209360  0.504102  0.249867  1
  Y  Y19  1  0.709358  0.995795  0.249298  1
  Pb  Pb20  1  0.715432  0.967725  0.455577  1
  Pb  Pb21  1  0.219348  0.534022  0.043036  1
  Pb  Pb22  1  0.280245  0.032370  0.957640  1
  Pb  Pb23  1  0.781109  0.464222  0.542091  1
  Pb  Pb24  1  0.286314  0.037278  0.541936  1
  Pb  Pb25  1  0.780385  0.466562  0.957851  1
  Pb  Pb26  1  0.719709  0.966574  0.042406  1
  Pb  Pb27  1  0.217093  0.534094  0.457281  1
  Pb  Pb28  1  0.426940  0.374441  0.750345  1
  Pb  Pb29  1  0.927081  0.126505  0.750348  1
  Pb  Pb30  1  0.572479  0.625457  0.249806  1
  Pb  Pb31  1  0.072571  0.874582  0.249837  1
  Pb  Pb32  1  0.650383  0.846352  0.750096  1
  Pb  Pb33  1  0.153710  0.651789  0.751227  1
  Pb  Pb34  1  0.348586  0.154056  0.250277  1
  Pb  Pb35  1  0.848558  0.345786  0.250027  1
