# generated using pymatgen
data_Y6Lu9Th(CdNi)4
_symmetry_space_group_name_H-M   'P 1'
_cell_length_a   9.45298363
_cell_length_b   9.45298240
_cell_length_c   9.45298250
_cell_angle_alpha   60.10506023
_cell_angle_beta   60.10505499
_cell_angle_gamma   60.10506522
_symmetry_Int_Tables_number   1
_chemical_formula_structural   Y6Lu9Th(CdNi)4
_chemical_formula_sum   'Y6 Lu9 Th1 Cd4 Ni4'
_cell_volume   598.72056324
_cell_formula_units_Z   1
loop_
 _symmetry_equiv_pos_site_id
 _symmetry_equiv_pos_as_xyz
  1  'x, y, z'
loop_
 _atom_site_type_symbol
 _atom_site_label
 _atom_site_symmetry_multiplicity
 _atom_site_fract_x
 _atom_site_fract_y
 _atom_site_fract_z
 _atom_site_occupancy
  Y  Y0  1  0.187490  0.813129  0.813129  1
  Y  Y1  1  0.811532  0.188128  0.188128  1
  Y  Y2  1  0.813129  0.187490  0.813129  1
  Y  Y3  1  0.188128  0.811532  0.188128  1
  Y  Y4  1  0.813129  0.813129  0.187490  1
  Y  Y5  1  0.188128  0.188128  0.811532  1
  Lu  Lu6  1  0.598323  0.598323  0.201812  1
  Lu  Lu7  1  0.598323  0.201812  0.598323  1
  Lu  Lu8  1  0.201812  0.598323  0.598323  1
  Lu  Lu9  1  0.066056  0.435824  0.435824  1
  Lu  Lu10  1  0.436906  0.064309  0.064309  1
  Lu  Lu11  1  0.435824  0.066056  0.435824  1
  Lu  Lu12  1  0.064309  0.436906  0.064309  1
  Lu  Lu13  1  0.435824  0.435824  0.066056  1
  Lu  Lu14  1  0.064309  0.064309  0.436906  1
  Th  Th15  1  0.595536  0.595536  0.595536  1
  Cd  Cd16  1  0.830714  0.830714  0.830714  1
  Cd  Cd17  1  0.831803  0.831803  0.507387  1
  Cd  Cd18  1  0.831803  0.507387  0.831803  1
  Cd  Cd19  1  0.507387  0.831803  0.831803  1
  Ni  Ni20  1  0.393105  0.393105  0.393105  1
  Ni  Ni21  1  0.391361  0.391361  0.823707  1
  Ni  Ni22  1  0.391361  0.823707  0.391361  1
  Ni  Ni23  1  0.823707  0.391361  0.391361  1
