# generated using pymatgen
data_Ho8B24Mo2IrRu
_symmetry_space_group_name_H-M   'P 1'
_cell_length_a   3.65431700
_cell_length_b   9.18421427
_cell_length_c   11.56748609
_cell_angle_alpha   90.03299702
_cell_angle_beta   90.00000000
_cell_angle_gamma   90.00000000
_symmetry_Int_Tables_number   1
_chemical_formula_structural   Ho8B24Mo2IrRu
_chemical_formula_sum   'Ho8 B24 Mo2 Ir1 Ru1'
_cell_volume   388.22825472
_cell_formula_units_Z   1
loop_
 _symmetry_equiv_pos_site_id
 _symmetry_equiv_pos_as_xyz
  1  'x, y, z'
loop_
 _atom_site_type_symbol
 _atom_site_label
 _atom_site_symmetry_multiplicity
 _atom_site_fract_x
 _atom_site_fract_y
 _atom_site_fract_z
 _atom_site_occupancy
  Ho  Ho0  1  0.000000  0.317713  0.414988  1
  Ho  Ho1  1  0.000000  0.678000  0.589078  1
  Ho  Ho2  1  0.000000  0.824786  0.083380  1
  Ho  Ho3  1  0.000000  0.179006  0.913450  1
  Ho  Ho4  1  0.000000  0.942970  0.372162  1
  Ho  Ho5  1  0.000000  0.054750  0.629263  1
  Ho  Ho6  1  0.000000  0.443087  0.127741  1
  Ho  Ho7  1  0.000000  0.558838  0.872171  1
  B  B8  1  0.500000  0.553406  0.432977  1
  B  B9  1  0.500000  0.448472  0.564322  1
  B  B10  1  0.500000  0.051561  0.064250  1
  B  B11  1  0.500000  0.946726  0.931560  1
  B  B12  1  0.500000  0.748111  0.420142  1
  B  B13  1  0.500000  0.248657  0.579211  1
  B  B14  1  0.500000  0.251016  0.079065  1
  B  B15  1  0.500000  0.753166  0.918808  1
  B  B16  1  0.500000  0.791102  0.265552  1
  B  B17  1  0.500000  0.206575  0.735869  1
  B  B18  1  0.500000  0.293654  0.236106  1
  B  B19  1  0.500000  0.709459  0.766196  1
  B  B20  1  0.500000  0.632245  0.184428  1
  B  B21  1  0.500000  0.369778  0.816132  1
  B  B22  1  0.500000  0.130412  0.316506  1
  B  B23  1  0.500000  0.867974  0.685956  1
  B  B24  1  0.500000  0.978370  0.212188  1
  B  B25  1  0.500000  0.016253  0.787242  1
  B  B26  1  0.500000  0.483061  0.287184  1
  B  B27  1  0.500000  0.521973  0.712456  1
  B  B28  1  0.500000  0.606771  0.029727  1
  B  B29  1  0.500000  0.398022  0.971476  1
  B  B30  1  0.500000  0.101510  0.471614  1
  B  B31  1  0.500000  0.893102  0.529407  1
  Mo  Mo32  1  0.000000  0.362922  0.678414  1
  Mo  Mo33  1  0.000000  0.137514  0.179129  1
  Ir  Ir34  1  0.000000  0.637885  0.321223  1
  Ru  Ru35  1  0.000000  0.861154  0.820623  1
