# generated using pymatgen
data_PrEr2(Si3Pd10)2
_symmetry_space_group_name_H-M   'P 1'
_cell_length_a   8.74181487
_cell_length_b   8.74181371
_cell_length_c   8.74181400
_cell_angle_alpha   59.99999889
_cell_angle_beta   60.00000328
_cell_angle_gamma   60.00000216
_symmetry_Int_Tables_number   1
_chemical_formula_structural   PrEr2(Si3Pd10)2
_chemical_formula_sum   'Pr1 Er2 Si6 Pd20'
_cell_volume   472.37807290
_cell_formula_units_Z   1
loop_
 _symmetry_equiv_pos_site_id
 _symmetry_equiv_pos_as_xyz
  1  'x, y, z'
loop_
 _atom_site_type_symbol
 _atom_site_label
 _atom_site_symmetry_multiplicity
 _atom_site_fract_x
 _atom_site_fract_y
 _atom_site_fract_z
 _atom_site_occupancy
  Pr  Pr0  1  0.750000  0.750000  0.750000  1
  Er  Er1  1  0.250000  0.250000  0.250000  1
  Er  Er2  1  0.000000  0.000000  0.000000  1
  Si  Si3  1  0.733343  0.266657  0.266657  1
  Si  Si4  1  0.266657  0.733343  0.733343  1
  Si  Si5  1  0.266657  0.733343  0.266657  1
  Si  Si6  1  0.733343  0.266657  0.733343  1
  Si  Si7  1  0.266657  0.266657  0.733343  1
  Si  Si8  1  0.733343  0.733343  0.266657  1
  Pd  Pd9  1  0.382408  0.382408  0.382408  1
  Pd  Pd10  1  0.612850  0.612850  0.612850  1
  Pd  Pd11  1  0.382408  0.382408  0.852776  1
  Pd  Pd12  1  0.382408  0.852776  0.382408  1
  Pd  Pd13  1  0.612850  0.612850  0.161449  1
  Pd  Pd14  1  0.612850  0.161449  0.612850  1
  Pd  Pd15  1  0.852776  0.382408  0.382408  1
  Pd  Pd16  1  0.161449  0.612850  0.612850  1
  Pd  Pd17  1  0.343892  0.001535  0.001535  1
  Pd  Pd18  1  0.653039  0.001535  0.001535  1
  Pd  Pd19  1  0.001535  0.343892  0.653039  1
  Pd  Pd20  1  0.001535  0.653039  0.343892  1
  Pd  Pd21  1  0.001535  0.343892  0.001535  1
  Pd  Pd22  1  0.653039  0.001535  0.343892  1
  Pd  Pd23  1  0.001535  0.653039  0.001535  1
  Pd  Pd24  1  0.343892  0.001535  0.653039  1
  Pd  Pd25  1  0.001535  0.001535  0.343892  1
  Pd  Pd26  1  0.001535  0.001535  0.653039  1
  Pd  Pd27  1  0.653039  0.343892  0.001535  1
  Pd  Pd28  1  0.343892  0.653039  0.001535  1
