# generated using pymatgen
data_Ta4SiB4Ru10W
_symmetry_space_group_name_H-M   'P 1'
_cell_length_a   2.95859000
_cell_length_b   9.39341600
_cell_length_c   9.39341600
_cell_angle_alpha   90.00000000
_cell_angle_beta   90.00000000
_cell_angle_gamma   90.00000000
_symmetry_Int_Tables_number   1
_chemical_formula_structural   Ta4SiB4Ru10W
_chemical_formula_sum   'Ta4 Si1 B4 Ru10 W1'
_cell_volume   261.05492875
_cell_formula_units_Z   1
loop_
 _symmetry_equiv_pos_site_id
 _symmetry_equiv_pos_as_xyz
  1  'x, y, z'
loop_
 _atom_site_type_symbol
 _atom_site_label
 _atom_site_symmetry_multiplicity
 _atom_site_fract_x
 _atom_site_fract_y
 _atom_site_fract_z
 _atom_site_occupancy
  Ta  Ta0  1  0.000000  0.675392  0.820998  1
  Ta  Ta1  1  0.000000  0.324608  0.179002  1
  Ta  Ta2  1  0.000000  0.820998  0.324608  1
  Ta  Ta3  1  0.000000  0.179002  0.675392  1
  Si  Si4  1  0.000000  0.500000  0.500000  1
  B  B5  1  0.000000  0.869857  0.615878  1
  B  B6  1  0.000000  0.130143  0.384122  1
  B  B7  1  0.000000  0.615878  0.130143  1
  B  B8  1  0.000000  0.384122  0.869857  1
  Ru  Ru9  1  0.500000  0.709731  0.566615  1
  Ru  Ru10  1  0.500000  0.290269  0.433385  1
  Ru  Ru11  1  0.500000  0.780071  0.073215  1
  Ru  Ru12  1  0.500000  0.219929  0.926785  1
  Ru  Ru13  1  0.500000  0.566615  0.290269  1
  Ru  Ru14  1  0.500000  0.433385  0.709731  1
  Ru  Ru15  1  0.500000  0.073215  0.219929  1
  Ru  Ru16  1  0.500000  0.926785  0.780071  1
  Ru  Ru17  1  0.500000  0.000000  0.500000  1
  Ru  Ru18  1  0.500000  0.500000  0.000000  1
  W  W19  1  0.000000  0.000000  0.000000  1
