# generated using pymatgen
data_Tm8Re3Si16Tc9
_symmetry_space_group_name_H-M   'P 1'
_cell_length_a   6.76102954
_cell_length_b   6.76102954
_cell_length_c   12.63115092
_cell_angle_alpha   89.96916059
_cell_angle_beta   90.03083941
_cell_angle_gamma   90.03378316
_symmetry_Int_Tables_number   1
_chemical_formula_structural   Tm8Re3Si16Tc9
_chemical_formula_sum   'Tm8 Re3 Si16 Tc9'
_cell_volume   577.38884542
_cell_formula_units_Z   1
loop_
 _symmetry_equiv_pos_site_id
 _symmetry_equiv_pos_as_xyz
  1  'x, y, z'
loop_
 _atom_site_type_symbol
 _atom_site_label
 _atom_site_symmetry_multiplicity
 _atom_site_fract_x
 _atom_site_fract_y
 _atom_site_fract_z
 _atom_site_occupancy
  Tm  Tm0  1  0.006697  0.661384  0.030966  1
  Tm  Tm1  1  0.993323  0.338610  0.531075  1
  Tm  Tm2  1  0.338610  0.993323  0.468925  1
  Tm  Tm3  1  0.161236  0.493166  0.780862  1
  Tm  Tm4  1  0.838856  0.506481  0.280853  1
  Tm  Tm5  1  0.493166  0.161236  0.219138  1
  Tm  Tm6  1  0.506481  0.838856  0.719147  1
  Tm  Tm7  1  0.661384  0.006697  0.969034  1
  Re  Re8  1  0.165026  0.835322  0.249669  1
  Re  Re9  1  0.335182  0.335182  0.000000  1
  Re  Re10  1  0.835322  0.165026  0.750331  1
  Si  Si11  1  0.021281  0.724601  0.437382  1
  Si  Si12  1  0.615562  0.305543  0.434997  1
  Si  Si13  1  0.384596  0.694752  0.934668  1
  Si  Si14  1  0.194844  0.115552  0.684582  1
  Si  Si15  1  0.305543  0.615562  0.565003  1
  Si  Si16  1  0.694752  0.384596  0.065332  1
  Si  Si17  1  0.805239  0.884551  0.184695  1
  Si  Si18  1  0.115552  0.194844  0.315418  1
  Si  Si19  1  0.978481  0.274719  0.937258  1
  Si  Si20  1  0.724601  0.021281  0.562618  1
  Si  Si21  1  0.224912  0.478278  0.187297  1
  Si  Si22  1  0.774835  0.521572  0.687376  1
  Si  Si23  1  0.478278  0.224912  0.812703  1
  Si  Si24  1  0.521572  0.774835  0.312624  1
  Si  Si25  1  0.274719  0.978481  0.062742  1
  Si  Si26  1  0.884551  0.805239  0.815305  1
  Tc  Tc27  1  0.665007  0.665007  0.500000  1
  Tc  Tc28  1  0.020462  0.814906  0.629794  1
  Tc  Tc29  1  0.979070  0.185992  0.130121  1
  Tc  Tc30  1  0.814906  0.020462  0.370206  1
  Tc  Tc31  1  0.314708  0.479368  0.380157  1
  Tc  Tc32  1  0.685464  0.520423  0.879975  1
  Tc  Tc33  1  0.479368  0.314708  0.619843  1
  Tc  Tc34  1  0.520423  0.685464  0.120025  1
  Tc  Tc35  1  0.185992  0.979070  0.869879  1
