# generated using pymatgen
data_TmTh2Ni13B2
_symmetry_space_group_name_H-M   'P 1'
_cell_length_a   4.95190626
_cell_length_b   4.95100352
_cell_length_c   11.01538900
_cell_angle_alpha   90.00018169
_cell_angle_beta   89.99965161
_cell_angle_gamma   119.98850703
_symmetry_Int_Tables_number   1
_chemical_formula_structural   TmTh2Ni13B2
_chemical_formula_sum   'Tm1 Th2 Ni13 B2'
_cell_volume   233.90871581
_cell_formula_units_Z   1
loop_
 _symmetry_equiv_pos_site_id
 _symmetry_equiv_pos_as_xyz
  1  'x, y, z'
loop_
 _atom_site_type_symbol
 _atom_site_label
 _atom_site_symmetry_multiplicity
 _atom_site_fract_x
 _atom_site_fract_y
 _atom_site_fract_z
 _atom_site_occupancy
  Tm  Tm0  1  0.999994  0.000002  0.000007  1
  Th  Th1  1  0.999987  0.000000  0.327443  1
  Th  Th2  1  0.000011  0.000001  0.672567  1
  Ni  Ni3  1  0.499999  0.000000  0.500002  1
  Ni  Ni4  1  0.500000  0.500000  0.500002  1
  Ni  Ni5  1  0.000000  0.499999  0.500000  1
  Ni  Ni6  1  0.333371  0.666725  0.317229  1
  Ni  Ni7  1  0.666602  0.333276  0.317236  1
  Ni  Ni8  1  0.666639  0.333288  0.682777  1
  Ni  Ni9  1  0.333379  0.666708  0.682775  1
  Ni  Ni10  1  0.499969  0.999969  0.130551  1
  Ni  Ni11  1  0.499975  0.500016  0.130567  1
  Ni  Ni12  1  0.000008  0.500010  0.130553  1
  Ni  Ni13  1  0.499998  0.000005  0.869439  1
  Ni  Ni14  1  0.499996  0.500000  0.869434  1
  Ni  Ni15  1  0.999993  0.500001  0.869439  1
  B  B16  1  0.333271  0.666647  0.999997  1
  B  B17  1  0.666711  0.333354  0.999979  1
