# generated using pymatgen
data_Sc2Be2GaIr3Rh2
_symmetry_space_group_name_H-M   'P 1'
_cell_length_a   9.48861200
_cell_length_b   9.51741200
_cell_length_c   3.10466300
_cell_angle_alpha   90.00000000
_cell_angle_beta   90.00000000
_cell_angle_gamma   89.99793196
_symmetry_Int_Tables_number   1
_chemical_formula_structural   Sc2Be2GaIr3Rh2
_chemical_formula_sum   'Sc4 Be4 Ga2 Ir6 Rh4'
_cell_volume   280.37289370
_cell_formula_units_Z   2
loop_
 _symmetry_equiv_pos_site_id
 _symmetry_equiv_pos_as_xyz
  1  'x, y, z'
loop_
 _atom_site_type_symbol
 _atom_site_label
 _atom_site_symmetry_multiplicity
 _atom_site_fract_x
 _atom_site_fract_y
 _atom_site_fract_z
 _atom_site_occupancy
  Sc  Sc0  1  0.674691  0.174997  0.000000  1
  Sc  Sc1  1  0.326857  0.823458  0.000000  1
  Sc  Sc2  1  0.175068  0.325899  0.000000  1
  Sc  Sc3  1  0.824534  0.674352  0.000000  1
  Be  Be4  1  0.123637  0.624578  0.000000  1
  Be  Be5  1  0.876232  0.375659  0.000000  1
  Be  Be6  1  0.624329  0.876011  0.000000  1
  Be  Be7  1  0.375762  0.123906  0.000000  1
  Ga  Ga8  1  0.000152  0.999433  0.000000  1
  Ga  Ga9  1  0.500577  0.499838  0.000000  1
  Ir  Ir10  1  0.931223  0.209602  0.500000  1
  Ir  Ir11  1  0.289925  0.568134  0.500000  1
  Ir  Ir12  1  0.568497  0.709884  0.500000  1
  Ir  Ir13  1  0.431886  0.290153  0.500000  1
  Ir  Ir14  1  0.499984  0.000088  0.500000  1
  Ir  Ir15  1  0.999602  0.500400  0.500000  1
  Rh  Rh16  1  0.208851  0.067890  0.500000  1
  Rh  Rh17  1  0.791036  0.931975  0.500000  1
  Rh  Rh18  1  0.068091  0.791271  0.500000  1
  Rh  Rh19  1  0.709067  0.432472  0.500000  1
