# generated using pymatgen
data_Ho3Cu(Ni4P3)2
_symmetry_space_group_name_H-M   'P 1'
_cell_length_a   3.78118800
_cell_length_b   10.49048000
_cell_length_c   12.26903500
_cell_angle_alpha   90.00000000
_cell_angle_beta   90.00000000
_cell_angle_gamma   90.00000000
_symmetry_Int_Tables_number   1
_chemical_formula_structural   Ho3Cu(Ni4P3)2
_chemical_formula_sum   'Ho6 Cu2 Ni16 P12'
_cell_volume   486.66939575
_cell_formula_units_Z   2
loop_
 _symmetry_equiv_pos_site_id
 _symmetry_equiv_pos_as_xyz
  1  'x, y, z'
loop_
 _atom_site_type_symbol
 _atom_site_label
 _atom_site_symmetry_multiplicity
 _atom_site_fract_x
 _atom_site_fract_y
 _atom_site_fract_z
 _atom_site_occupancy
  Ho  Ho0  1  0.752049  0.000000  0.478102  1
  Ho  Ho1  1  0.252049  0.500000  0.521898  1
  Ho  Ho2  1  0.251725  0.682865  0.794456  1
  Ho  Ho3  1  0.251725  0.317135  0.794456  1
  Ho  Ho4  1  0.751725  0.817135  0.205544  1
  Ho  Ho5  1  0.751725  0.182865  0.205544  1
  Cu  Cu6  1  0.251888  0.000000  0.842873  1
  Cu  Cu7  1  0.751888  0.500000  0.157127  1
  Ni  Ni8  1  0.751417  0.000000  0.015762  1
  Ni  Ni9  1  0.251417  0.500000  0.984238  1
  Ni  Ni10  1  0.252190  0.199525  0.570513  1
  Ni  Ni11  1  0.252190  0.800475  0.570513  1
  Ni  Ni12  1  0.752190  0.300475  0.429487  1
  Ni  Ni13  1  0.752190  0.699525  0.429487  1
  Ni  Ni14  1  0.252121  0.620635  0.289576  1
  Ni  Ni15  1  0.252121  0.379365  0.289576  1
  Ni  Ni16  1  0.752121  0.879365  0.710424  1
  Ni  Ni17  1  0.752121  0.120635  0.710424  1
  Ni  Ni18  1  0.251389  0.166719  0.003495  1
  Ni  Ni19  1  0.251389  0.833281  0.003495  1
  Ni  Ni20  1  0.751389  0.333281  0.996505  1
  Ni  Ni21  1  0.751389  0.666719  0.996505  1
  Ni  Ni22  1  0.251807  0.000000  0.300374  1
  Ni  Ni23  1  0.751807  0.500000  0.699626  1
  P  P24  1  0.252034  0.186629  0.385317  1
  P  P25  1  0.252034  0.813371  0.385317  1
  P  P26  1  0.752034  0.313371  0.614683  1
  P  P27  1  0.752034  0.686629  0.614683  1
  P  P28  1  0.251483  0.000000  0.123170  1
  P  P29  1  0.751483  0.500000  0.876830  1
  P  P30  1  0.251586  0.656406  0.106331  1
  P  P31  1  0.251586  0.343594  0.106331  1
  P  P32  1  0.751586  0.843594  0.893669  1
  P  P33  1  0.751586  0.156406  0.893669  1
  P  P34  1  0.252070  0.000000  0.652138  1
  P  P35  1  0.752070  0.500000  0.347862  1
