# generated using pymatgen
data_Tm15Sc5(Bi2Sb)4
_symmetry_space_group_name_H-M   'P 1'
_cell_length_a   7.96381385
_cell_length_b   9.26610141
_cell_length_c   11.75250108
_cell_angle_alpha   89.95990523
_cell_angle_beta   90.10755099
_cell_angle_gamma   89.98980571
_symmetry_Int_Tables_number   1
_chemical_formula_structural   Tm15Sc5(Bi2Sb)4
_chemical_formula_sum   'Tm15 Sc5 Bi8 Sb4'
_cell_volume   867.25651357
_cell_formula_units_Z   1
loop_
 _symmetry_equiv_pos_site_id
 _symmetry_equiv_pos_as_xyz
  1  'x, y, z'
loop_
 _atom_site_type_symbol
 _atom_site_label
 _atom_site_symmetry_multiplicity
 _atom_site_fract_x
 _atom_site_fract_y
 _atom_site_fract_z
 _atom_site_occupancy
  Tm  Tm0  1  0.353727  0.247628  0.284640  1
  Tm  Tm1  1  0.643683  0.749830  0.714493  1
  Tm  Tm2  1  0.144664  0.749444  0.786290  1
  Tm  Tm3  1  0.855969  0.249238  0.213380  1
  Tm  Tm4  1  0.183230  0.249263  0.781843  1
  Tm  Tm5  1  0.816055  0.749670  0.218462  1
  Tm  Tm6  1  0.316342  0.750668  0.281383  1
  Tm  Tm7  1  0.682900  0.249448  0.719462  1
  Tm  Tm8  1  0.808448  0.935936  0.941739  1
  Tm  Tm9  1  0.307437  0.935432  0.558172  1
  Tm  Tm10  1  0.809187  0.564725  0.942371  1
  Tm  Tm11  1  0.691999  0.064327  0.441637  1
  Tm  Tm12  1  0.191861  0.436310  0.058199  1
  Tm  Tm13  1  0.692190  0.435371  0.441766  1
  Tm  Tm14  1  0.307875  0.564828  0.558466  1
  Sc  Sc15  1  0.027785  0.250030  0.512153  1
  Sc  Sc16  1  0.973126  0.749702  0.486511  1
  Sc  Sc17  1  0.472558  0.750330  0.012597  1
  Sc  Sc18  1  0.525701  0.248286  0.988420  1
  Sc  Sc19  1  0.192796  0.067297  0.057559  1
  Bi  Bi20  1  0.066469  0.004068  0.328155  1
  Bi  Bi21  1  0.933670  0.995864  0.669711  1
  Bi  Bi22  1  0.431939  0.995806  0.831590  1
  Bi  Bi23  1  0.933550  0.503452  0.670047  1
  Bi  Bi24  1  0.563941  0.003928  0.168908  1
  Bi  Bi25  1  0.066430  0.495805  0.329382  1
  Bi  Bi26  1  0.566200  0.495107  0.169924  1
  Bi  Bi27  1  0.433674  0.503270  0.830813  1
  Sb  Sb28  1  0.402456  0.250263  0.541505  1
  Sb  Sb29  1  0.598137  0.749747  0.458019  1
  Sb  Sb30  1  0.100273  0.756843  0.043285  1
  Sb  Sb31  1  0.905730  0.248087  0.959119  1
