# generated using pymatgen
data_LaAl2GaCu
_symmetry_space_group_name_H-M   'P 1'
_cell_length_a   4.26563179
_cell_length_b   4.26563105
_cell_length_c   6.16395400
_cell_angle_alpha   69.75627694
_cell_angle_beta   69.75627682
_cell_angle_gamma   90.00000226
_symmetry_Int_Tables_number   1
_chemical_formula_structural   LaAl2GaCu
_chemical_formula_sum   'La1 Al2 Ga1 Cu1'
_cell_volume   97.81138829
_cell_formula_units_Z   1
loop_
 _symmetry_equiv_pos_site_id
 _symmetry_equiv_pos_as_xyz
  1  'x, y, z'
loop_
 _atom_site_type_symbol
 _atom_site_label
 _atom_site_symmetry_multiplicity
 _atom_site_fract_x
 _atom_site_fract_y
 _atom_site_fract_z
 _atom_site_occupancy
  La  La0  1  0.005080  0.005080  0.989838  1
  Al  Al1  1  0.751074  0.251074  0.497850  1
  Al  Al2  1  0.251074  0.751074  0.497850  1
  Ga  Ga3  1  0.595315  0.595315  0.809369  1
  Cu  Cu4  1  0.366455  0.366455  0.267090  1
