# generated using pymatgen
data_Ca4Sb4Pt3Au
_symmetry_space_group_name_H-M   'P 1'
_cell_length_a   4.66386200
_cell_length_b   7.45608668
_cell_length_c   8.03351969
_cell_angle_alpha   90.04823135
_cell_angle_beta   90.00000000
_cell_angle_gamma   90.00000000
_symmetry_Int_Tables_number   1
_chemical_formula_structural   Ca4Sb4Pt3Au
_chemical_formula_sum   'Ca4 Sb4 Pt3 Au1'
_cell_volume   279.35879477
_cell_formula_units_Z   1
loop_
 _symmetry_equiv_pos_site_id
 _symmetry_equiv_pos_as_xyz
  1  'x, y, z'
loop_
 _atom_site_type_symbol
 _atom_site_label
 _atom_site_symmetry_multiplicity
 _atom_site_fract_x
 _atom_site_fract_y
 _atom_site_fract_z
 _atom_site_occupancy
  Ca  Ca0  1  0.750000  0.996835  0.697228  1
  Ca  Ca1  1  0.250000  0.011175  0.304337  1
  Ca  Ca2  1  0.750000  0.489243  0.799227  1
  Ca  Ca3  1  0.250000  0.502777  0.200203  1
  Sb  Sb4  1  0.750000  0.312490  0.409066  1
  Sb  Sb5  1  0.250000  0.197305  0.909054  1
  Sb  Sb6  1  0.250000  0.681763  0.582106  1
  Sb  Sb7  1  0.750000  0.814987  0.101189  1
  Pt  Pt8  1  0.250000  0.303520  0.583179  1
  Pt  Pt9  1  0.750000  0.695474  0.417539  1
  Pt  Pt10  1  0.750000  0.196657  0.084728  1
  Au  Au11  1  0.250000  0.797773  0.912145  1
