# generated using pymatgen
data_K5LiTi2O7
_symmetry_space_group_name_H-M   'P 1'
_cell_length_a   6.37082297
_cell_length_b   16.19789700
_cell_length_c   10.80842400
_cell_angle_alpha   90.00000000
_cell_angle_beta   109.55701191
_cell_angle_gamma   90.00000000
_symmetry_Int_Tables_number   1
_chemical_formula_structural   K5LiTi2O7
_chemical_formula_sum   'K20 Li4 Ti8 O28'
_cell_volume   1051.01719919
_cell_formula_units_Z   4
loop_
 _symmetry_equiv_pos_site_id
 _symmetry_equiv_pos_as_xyz
  1  'x, y, z'
loop_
 _atom_site_type_symbol
 _atom_site_label
 _atom_site_symmetry_multiplicity
 _atom_site_fract_x
 _atom_site_fract_y
 _atom_site_fract_z
 _atom_site_occupancy
  K  K0  1  0.259799  0.557745  0.077218  1
  K  K1  1  0.753664  0.066817  0.086654  1
  K  K2  1  0.301236  0.166002  0.089663  1
  K  K3  1  0.780059  0.653868  0.105254  1
  K  K4  1  0.234405  0.371062  0.237007  1
  K  K5  1  0.765616  0.871064  0.262998  1
  K  K6  1  0.219956  0.153869  0.394755  1
  K  K7  1  0.698758  0.666003  0.410332  1
  K  K8  1  0.246354  0.566822  0.413357  1
  K  K9  1  0.740212  0.057741  0.422790  1
  K  K10  1  0.259793  0.942263  0.577215  1
  K  K11  1  0.753665  0.433189  0.586648  1
  K  K12  1  0.301245  0.334014  0.589669  1
  K  K13  1  0.780063  0.846140  0.605251  1
  K  K14  1  0.234376  0.128951  0.736999  1
  K  K15  1  0.765616  0.628954  0.763000  1
  K  K16  1  0.219933  0.346138  0.894756  1
  K  K17  1  0.698757  0.834016  0.910333  1
  K  K18  1  0.246348  0.933194  0.913353  1
  K  K19  1  0.740229  0.442254  0.922793  1
  Li  Li20  1  0.698553  0.280152  0.102197  1
  Li  Li21  1  0.301476  0.780153  0.397811  1
  Li  Li22  1  0.698536  0.219868  0.602203  1
  Li  Li23  1  0.301478  0.719866  0.897798  1
  Ti  Ti24  1  0.226505  0.766530  0.112269  1
  Ti  Ti25  1  0.744149  0.447193  0.248662  1
  Ti  Ti26  1  0.255874  0.947190  0.251357  1
  Ti  Ti27  1  0.773517  0.266526  0.387754  1
  Ti  Ti28  1  0.226530  0.733457  0.612256  1
  Ti  Ti29  1  0.744118  0.052813  0.748629  1
  Ti  Ti30  1  0.255906  0.552813  0.751367  1
  Ti  Ti31  1  0.773332  0.233420  0.887657  1
  O  O32  1  0.957510  0.287059  0.029962  1
  O  O33  1  0.479392  0.779228  0.070972  1
  O  O34  1  0.553134  0.387361  0.115410  1
  O  O35  1  0.083697  0.870147  0.121441  1
  O  O36  1  0.413619  0.012236  0.177558  1
  O  O37  1  0.933453  0.504663  0.186444  1
  O  O38  1  0.733833  0.201750  0.245314  1
  O  O39  1  0.266198  0.701751  0.254713  1
  O  O40  1  0.066571  0.004661  0.313572  1
  O  O41  1  0.586399  0.512240  0.322459  1
  O  O42  1  0.916317  0.370142  0.378573  1
  O  O43  1  0.446901  0.887359  0.384611  1
  O  O44  1  0.520623  0.279223  0.429047  1
  O  O45  1  0.042342  0.787111  0.469939  1
  O  O46  1  0.957698  0.212876  0.530085  1
  O  O47  1  0.479422  0.720770  0.570964  1
  O  O48  1  0.553104  0.112666  0.615398  1
  O  O49  1  0.083668  0.629832  0.621440  1
  O  O50  1  0.413646  0.487766  0.677550  1
  O  O51  1  0.933436  0.995348  0.686422  1
  O  O52  1  0.733755  0.298237  0.745260  1
  O  O53  1  0.266199  0.798239  0.754692  1
  O  O54  1  0.066578  0.495349  0.813574  1
  O  O55  1  0.586383  0.987775  0.822448  1
  O  O56  1  0.916308  0.129820  0.878555  1
  O  O57  1  0.446917  0.612662  0.884613  1
  O  O58  1  0.520498  0.220757  0.929030  1
  O  O59  1  0.042333  0.712885  0.969942  1
