# generated using pymatgen
data_Nb3Re3SiB2
_symmetry_space_group_name_H-M   'P 1'
_cell_length_a   6.64816200
_cell_length_b   6.64816271
_cell_length_c   3.18418500
_cell_angle_alpha   90.00000000
_cell_angle_beta   90.00000000
_cell_angle_gamma   119.99999647
_symmetry_Int_Tables_number   1
_chemical_formula_structural   Nb3Re3SiB2
_chemical_formula_sum   'Nb3 Re3 Si1 B2'
_cell_volume   121.87992349
_cell_formula_units_Z   1
loop_
 _symmetry_equiv_pos_site_id
 _symmetry_equiv_pos_as_xyz
  1  'x, y, z'
loop_
 _atom_site_type_symbol
 _atom_site_label
 _atom_site_symmetry_multiplicity
 _atom_site_fract_x
 _atom_site_fract_y
 _atom_site_fract_z
 _atom_site_occupancy
  Nb  Nb0  1  0.389683  0.974872  0.500000  1
  Nb  Nb1  1  0.025128  0.414811  0.500000  1
  Nb  Nb2  1  0.585189  0.610317  0.500000  1
  Re  Re3  1  0.752554  0.998655  0.000000  1
  Re  Re4  1  0.001345  0.753899  0.000000  1
  Re  Re5  1  0.246101  0.247446  0.000000  1
  Si  Si6  1  0.666667  0.333333  0.000000  1
  B  B7  1  0.333333  0.666667  0.000000  1
  B  B8  1  0.000000  0.000000  0.500000  1
