# generated using pymatgen
data_Cs8SnBi4
_symmetry_space_group_name_H-M   'P 1'
_cell_length_a   12.82600598
_cell_length_b   12.82600596
_cell_length_c   12.82600600
_cell_angle_alpha   59.99999990
_cell_angle_beta   59.99999994
_cell_angle_gamma   59.99999992
_symmetry_Int_Tables_number   1
_chemical_formula_structural   Cs8SnBi4
_chemical_formula_sum   'Cs16 Sn2 Bi8'
_cell_volume   1491.96733733
_cell_formula_units_Z   2
loop_
 _symmetry_equiv_pos_site_id
 _symmetry_equiv_pos_as_xyz
  1  'x, y, z'
loop_
 _atom_site_type_symbol
 _atom_site_label
 _atom_site_symmetry_multiplicity
 _atom_site_fract_x
 _atom_site_fract_y
 _atom_site_fract_z
 _atom_site_occupancy
  Cs  Cs0  1  0.625000  0.125000  0.625000  1
  Cs  Cs1  1  0.625000  0.625000  0.125000  1
  Cs  Cs2  1  0.125000  0.625000  0.625000  1
  Cs  Cs3  1  0.625000  0.625000  0.625000  1
  Cs  Cs4  1  0.023246  0.023246  0.476754  1
  Cs  Cs5  1  0.773246  0.226754  0.226754  1
  Cs  Cs6  1  0.226754  0.773246  0.773246  1
  Cs  Cs7  1  0.773246  0.773246  0.226754  1
  Cs  Cs8  1  0.773246  0.226754  0.773246  1
  Cs  Cs9  1  0.226754  0.773246  0.226754  1
  Cs  Cs10  1  0.476754  0.023246  0.476754  1
  Cs  Cs11  1  0.476754  0.023246  0.023246  1
  Cs  Cs12  1  0.023246  0.476754  0.476754  1
  Cs  Cs13  1  0.023246  0.476754  0.023246  1
  Cs  Cs14  1  0.226754  0.226754  0.773246  1
  Cs  Cs15  1  0.476754  0.476754  0.023246  1
  Sn  Sn16  1  0.750000  0.750000  0.750000  1
  Sn  Sn17  1  0.500000  0.500000  0.500000  1
  Bi  Bi18  1  0.401947  0.794159  0.401947  1
  Bi  Bi19  1  0.848053  0.848053  0.455841  1
  Bi  Bi20  1  0.455841  0.848053  0.848053  1
  Bi  Bi21  1  0.848053  0.848053  0.848053  1
  Bi  Bi22  1  0.794159  0.401947  0.401947  1
  Bi  Bi23  1  0.401947  0.401947  0.401947  1
  Bi  Bi24  1  0.401947  0.401947  0.794159  1
  Bi  Bi25  1  0.848053  0.455841  0.848053  1
