# generated using pymatgen
data_PrNdMg3P12Ru19
_symmetry_space_group_name_H-M   'P 1'
_cell_length_a   12.46317000
_cell_length_b   12.46317028
_cell_length_c   4.00369700
_cell_angle_alpha   90.00000000
_cell_angle_beta   90.00000000
_cell_angle_gamma   120.00000987
_symmetry_Int_Tables_number   1
_chemical_formula_structural   PrNdMg3P12Ru19
_chemical_formula_sum   'Pr1 Nd1 Mg3 P12 Ru19'
_cell_volume   538.57828455
_cell_formula_units_Z   1
loop_
 _symmetry_equiv_pos_site_id
 _symmetry_equiv_pos_as_xyz
  1  'x, y, z'
loop_
 _atom_site_type_symbol
 _atom_site_label
 _atom_site_symmetry_multiplicity
 _atom_site_fract_x
 _atom_site_fract_y
 _atom_site_fract_z
 _atom_site_occupancy
  Pr  Pr0  1  0.666667  0.333333  0.000000  1
  Nd  Nd1  1  0.333333  0.666667  0.000000  1
  Mg  Mg2  1  0.000002  0.187055  0.500000  1
  Mg  Mg3  1  0.812945  0.812947  0.500000  1
  Mg  Mg4  1  0.187053  0.999998  0.500000  1
  P  P5  1  0.000030  0.820295  0.000000  1
  P  P6  1  0.179705  0.179735  0.000000  1
  P  P7  1  0.820265  0.999970  0.000000  1
  P  P8  1  0.701071  0.169802  0.500000  1
  P  P9  1  0.830198  0.531268  0.500000  1
  P  P10  1  0.468732  0.298929  0.500000  1
  P  P11  1  0.170107  0.700991  0.500000  1
  P  P12  1  0.530882  0.829893  0.500000  1
  P  P13  1  0.299009  0.469118  0.500000  1
  P  P14  1  0.999996  0.387765  0.000000  1
  P  P15  1  0.612235  0.612232  0.000000  1
  P  P16  1  0.387768  0.000004  0.000000  1
  Ru  Ru17  1  0.000035  0.567232  0.000000  1
  Ru  Ru18  1  0.432768  0.432803  0.000000  1
  Ru  Ru19  1  0.567197  0.999965  0.000000  1
  Ru  Ru20  1  0.000059  0.728130  0.500000  1
  Ru  Ru21  1  0.271870  0.271929  0.500000  1
  Ru  Ru22  1  0.728071  0.999941  0.500000  1
  Ru  Ru23  1  0.827616  0.188598  0.000000  1
  Ru  Ru24  1  0.811402  0.639019  0.000000  1
  Ru  Ru25  1  0.360981  0.172384  0.000000  1
  Ru  Ru26  1  0.188710  0.827542  0.000000  1
  Ru  Ru27  1  0.638832  0.811290  0.000000  1
  Ru  Ru28  1  0.172458  0.361168  0.000000  1
  Ru  Ru29  1  0.876143  0.370675  0.500000  1
  Ru  Ru30  1  0.629325  0.505468  0.500000  1
  Ru  Ru31  1  0.494532  0.123857  0.500000  1
  Ru  Ru32  1  0.370629  0.875708  0.500000  1
  Ru  Ru33  1  0.505079  0.629371  0.500000  1
  Ru  Ru34  1  0.124292  0.494921  0.500000  1
  Ru  Ru35  1  0.000000  0.000000  0.000000  1
