# generated using pymatgen
data_SrTb2Pr4CoI12
_symmetry_space_group_name_H-M   'P 1'
_cell_length_a   10.03923683
_cell_length_b   10.04542113
_cell_length_c   9.94324600
_cell_angle_alpha   106.52431306
_cell_angle_beta   106.09332601
_cell_angle_gamma   106.15969569
_symmetry_Int_Tables_number   1
_chemical_formula_structural   SrTb2Pr4CoI12
_chemical_formula_sum   'Sr1 Tb2 Pr4 Co1 I12'
_cell_volume   851.41173353
_cell_formula_units_Z   1
loop_
 _symmetry_equiv_pos_site_id
 _symmetry_equiv_pos_as_xyz
  1  'x, y, z'
loop_
 _atom_site_type_symbol
 _atom_site_label
 _atom_site_symmetry_multiplicity
 _atom_site_fract_x
 _atom_site_fract_y
 _atom_site_fract_z
 _atom_site_occupancy
  Sr  Sr0  1  0.499645  0.499903  0.500356  1
  Tb  Tb1  1  0.904673  0.709056  0.979033  1
  Tb  Tb2  1  0.708471  0.978833  0.906042  1
  Pr  Pr3  1  0.018797  0.090222  0.285215  1
  Pr  Pr4  1  0.093863  0.300674  0.019502  1
  Pr  Pr5  1  0.300898  0.019917  0.096102  1
  Pr  Pr6  1  0.979679  0.906516  0.713751  1
  Co  Co7  1  0.999216  0.998978  0.999047  1
  I  I8  1  0.143659  0.453196  0.375395  1
  I  I9  1  0.452747  0.371942  0.141709  1
  I  I10  1  0.372623  0.145089  0.456441  1
  I  I11  1  0.856826  0.547218  0.635188  1
  I  I12  1  0.558144  0.637123  0.864073  1
  I  I13  1  0.627502  0.859803  0.554604  1
  I  I14  1  0.676473  0.071373  0.217120  1
  I  I15  1  0.072616  0.222550  0.674648  1
  I  I16  1  0.213489  0.675493  0.070353  1
  I  I17  1  0.326562  0.925971  0.772836  1
  I  I18  1  0.924587  0.769903  0.313534  1
  I  I19  1  0.769530  0.316240  0.925050  1
