# generated using pymatgen
data_Zr8Be3Si13W12
_symmetry_space_group_name_H-M   'P 1'
_cell_length_a   6.57066677
_cell_length_b   6.66317323
_cell_length_c   12.68226700
_cell_angle_alpha   90.00000000
_cell_angle_beta   90.00000000
_cell_angle_gamma   89.78071268
_symmetry_Int_Tables_number   1
_chemical_formula_structural   Zr8Be3Si13W12
_chemical_formula_sum   'Zr8 Be3 Si13 W12'
_cell_volume   555.24449070
_cell_formula_units_Z   1
loop_
 _symmetry_equiv_pos_site_id
 _symmetry_equiv_pos_as_xyz
  1  'x, y, z'
loop_
 _atom_site_type_symbol
 _atom_site_label
 _atom_site_symmetry_multiplicity
 _atom_site_fract_x
 _atom_site_fract_y
 _atom_site_fract_z
 _atom_site_occupancy
  Zr  Zr0  1  0.497245  0.667691  0.595967  1
  Zr  Zr1  1  0.997052  0.832186  0.903387  1
  Zr  Zr2  1  0.504524  0.334215  0.092703  1
  Zr  Zr3  1  0.004510  0.170658  0.406915  1
  Zr  Zr4  1  0.504524  0.334215  0.407297  1
  Zr  Zr5  1  0.004510  0.170658  0.093085  1
  Zr  Zr6  1  0.497245  0.667691  0.904033  1
  Zr  Zr7  1  0.997052  0.832186  0.596613  1
  Be  Be8  1  0.456879  0.379854  0.750000  1
  Be  Be9  1  0.956734  0.120587  0.750000  1
  Be  Be10  1  0.540809  0.619856  0.250000  1
  Si  Si11  1  0.670160  0.959948  0.460725  1
  Si  Si12  1  0.168402  0.541293  0.039894  1
  Si  Si13  1  0.330767  0.040489  0.959510  1
  Si  Si14  1  0.831595  0.457944  0.542718  1
  Si  Si15  1  0.330767  0.040489  0.540490  1
  Si  Si16  1  0.831595  0.457944  0.957282  1
  Si  Si17  1  0.670160  0.959948  0.039275  1
  Si  Si18  1  0.168402  0.541293  0.460106  1
  Si  Si19  1  0.038952  0.879348  0.250000  1
  Si  Si20  1  0.708158  0.868389  0.750000  1
  Si  Si21  1  0.207669  0.631085  0.750000  1
  Si  Si22  1  0.302051  0.141704  0.250000  1
  Si  Si23  1  0.791871  0.367253  0.250000  1
  W  W24  1  0.657998  0.170903  0.627882  1
  W  W25  1  0.160628  0.328785  0.872565  1
  W  W26  1  0.343347  0.829473  0.126489  1
  W  W27  1  0.833242  0.663853  0.375393  1
  W  W28  1  0.343347  0.829473  0.373511  1
  W  W29  1  0.833242  0.663853  0.124607  1
  W  W30  1  0.657998  0.170903  0.872118  1
  W  W31  1  0.160628  0.328785  0.627435  1
  W  W32  1  0.832606  0.493289  0.750000  1
  W  W33  1  0.333139  0.005932  0.750000  1
  W  W34  1  0.167381  0.499559  0.250000  1
  W  W35  1  0.664810  0.998272  0.250000  1
