# generated using pymatgen
data_LiPr3MnC6
_symmetry_space_group_name_H-M   'P 1'
_cell_length_a   8.54310600
_cell_length_b   8.54310612
_cell_length_c   5.28454700
_cell_angle_alpha   90.00000000
_cell_angle_beta   90.00000000
_cell_angle_gamma   119.99998558
_symmetry_Int_Tables_number   1
_chemical_formula_structural   LiPr3MnC6
_chemical_formula_sum   'Li2 Pr6 Mn2 C12'
_cell_volume   334.01814172
_cell_formula_units_Z   2
loop_
 _symmetry_equiv_pos_site_id
 _symmetry_equiv_pos_as_xyz
  1  'x, y, z'
loop_
 _atom_site_type_symbol
 _atom_site_label
 _atom_site_symmetry_multiplicity
 _atom_site_fract_x
 _atom_site_fract_y
 _atom_site_fract_z
 _atom_site_occupancy
  Li  Li0  1  0.000000  0.000000  0.500000  1
  Li  Li1  1  0.000000  0.000000  0.000000  1
  Pr  Pr2  1  0.617577  0.682424  0.750000  1
  Pr  Pr3  1  0.935152  0.617577  0.250000  1
  Pr  Pr4  1  0.682424  0.064848  0.250000  1
  Pr  Pr5  1  0.317576  0.935152  0.750000  1
  Pr  Pr6  1  0.064848  0.382423  0.750000  1
  Pr  Pr7  1  0.382423  0.317576  0.250000  1
  Mn  Mn8  1  0.666667  0.333333  0.750000  1
  Mn  Mn9  1  0.333333  0.666667  0.250000  1
  C  C10  1  0.975648  0.739855  0.750000  1
  C  C11  1  0.235793  0.975648  0.250000  1
  C  C12  1  0.739855  0.764207  0.250000  1
  C  C13  1  0.260145  0.235793  0.750000  1
  C  C14  1  0.764207  0.024352  0.750000  1
  C  C15  1  0.024352  0.260145  0.250000  1
  C  C16  1  0.853628  0.564620  0.750000  1
  C  C17  1  0.289007  0.853628  0.250000  1
  C  C18  1  0.564620  0.710993  0.250000  1
  C  C19  1  0.435380  0.289007  0.750000  1
  C  C20  1  0.146372  0.435380  0.250000  1
  C  C21  1  0.710993  0.146372  0.750000  1
