# generated using pymatgen
data_LuFeCo4P3
_symmetry_space_group_name_H-M   'P 1'
_cell_length_a   3.63381600
_cell_length_b   10.20120800
_cell_length_c   11.71776500
_cell_angle_alpha   90.00000000
_cell_angle_beta   90.00000000
_cell_angle_gamma   90.00000000
_symmetry_Int_Tables_number   1
_chemical_formula_structural   LuFeCo4P3
_chemical_formula_sum   'Lu4 Fe4 Co16 P12'
_cell_volume   434.36949668
_cell_formula_units_Z   4
loop_
 _symmetry_equiv_pos_site_id
 _symmetry_equiv_pos_as_xyz
  1  'x, y, z'
loop_
 _atom_site_type_symbol
 _atom_site_label
 _atom_site_symmetry_multiplicity
 _atom_site_fract_x
 _atom_site_fract_y
 _atom_site_fract_z
 _atom_site_occupancy
  Lu  Lu0  1  0.250000  0.580546  0.703376  1
  Lu  Lu1  1  0.250000  0.919454  0.203376  1
  Lu  Lu2  1  0.750000  0.419454  0.296624  1
  Lu  Lu3  1  0.750000  0.080546  0.796624  1
  Fe  Fe4  1  0.250000  0.710248  0.987657  1
  Fe  Fe5  1  0.250000  0.789752  0.487657  1
  Fe  Fe6  1  0.750000  0.289752  0.012343  1
  Fe  Fe7  1  0.750000  0.210248  0.512343  1
  Co  Co8  1  0.250000  0.406468  0.486228  1
  Co  Co9  1  0.250000  0.093532  0.986228  1
  Co  Co10  1  0.750000  0.593532  0.513772  1
  Co  Co11  1  0.750000  0.906468  0.013772  1
  Co  Co12  1  0.250000  0.221981  0.176707  1
  Co  Co13  1  0.250000  0.278019  0.676707  1
  Co  Co14  1  0.750000  0.778019  0.823293  1
  Co  Co15  1  0.750000  0.721981  0.323293  1
  Co  Co16  1  0.250000  0.882019  0.699175  1
  Co  Co17  1  0.250000  0.617981  0.199175  1
  Co  Co18  1  0.750000  0.117981  0.300825  1
  Co  Co19  1  0.750000  0.382019  0.800825  1
  Co  Co20  1  0.250000  0.465917  0.932503  1
  Co  Co21  1  0.250000  0.034083  0.432503  1
  Co  Co22  1  0.750000  0.534083  0.067497  1
  Co  Co23  1  0.750000  0.965917  0.567497  1
  P  P24  1  0.250000  0.419614  0.114310  1
  P  P25  1  0.250000  0.080386  0.614310  1
  P  P26  1  0.750000  0.580386  0.885690  1
  P  P27  1  0.750000  0.919614  0.385690  1
  P  P28  1  0.250000  0.267296  0.867869  1
  P  P29  1  0.250000  0.232704  0.367869  1
  P  P30  1  0.750000  0.732704  0.132131  1
  P  P31  1  0.750000  0.767296  0.632131  1
  P  P32  1  0.250000  0.601242  0.391748  1
  P  P33  1  0.250000  0.898758  0.891748  1
  P  P34  1  0.750000  0.398758  0.608252  1
  P  P35  1  0.750000  0.101242  0.108252  1
