# generated using pymatgen
data_PrNd3Ga24IrPd
_symmetry_space_group_name_H-M   'P 1'
_cell_length_a   6.18103626
_cell_length_b   6.18103626
_cell_length_c   15.53374800
_cell_angle_alpha   90.00000000
_cell_angle_beta   90.00000000
_cell_angle_gamma   89.96674065
_symmetry_Int_Tables_number   1
_chemical_formula_structural   PrNd3Ga24IrPd
_chemical_formula_sum   'Pr1 Nd3 Ga24 Ir1 Pd1'
_cell_volume   593.46999281
_cell_formula_units_Z   1
loop_
 _symmetry_equiv_pos_site_id
 _symmetry_equiv_pos_as_xyz
  1  'x, y, z'
loop_
 _atom_site_type_symbol
 _atom_site_label
 _atom_site_symmetry_multiplicity
 _atom_site_fract_x
 _atom_site_fract_y
 _atom_site_fract_z
 _atom_site_occupancy
  Pr  Pr0  1  0.250000  0.750000  0.757880  1
  Nd  Nd1  1  0.750000  0.250000  0.243036  1
  Nd  Nd2  1  0.250000  0.750000  0.241406  1
  Nd  Nd3  1  0.750000  0.250000  0.757042  1
  Ga  Ga4  1  0.250000  0.250000  0.187950  1
  Ga  Ga5  1  0.750000  0.750000  0.187950  1
  Ga  Ga6  1  0.750000  0.750000  0.812266  1
  Ga  Ga7  1  0.250000  0.250000  0.812266  1
  Ga  Ga8  1  0.250000  0.250000  0.347402  1
  Ga  Ga9  1  0.750000  0.750000  0.347402  1
  Ga  Ga10  1  0.750000  0.750000  0.652400  1
  Ga  Ga11  1  0.250000  0.250000  0.652400  1
  Ga  Ga12  1  0.502049  0.002049  0.912490  1
  Ga  Ga13  1  0.997902  0.002098  0.912756  1
  Ga  Ga14  1  0.502098  0.497902  0.912756  1
  Ga  Ga15  1  0.997951  0.497951  0.912490  1
  Ga  Ga16  1  0.501970  0.001970  0.087630  1
  Ga  Ga17  1  0.997973  0.002027  0.088005  1
  Ga  Ga18  1  0.502027  0.497973  0.088005  1
  Ga  Ga19  1  0.998030  0.498030  0.087630  1
  Ga  Ga20  1  0.583658  0.083658  0.432153  1
  Ga  Ga21  1  0.084249  0.915751  0.431014  1
  Ga  Ga22  1  0.415751  0.584249  0.431014  1
  Ga  Ga23  1  0.916342  0.416342  0.432153  1
  Ga  Ga24  1  0.415716  0.915716  0.568339  1
  Ga  Ga25  1  0.916351  0.083649  0.567665  1
  Ga  Ga26  1  0.583649  0.416351  0.567665  1
  Ga  Ga27  1  0.084284  0.584284  0.568339  1
  Ir  Ir28  1  0.750000  0.250000  0.000244  1
  Pd  Pd29  1  0.250000  0.750000  0.000254  1
