# generated using pymatgen
data_Tb6Tm9Th(InIr)4
_symmetry_space_group_name_H-M   'P 1'
_cell_length_a   9.65447369
_cell_length_b   9.62735509
_cell_length_c   9.66114765
_cell_angle_alpha   59.93974551
_cell_angle_beta   60.17671877
_cell_angle_gamma   59.85121298
_symmetry_Int_Tables_number   1
_chemical_formula_structural   Tb6Tm9Th(InIr)4
_chemical_formula_sum   'Tb6 Tm9 Th1 In4 Ir4'
_cell_volume   634.79821796
_cell_formula_units_Z   1
loop_
 _symmetry_equiv_pos_site_id
 _symmetry_equiv_pos_as_xyz
  1  'x, y, z'
loop_
 _atom_site_type_symbol
 _atom_site_label
 _atom_site_symmetry_multiplicity
 _atom_site_fract_x
 _atom_site_fract_y
 _atom_site_fract_z
 _atom_site_occupancy
  Tb  Tb0  1  0.690373  0.686623  0.311633  1
  Tb  Tb1  1  0.689024  0.311493  0.313093  1
  Tb  Tb2  1  0.310038  0.686462  0.689874  1
  Tb  Tb3  1  0.559445  0.939100  0.560076  1
  Tb  Tb4  1  0.698460  0.103706  0.100696  1
  Tb  Tb5  1  0.559657  0.939903  0.939937  1
  Tm  Tm6  1  0.943524  0.939560  0.558076  1
  Tm  Tm7  1  0.940243  0.558190  0.936614  1
  Tm  Tm8  1  0.309354  0.688825  0.312375  1
  Tm  Tm9  1  0.940392  0.558259  0.562091  1
  Tm  Tm10  1  0.307667  0.309316  0.692445  1
  Tm  Tm11  1  0.096923  0.099974  0.099029  1
  Tm  Tm12  1  0.562483  0.559337  0.937878  1
  Tm  Tm13  1  0.099951  0.102691  0.699331  1
  Tm  Tm14  1  0.692774  0.307447  0.692083  1
  Th  Th15  1  0.097865  0.707693  0.097927  1
  In  In16  1  0.332823  0.333554  0.334936  1
  In  In17  1  0.001275  0.330910  0.334126  1
  In  In18  1  0.331181  0.001904  0.332821  1
  In  In19  1  0.333369  0.331756  0.999513  1
  Ir  Ir20  1  0.893193  0.894404  0.887968  1
  Ir  Ir21  1  0.895150  0.890366  0.326033  1
  Ir  Ir22  1  0.322282  0.892810  0.892862  1
  Ir  Ir23  1  0.892556  0.325718  0.888584  1
