# generated using pymatgen
data_Sc8Ti3Re9Si15Ge
_symmetry_space_group_name_H-M   'P 1'
_cell_length_a   6.64119423
_cell_length_b   6.63745909
_cell_length_c   12.65888430
_cell_angle_alpha   90.16078594
_cell_angle_beta   90.04328831
_cell_angle_gamma   90.56522289
_symmetry_Int_Tables_number   1
_chemical_formula_structural   Sc8Ti3Re9Si15Ge
_chemical_formula_sum   'Sc8 Ti3 Re9 Si15 Ge1'
_cell_volume   557.98239146
_cell_formula_units_Z   1
loop_
 _symmetry_equiv_pos_site_id
 _symmetry_equiv_pos_as_xyz
  1  'x, y, z'
loop_
 _atom_site_type_symbol
 _atom_site_label
 _atom_site_symmetry_multiplicity
 _atom_site_fract_x
 _atom_site_fract_y
 _atom_site_fract_z
 _atom_site_occupancy
  Sc  Sc0  1  0.009661  0.659966  0.032010  1
  Sc  Sc1  1  0.987725  0.337319  0.533560  1
  Sc  Sc2  1  0.341016  0.990739  0.468284  1
  Sc  Sc3  1  0.156312  0.488415  0.781127  1
  Sc  Sc4  1  0.837816  0.506515  0.279666  1
  Sc  Sc5  1  0.491785  0.160741  0.218867  1
  Sc  Sc6  1  0.511818  0.843864  0.719355  1
  Sc  Sc7  1  0.661166  0.012391  0.967064  1
  Ti  Ti8  1  0.655926  0.657747  0.502650  1
  Ti  Ti9  1  0.159746  0.841000  0.248843  1
  Ti  Ti10  1  0.342141  0.341839  0.997954  1
  Re  Re11  1  0.996733  0.805649  0.638253  1
  Re  Re12  1  0.002092  0.179090  0.134900  1
  Re  Re13  1  0.816982  0.003686  0.363685  1
  Re  Re14  1  0.323573  0.496932  0.386676  1
  Re  Re15  1  0.681334  0.508831  0.889978  1
  Re  Re16  1  0.491649  0.317975  0.610477  1
  Re  Re17  1  0.498857  0.682608  0.112736  1
  Re  Re18  1  0.194522  0.003952  0.864053  1
  Re  Re19  1  0.838050  0.162364  0.750126  1
  Si  Si20  1  0.626085  0.294535  0.425112  1
  Si  Si21  1  0.374488  0.705820  0.925977  1
  Si  Si22  1  0.197287  0.118931  0.675484  1
  Si  Si23  1  0.295843  0.624853  0.575235  1
  Si  Si24  1  0.705891  0.373887  0.074869  1
  Si  Si25  1  0.795251  0.873403  0.175994  1
  Si  Si26  1  0.126749  0.204338  0.323795  1
  Si  Si27  1  0.975934  0.280508  0.940267  1
  Si  Si28  1  0.720717  0.023729  0.559915  1
  Si  Si29  1  0.220812  0.476030  0.193705  1
  Si  Si30  1  0.770281  0.517586  0.696963  1
  Si  Si31  1  0.482442  0.229921  0.803334  1
  Si  Si32  1  0.523432  0.779928  0.306303  1
  Si  Si33  1  0.285084  0.978087  0.057423  1
  Si  Si34  1  0.880840  0.802633  0.825151  1
  Ge  Ge35  1  0.019959  0.714188  0.440208  1
