# generated using pymatgen
data_Yb2Hf3Si7Pt9
_symmetry_space_group_name_H-M   'P 1'
_cell_length_a   10.07515300
_cell_length_b   10.07515373
_cell_length_c   3.95345000
_cell_angle_alpha   90.00000000
_cell_angle_beta   90.00000000
_cell_angle_gamma   120.00000088
_symmetry_Int_Tables_number   1
_chemical_formula_structural   Yb2Hf3Si7Pt9
_chemical_formula_sum   'Yb2 Hf3 Si7 Pt9'
_cell_volume   347.54433182
_cell_formula_units_Z   1
loop_
 _symmetry_equiv_pos_site_id
 _symmetry_equiv_pos_as_xyz
  1  'x, y, z'
loop_
 _atom_site_type_symbol
 _atom_site_label
 _atom_site_symmetry_multiplicity
 _atom_site_fract_x
 _atom_site_fract_y
 _atom_site_fract_z
 _atom_site_occupancy
  Yb  Yb0  1  0.000000  0.000000  0.000000  1
  Yb  Yb1  1  0.333333  0.666667  0.500000  1
  Hf  Hf2  1  0.895275  0.458610  0.500000  1
  Hf  Hf3  1  0.563333  0.104725  0.500000  1
  Hf  Hf4  1  0.541390  0.436667  0.500000  1
  Si  Si5  1  0.240219  0.192621  0.500000  1
  Si  Si6  1  0.807379  0.047599  0.500000  1
  Si  Si7  1  0.952401  0.759781  0.500000  1
  Si  Si8  1  0.554546  0.647609  0.000000  1
  Si  Si9  1  0.352391  0.906936  0.000000  1
  Si  Si10  1  0.093064  0.445454  0.000000  1
  Si  Si11  1  0.666667  0.333333  0.000000  1
  Pt  Pt12  1  0.221800  0.938767  0.500000  1
  Pt  Pt13  1  0.061233  0.283035  0.500000  1
  Pt  Pt14  1  0.716965  0.778200  0.500000  1
  Pt  Pt15  1  0.313739  0.410386  0.000000  1
  Pt  Pt16  1  0.589614  0.903353  0.000000  1
  Pt  Pt17  1  0.096647  0.686261  0.000000  1
  Pt  Pt18  1  0.387659  0.172844  0.000000  1
  Pt  Pt19  1  0.827156  0.214815  0.000000  1
  Pt  Pt20  1  0.785185  0.612341  0.000000  1
