# generated using pymatgen
data_SrEr2Ga8Ag3
_symmetry_space_group_name_H-M   'P 1'
_cell_length_a   4.38260870
_cell_length_b   8.47546536
_cell_length_c   8.47546549
_cell_angle_alpha   68.80732457
_cell_angle_beta   75.01613632
_cell_angle_gamma   75.01614038
_symmetry_Int_Tables_number   1
_chemical_formula_structural   SrEr2Ga8Ag3
_chemical_formula_sum   'Sr1 Er2 Ga8 Ag3'
_cell_volume   278.74329114
_cell_formula_units_Z   1
loop_
 _symmetry_equiv_pos_site_id
 _symmetry_equiv_pos_as_xyz
  1  'x, y, z'
loop_
 _atom_site_type_symbol
 _atom_site_label
 _atom_site_symmetry_multiplicity
 _atom_site_fract_x
 _atom_site_fract_y
 _atom_site_fract_z
 _atom_site_occupancy
  Sr  Sr0  1  0.500000  0.500000  0.500000  1
  Er  Er1  1  0.200900  0.799100  0.799100  1
  Er  Er2  1  0.799100  0.200900  0.200900  1
  Ga  Ga3  1  0.353550  0.362357  0.930543  1
  Ga  Ga4  1  0.646450  0.637643  0.069457  1
  Ga  Ga5  1  0.353550  0.930543  0.362357  1
  Ga  Ga6  1  0.646450  0.069457  0.637643  1
  Ga  Ga7  1  0.162755  0.470762  0.203729  1
  Ga  Ga8  1  0.837245  0.529238  0.796271  1
  Ga  Ga9  1  0.162755  0.203729  0.470762  1
  Ga  Ga10  1  0.837245  0.796271  0.529238  1
  Ag  Ag11  1  0.500000  0.000000  0.000000  1
  Ag  Ag12  1  0.000000  0.809905  0.190095  1
  Ag  Ag13  1  0.000000  0.190095  0.809905  1
