# generated using pymatgen
data_Al4Sb3Ru(PtO6)4
_symmetry_space_group_name_H-M   'P 1'
_cell_length_a   4.57402784
_cell_length_b   9.15069463
_cell_length_c   9.22988500
_cell_angle_alpha   89.99991101
_cell_angle_beta   89.99998173
_cell_angle_gamma   89.89760570
_symmetry_Int_Tables_number   1
_chemical_formula_structural   Al4Sb3Ru(PtO6)4
_chemical_formula_sum   'Al4 Sb3 Ru1 Pt4 O24'
_cell_volume   386.32112980
_cell_formula_units_Z   1
loop_
 _symmetry_equiv_pos_site_id
 _symmetry_equiv_pos_as_xyz
  1  'x, y, z'
loop_
 _atom_site_type_symbol
 _atom_site_label
 _atom_site_symmetry_multiplicity
 _atom_site_fract_x
 _atom_site_fract_y
 _atom_site_fract_z
 _atom_site_occupancy
  Al  Al0  1  0.499987  0.750006  0.166221  1
  Al  Al1  1  0.998015  0.497941  0.667265  1
  Al  Al2  1  0.500001  0.250001  0.166049  1
  Al  Al3  1  0.001989  0.002055  0.667262  1
  Sb  Sb4  1  0.500000  0.749999  0.835069  1
  Sb  Sb5  1  0.000425  0.000517  0.333872  1
  Sb  Sb6  1  0.999574  0.499486  0.333872  1
  Ru  Ru7  1  0.500002  0.249998  0.835912  1
  Pt  Pt8  1  0.500001  0.249999  0.501890  1
  Pt  Pt9  1  0.500000  0.749999  0.500349  1
  Pt  Pt10  1  0.000371  0.003999  0.997994  1
  Pt  Pt11  1  0.999630  0.496002  0.997997  1
  O  O12  1  0.201745  0.398581  0.167867  1
  O  O13  1  0.199738  0.900730  0.166883  1
  O  O14  1  0.798260  0.101422  0.167864  1
  O  O15  1  0.800258  0.599274  0.166885  1
  O  O16  1  0.301225  0.151506  0.670756  1
  O  O17  1  0.299639  0.648998  0.669364  1
  O  O18  1  0.698774  0.348493  0.670756  1
  O  O19  1  0.700362  0.850998  0.669363  1
  O  O20  1  0.187349  0.405735  0.506991  1
  O  O21  1  0.189000  0.906127  0.506428  1
  O  O22  1  0.812652  0.094263  0.506991  1
  O  O23  1  0.811001  0.593871  0.506432  1
  O  O24  1  0.311730  0.156599  0.004487  1
  O  O25  1  0.311210  0.654857  0.005627  1
  O  O26  1  0.688278  0.343400  0.004487  1
  O  O27  1  0.688777  0.845150  0.005624  1
  O  O28  1  0.196326  0.401148  0.825905  1
  O  O29  1  0.186928  0.906516  0.823784  1
  O  O30  1  0.803674  0.098849  0.825901  1
  O  O31  1  0.813073  0.593482  0.823786  1
  O  O32  1  0.310628  0.155591  0.325218  1
  O  O33  1  0.311073  0.655421  0.324817  1
  O  O34  1  0.689382  0.344405  0.325219  1
  O  O35  1  0.688921  0.844584  0.324817  1
