# generated using pymatgen
data_La17Tb3(Ga2Pb)4
_symmetry_space_group_name_H-M   'P 1'
_cell_length_a   8.23751500
_cell_length_b   8.23751500
_cell_length_c   15.07214000
_cell_angle_alpha   90.00000000
_cell_angle_beta   90.00000000
_cell_angle_gamma   90.00000000
_symmetry_Int_Tables_number   1
_chemical_formula_structural   La17Tb3(Ga2Pb)4
_chemical_formula_sum   'La17 Tb3 Ga8 Pb4'
_cell_volume   1022.74497960
_cell_formula_units_Z   1
loop_
 _symmetry_equiv_pos_site_id
 _symmetry_equiv_pos_as_xyz
  1  'x, y, z'
loop_
 _atom_site_type_symbol
 _atom_site_label
 _atom_site_symmetry_multiplicity
 _atom_site_fract_x
 _atom_site_fract_y
 _atom_site_fract_z
 _atom_site_occupancy
  La  La0  1  0.000000  0.500000  0.780069  1
  La  La1  1  0.676275  0.660114  0.608123  1
  La  La2  1  0.671267  0.339288  0.108604  1
  La  La3  1  0.827168  0.840106  0.390920  1
  La  La4  1  0.174750  0.840280  0.891302  1
  La  La5  1  0.323725  0.339886  0.608123  1
  La  La6  1  0.328733  0.660712  0.108604  1
  La  La7  1  0.172832  0.159894  0.390920  1
  La  La8  1  0.825250  0.159720  0.891302  1
  La  La9  1  0.659894  0.327168  0.390920  1
  La  La10  1  0.340280  0.325250  0.891302  1
  La  La11  1  0.160114  0.823725  0.608123  1
  La  La12  1  0.839288  0.828733  0.108604  1
  La  La13  1  0.340106  0.672832  0.390920  1
  La  La14  1  0.659720  0.674750  0.891302  1
  La  La15  1  0.839886  0.176275  0.608123  1
  La  La16  1  0.160712  0.171267  0.108604  1
  Tb  Tb17  1  0.000000  0.500000  0.265804  1
  Tb  Tb18  1  0.500000  0.000000  0.231889  1
  Tb  Tb19  1  0.500000  0.000000  0.729175  1
  Ga  Ga20  1  0.870601  0.877175  0.748423  1
  Ga  Ga21  1  0.871259  0.129182  0.250002  1
  Ga  Ga22  1  0.629182  0.628741  0.250002  1
  Ga  Ga23  1  0.377175  0.629399  0.748423  1
  Ga  Ga24  1  0.129399  0.122825  0.748423  1
  Ga  Ga25  1  0.128741  0.870818  0.250002  1
  Ga  Ga26  1  0.370818  0.371259  0.250002  1
  Ga  Ga27  1  0.622825  0.370601  0.748423  1
  Pb  Pb28  1  0.000000  0.500000  0.489361  1
  Pb  Pb29  1  0.000000  0.500000  0.001545  1
  Pb  Pb30  1  0.500000  0.000000  0.505920  1
  Pb  Pb31  1  0.500000  0.000000  0.006749  1
