# generated using pymatgen
data_Er13Tm7(Ir3Pt)3
_symmetry_space_group_name_H-M   'P 1'
_cell_length_a   10.85366546
_cell_length_b   10.85261448
_cell_length_c   6.29412500
_cell_angle_alpha   89.98848446
_cell_angle_beta   89.98444842
_cell_angle_gamma   90.24719058
_symmetry_Int_Tables_number   1
_chemical_formula_structural   Er13Tm7(Ir3Pt)3
_chemical_formula_sum   'Er13 Tm7 Ir9 Pt3'
_cell_volume   741.38211435
_cell_formula_units_Z   1
loop_
 _symmetry_equiv_pos_site_id
 _symmetry_equiv_pos_as_xyz
  1  'x, y, z'
loop_
 _atom_site_type_symbol
 _atom_site_label
 _atom_site_symmetry_multiplicity
 _atom_site_fract_x
 _atom_site_fract_y
 _atom_site_fract_z
 _atom_site_occupancy
  Er  Er0  1  0.293457  0.086229  0.371185  1
  Er  Er1  1  0.292702  0.908998  0.876080  1
  Er  Er2  1  0.705686  0.089502  0.873447  1
  Er  Er3  1  0.704503  0.910375  0.372738  1
  Er  Er4  1  0.584510  0.790440  0.877338  1
  Er  Er5  1  0.584955  0.209547  0.377105  1
  Er  Er6  1  0.411252  0.790737  0.377252  1
  Er  Er7  1  0.414633  0.209431  0.876939  1
  Er  Er8  1  0.209366  0.415494  0.622674  1
  Er  Er9  1  0.209147  0.588692  0.122729  1
  Er  Er10  1  0.790614  0.414943  0.122869  1
  Er  Er11  1  0.790686  0.585227  0.623066  1
  Er  Er12  1  0.913930  0.706481  0.128765  1
  Tm  Tm13  1  0.910695  0.294784  0.626282  1
  Tm  Tm14  1  0.090872  0.706897  0.623560  1
  Tm  Tm15  1  0.089517  0.295856  0.127045  1
  Tm  Tm16  1  0.001254  0.998080  0.499527  1
  Tm  Tm17  1  0.001968  0.998892  0.000589  1
  Tm  Tm18  1  0.499765  0.499835  0.000478  1
  Tm  Tm19  1  0.500133  0.500195  0.499611  1
  Ir  Ir20  1  0.152051  0.847658  0.250439  1
  Ir  Ir21  1  0.654305  0.345914  0.749847  1
  Ir  Ir22  1  0.654593  0.654110  0.249596  1
  Ir  Ir23  1  0.345601  0.345356  0.250272  1
  Ir  Ir24  1  0.346584  0.653206  0.749845  1
  Ir  Ir25  1  0.500314  0.000016  0.122701  1
  Ir  Ir26  1  0.500199  0.000163  0.624144  1
  Ir  Ir27  1  0.999921  0.499599  0.875714  1
  Ir  Ir28  1  0.000069  0.499471  0.377483  1
  Pt  Pt29  1  0.847630  0.152925  0.250392  1
  Pt  Pt30  1  0.846031  0.846526  0.749878  1
  Pt  Pt31  1  0.153062  0.154418  0.750412  1
