# generated using pymatgen
data_TaNb5Co2(BRu2)4
_symmetry_space_group_name_H-M   'P 1'
_cell_length_a   9.27870400
_cell_length_b   9.27870400
_cell_length_c   3.05007200
_cell_angle_alpha   90.00000000
_cell_angle_beta   90.00000000
_cell_angle_gamma   90.00000000
_symmetry_Int_Tables_number   1
_chemical_formula_structural   TaNb5Co2(BRu2)4
_chemical_formula_sum   'Ta1 Nb5 Co2 B4 Ru8'
_cell_volume   262.59395995
_cell_formula_units_Z   1
loop_
 _symmetry_equiv_pos_site_id
 _symmetry_equiv_pos_as_xyz
  1  'x, y, z'
loop_
 _atom_site_type_symbol
 _atom_site_label
 _atom_site_symmetry_multiplicity
 _atom_site_fract_x
 _atom_site_fract_y
 _atom_site_fract_z
 _atom_site_occupancy
  Ta  Ta0  1  0.000000  0.000000  0.000000  1
  Nb  Nb1  1  0.825734  0.674224  0.000000  1
  Nb  Nb2  1  0.174266  0.325776  0.000000  1
  Nb  Nb3  1  0.325776  0.825734  0.000000  1
  Nb  Nb4  1  0.674224  0.174266  0.000000  1
  Nb  Nb5  1  0.500000  0.500000  0.000000  1
  Co  Co6  1  0.500000  0.000000  0.500000  1
  Co  Co7  1  0.000000  0.500000  0.500000  1
  B  B8  1  0.606729  0.893130  0.000000  1
  B  B9  1  0.393271  0.106870  0.000000  1
  B  B10  1  0.106870  0.606729  0.000000  1
  B  B11  1  0.893130  0.393271  0.000000  1
  Ru  Ru12  1  0.566481  0.724958  0.500000  1
  Ru  Ru13  1  0.433519  0.275042  0.500000  1
  Ru  Ru14  1  0.066546  0.775542  0.500000  1
  Ru  Ru15  1  0.933454  0.224458  0.500000  1
  Ru  Ru16  1  0.275042  0.566481  0.500000  1
  Ru  Ru17  1  0.724958  0.433519  0.500000  1
  Ru  Ru18  1  0.224458  0.066546  0.500000  1
  Ru  Ru19  1  0.775542  0.933454  0.500000  1
