# generated using pymatgen
data_Lu12Fe2TcAu2
_symmetry_space_group_name_H-M   'P 1'
_cell_length_a   8.06018859
_cell_length_b   8.05986099
_cell_length_c   8.06019055
_cell_angle_alpha   108.86062553
_cell_angle_beta   108.83054386
_cell_angle_gamma   110.73155680
_symmetry_Int_Tables_number   1
_chemical_formula_structural   Lu12Fe2TcAu2
_chemical_formula_sum   'Lu12 Fe2 Tc1 Au2'
_cell_volume   402.92971707
_cell_formula_units_Z   1
loop_
 _symmetry_equiv_pos_site_id
 _symmetry_equiv_pos_as_xyz
  1  'x, y, z'
loop_
 _atom_site_type_symbol
 _atom_site_label
 _atom_site_symmetry_multiplicity
 _atom_site_fract_x
 _atom_site_fract_y
 _atom_site_fract_z
 _atom_site_occupancy
  Lu  Lu0  1  0.309539  0.309562  0.619111  1
  Lu  Lu1  1  0.690461  0.690438  0.380889  1
  Lu  Lu2  1  0.690453  0.309562  0.000023  1
  Lu  Lu3  1  0.309547  0.690438  0.999977  1
  Lu  Lu4  1  0.190645  0.436532  0.245887  1
  Lu  Lu5  1  0.809355  0.563468  0.754113  1
  Lu  Lu6  1  0.190614  0.944728  0.754116  1
  Lu  Lu7  1  0.944699  0.190616  0.754095  1
  Lu  Lu8  1  0.809386  0.055272  0.245884  1
  Lu  Lu9  1  0.055301  0.809384  0.245905  1
  Lu  Lu10  1  0.436521  0.190616  0.245915  1
  Lu  Lu11  1  0.563479  0.809384  0.754085  1
  Fe  Fe12  1  0.380075  0.380087  0.000012  1
  Fe  Fe13  1  0.619925  0.619913  0.999988  1
  Tc  Tc14  1  0.000000  0.000000  0.000000  1
  Au  Au15  1  0.000000  0.500000  0.500000  1
  Au  Au16  1  0.500000  0.000000  0.500000  1
