# generated using pymatgen
data_Na6MnVO8
_symmetry_space_group_name_H-M   'P 1'
_cell_length_a   5.62438255
_cell_length_b   6.13600082
_cell_length_c   7.14117100
_cell_angle_alpha   90.00000000
_cell_angle_beta   90.00000000
_cell_angle_gamma   90.10941702
_symmetry_Int_Tables_number   1
_chemical_formula_structural   Na6MnVO8
_chemical_formula_sum   'Na6 Mn1 V1 O8'
_cell_volume   246.45004474
_cell_formula_units_Z   1
loop_
 _symmetry_equiv_pos_site_id
 _symmetry_equiv_pos_as_xyz
  1  'x, y, z'
loop_
 _atom_site_type_symbol
 _atom_site_label
 _atom_site_symmetry_multiplicity
 _atom_site_fract_x
 _atom_site_fract_y
 _atom_site_fract_z
 _atom_site_occupancy
  Na  Na0  1  0.487469  0.652927  0.000000  1
  Na  Na1  1  0.992661  0.824535  0.243789  1
  Na  Na2  1  0.488823  0.175562  0.252619  1
  Na  Na3  1  0.990930  0.347177  0.500000  1
  Na  Na4  1  0.488823  0.175562  0.747381  1
  Na  Na5  1  0.992661  0.824535  0.756211  1
  Mn  Mn6  1  0.998049  0.323949  0.000000  1
  V  V7  1  0.501968  0.676360  0.500000  1
  O  O8  1  0.903028  0.590700  0.000000  1
  O  O9  1  0.303697  0.319467  0.000000  1
  O  O10  1  0.900651  0.191123  0.199438  1
  O  O11  1  0.401636  0.809740  0.297614  1
  O  O12  1  0.811493  0.682697  0.500000  1
  O  O13  1  0.405288  0.404807  0.500000  1
  O  O14  1  0.401636  0.809740  0.702386  1
  O  O15  1  0.900651  0.191123  0.800562  1
