# generated using pymatgen
data_Rb2Hg6Se7
_symmetry_space_group_name_H-M   'P 1'
_cell_length_a   14.89195300
_cell_length_b   14.89195300
_cell_length_c   4.36691700
_cell_angle_alpha   90.00000000
_cell_angle_beta   90.00000000
_cell_angle_gamma   90.00000000
_symmetry_Int_Tables_number   1
_chemical_formula_structural   Rb2Hg6Se7
_chemical_formula_sum   'Rb4 Hg12 Se14'
_cell_volume   968.45233663
_cell_formula_units_Z   2
loop_
 _symmetry_equiv_pos_site_id
 _symmetry_equiv_pos_as_xyz
  1  'x, y, z'
loop_
 _atom_site_type_symbol
 _atom_site_label
 _atom_site_symmetry_multiplicity
 _atom_site_fract_x
 _atom_site_fract_y
 _atom_site_fract_z
 _atom_site_occupancy
  Rb  Rb0  1  0.170419  0.829581  0.727870  1
  Rb  Rb1  1  0.670419  0.670419  0.227870  1
  Rb  Rb2  1  0.329581  0.329581  0.227870  1
  Rb  Rb3  1  0.829581  0.170419  0.727870  1
  Hg  Hg4  1  0.901090  0.901090  0.308003  1
  Hg  Hg5  1  0.401090  0.598910  0.808003  1
  Hg  Hg6  1  0.598910  0.401090  0.808003  1
  Hg  Hg7  1  0.098910  0.098910  0.308003  1
  Hg  Hg8  1  0.154094  0.572245  0.222960  1
  Hg  Hg9  1  0.845906  0.427755  0.222960  1
  Hg  Hg10  1  0.927755  0.654094  0.722960  1
  Hg  Hg11  1  0.072245  0.345906  0.722960  1
  Hg  Hg12  1  0.427755  0.845906  0.222960  1
  Hg  Hg13  1  0.345906  0.072245  0.722960  1
  Hg  Hg14  1  0.654094  0.927755  0.722960  1
  Hg  Hg15  1  0.572245  0.154094  0.222960  1
  Se  Se16  1  0.817577  0.817577  0.724925  1
  Se  Se17  1  0.317577  0.682423  0.224925  1
  Se  Se18  1  0.682423  0.317577  0.224925  1
  Se  Se19  1  0.182423  0.182423  0.724925  1
  Se  Se20  1  0.500000  0.500000  0.473232  1
  Se  Se21  1  0.000000  0.000000  0.973232  1
  Se  Se22  1  0.027517  0.695869  0.223623  1
  Se  Se23  1  0.972483  0.304131  0.223623  1
  Se  Se24  1  0.804131  0.527517  0.723623  1
  Se  Se25  1  0.195869  0.472483  0.723623  1
  Se  Se26  1  0.304131  0.972483  0.223623  1
  Se  Se27  1  0.472483  0.195869  0.723623  1
  Se  Se28  1  0.695869  0.027517  0.223623  1
  Se  Se29  1  0.527517  0.804131  0.723623  1
