# generated using pymatgen
data_TbLuReB6
_symmetry_space_group_name_H-M   'P 1'
_cell_length_a   3.65423500
_cell_length_b   9.12497300
_cell_length_c   11.52262500
_cell_angle_alpha   90.00000000
_cell_angle_beta   90.00000000
_cell_angle_gamma   90.00000000
_symmetry_Int_Tables_number   1
_chemical_formula_structural   TbLuReB6
_chemical_formula_sum   'Tb4 Lu4 Re4 B24'
_cell_volume   384.21957668
_cell_formula_units_Z   4
loop_
 _symmetry_equiv_pos_site_id
 _symmetry_equiv_pos_as_xyz
  1  'x, y, z'
loop_
 _atom_site_type_symbol
 _atom_site_label
 _atom_site_symmetry_multiplicity
 _atom_site_fract_x
 _atom_site_fract_y
 _atom_site_fract_z
 _atom_site_occupancy
  Tb  Tb0  1  0.000000  0.323177  0.413964  1
  Tb  Tb1  1  0.000000  0.676823  0.586036  1
  Tb  Tb2  1  0.000000  0.823177  0.086036  1
  Tb  Tb3  1  0.000000  0.176823  0.913964  1
  Lu  Lu4  1  0.000000  0.944004  0.370481  1
  Lu  Lu5  1  0.000000  0.055996  0.629519  1
  Lu  Lu6  1  0.000000  0.444004  0.129519  1
  Lu  Lu7  1  0.000000  0.555996  0.870481  1
  Re  Re8  1  0.000000  0.639864  0.319891  1
  Re  Re9  1  0.000000  0.360136  0.680109  1
  Re  Re10  1  0.000000  0.139864  0.180109  1
  Re  Re11  1  0.000000  0.860136  0.819891  1
  B  B12  1  0.500000  0.554177  0.432397  1
  B  B13  1  0.500000  0.445823  0.567603  1
  B  B14  1  0.500000  0.054177  0.067603  1
  B  B15  1  0.500000  0.945823  0.932397  1
  B  B16  1  0.500000  0.751242  0.418376  1
  B  B17  1  0.500000  0.248758  0.581624  1
  B  B18  1  0.500000  0.251242  0.081624  1
  B  B19  1  0.500000  0.748758  0.918376  1
  B  B20  1  0.500000  0.793435  0.265859  1
  B  B21  1  0.500000  0.206565  0.734141  1
  B  B22  1  0.500000  0.293435  0.234141  1
  B  B23  1  0.500000  0.706565  0.765859  1
  B  B24  1  0.500000  0.630466  0.185121  1
  B  B25  1  0.500000  0.369534  0.814879  1
  B  B26  1  0.500000  0.130466  0.314879  1
  B  B27  1  0.500000  0.869534  0.685121  1
  B  B28  1  0.500000  0.982409  0.212863  1
  B  B29  1  0.500000  0.017591  0.787137  1
  B  B30  1  0.500000  0.482409  0.287137  1
  B  B31  1  0.500000  0.517591  0.712863  1
  B  B32  1  0.500000  0.597878  0.027213  1
  B  B33  1  0.500000  0.402122  0.972787  1
  B  B34  1  0.500000  0.097878  0.472787  1
  B  B35  1  0.500000  0.902122  0.527213  1
