# generated using pymatgen
data_Y4Ga6CuPd
_symmetry_space_group_name_H-M   'P 1'
_cell_length_a   7.03968900
_cell_length_b   8.78967489
_cell_length_c   8.78967500
_cell_angle_alpha   119.99999666
_cell_angle_beta   90.00000000
_cell_angle_gamma   90.00000000
_symmetry_Int_Tables_number   1
_chemical_formula_structural   Y4Ga6CuPd
_chemical_formula_sum   'Y8 Ga12 Cu2 Pd2'
_cell_volume   471.00958874
_cell_formula_units_Z   2
loop_
 _symmetry_equiv_pos_site_id
 _symmetry_equiv_pos_as_xyz
  1  'x, y, z'
loop_
 _atom_site_type_symbol
 _atom_site_label
 _atom_site_symmetry_multiplicity
 _atom_site_fract_x
 _atom_site_fract_y
 _atom_site_fract_z
 _atom_site_occupancy
  Y  Y0  1  0.749156  0.000000  0.000000  1
  Y  Y1  1  0.250844  0.000000  0.000000  1
  Y  Y2  1  0.748876  0.484161  0.515839  1
  Y  Y3  1  0.251124  0.515839  0.484161  1
  Y  Y4  1  0.748876  0.031678  0.515839  1
  Y  Y5  1  0.251124  0.968322  0.484161  1
  Y  Y6  1  0.748876  0.484161  0.968322  1
  Y  Y7  1  0.251124  0.515839  0.031678  1
  Ga  Ga8  1  0.963801  0.830828  0.169172  1
  Ga  Ga9  1  0.036199  0.169172  0.830828  1
  Ga  Ga10  1  0.963801  0.338345  0.169172  1
  Ga  Ga11  1  0.463655  0.167496  0.832504  1
  Ga  Ga12  1  0.036199  0.661655  0.830828  1
  Ga  Ga13  1  0.536345  0.832504  0.167496  1
  Ga  Ga14  1  0.963801  0.830828  0.661655  1
  Ga  Ga15  1  0.463655  0.665010  0.832504  1
  Ga  Ga16  1  0.036199  0.169172  0.338345  1
  Ga  Ga17  1  0.536345  0.334990  0.167496  1
  Ga  Ga18  1  0.463655  0.167496  0.334990  1
  Ga  Ga19  1  0.536345  0.832504  0.665010  1
  Cu  Cu20  1  0.952336  0.666667  0.333333  1
  Cu  Cu21  1  0.047664  0.333333  0.666667  1
  Pd  Pd22  1  0.469469  0.333333  0.666667  1
  Pd  Pd23  1  0.530531  0.666667  0.333333  1
