# generated using pymatgen
data_Ho11In(NiHg2)4
_symmetry_space_group_name_H-M   'P 1'
_cell_length_a   3.61811800
_cell_length_b   12.84545355
_cell_length_c   12.84545402
_cell_angle_alpha   112.23004747
_cell_angle_beta   90.00000000
_cell_angle_gamma   90.00000000
_symmetry_Int_Tables_number   1
_chemical_formula_structural   Ho11In(NiHg2)4
_chemical_formula_sum   'Ho11 In1 Ni4 Hg8'
_cell_volume   552.63565357
_cell_formula_units_Z   1
loop_
 _symmetry_equiv_pos_site_id
 _symmetry_equiv_pos_as_xyz
  1  'x, y, z'
loop_
 _atom_site_type_symbol
 _atom_site_label
 _atom_site_symmetry_multiplicity
 _atom_site_fract_x
 _atom_site_fract_y
 _atom_site_fract_z
 _atom_site_occupancy
  Ho  Ho0  1  0.000000  0.917513  0.582606  1
  Ho  Ho1  1  0.000000  0.082487  0.417394  1
  Ho  Ho2  1  0.000000  0.582606  0.917513  1
  Ho  Ho3  1  0.000000  0.417394  0.082487  1
  Ho  Ho4  1  0.000000  0.165684  0.834316  1
  Ho  Ho5  1  0.000000  0.834316  0.165684  1
  Ho  Ho6  1  0.000000  0.371616  0.628384  1
  Ho  Ho7  1  0.000000  0.628384  0.371616  1
  Ho  Ho8  1  0.000000  0.691946  0.691946  1
  Ho  Ho9  1  0.000000  0.308054  0.308054  1
  Ho  Ho10  1  0.000000  0.000000  0.000000  1
  In  In11  1  0.500000  0.500000  0.500000  1
  Ni  Ni12  1  0.500000  0.747008  0.549078  1
  Ni  Ni13  1  0.500000  0.252992  0.450922  1
  Ni  Ni14  1  0.500000  0.549078  0.747008  1
  Ni  Ni15  1  0.500000  0.450922  0.252992  1
  Hg  Hg16  1  0.500000  0.154280  0.629870  1
  Hg  Hg17  1  0.500000  0.845720  0.370130  1
  Hg  Hg18  1  0.500000  0.629870  0.154280  1
  Hg  Hg19  1  0.500000  0.370130  0.845720  1
  Hg  Hg20  1  0.500000  0.928732  0.781289  1
  Hg  Hg21  1  0.500000  0.071268  0.218711  1
  Hg  Hg22  1  0.500000  0.781289  0.928732  1
  Hg  Hg23  1  0.500000  0.218711  0.071268  1
