# generated using pymatgen
data_Ho8Lu9Sc3Si15P
_symmetry_space_group_name_H-M   'P 1'
_cell_length_a   7.19389721
_cell_length_b   7.53439679
_cell_length_c   14.23682400
_cell_angle_alpha   90.00000000
_cell_angle_beta   90.00000000
_cell_angle_gamma   90.14857094
_symmetry_Int_Tables_number   1
_chemical_formula_structural   Ho8Lu9Sc3Si15P
_chemical_formula_sum   'Ho8 Lu9 Sc3 Si15 P1'
_cell_volume   771.65712836
_cell_formula_units_Z   1
loop_
 _symmetry_equiv_pos_site_id
 _symmetry_equiv_pos_as_xyz
  1  'x, y, z'
loop_
 _atom_site_type_symbol
 _atom_site_label
 _atom_site_symmetry_multiplicity
 _atom_site_fract_x
 _atom_site_fract_y
 _atom_site_fract_z
 _atom_site_occupancy
  Ho  Ho0  1  0.013157  0.176624  0.096393  1
  Ho  Ho1  1  0.989480  0.823425  0.898404  1
  Ho  Ho2  1  0.488436  0.679156  0.903538  1
  Ho  Ho3  1  0.989480  0.823425  0.601596  1
  Ho  Ho4  1  0.513453  0.319247  0.096203  1
  Ho  Ho5  1  0.013157  0.176624  0.403607  1
  Ho  Ho6  1  0.513453  0.319247  0.403797  1
  Ho  Ho7  1  0.488436  0.679156  0.596462  1
  Lu  Lu8  1  0.839831  0.490451  0.250000  1
  Lu  Lu9  1  0.324606  0.171897  0.627552  1
  Lu  Lu10  1  0.669521  0.823645  0.376303  1
  Lu  Lu11  1  0.171172  0.679495  0.376140  1
  Lu  Lu12  1  0.669521  0.823645  0.123697  1
  Lu  Lu13  1  0.827642  0.324077  0.626807  1
  Lu  Lu14  1  0.324606  0.171897  0.872448  1
  Lu  Lu15  1  0.827642  0.324077  0.873193  1
  Lu  Lu16  1  0.171172  0.679495  0.123860  1
  Sc  Sc17  1  0.159773  0.509894  0.750000  1
  Sc  Sc18  1  0.337914  0.009136  0.250000  1
  Sc  Sc19  1  0.662278  0.991764  0.750000  1
  Si  Si20  1  0.969430  0.895996  0.250000  1
  Si  Si21  1  0.468068  0.605335  0.250000  1
  Si  Si22  1  0.523345  0.395103  0.750000  1
  Si  Si23  1  0.299524  0.853660  0.750000  1
  Si  Si24  1  0.713941  0.128503  0.250000  1
  Si  Si25  1  0.220627  0.366058  0.250000  1
  Si  Si26  1  0.785733  0.636078  0.750000  1
  Si  Si27  1  0.156770  0.466195  0.540688  1
  Si  Si28  1  0.843190  0.533340  0.462628  1
  Si  Si29  1  0.340033  0.969326  0.460381  1
  Si  Si30  1  0.843190  0.533340  0.037372  1
  Si  Si31  1  0.661582  0.033545  0.541345  1
  Si  Si32  1  0.156770  0.466195  0.959312  1
  Si  Si33  1  0.661582  0.033545  0.958655  1
  Si  Si34  1  0.340033  0.969326  0.039619  1
  P  P35  1  0.021452  0.118074  0.750000  1
