# generated using pymatgen
data_La8Co2Si12AgPd
_symmetry_space_group_name_H-M   'P 1'
_cell_length_a   8.34479800
_cell_length_b   8.34479968
_cell_length_c   8.70499500
_cell_angle_alpha   90.00000000
_cell_angle_beta   90.00000000
_cell_angle_gamma   119.99999333
_symmetry_Int_Tables_number   1
_chemical_formula_structural   La8Co2Si12AgPd
_chemical_formula_sum   'La8 Co2 Si12 Ag1 Pd1'
_cell_volume   524.96570299
_cell_formula_units_Z   1
loop_
 _symmetry_equiv_pos_site_id
 _symmetry_equiv_pos_as_xyz
  1  'x, y, z'
loop_
 _atom_site_type_symbol
 _atom_site_label
 _atom_site_symmetry_multiplicity
 _atom_site_fract_x
 _atom_site_fract_y
 _atom_site_fract_z
 _atom_site_occupancy
  La  La0  1  0.494278  0.505722  0.747847  1
  La  La1  1  0.493800  0.506200  0.252177  1
  La  La2  1  0.011444  0.505722  0.747847  1
  La  La3  1  0.012400  0.506200  0.252177  1
  La  La4  1  0.494278  0.988556  0.747847  1
  La  La5  1  0.493800  0.987600  0.252177  1
  La  La6  1  0.000000  0.000000  0.748993  1
  La  La7  1  0.000000  0.000000  0.250933  1
  Co  Co8  1  0.333333  0.666667  0.998491  1
  Co  Co9  1  0.333333  0.666667  0.501573  1
  Si  Si10  1  0.839851  0.160149  0.999918  1
  Si  Si11  1  0.172410  0.827590  0.000046  1
  Si  Si12  1  0.320299  0.160149  0.999918  1
  Si  Si13  1  0.170892  0.829108  0.499924  1
  Si  Si14  1  0.655180  0.827590  0.000046  1
  Si  Si15  1  0.835284  0.164716  0.500024  1
  Si  Si16  1  0.839851  0.679701  0.999918  1
  Si  Si17  1  0.658214  0.829108  0.499924  1
  Si  Si18  1  0.172410  0.344820  0.000046  1
  Si  Si19  1  0.329431  0.164716  0.500024  1
  Si  Si20  1  0.170892  0.341786  0.499924  1
  Si  Si21  1  0.835284  0.670569  0.500024  1
  Ag  Ag22  1  0.666667  0.333333  0.001324  1
  Pd  Pd23  1  0.666667  0.333333  0.498877  1
