# generated using pymatgen
data_Ho2Tm2Al18(NiRh)3
_symmetry_space_group_name_H-M   'P 1'
_cell_length_a   7.48718602
_cell_length_b   7.48854079
_cell_length_c   9.29685305
_cell_angle_alpha   89.90550181
_cell_angle_beta   89.89334714
_cell_angle_gamma   119.80951300
_symmetry_Int_Tables_number   1
_chemical_formula_structural   Ho2Tm2Al18(NiRh)3
_chemical_formula_sum   'Ho2 Tm2 Al18 Ni3 Rh3'
_cell_volume   452.28290975
_cell_formula_units_Z   1
loop_
 _symmetry_equiv_pos_site_id
 _symmetry_equiv_pos_as_xyz
  1  'x, y, z'
loop_
 _atom_site_type_symbol
 _atom_site_label
 _atom_site_symmetry_multiplicity
 _atom_site_fract_x
 _atom_site_fract_y
 _atom_site_fract_z
 _atom_site_occupancy
  Ho  Ho0  1  0.994310  0.669043  0.249738  1
  Ho  Ho1  1  0.007214  0.332444  0.750387  1
  Tm  Tm2  1  0.667294  0.992697  0.249754  1
  Tm  Tm3  1  0.331120  0.005584  0.750140  1
  Al  Al4  1  0.120734  0.120727  0.249599  1
  Al  Al5  1  0.879647  0.878907  0.750407  1
  Al  Al6  1  0.994031  0.330718  0.074483  1
  Al  Al7  1  0.998867  0.667593  0.925588  1
  Al  Al8  1  0.000385  0.668243  0.574875  1
  Al  Al9  1  0.332970  0.000198  0.425655  1
  Al  Al10  1  0.998569  0.330619  0.425053  1
  Al  Al11  1  0.668168  0.000819  0.574446  1
  Al  Al12  1  0.668003  0.005349  0.926069  1
  Al  Al13  1  0.333704  0.001800  0.073820  1
  Al  Al14  1  0.330217  0.329175  0.550694  1
  Al  Al15  1  0.670277  0.670287  0.449335  1
  Al  Al16  1  0.669449  0.669070  0.050564  1
  Al  Al17  1  0.331486  0.330016  0.949397  1
  Al  Al18  1  0.339509  0.546186  0.249724  1
  Al  Al19  1  0.661301  0.449438  0.752895  1
  Al  Al20  1  0.549892  0.337632  0.247084  1
  Al  Al21  1  0.454491  0.661523  0.750271  1
  Ni  Ni22  1  0.670790  0.328653  0.999988  1
  Ni  Ni23  1  0.999227  0.000702  0.000025  1
  Ni  Ni24  1  0.000308  0.999690  0.500012  1
  Rh  Rh25  1  0.327798  0.673137  0.000017  1
  Rh  Rh26  1  0.328665  0.672246  0.499942  1
  Rh  Rh27  1  0.671576  0.327504  0.500038  1
