# generated using pymatgen
data_Rb8Y3ErF20
_symmetry_space_group_name_H-M   'P 1'
_cell_length_a   6.97934734
_cell_length_b   7.47795700
_cell_length_c   11.54344459
_cell_angle_alpha   90.00000000
_cell_angle_beta   89.91504526
_cell_angle_gamma   90.00000000
_symmetry_Int_Tables_number   1
_chemical_formula_structural   Rb8Y3ErF20
_chemical_formula_sum   'Rb8 Y3 Er1 F20'
_cell_volume   602.46624765
_cell_formula_units_Z   1
loop_
 _symmetry_equiv_pos_site_id
 _symmetry_equiv_pos_as_xyz
  1  'x, y, z'
loop_
 _atom_site_type_symbol
 _atom_site_label
 _atom_site_symmetry_multiplicity
 _atom_site_fract_x
 _atom_site_fract_y
 _atom_site_fract_z
 _atom_site_occupancy
  Rb  Rb0  1  0.965119  0.502163  0.671230  1
  Rb  Rb1  1  0.034695  0.002703  0.328705  1
  Rb  Rb2  1  0.535261  0.502319  0.170787  1
  Rb  Rb3  1  0.465954  0.003136  0.829200  1
  Rb  Rb4  1  0.965119  0.997837  0.671230  1
  Rb  Rb5  1  0.034695  0.497297  0.328705  1
  Rb  Rb6  1  0.535261  0.997681  0.170787  1
  Rb  Rb7  1  0.465954  0.496864  0.829200  1
  Y  Y8  1  0.059124  0.750000  0.000971  1
  Y  Y9  1  0.560145  0.250000  0.498545  1
  Y  Y10  1  0.439891  0.750000  0.501271  1
  Er  Er11  1  0.940203  0.250000  0.999390  1
  F  F12  1  0.860555  0.531652  0.930096  1
  F  F13  1  0.138143  0.036524  0.070172  1
  F  F14  1  0.640861  0.534238  0.429415  1
  F  F15  1  0.359309  0.034157  0.570467  1
  F  F16  1  0.860555  0.968348  0.930096  1
  F  F17  1  0.138143  0.463476  0.070172  1
  F  F18  1  0.640861  0.965762  0.429415  1
  F  F19  1  0.359309  0.465843  0.570467  1
  F  F20  1  0.620756  0.750000  0.659176  1
  F  F21  1  0.379851  0.250000  0.340699  1
  F  F22  1  0.879564  0.750000  0.159102  1
  F  F23  1  0.116974  0.250000  0.842950  1
  F  F24  1  0.123535  0.750000  0.514921  1
  F  F25  1  0.876522  0.250000  0.484803  1
  F  F26  1  0.375015  0.750000  0.014915  1
  F  F27  1  0.627717  0.250000  0.985144  1
  F  F28  1  0.153177  0.750000  0.816973  1
  F  F29  1  0.848017  0.250000  0.181321  1
  F  F30  1  0.347006  0.750000  0.317034  1
  F  F31  1  0.652709  0.250000  0.682643  1
