# generated using pymatgen
data_YErSi7Rh12
_symmetry_space_group_name_H-M   'P 1'
_cell_length_a   9.74427800
_cell_length_b   9.74427812
_cell_length_c   3.85285800
_cell_angle_alpha   90.00000000
_cell_angle_beta   90.00000000
_cell_angle_gamma   119.99999282
_symmetry_Int_Tables_number   1
_chemical_formula_structural   YErSi7Rh12
_chemical_formula_sum   'Y1 Er1 Si7 Rh12'
_cell_volume   316.82030134
_cell_formula_units_Z   1
loop_
 _symmetry_equiv_pos_site_id
 _symmetry_equiv_pos_as_xyz
  1  'x, y, z'
loop_
 _atom_site_type_symbol
 _atom_site_label
 _atom_site_symmetry_multiplicity
 _atom_site_fract_x
 _atom_site_fract_y
 _atom_site_fract_z
 _atom_site_occupancy
  Y  Y0  1  0.666667  0.333333  0.751864  1
  Er  Er1  1  0.333333  0.666667  0.252779  1
  Si  Si2  1  0.000000  0.000000  0.554484  1
  Si  Si3  1  0.289167  0.888108  0.753693  1
  Si  Si4  1  0.111892  0.401058  0.753693  1
  Si  Si5  1  0.598942  0.710833  0.753693  1
  Si  Si6  1  0.710195  0.110778  0.251041  1
  Si  Si7  1  0.889222  0.599417  0.251041  1
  Si  Si8  1  0.400583  0.289805  0.251041  1
  Rh  Rh9  1  0.065498  0.620666  0.753722  1
  Rh  Rh10  1  0.379334  0.444832  0.753722  1
  Rh  Rh11  1  0.555168  0.934502  0.753722  1
  Rh  Rh12  1  0.938824  0.382046  0.250241  1
  Rh  Rh13  1  0.617954  0.556778  0.250241  1
  Rh  Rh14  1  0.443222  0.061176  0.250241  1
  Rh  Rh15  1  0.266126  0.120481  0.748334  1
  Rh  Rh16  1  0.879519  0.145645  0.748334  1
  Rh  Rh17  1  0.854355  0.733874  0.748334  1
  Rh  Rh18  1  0.742453  0.883319  0.257802  1
  Rh  Rh19  1  0.116681  0.859135  0.257802  1
  Rh  Rh20  1  0.140865  0.257547  0.257802  1
