# generated using pymatgen
data_YLuPt2F14
_symmetry_space_group_name_H-M   'P 1'
_cell_length_a   5.52158217
_cell_length_b   8.82388701
_cell_length_c   11.93511657
_cell_angle_alpha   62.59933406
_cell_angle_beta   89.83687409
_cell_angle_gamma   90.00284793
_symmetry_Int_Tables_number   1
_chemical_formula_structural   YLuPt2F14
_chemical_formula_sum   'Y2 Lu2 Pt4 F28'
_cell_volume   516.25934178
_cell_formula_units_Z   2
loop_
 _symmetry_equiv_pos_site_id
 _symmetry_equiv_pos_as_xyz
  1  'x, y, z'
loop_
 _atom_site_type_symbol
 _atom_site_label
 _atom_site_symmetry_multiplicity
 _atom_site_fract_x
 _atom_site_fract_y
 _atom_site_fract_z
 _atom_site_occupancy
  Y  Y0  1  0.260675  0.816022  0.264228  1
  Y  Y1  1  0.739325  0.183978  0.735772  1
  Lu  Lu2  1  0.762206  0.186780  0.235755  1
  Lu  Lu3  1  0.237794  0.813220  0.764245  1
  Pt  Pt4  1  0.759179  0.724980  0.041942  1
  Pt  Pt5  1  0.240821  0.275020  0.958058  1
  Pt  Pt6  1  0.259976  0.270029  0.455255  1
  Pt  Pt7  1  0.740024  0.729971  0.544745  1
  F  F8  1  0.936696  0.703331  0.417547  1
  F  F9  1  0.063304  0.296669  0.582453  1
  F  F10  1  0.438033  0.298918  0.085889  1
  F  F11  1  0.561967  0.701082  0.914111  1
  F  F12  1  0.465236  0.723705  0.135286  1
  F  F13  1  0.534764  0.276295  0.864714  1
  F  F14  1  0.966838  0.273431  0.360352  1
  F  F15  1  0.033162  0.726569  0.639648  1
  F  F16  1  0.948103  0.743704  0.175213  1
  F  F17  1  0.051897  0.256296  0.824787  1
  F  F18  1  0.453648  0.250886  0.323085  1
  F  F19  1  0.546352  0.749114  0.676915  1
  F  F20  1  0.774304  0.474342  0.141981  1
  F  F21  1  0.225696  0.525658  0.858019  1
  F  F22  1  0.275855  0.520510  0.356694  1
  F  F23  1  0.724145  0.479490  0.643306  1
  F  F24  1  0.937746  0.278418  0.045667  1
  F  F25  1  0.062254  0.721582  0.954333  1
  F  F26  1  0.439958  0.722915  0.458278  1
  F  F27  1  0.560042  0.277085  0.541722  1
  F  F28  1  0.744929  0.980266  0.449119  1
  F  F29  1  0.255071  0.019734  0.550881  1
  F  F30  1  0.246076  0.024871  0.050509  1
  F  F31  1  0.753924  0.975129  0.949491  1
  F  F32  1  0.586743  0.976413  0.232579  1
  F  F33  1  0.413257  0.023587  0.767421  1
  F  F34  1  0.077601  0.033856  0.266924  1
  F  F35  1  0.922399  0.966144  0.733076  1
