# generated using pymatgen
data_Dy6LuCoBr12
_symmetry_space_group_name_H-M   'P 1'
_cell_length_a   9.20225830
_cell_length_b   9.20225928
_cell_length_c   9.20226008
_cell_angle_alpha   106.86820030
_cell_angle_beta   106.86820636
_cell_angle_gamma   106.86821149
_symmetry_Int_Tables_number   1
_chemical_formula_structural   Dy6LuCoBr12
_chemical_formula_sum   'Dy6 Lu1 Co1 Br12'
_cell_volume   651.29579545
_cell_formula_units_Z   1
loop_
 _symmetry_equiv_pos_site_id
 _symmetry_equiv_pos_as_xyz
  1  'x, y, z'
loop_
 _atom_site_type_symbol
 _atom_site_label
 _atom_site_symmetry_multiplicity
 _atom_site_fract_x
 _atom_site_fract_y
 _atom_site_fract_z
 _atom_site_occupancy
  Dy  Dy0  1  0.301079  0.096929  0.021924  1
  Dy  Dy1  1  0.096929  0.021924  0.301079  1
  Dy  Dy2  1  0.021924  0.301079  0.096929  1
  Dy  Dy3  1  0.698921  0.903071  0.978076  1
  Dy  Dy4  1  0.903071  0.978076  0.698921  1
  Dy  Dy5  1  0.978076  0.698921  0.903071  1
  Lu  Lu6  1  0.500000  0.500000  0.500000  1
  Co  Co7  1  0.000000  0.000000  0.000000  1
  Br  Br8  1  0.221585  0.070153  0.677813  1
  Br  Br9  1  0.070153  0.677813  0.221585  1
  Br  Br10  1  0.677813  0.221585  0.070153  1
  Br  Br11  1  0.778415  0.929847  0.322187  1
  Br  Br12  1  0.929847  0.322187  0.778415  1
  Br  Br13  1  0.322187  0.778415  0.929847  1
  Br  Br14  1  0.389722  0.462761  0.173547  1
  Br  Br15  1  0.462761  0.173547  0.389722  1
  Br  Br16  1  0.173547  0.389722  0.462761  1
  Br  Br17  1  0.610278  0.537239  0.826453  1
  Br  Br18  1  0.537239  0.826453  0.610278  1
  Br  Br19  1  0.826453  0.610278  0.537239  1
