# generated using pymatgen
data_Er2LuAl12Os3Pt
_symmetry_space_group_name_H-M   'P 1'
_cell_length_a   8.81209249
_cell_length_b   8.81950927
_cell_length_c   9.52864658
_cell_angle_alpha   89.99215824
_cell_angle_beta   90.34922280
_cell_angle_gamma   119.80739750
_symmetry_Int_Tables_number   1
_chemical_formula_structural   Er2LuAl12Os3Pt
_chemical_formula_sum   'Er4 Lu2 Al24 Os6 Pt2'
_cell_volume   642.56112156
_cell_formula_units_Z   2
loop_
 _symmetry_equiv_pos_site_id
 _symmetry_equiv_pos_as_xyz
  1  'x, y, z'
loop_
 _atom_site_type_symbol
 _atom_site_label
 _atom_site_symmetry_multiplicity
 _atom_site_fract_x
 _atom_site_fract_y
 _atom_site_fract_z
 _atom_site_occupancy
  Er  Er0  1  0.613459  0.807741  0.252865  1
  Er  Er1  1  0.386541  0.192259  0.747135  1
  Er  Er2  1  0.190933  0.805024  0.253232  1
  Er  Er3  1  0.809067  0.194976  0.746768  1
  Lu  Lu4  1  0.192315  0.393567  0.254327  1
  Lu  Lu5  1  0.807685  0.606433  0.745673  1
  Al  Al6  1  0.328954  0.664878  0.028668  1
  Al  Al7  1  0.671046  0.335122  0.971332  1
  Al  Al8  1  0.665873  0.332047  0.521498  1
  Al  Al9  1  0.334127  0.667953  0.478502  1
  Al  Al10  1  0.164037  0.326545  0.576375  1
  Al  Al11  1  0.835963  0.673455  0.423625  1
  Al  Al12  1  0.673782  0.836200  0.576964  1
  Al  Al13  1  0.841599  0.674917  0.076366  1
  Al  Al14  1  0.326218  0.163800  0.423036  1
  Al  Al15  1  0.158401  0.325083  0.923634  1
  Al  Al16  1  0.163922  0.836444  0.577165  1
  Al  Al17  1  0.322910  0.162026  0.080327  1
  Al  Al18  1  0.836078  0.163556  0.422835  1
  Al  Al19  1  0.677090  0.837974  0.919673  1
  Al  Al20  1  0.842125  0.167699  0.077984  1
  Al  Al21  1  0.157875  0.832301  0.922016  1
  Al  Al22  1  0.560910  0.124757  0.251674  1
  Al  Al23  1  0.439090  0.875243  0.748326  1
  Al  Al24  1  0.876011  0.439108  0.248469  1
  Al  Al25  1  0.123989  0.560892  0.751531  1
  Al  Al26  1  0.560853  0.437809  0.251478  1
  Al  Al27  1  0.439147  0.562191  0.748522  1
  Al  Al28  1  0.000465  0.004870  0.250260  1
  Al  Al29  1  0.999535  0.995130  0.749740  1
  Os  Os30  1  0.000000  0.500000  0.000000  1
  Os  Os31  1  0.500000  0.000000  0.500000  1
  Os  Os32  1  0.000000  0.500000  0.500000  1
  Os  Os33  1  0.500000  0.500000  0.500000  1
  Os  Os34  1  0.000000  0.000000  0.000000  1
  Os  Os35  1  0.000000  0.000000  0.500000  1
  Pt  Pt36  1  0.500000  0.000000  0.000000  1
  Pt  Pt37  1  0.500000  0.500000  0.000000  1
