# generated using pymatgen
data_CaCe(SiPd)2
_symmetry_space_group_name_H-M   'P 1'
_cell_length_a   5.78506500
_cell_length_b   7.82475465
_cell_length_c   10.69652377
_cell_angle_alpha   88.31368298
_cell_angle_beta   90.00000000
_cell_angle_gamma   90.00000000
_symmetry_Int_Tables_number   1
_chemical_formula_structural   CaCe(SiPd)2
_chemical_formula_sum   'Ca4 Ce4 Si8 Pd8'
_cell_volume   483.98678736
_cell_formula_units_Z   4
loop_
 _symmetry_equiv_pos_site_id
 _symmetry_equiv_pos_as_xyz
  1  'x, y, z'
loop_
 _atom_site_type_symbol
 _atom_site_label
 _atom_site_symmetry_multiplicity
 _atom_site_fract_x
 _atom_site_fract_y
 _atom_site_fract_z
 _atom_site_occupancy
  Ca  Ca0  1  0.367714  0.968679  0.141093  1
  Ca  Ca1  1  0.632286  0.031321  0.858907  1
  Ca  Ca2  1  0.867714  0.531321  0.858907  1
  Ca  Ca3  1  0.132286  0.468679  0.141093  1
  Ce  Ce4  1  0.872996  0.824564  0.367075  1
  Ce  Ce5  1  0.127004  0.175436  0.632925  1
  Ce  Ce6  1  0.372996  0.675436  0.632925  1
  Ce  Ce7  1  0.627004  0.324564  0.367075  1
  Si  Si8  1  0.860020  0.537422  0.572100  1
  Si  Si9  1  0.139980  0.462578  0.427900  1
  Si  Si10  1  0.360020  0.962578  0.427900  1
  Si  Si11  1  0.639980  0.037422  0.572100  1
  Si  Si12  1  0.638986  0.625658  0.144709  1
  Si  Si13  1  0.361014  0.374342  0.855291  1
  Si  Si14  1  0.138986  0.874342  0.855291  1
  Si  Si15  1  0.861014  0.125658  0.144709  1
  Pd  Pd16  1  0.899000  0.840240  0.053343  1
  Pd  Pd17  1  0.101000  0.159760  0.946657  1
  Pd  Pd18  1  0.399000  0.659760  0.946657  1
  Pd  Pd19  1  0.601000  0.340240  0.053343  1
  Pd  Pd20  1  0.897123  0.821489  0.667213  1
  Pd  Pd21  1  0.102877  0.178511  0.332787  1
  Pd  Pd22  1  0.397123  0.678511  0.332787  1
  Pd  Pd23  1  0.602877  0.321489  0.667213  1
