# generated using pymatgen
data_HoTm(ReN3)2
_symmetry_space_group_name_H-M   'P 1'
_cell_length_a   7.35681683
_cell_length_b   7.35700642
_cell_length_c   6.27035746
_cell_angle_alpha   72.50981728
_cell_angle_beta   72.51089659
_cell_angle_gamma   81.55176038
_symmetry_Int_Tables_number   1
_chemical_formula_structural   HoTm(ReN3)2
_chemical_formula_sum   'Ho2 Tm2 Re4 N12'
_cell_volume   308.12698258
_cell_formula_units_Z   2
loop_
 _symmetry_equiv_pos_site_id
 _symmetry_equiv_pos_as_xyz
  1  'x, y, z'
loop_
 _atom_site_type_symbol
 _atom_site_label
 _atom_site_symmetry_multiplicity
 _atom_site_fract_x
 _atom_site_fract_y
 _atom_site_fract_z
 _atom_site_occupancy
  Ho  Ho0  1  0.713290  0.286728  0.249990  1
  Ho  Ho1  1  0.286710  0.713272  0.750010  1
  Tm  Tm2  1  0.907101  0.092913  0.749995  1
  Tm  Tm3  1  0.092899  0.907087  0.250005  1
  Re  Re4  1  0.623060  0.795787  0.281652  1
  Re  Re5  1  0.204215  0.376955  0.218331  1
  Re  Re6  1  0.376940  0.204213  0.718348  1
  Re  Re7  1  0.795785  0.623045  0.781669  1
  N  N8  1  0.667917  0.633640  0.086722  1
  N  N9  1  0.371542  0.872317  0.337907  1
  N  N10  1  0.366370  0.332081  0.413262  1
  N  N11  1  0.127671  0.628465  0.162106  1
  N  N12  1  0.005901  0.215733  0.340644  1
  N  N13  1  0.784274  0.994120  0.159334  1
  N  N14  1  0.215726  0.005880  0.840666  1
  N  N15  1  0.628458  0.127683  0.662093  1
  N  N16  1  0.332083  0.366360  0.913278  1
  N  N17  1  0.872329  0.371535  0.837894  1
  N  N18  1  0.633630  0.667919  0.586738  1
  N  N19  1  0.994099  0.784267  0.659356  1
