# generated using pymatgen
data_Li8Pr8Ge3Sb5
_symmetry_space_group_name_H-M   'P 1'
_cell_length_a   9.46073155
_cell_length_b   9.47236857
_cell_length_c   7.50427600
_cell_angle_alpha   90.00000000
_cell_angle_beta   89.96720585
_cell_angle_gamma   120.04069944
_symmetry_Int_Tables_number   1
_chemical_formula_structural   Li8Pr8Ge3Sb5
_chemical_formula_sum   'Li8 Pr8 Ge3 Sb5'
_cell_volume   582.16271369
_cell_formula_units_Z   1
loop_
 _symmetry_equiv_pos_site_id
 _symmetry_equiv_pos_as_xyz
  1  'x, y, z'
loop_
 _atom_site_type_symbol
 _atom_site_label
 _atom_site_symmetry_multiplicity
 _atom_site_fract_x
 _atom_site_fract_y
 _atom_site_fract_z
 _atom_site_occupancy
  Li  Li0  1  0.824083  0.165572  0.727332  1
  Li  Li1  1  0.824077  0.658515  0.727333  1
  Li  Li2  1  0.347621  0.173812  0.715823  1
  Li  Li3  1  0.173923  0.829817  0.222600  1
  Li  Li4  1  0.173916  0.344067  0.222600  1
  Li  Li5  1  0.653662  0.826831  0.216750  1
  Li  Li6  1  0.662872  0.331436  0.329594  1
  Li  Li7  1  0.342035  0.671021  0.823371  1
  Pr  Pr8  1  0.492987  0.522298  0.505322  1
  Pr  Pr9  1  0.492976  0.970676  0.505331  1
  Pr  Pr10  1  0.021484  0.510739  0.503655  1
  Pr  Pr11  1  0.514394  0.493705  0.000016  1
  Pr  Pr12  1  0.514379  0.020688  0.000008  1
  Pr  Pr13  1  0.979243  0.489623  0.002400  1
  Pr  Pr14  1  0.991064  0.995540  0.501558  1
  Pr  Pr15  1  0.990163  0.995086  0.994892  1
  Ge  Ge16  1  0.667721  0.833860  0.761749  1
  Ge  Ge17  1  0.669407  0.334705  0.745584  1
  Ge  Ge18  1  0.332408  0.666207  0.243869  1
  Sb  Sb19  1  0.833322  0.166721  0.261094  1
  Sb  Sb20  1  0.833317  0.666599  0.261094  1
  Sb  Sb21  1  0.331904  0.165955  0.262994  1
  Sb  Sb22  1  0.166525  0.833598  0.761523  1
  Sb  Sb23  1  0.166522  0.332929  0.761523  1
