# generated using pymatgen
data_TmGaCu3Ag
_symmetry_space_group_name_H-M   'P 1'
_cell_length_a   5.05049226
_cell_length_b   5.05049206
_cell_length_c   5.05049301
_cell_angle_alpha   60.74408842
_cell_angle_beta   60.74408733
_cell_angle_gamma   60.74408477
_symmetry_Int_Tables_number   1
_chemical_formula_structural   TmGaCu3Ag
_chemical_formula_sum   'Tm1 Ga1 Cu3 Ag1'
_cell_volume   92.62263404
_cell_formula_units_Z   1
loop_
 _symmetry_equiv_pos_site_id
 _symmetry_equiv_pos_as_xyz
  1  'x, y, z'
loop_
 _atom_site_type_symbol
 _atom_site_label
 _atom_site_symmetry_multiplicity
 _atom_site_fract_x
 _atom_site_fract_y
 _atom_site_fract_z
 _atom_site_occupancy
  Tm  Tm0  1  0.248171  0.248171  0.248171  1
  Ga  Ga1  1  0.627064  0.627064  0.627064  1
  Cu  Cu2  1  0.626410  0.626410  0.123497  1
  Cu  Cu3  1  0.626410  0.123497  0.626410  1
  Cu  Cu4  1  0.123497  0.626410  0.626410  1
  Ag  Ag5  1  0.998448  0.998448  0.998448  1
