# generated using pymatgen
data_Nd2ThIn3CuIr2
_symmetry_space_group_name_H-M   'P 1'
_cell_length_a   7.83529300
_cell_length_b   7.67939609
_cell_length_c   3.99796000
_cell_angle_alpha   90.00000000
_cell_angle_beta   90.00000000
_cell_angle_gamma   120.67384842
_symmetry_Int_Tables_number   1
_chemical_formula_structural   Nd2ThIn3CuIr2
_chemical_formula_sum   'Nd2 Th1 In3 Cu1 Ir2'
_cell_volume   206.90083062
_cell_formula_units_Z   1
loop_
 _symmetry_equiv_pos_site_id
 _symmetry_equiv_pos_as_xyz
  1  'x, y, z'
loop_
 _atom_site_type_symbol
 _atom_site_label
 _atom_site_symmetry_multiplicity
 _atom_site_fract_x
 _atom_site_fract_y
 _atom_site_fract_z
 _atom_site_occupancy
  Nd  Nd0  1  0.414159  0.413533  0.500000  1
  Nd  Nd1  1  0.000626  0.586467  0.500000  1
  Th  Th2  1  0.577437  0.000000  0.500000  1
  In  In3  1  0.235885  0.000000  0.000000  1
  In  In4  1  0.752533  0.743874  0.000000  1
  In  In5  1  0.008659  0.256126  0.000000  1
  Cu  Cu6  1  0.992670  0.000000  0.500000  1
  Ir  Ir7  1  0.354648  0.691267  0.000000  1
  Ir  Ir8  1  0.663383  0.308733  0.000000  1
