# generated using pymatgen
data_Sr2Ca2Sb2O
_symmetry_space_group_name_H-M   'P 1'
_cell_length_a   9.20701916
_cell_length_b   9.20701887
_cell_length_c   6.81299700
_cell_angle_alpha   90.00000000
_cell_angle_beta   90.00000000
_cell_angle_gamma   136.57348272
_symmetry_Int_Tables_number   1
_chemical_formula_structural   Sr2Ca2Sb2O
_chemical_formula_sum   'Sr4 Ca4 Sb4 O2'
_cell_volume   397.00939363
_cell_formula_units_Z   2
loop_
 _symmetry_equiv_pos_site_id
 _symmetry_equiv_pos_as_xyz
  1  'x, y, z'
loop_
 _atom_site_type_symbol
 _atom_site_label
 _atom_site_symmetry_multiplicity
 _atom_site_fract_x
 _atom_site_fract_y
 _atom_site_fract_z
 _atom_site_occupancy
  Sr  Sr0  1  0.665307  0.334694  0.000098  1
  Sr  Sr1  1  0.165307  0.834693  0.499902  1
  Sr  Sr2  1  0.834693  0.165307  0.500098  1
  Sr  Sr3  1  0.334694  0.665307  0.999902  1
  Ca  Ca4  1  0.250050  0.249950  0.249999  1
  Ca  Ca5  1  0.750051  0.749951  0.249999  1
  Ca  Ca6  1  0.249950  0.250050  0.750000  1
  Ca  Ca7  1  0.749951  0.750051  0.750000  1
  Sb  Sb8  1  0.866680  0.133321  0.000139  1
  Sb  Sb9  1  0.366680  0.633321  0.499861  1
  Sb  Sb10  1  0.633321  0.366680  0.500139  1
  Sb  Sb11  1  0.133321  0.866680  0.999862  1
  O  O12  1  0.500000  0.500000  0.000000  1
  O  O13  1  0.000000  0.000000  0.500000  1
