# generated using pymatgen
data_DyTh2(MgAu)3
_symmetry_space_group_name_H-M   'P 1'
_cell_length_a   7.70670679
_cell_length_b   7.70670631
_cell_length_c   4.18298200
_cell_angle_alpha   90.00000000
_cell_angle_beta   90.00000000
_cell_angle_gamma   120.17306608
_symmetry_Int_Tables_number   1
_chemical_formula_structural   DyTh2(MgAu)3
_chemical_formula_sum   'Dy1 Th2 Mg3 Au3'
_cell_volume   214.78020331
_cell_formula_units_Z   1
loop_
 _symmetry_equiv_pos_site_id
 _symmetry_equiv_pos_as_xyz
  1  'x, y, z'
loop_
 _atom_site_type_symbol
 _atom_site_label
 _atom_site_symmetry_multiplicity
 _atom_site_fract_x
 _atom_site_fract_y
 _atom_site_fract_z
 _atom_site_occupancy
  Dy  Dy0  1  0.411446  0.411446  0.000000  1
  Th  Th1  1  0.586860  0.999843  0.000000  1
  Th  Th2  1  0.999843  0.586860  0.000000  1
  Mg  Mg3  1  0.244246  0.006759  0.500000  1
  Mg  Mg4  1  0.006759  0.244246  0.500000  1
  Mg  Mg5  1  0.751729  0.751729  0.500000  1
  Au  Au6  1  0.334482  0.664801  0.500000  1
  Au  Au7  1  0.664801  0.334482  0.500000  1
  Au  Au8  1  0.999832  0.999832  0.000000  1
