# generated using pymatgen
data_Ta5Ti(Zn3C)2
_symmetry_space_group_name_H-M   'P 1'
_cell_length_a   8.28967855
_cell_length_b   8.28967782
_cell_length_c   8.29606284
_cell_angle_alpha   59.91238322
_cell_angle_beta   59.91238661
_cell_angle_gamma   60.05664336
_symmetry_Int_Tables_number   1
_chemical_formula_structural   Ta5Ti(Zn3C)2
_chemical_formula_sum   'Ta10 Ti2 Zn12 C4'
_cell_volume   402.75509497
_cell_formula_units_Z   2
loop_
 _symmetry_equiv_pos_site_id
 _symmetry_equiv_pos_as_xyz
  1  'x, y, z'
loop_
 _atom_site_type_symbol
 _atom_site_label
 _atom_site_symmetry_multiplicity
 _atom_site_fract_x
 _atom_site_fract_y
 _atom_site_fract_z
 _atom_site_occupancy
  Ta  Ta0  1  0.930271  0.930271  0.569863  1
  Ta  Ta1  1  0.569588  0.931466  0.569626  1
  Ta  Ta2  1  0.931466  0.569588  0.569626  1
  Ta  Ta3  1  0.569540  0.569540  0.932490  1
  Ta  Ta4  1  0.929431  0.569613  0.931436  1
  Ta  Ta5  1  0.569613  0.929431  0.931436  1
  Ta  Ta6  1  0.318500  0.318500  0.683135  1
  Ta  Ta7  1  0.679211  0.319161  0.680718  1
  Ta  Ta8  1  0.319161  0.679211  0.680718  1
  Ta  Ta9  1  0.681239  0.681239  0.316857  1
  Ti  Ti10  1  0.320319  0.681468  0.318467  1
  Ti  Ti11  1  0.681468  0.320319  0.318467  1
  Zn  Zn12  1  0.332299  0.332299  0.003178  1
  Zn  Zn13  1  0.332834  0.998379  0.332888  1
  Zn  Zn14  1  0.998379  0.332834  0.332888  1
  Zn  Zn15  1  0.336264  0.336264  0.333493  1
  Zn  Zn16  1  0.917408  0.917408  0.247471  1
  Zn  Zn17  1  0.917398  0.248097  0.917121  1
  Zn  Zn18  1  0.248097  0.917398  0.917121  1
  Zn  Zn19  1  0.917147  0.917147  0.917071  1
  Zn  Zn20  1  0.125646  0.125646  0.623242  1
  Zn  Zn21  1  0.124752  0.624287  0.124995  1
  Zn  Zn22  1  0.624287  0.124752  0.124995  1
  Zn  Zn23  1  0.125327  0.125327  0.123921  1
  C  C24  1  0.621579  0.621579  0.131135  1
  C  C25  1  0.625503  0.127688  0.621121  1
  C  C26  1  0.127688  0.625503  0.621121  1
  C  C27  1  0.625588  0.625588  0.625399  1
