# generated using pymatgen
data_Ho4Mg(GeB4)2
_symmetry_space_group_name_H-M   'P 1'
_cell_length_a   7.16160300
_cell_length_b   7.16160300
_cell_length_c   7.88789900
_cell_angle_alpha   90.00000000
_cell_angle_beta   90.00000000
_cell_angle_gamma   90.00000000
_symmetry_Int_Tables_number   1
_chemical_formula_structural   Ho4Mg(GeB4)2
_chemical_formula_sum   'Ho8 Mg2 Ge4 B16'
_cell_volume   404.55896165
_cell_formula_units_Z   2
loop_
 _symmetry_equiv_pos_site_id
 _symmetry_equiv_pos_as_xyz
  1  'x, y, z'
loop_
 _atom_site_type_symbol
 _atom_site_label
 _atom_site_symmetry_multiplicity
 _atom_site_fract_x
 _atom_site_fract_y
 _atom_site_fract_z
 _atom_site_occupancy
  Ho  Ho0  1  0.682132  0.182132  0.228373  1
  Ho  Ho1  1  0.317868  0.817868  0.771627  1
  Ho  Ho2  1  0.317868  0.817868  0.228373  1
  Ho  Ho3  1  0.817868  0.682132  0.228373  1
  Ho  Ho4  1  0.817868  0.682132  0.771627  1
  Ho  Ho5  1  0.682132  0.182132  0.771627  1
  Ho  Ho6  1  0.182132  0.317868  0.771627  1
  Ho  Ho7  1  0.182132  0.317868  0.228373  1
  Mg  Mg8  1  0.000000  0.000000  0.500000  1
  Mg  Mg9  1  0.500000  0.500000  0.500000  1
  Ge  Ge10  1  0.120941  0.620941  0.500000  1
  Ge  Ge11  1  0.879059  0.379059  0.500000  1
  Ge  Ge12  1  0.379059  0.120941  0.500000  1
  Ge  Ge13  1  0.620941  0.879059  0.500000  1
  B  B14  1  0.173597  0.039884  0.000000  1
  B  B15  1  0.826403  0.960116  0.000000  1
  B  B16  1  0.960116  0.173597  0.000000  1
  B  B17  1  0.326403  0.539884  0.000000  1
  B  B18  1  0.039884  0.826403  0.000000  1
  B  B19  1  0.673597  0.460116  0.000000  1
  B  B20  1  0.539884  0.673597  0.000000  1
  B  B21  1  0.460116  0.326403  0.000000  1
  B  B22  1  0.089327  0.589327  0.000000  1
  B  B23  1  0.910673  0.410673  0.000000  1
  B  B24  1  0.410673  0.089327  0.000000  1
  B  B25  1  0.589327  0.910673  0.000000  1
  B  B26  1  0.000000  0.000000  0.162249  1
  B  B27  1  0.000000  0.000000  0.837751  1
  B  B28  1  0.500000  0.500000  0.837751  1
  B  B29  1  0.500000  0.500000  0.162249  1
