# generated using pymatgen
data_Er3TmGa18PtRh5
_symmetry_space_group_name_H-M   'P 1'
_cell_length_a   7.56882232
_cell_length_b   7.56881171
_cell_length_c   9.47227000
_cell_angle_alpha   89.98491577
_cell_angle_beta   89.98366984
_cell_angle_gamma   119.82842654
_symmetry_Int_Tables_number   1
_chemical_formula_structural   Er3TmGa18PtRh5
_chemical_formula_sum   'Er3 Tm1 Ga18 Pt1 Rh5'
_cell_volume   470.74845183
_cell_formula_units_Z   1
loop_
 _symmetry_equiv_pos_site_id
 _symmetry_equiv_pos_as_xyz
  1  'x, y, z'
loop_
 _atom_site_type_symbol
 _atom_site_label
 _atom_site_symmetry_multiplicity
 _atom_site_fract_x
 _atom_site_fract_y
 _atom_site_fract_z
 _atom_site_occupancy
  Er  Er0  1  0.996148  0.668361  0.250492  1
  Er  Er1  1  0.003438  0.331313  0.749723  1
  Er  Er2  1  0.668690  0.996569  0.250282  1
  Tm  Tm3  1  0.331620  0.003831  0.749503  1
  Ga  Ga4  1  0.125755  0.125006  0.250278  1
  Ga  Ga5  1  0.875067  0.874266  0.749721  1
  Ga  Ga6  1  0.003302  0.334327  0.081469  1
  Ga  Ga7  1  0.004993  0.669738  0.918614  1
  Ga  Ga8  1  0.001583  0.665763  0.579515  1
  Ga  Ga9  1  0.334335  0.998515  0.420583  1
  Ga  Ga10  1  0.999025  0.334134  0.420142  1
  Ga  Ga11  1  0.665755  0.000970  0.579893  1
  Ga  Ga12  1  0.665574  0.996694  0.918501  1
  Ga  Ga13  1  0.330380  0.995125  0.081277  1
  Ga  Ga14  1  0.331872  0.331847  0.565594  1
  Ga  Ga15  1  0.668064  0.668133  0.434447  1
  Ga  Ga16  1  0.667592  0.671300  0.067765  1
  Ga  Ga17  1  0.328709  0.332316  0.932198  1
  Ga  Ga18  1  0.338973  0.548135  0.250416  1
  Ga  Ga19  1  0.661257  0.455112  0.746708  1
  Ga  Ga20  1  0.544801  0.338694  0.253297  1
  Ga  Ga21  1  0.451846  0.661066  0.749581  1
  Pt  Pt22  1  0.671880  0.328087  0.999972  1
  Rh  Rh23  1  0.328618  0.671394  0.999963  1
  Rh  Rh24  1  0.328443  0.671564  0.500032  1
  Rh  Rh25  1  0.672089  0.327855  0.500041  1
  Rh  Rh26  1  0.000043  0.999982  0.999959  1
  Rh  Rh27  1  0.000146  0.999904  0.500037  1
