# generated using pymatgen
data_Ba8AgAs5
_symmetry_space_group_name_H-M   'P 1'
_cell_length_a   8.77677055
_cell_length_b   8.77677104
_cell_length_c   8.77677103
_cell_angle_alpha   109.23799633
_cell_angle_beta   109.23799645
_cell_angle_gamma   109.93868619
_symmetry_Int_Tables_number   1
_chemical_formula_structural   Ba8AgAs5
_chemical_formula_sum   'Ba8 Ag1 As5'
_cell_volume   520.42801990
_cell_formula_units_Z   1
loop_
 _symmetry_equiv_pos_site_id
 _symmetry_equiv_pos_as_xyz
  1  'x, y, z'
loop_
 _atom_site_type_symbol
 _atom_site_label
 _atom_site_symmetry_multiplicity
 _atom_site_fract_x
 _atom_site_fract_y
 _atom_site_fract_z
 _atom_site_occupancy
  Ba  Ba0  1  0.378229  0.384913  0.376908  1
  Ba  Ba1  1  0.142538  0.484198  0.995972  1
  Ba  Ba2  1  0.988225  0.146566  0.504028  1
  Ba  Ba3  1  0.853434  0.857462  0.841659  1
  Ba  Ba4  1  0.508005  0.001322  0.123092  1
  Ba  Ba5  1  0.615087  0.491995  0.993317  1
  Ba  Ba6  1  0.515802  0.011775  0.658341  1
  Ba  Ba7  1  0.998678  0.621771  0.506683  1
  Ag  Ag8  1  0.125000  0.875000  0.250000  1
  As  As9  1  0.375000  0.625000  0.750000  1
  As  As10  1  0.884429  0.247963  0.127048  1
  As  As11  1  0.620915  0.757380  0.372952  1
  As  As12  1  0.242620  0.115571  0.863535  1
  As  As13  1  0.752037  0.379085  0.636465  1
