# generated using pymatgen
data_Dy9ScCd3Ru
_symmetry_space_group_name_H-M   'P 1'
_cell_length_a   9.52380100
_cell_length_b   9.52380072
_cell_length_c   9.78136400
_cell_angle_alpha   90.00000000
_cell_angle_beta   90.00000000
_cell_angle_gamma   120.00000443
_symmetry_Int_Tables_number   1
_chemical_formula_structural   Dy9ScCd3Ru
_chemical_formula_sum   'Dy18 Sc2 Cd6 Ru2'
_cell_volume   768.33504959
_cell_formula_units_Z   2
loop_
 _symmetry_equiv_pos_site_id
 _symmetry_equiv_pos_as_xyz
  1  'x, y, z'
loop_
 _atom_site_type_symbol
 _atom_site_label
 _atom_site_symmetry_multiplicity
 _atom_site_fract_x
 _atom_site_fract_y
 _atom_site_fract_z
 _atom_site_occupancy
  Dy  Dy0  1  0.208409  0.791591  0.440747  1
  Dy  Dy1  1  0.208409  0.416817  0.440747  1
  Dy  Dy2  1  0.583183  0.791591  0.440747  1
  Dy  Dy3  1  0.791591  0.208409  0.559253  1
  Dy  Dy4  1  0.791591  0.583183  0.559253  1
  Dy  Dy5  1  0.416817  0.208409  0.559253  1
  Dy  Dy6  1  0.791591  0.208409  0.940747  1
  Dy  Dy7  1  0.791591  0.583183  0.940747  1
  Dy  Dy8  1  0.416817  0.208409  0.940747  1
  Dy  Dy9  1  0.208409  0.791591  0.059253  1
  Dy  Dy10  1  0.208409  0.416817  0.059253  1
  Dy  Dy11  1  0.583183  0.791591  0.059253  1
  Dy  Dy12  1  0.540990  0.459010  0.250000  1
  Dy  Dy13  1  0.540990  0.081979  0.250000  1
  Dy  Dy14  1  0.918021  0.459010  0.250000  1
  Dy  Dy15  1  0.459010  0.540990  0.750000  1
  Dy  Dy16  1  0.459010  0.918021  0.750000  1
  Dy  Dy17  1  0.081979  0.540990  0.750000  1
  Sc  Sc18  1  0.000000  0.000000  0.500000  1
  Sc  Sc19  1  0.000000  0.000000  0.000000  1
  Cd  Cd20  1  0.889069  0.110931  0.250000  1
  Cd  Cd21  1  0.889069  0.778140  0.250000  1
  Cd  Cd22  1  0.221860  0.110931  0.250000  1
  Cd  Cd23  1  0.110931  0.889069  0.750000  1
  Cd  Cd24  1  0.110931  0.221860  0.750000  1
  Cd  Cd25  1  0.778140  0.889069  0.750000  1
  Ru  Ru26  1  0.333333  0.666667  0.250000  1
  Ru  Ru27  1  0.666667  0.333333  0.750000  1
