# generated using pymatgen
data_Yb2Pa(SnPt)3
_symmetry_space_group_name_H-M   'P 1'
_cell_length_a   7.50087169
_cell_length_b   7.50087204
_cell_length_c   4.06609100
_cell_angle_alpha   90.00000000
_cell_angle_beta   90.00000000
_cell_angle_gamma   119.63674208
_symmetry_Int_Tables_number   1
_chemical_formula_structural   Yb2Pa(SnPt)3
_chemical_formula_sum   'Yb2 Pa1 Sn3 Pt3'
_cell_volume   198.84254488
_cell_formula_units_Z   1
loop_
 _symmetry_equiv_pos_site_id
 _symmetry_equiv_pos_as_xyz
  1  'x, y, z'
loop_
 _atom_site_type_symbol
 _atom_site_label
 _atom_site_symmetry_multiplicity
 _atom_site_fract_x
 _atom_site_fract_y
 _atom_site_fract_z
 _atom_site_occupancy
  Yb  Yb0  1  0.591214  0.998001  0.000000  1
  Yb  Yb1  1  0.998001  0.591214  0.000000  1
  Pa  Pa2  1  0.416203  0.416203  0.000000  1
  Sn  Sn3  1  0.982024  0.256014  0.500000  1
  Sn  Sn4  1  0.757350  0.757350  0.500000  1
  Sn  Sn5  1  0.256014  0.982024  0.500000  1
  Pt  Pt6  1  0.640367  0.333871  0.500000  1
  Pt  Pt7  1  0.024956  0.024956  0.000000  1
  Pt  Pt8  1  0.333871  0.640367  0.500000  1
