# generated using pymatgen
data_LaPr4ThUO12
_symmetry_space_group_name_H-M   'P 1'
_cell_length_a   6.86138863
_cell_length_b   6.90440772
_cell_length_c   6.87416661
_cell_angle_alpha   99.33994883
_cell_angle_beta   98.79652309
_cell_angle_gamma   98.89014046
_symmetry_Int_Tables_number   1
_chemical_formula_structural   LaPr4ThUO12
_chemical_formula_sum   'La1 Pr4 Th1 U1 O12'
_cell_volume   312.14070370
_cell_formula_units_Z   1
loop_
 _symmetry_equiv_pos_site_id
 _symmetry_equiv_pos_as_xyz
  1  'x, y, z'
loop_
 _atom_site_type_symbol
 _atom_site_label
 _atom_site_symmetry_multiplicity
 _atom_site_fract_x
 _atom_site_fract_y
 _atom_site_fract_z
 _atom_site_occupancy
  La  La0  1  0.141685  0.305071  0.604305  1
  Pr  Pr1  1  0.609177  0.144013  0.308133  1
  Pr  Pr2  1  0.392287  0.861808  0.692222  1
  Pr  Pr3  1  0.693897  0.390456  0.857635  1
  Pr  Pr4  1  0.856898  0.693033  0.393054  1
  Th  Th5  1  0.307068  0.606943  0.140657  1
  U  U6  1  0.999443  0.997996  0.000513  1
  O  O7  1  0.438975  0.180073  0.591445  1
  O  O8  1  0.936983  0.691488  0.053429  1
  O  O9  1  0.183172  0.589815  0.428038  1
  O  O10  1  0.824701  0.414392  0.562526  1
  O  O11  1  0.555835  0.819417  0.400021  1
  O  O12  1  0.576693  0.438040  0.177812  1
  O  O13  1  0.409453  0.569489  0.832196  1
  O  O14  1  0.947270  0.065946  0.303764  1
  O  O15  1  0.049722  0.929084  0.695940  1
  O  O16  1  0.696434  0.051242  0.929415  1
  O  O17  1  0.076152  0.307864  0.958791  1
  O  O18  1  0.304153  0.943833  0.070103  1
