# generated using pymatgen
data_Np2Sn(AsRh2)6
_symmetry_space_group_name_H-M   'P 1'
_cell_length_a   10.09078000
_cell_length_b   10.09077929
_cell_length_c   3.99139800
_cell_angle_alpha   90.00000000
_cell_angle_beta   90.00000000
_cell_angle_gamma   120.00000234
_symmetry_Int_Tables_number   1
_chemical_formula_structural   Np2Sn(AsRh2)6
_chemical_formula_sum   'Np2 Sn1 As6 Rh12'
_cell_volume   351.96955706
_cell_formula_units_Z   1
loop_
 _symmetry_equiv_pos_site_id
 _symmetry_equiv_pos_as_xyz
  1  'x, y, z'
loop_
 _atom_site_type_symbol
 _atom_site_label
 _atom_site_symmetry_multiplicity
 _atom_site_fract_x
 _atom_site_fract_y
 _atom_site_fract_z
 _atom_site_occupancy
  Np  Np0  1  0.333333  0.666667  0.751205  1
  Np  Np1  1  0.000000  0.000000  0.247100  1
  Sn  Sn2  1  0.666667  0.333333  0.593833  1
  As  As3  1  0.955228  0.215204  0.746881  1
  As  As4  1  0.784796  0.740025  0.746881  1
  As  As5  1  0.259975  0.044772  0.746881  1
  As  As6  1  0.377508  0.448420  0.252853  1
  As  As7  1  0.551580  0.929088  0.252853  1
  As  As8  1  0.070912  0.622492  0.252853  1
  Rh  Rh9  1  0.731525  0.951202  0.750336  1
  Rh  Rh10  1  0.048798  0.780321  0.750336  1
  Rh  Rh11  1  0.219679  0.268475  0.750336  1
  Rh  Rh12  1  0.603205  0.718332  0.252748  1
  Rh  Rh13  1  0.281668  0.884873  0.252748  1
  Rh  Rh14  1  0.115127  0.396795  0.252748  1
  Rh  Rh15  1  0.954652  0.458476  0.757502  1
  Rh  Rh16  1  0.541524  0.496177  0.757502  1
  Rh  Rh17  1  0.503823  0.045348  0.757502  1
  Rh  Rh18  1  0.393630  0.211785  0.243697  1
  Rh  Rh19  1  0.788215  0.181845  0.243697  1
  Rh  Rh20  1  0.818155  0.606370  0.243697  1
