# generated using pymatgen
data_Hf2As2O9
_symmetry_space_group_name_H-M   'P 1'
_cell_length_a   6.87823740
_cell_length_b   7.86265721
_cell_length_c   8.47949127
_cell_angle_alpha   99.78844390
_cell_angle_beta   66.07247581
_cell_angle_gamma   115.93805088
_symmetry_Int_Tables_number   1
_chemical_formula_structural   Hf2As2O9
_chemical_formula_sum   'Hf4 As4 O18'
_cell_volume   376.93110762
_cell_formula_units_Z   2
loop_
 _symmetry_equiv_pos_site_id
 _symmetry_equiv_pos_as_xyz
  1  'x, y, z'
loop_
 _atom_site_type_symbol
 _atom_site_label
 _atom_site_symmetry_multiplicity
 _atom_site_fract_x
 _atom_site_fract_y
 _atom_site_fract_z
 _atom_site_occupancy
  Hf  Hf0  1  0.055569  0.203039  0.091901  1
  Hf  Hf1  1  0.684905  0.729122  0.359314  1
  Hf  Hf2  1  0.315098  0.270878  0.640684  1
  Hf  Hf3  1  0.944432  0.796961  0.908100  1
  As  As4  1  0.587284  0.337177  0.162611  1
  As  As5  1  0.170588  0.800965  0.459789  1
  As  As6  1  0.829413  0.199035  0.540213  1
  As  As7  1  0.412718  0.662822  0.837388  1
  O  O8  1  0.738734  0.573723  0.096258  1
  O  O9  1  0.364550  0.222826  0.094082  1
  O  O10  1  0.764193  0.222826  0.094082  1
  O  O11  1  0.885400  0.926805  0.156008  1
  O  O12  1  0.388362  0.726081  0.352522  1
  O  O13  1  0.985195  0.726081  0.352522  1
  O  O14  1  0.980160  0.298029  0.337711  1
  O  O15  1  0.513528  0.404553  0.377501  1
  O  O16  1  0.284629  0.043278  0.474020  1
  O  O17  1  0.715372  0.956722  0.525981  1
  O  O18  1  0.486475  0.595447  0.622498  1
  O  O19  1  0.019841  0.701972  0.662290  1
  O  O20  1  0.014805  0.273921  0.647476  1
  O  O21  1  0.611638  0.273921  0.647476  1
  O  O22  1  0.114602  0.073195  0.843992  1
  O  O23  1  0.235806  0.777174  0.905919  1
  O  O24  1  0.635449  0.777174  0.905919  1
  O  O25  1  0.261268  0.426278  0.903743  1
