# generated using pymatgen
data_Tm8Si12RuPt3
_symmetry_space_group_name_H-M   'P 1'
_cell_length_a   8.13650700
_cell_length_b   8.13650696
_cell_length_c   7.78221000
_cell_angle_alpha   90.00000000
_cell_angle_beta   90.00000000
_cell_angle_gamma   119.99999611
_symmetry_Int_Tables_number   1
_chemical_formula_structural   Tm8Si12RuPt3
_chemical_formula_sum   'Tm8 Si12 Ru1 Pt3'
_cell_volume   446.17948431
_cell_formula_units_Z   1
loop_
 _symmetry_equiv_pos_site_id
 _symmetry_equiv_pos_as_xyz
  1  'x, y, z'
loop_
 _atom_site_type_symbol
 _atom_site_label
 _atom_site_symmetry_multiplicity
 _atom_site_fract_x
 _atom_site_fract_y
 _atom_site_fract_z
 _atom_site_occupancy
  Tm  Tm0  1  0.509850  0.019698  0.245341  1
  Tm  Tm1  1  0.486440  0.972880  0.753874  1
  Tm  Tm2  1  0.980302  0.490150  0.245341  1
  Tm  Tm3  1  0.027120  0.513560  0.753874  1
  Tm  Tm4  1  0.509850  0.490150  0.245341  1
  Tm  Tm5  1  0.486440  0.513560  0.753874  1
  Tm  Tm6  1  0.000000  0.000000  0.249950  1
  Tm  Tm7  1  0.000000  0.000000  0.751722  1
  Si  Si8  1  0.168609  0.337216  0.003294  1
  Si  Si9  1  0.836577  0.673155  0.996684  1
  Si  Si10  1  0.662784  0.831391  0.003294  1
  Si  Si11  1  0.834839  0.669678  0.501782  1
  Si  Si12  1  0.326845  0.163423  0.996684  1
  Si  Si13  1  0.165191  0.330381  0.498693  1
  Si  Si14  1  0.168609  0.831391  0.003294  1
  Si  Si15  1  0.330322  0.165161  0.501782  1
  Si  Si16  1  0.836577  0.163423  0.996684  1
  Si  Si17  1  0.669619  0.834809  0.498693  1
  Si  Si18  1  0.834839  0.165161  0.501782  1
  Si  Si19  1  0.165191  0.834809  0.498693  1
  Ru  Ru20  1  0.333333  0.666667  0.040944  1
  Pt  Pt21  1  0.666667  0.333333  0.963697  1
  Pt  Pt22  1  0.666667  0.333333  0.537746  1
  Pt  Pt23  1  0.333333  0.666667  0.456937  1
