# generated using pymatgen
data_Tm(Zr3Sn2)3
_symmetry_space_group_name_H-M   'P 1'
_cell_length_a   5.85199800
_cell_length_b   8.61912130
_cell_length_c   8.53236411
_cell_angle_alpha   119.66598056
_cell_angle_beta   89.99999329
_cell_angle_gamma   89.99988248
_symmetry_Int_Tables_number   1
_chemical_formula_structural   Tm(Zr3Sn2)3
_chemical_formula_sum   'Tm1 Zr9 Sn6'
_cell_volume   373.95479387
_cell_formula_units_Z   1
loop_
 _symmetry_equiv_pos_site_id
 _symmetry_equiv_pos_as_xyz
  1  'x, y, z'
loop_
 _atom_site_type_symbol
 _atom_site_label
 _atom_site_symmetry_multiplicity
 _atom_site_fract_x
 _atom_site_fract_y
 _atom_site_fract_z
 _atom_site_occupancy
  Tm  Tm0  1  0.249998  0.000004  0.763866  1
  Zr  Zr1  1  0.500699  0.332579  0.665364  1
  Zr  Zr2  1  0.500706  0.667413  0.332783  1
  Zr  Zr3  1  0.999296  0.667412  0.332780  1
  Zr  Zr4  1  0.999301  0.332577  0.665364  1
  Zr  Zr5  1  0.750001  0.250537  0.999928  1
  Zr  Zr6  1  0.749998  0.749438  0.749344  1
  Zr  Zr7  1  0.750003  0.000001  0.241606  1
  Zr  Zr8  1  0.250000  0.749410  0.000958  1
  Zr  Zr9  1  0.250000  0.250602  0.251560  1
  Sn  Sn10  1  0.750001  0.609468  0.999450  1
  Sn  Sn11  1  0.749998  0.390524  0.389984  1
  Sn  Sn12  1  0.750002  0.000007  0.607732  1
  Sn  Sn13  1  0.250013  0.394884  0.001868  1
  Sn  Sn14  1  0.249981  0.605145  0.607015  1
  Sn  Sn15  1  0.250002  0.999998  0.390399  1
