# generated using pymatgen
data_AcFeH6
_symmetry_space_group_name_H-M   'P 1'
_cell_length_a   4.67491834
_cell_length_b   4.67491948
_cell_length_c   4.67829309
_cell_angle_alpha   61.42886789
_cell_angle_beta   61.42885569
_cell_angle_gamma   61.41966765
_symmetry_Int_Tables_number   1
_chemical_formula_structural   AcFeH6
_chemical_formula_sum   'Ac1 Fe1 H6'
_cell_volume   74.61215439
_cell_formula_units_Z   1
loop_
 _symmetry_equiv_pos_site_id
 _symmetry_equiv_pos_as_xyz
  1  'x, y, z'
loop_
 _atom_site_type_symbol
 _atom_site_label
 _atom_site_symmetry_multiplicity
 _atom_site_fract_x
 _atom_site_fract_y
 _atom_site_fract_z
 _atom_site_occupancy
  Ac  Ac0  1  0.500000  0.500000  0.500000  1
  Fe  Fe1  1  0.000000  0.000000  0.000000  1
  H  H2  1  0.597548  0.097554  0.097427  1
  H  H3  1  0.097554  0.597548  0.097427  1
  H  H4  1  0.902576  0.902576  0.402345  1
  H  H5  1  0.097424  0.097424  0.597654  1
  H  H6  1  0.902446  0.402451  0.902573  1
  H  H7  1  0.402451  0.902446  0.902573  1
