# generated using pymatgen
data_Lu3Ga3Ge2Os
_symmetry_space_group_name_H-M   'P 1'
_cell_length_a   6.89155000
_cell_length_b   6.89154918
_cell_length_c   4.20966600
_cell_angle_alpha   90.00000000
_cell_angle_beta   90.00000000
_cell_angle_gamma   119.99999434
_symmetry_Int_Tables_number   1
_chemical_formula_structural   Lu3Ga3Ge2Os
_chemical_formula_sum   'Lu3 Ga3 Ge2 Os1'
_cell_volume   173.14584223
_cell_formula_units_Z   1
loop_
 _symmetry_equiv_pos_site_id
 _symmetry_equiv_pos_as_xyz
  1  'x, y, z'
loop_
 _atom_site_type_symbol
 _atom_site_label
 _atom_site_symmetry_multiplicity
 _atom_site_fract_x
 _atom_site_fract_y
 _atom_site_fract_z
 _atom_site_occupancy
  Lu  Lu0  1  0.413547  0.000000  0.000000  1
  Lu  Lu1  1  0.000000  0.413547  0.000000  1
  Lu  Lu2  1  0.586453  0.586454  0.000000  1
  Ga  Ga3  1  0.768428  0.000000  0.499999  1
  Ga  Ga4  1  0.231573  0.231573  0.499999  1
  Ga  Ga5  1  0.000000  0.768428  0.499999  1
  Ge  Ge6  1  0.666667  0.333334  0.499999  1
  Ge  Ge7  1  0.333333  0.666667  0.499999  1
  Os  Os8  1  0.000000  0.000000  0.000000  1
