# generated using pymatgen
data_Th2Ga9IrRu2
_symmetry_space_group_name_H-M   'P 1'
_cell_length_a   7.67851209
_cell_length_b   7.67851079
_cell_length_c   9.62788249
_cell_angle_alpha   89.95102544
_cell_angle_beta   89.95102722
_cell_angle_gamma   119.24597673
_symmetry_Int_Tables_number   1
_chemical_formula_structural   Th2Ga9IrRu2
_chemical_formula_sum   'Th4 Ga18 Ir2 Ru4'
_cell_volume   495.29592775
_cell_formula_units_Z   2
loop_
 _symmetry_equiv_pos_site_id
 _symmetry_equiv_pos_as_xyz
  1  'x, y, z'
loop_
 _atom_site_type_symbol
 _atom_site_label
 _atom_site_symmetry_multiplicity
 _atom_site_fract_x
 _atom_site_fract_y
 _atom_site_fract_z
 _atom_site_occupancy
  Th  Th0  1  0.999388  0.673176  0.250199  1
  Th  Th1  1  0.000612  0.326824  0.749801  1
  Th  Th2  1  0.673176  0.999388  0.250199  1
  Th  Th3  1  0.326824  0.000612  0.749801  1
  Ga  Ga4  1  0.131156  0.131156  0.249528  1
  Ga  Ga5  1  0.868844  0.868844  0.750472  1
  Ga  Ga6  1  0.007051  0.334879  0.078568  1
  Ga  Ga7  1  0.992949  0.665121  0.921432  1
  Ga  Ga8  1  0.991263  0.662761  0.577888  1
  Ga  Ga9  1  0.337239  0.008737  0.422112  1
  Ga  Ga10  1  0.008737  0.337239  0.422112  1
  Ga  Ga11  1  0.662761  0.991263  0.577888  1
  Ga  Ga12  1  0.665121  0.992949  0.921431  1
  Ga  Ga13  1  0.334879  0.007051  0.078569  1
  Ga  Ga14  1  0.337119  0.337119  0.556189  1
  Ga  Ga15  1  0.662881  0.662881  0.443811  1
  Ga  Ga16  1  0.665078  0.665078  0.057388  1
  Ga  Ga17  1  0.334922  0.334922  0.942612  1
  Ga  Ga18  1  0.340172  0.547315  0.251403  1
  Ga  Ga19  1  0.659828  0.452685  0.748597  1
  Ga  Ga20  1  0.547315  0.340172  0.251403  1
  Ga  Ga21  1  0.452685  0.659828  0.748597  1
  Ir  Ir22  1  0.672771  0.327229  0.000000  1
  Ir  Ir23  1  0.327229  0.672771  0.000000  1
  Ru  Ru24  1  0.326413  0.673587  0.500000  1
  Ru  Ru25  1  0.673587  0.326413  0.500000  1
  Ru  Ru26  1  0.000000  0.000000  0.000000  1
  Ru  Ru27  1  0.000000  0.000000  0.500000  1
