# generated using pymatgen
data_Lu3Al3CuNi2
_symmetry_space_group_name_H-M   'P 1'
_cell_length_a   6.94540400
_cell_length_b   6.94540410
_cell_length_c   3.80995200
_cell_angle_alpha   90.00000000
_cell_angle_beta   90.00000000
_cell_angle_gamma   119.99998998
_symmetry_Int_Tables_number   1
_chemical_formula_structural   Lu3Al3CuNi2
_chemical_formula_sum   'Lu3 Al3 Cu1 Ni2'
_cell_volume   159.16413445
_cell_formula_units_Z   1
loop_
 _symmetry_equiv_pos_site_id
 _symmetry_equiv_pos_as_xyz
  1  'x, y, z'
loop_
 _atom_site_type_symbol
 _atom_site_label
 _atom_site_symmetry_multiplicity
 _atom_site_fract_x
 _atom_site_fract_y
 _atom_site_fract_z
 _atom_site_occupancy
  Lu  Lu0  1  0.992683  0.409599  0.500000  1
  Lu  Lu1  1  0.590401  0.583084  0.500000  1
  Lu  Lu2  1  0.416916  0.007317  0.500000  1
  Al  Al3  1  0.997591  0.760601  0.000000  1
  Al  Al4  1  0.239399  0.236990  0.000000  1
  Al  Al5  1  0.763010  0.002409  0.000000  1
  Cu  Cu6  1  0.333333  0.666667  0.000000  1
  Ni  Ni7  1  0.666667  0.333333  0.000000  1
  Ni  Ni8  1  0.000000  0.000000  0.500000  1
