# generated using pymatgen
data_Li8DyY4Er3Sn7Bi
_symmetry_space_group_name_H-M   'P 1'
_cell_length_a   9.38993200
_cell_length_b   9.39000352
_cell_length_c   7.26631402
_cell_angle_alpha   90.10541954
_cell_angle_beta   90.00000000
_cell_angle_gamma   119.99974804
_symmetry_Int_Tables_number   1
_chemical_formula_structural   Li8DyY4Er3Sn7Bi
_chemical_formula_sum   'Li8 Dy1 Y4 Er3 Sn7 Bi1'
_cell_volume   554.84684201
_cell_formula_units_Z   1
loop_
 _symmetry_equiv_pos_site_id
 _symmetry_equiv_pos_as_xyz
  1  'x, y, z'
loop_
 _atom_site_type_symbol
 _atom_site_label
 _atom_site_symmetry_multiplicity
 _atom_site_fract_x
 _atom_site_fract_y
 _atom_site_fract_z
 _atom_site_occupancy
  Li  Li0  1  0.166701  0.333404  0.285048  1
  Li  Li1  1  0.168117  0.833553  0.288787  1
  Li  Li2  1  0.665436  0.833553  0.288787  1
  Li  Li3  1  0.833295  0.666591  0.786758  1
  Li  Li4  1  0.829077  0.164748  0.791133  1
  Li  Li5  1  0.335672  0.164748  0.791133  1
  Li  Li6  1  0.335343  0.670689  0.669409  1
  Li  Li7  1  0.666130  0.332261  0.172490  1
  Dy  Dy8  1  0.997743  0.995484  0.002213  1
  Y  Y9  1  0.487387  0.974776  0.994748  1
  Y  Y10  1  0.493217  0.514457  0.996449  1
  Y  Y11  1  0.021239  0.514457  0.996449  1
  Y  Y12  1  0.997450  0.994901  0.497148  1
  Er  Er13  1  0.512727  0.025452  0.493768  1
  Er  Er14  1  0.517457  0.490673  0.490975  1
  Er  Er15  1  0.973217  0.490673  0.490975  1
  Sn  Sn16  1  0.166387  0.832593  0.729448  1
  Sn  Sn17  1  0.666206  0.832593  0.729448  1
  Sn  Sn18  1  0.833286  0.666572  0.231023  1
  Sn  Sn19  1  0.833750  0.167306  0.230480  1
  Sn  Sn20  1  0.333556  0.167306  0.230480  1
  Sn  Sn21  1  0.332702  0.665405  0.262094  1
  Sn  Sn22  1  0.667068  0.334134  0.760883  1
  Bi  Bi23  1  0.166834  0.333669  0.731869  1
