# generated using pymatgen
data_La4Yb3Gd3Pt8
_symmetry_space_group_name_H-M   'P 1'
_cell_length_a   7.71063000
_cell_length_b   7.83082005
_cell_length_c   14.93100900
_cell_angle_alpha   90.08712733
_cell_angle_beta   90.00000000
_cell_angle_gamma   90.00000000
_symmetry_Int_Tables_number   1
_chemical_formula_structural   La4Yb3Gd3Pt8
_chemical_formula_sum   'La8 Yb6 Gd6 Pt16'
_cell_volume   901.54158319
_cell_formula_units_Z   2
loop_
 _symmetry_equiv_pos_site_id
 _symmetry_equiv_pos_as_xyz
  1  'x, y, z'
loop_
 _atom_site_type_symbol
 _atom_site_label
 _atom_site_symmetry_multiplicity
 _atom_site_fract_x
 _atom_site_fract_y
 _atom_site_fract_z
 _atom_site_occupancy
  La  La0  1  0.494407  0.323700  0.899741  1
  La  La1  1  0.994407  0.176300  0.600259  1
  La  La2  1  0.507457  0.679770  0.404107  1
  La  La3  1  0.007457  0.820230  0.095893  1
  La  La4  1  0.507836  0.678650  0.097576  1
  La  La5  1  0.007836  0.821350  0.402424  1
  La  La6  1  0.491655  0.321855  0.600023  1
  La  La7  1  0.991655  0.178145  0.899977  1
  Yb  Yb8  1  0.341184  0.833229  0.623500  1
  Yb  Yb9  1  0.841184  0.666771  0.876500  1
  Yb  Yb10  1  0.173794  0.502032  0.750005  1
  Yb  Yb11  1  0.673794  0.997968  0.749995  1
  Yb  Yb12  1  0.824692  0.504366  0.249839  1
  Yb  Yb13  1  0.324692  0.995634  0.250161  1
  Gd  Gd14  1  0.342204  0.834509  0.875273  1
  Gd  Gd15  1  0.842204  0.665491  0.624727  1
  Gd  Gd16  1  0.658125  0.167261  0.376175  1
  Gd  Gd17  1  0.158125  0.332739  0.123825  1
  Gd  Gd18  1  0.657872  0.167725  0.123394  1
  Gd  Gd19  1  0.157872  0.332275  0.376606  1
  Pt  Pt20  1  0.316581  0.038810  0.039203  1
  Pt  Pt21  1  0.816581  0.461190  0.460797  1
  Pt  Pt22  1  0.686244  0.959514  0.537845  1
  Pt  Pt23  1  0.186244  0.540486  0.962155  1
  Pt  Pt24  1  0.678607  0.966541  0.960031  1
  Pt  Pt25  1  0.178607  0.533459  0.539969  1
  Pt  Pt26  1  0.323180  0.040041  0.459217  1
  Pt  Pt27  1  0.823180  0.459959  0.040783  1
  Pt  Pt28  1  0.541984  0.620730  0.751336  1
  Pt  Pt29  1  0.041984  0.879270  0.748664  1
  Pt  Pt30  1  0.456769  0.378377  0.250252  1
  Pt  Pt31  1  0.956769  0.121623  0.249748  1
  Pt  Pt32  1  0.299998  0.141175  0.751610  1
  Pt  Pt33  1  0.799998  0.358825  0.748390  1
  Pt  Pt34  1  0.697410  0.862096  0.249949  1
  Pt  Pt35  1  0.197410  0.637904  0.250051  1
