# generated using pymatgen
data_Sc3As2Se
_symmetry_space_group_name_H-M   'P 1'
_cell_length_a   6.72894266
_cell_length_b   6.72894297
_cell_length_c   6.72894235
_cell_angle_alpha   146.52205667
_cell_angle_beta   131.82489564
_cell_angle_gamma   59.93682548
_symmetry_Int_Tables_number   1
_chemical_formula_structural   Sc3As2Se
_chemical_formula_sum   'Sc3 As2 Se1'
_cell_volume   124.10250422
_cell_formula_units_Z   1
loop_
 _symmetry_equiv_pos_site_id
 _symmetry_equiv_pos_as_xyz
  1  'x, y, z'
loop_
 _atom_site_type_symbol
 _atom_site_label
 _atom_site_symmetry_multiplicity
 _atom_site_fract_x
 _atom_site_fract_y
 _atom_site_fract_z
 _atom_site_occupancy
  Sc  Sc0  1  0.500000  0.000000  0.500000  1
  Sc  Sc1  1  0.173786  0.673786  0.500000  1
  Sc  Sc2  1  0.826214  0.326214  0.500000  1
  As  As3  1  0.664668  0.664668  0.000000  1
  As  As4  1  0.335332  0.335332  0.000000  1
  Se  Se5  1  0.000000  0.000000  0.000000  1
