# generated using pymatgen
data_Pr3AgSnS7
_symmetry_space_group_name_H-M   'P 1'
_cell_length_a   10.42467703
_cell_length_b   10.42364771
_cell_length_c   6.02098200
_cell_angle_alpha   90.00000000
_cell_angle_beta   90.00000000
_cell_angle_gamma   119.99922761
_symmetry_Int_Tables_number   1
_chemical_formula_structural   Pr3AgSnS7
_chemical_formula_sum   'Pr6 Ag2 Sn2 S14'
_cell_volume   566.60926876
_cell_formula_units_Z   2
loop_
 _symmetry_equiv_pos_site_id
 _symmetry_equiv_pos_as_xyz
  1  'x, y, z'
loop_
 _atom_site_type_symbol
 _atom_site_label
 _atom_site_symmetry_multiplicity
 _atom_site_fract_x
 _atom_site_fract_y
 _atom_site_fract_z
 _atom_site_occupancy
  Pr  Pr0  1  0.642101  0.769833  0.248128  1
  Pr  Pr1  1  0.127709  0.357896  0.248128  1
  Pr  Pr2  1  0.230156  0.872260  0.248122  1
  Pr  Pr3  1  0.357899  0.230167  0.748128  1
  Pr  Pr4  1  0.769844  0.127739  0.748122  1
  Pr  Pr5  1  0.872291  0.642103  0.748128  1
  Ag  Ag6  1  0.000003  0.000006  0.294974  1
  Ag  Ag7  1  0.999997  0.999994  0.794974  1
  Sn  Sn8  1  0.666580  0.333285  0.171491  1
  Sn  Sn9  1  0.333420  0.666715  0.671491  1
  S  S10  1  0.512948  0.094020  0.996429  1
  S  S11  1  0.581063  0.487028  0.996432  1
  S  S12  1  0.905904  0.418902  0.996460  1
  S  S13  1  0.333323  0.666664  0.065966  1
  S  S14  1  0.900901  0.730947  0.269953  1
  S  S15  1  0.269063  0.169960  0.269968  1
  S  S16  1  0.830040  0.099101  0.269950  1
  S  S17  1  0.487052  0.905980  0.496429  1
  S  S18  1  0.418938  0.512972  0.496432  1
  S  S19  1  0.094097  0.581098  0.496460  1
  S  S20  1  0.666676  0.333336  0.565966  1
  S  S21  1  0.099099  0.269052  0.769953  1
  S  S22  1  0.730937  0.830040  0.769968  1
  S  S23  1  0.169960  0.900899  0.769950  1
