# generated using pymatgen
data_Nd4Co6O19
_symmetry_space_group_name_H-M   'P 1'
_cell_length_a   7.48580112
_cell_length_b   7.48585482
_cell_length_c   7.48573300
_cell_angle_alpha   109.46988315
_cell_angle_beta   109.47434297
_cell_angle_gamma   109.46957012
_symmetry_Int_Tables_number   1
_chemical_formula_structural   Nd4Co6O19
_chemical_formula_sum   'Nd4 Co6 O19'
_cell_volume   322.91737000
_cell_formula_units_Z   1
loop_
 _symmetry_equiv_pos_site_id
 _symmetry_equiv_pos_as_xyz
  1  'x, y, z'
loop_
 _atom_site_type_symbol
 _atom_site_label
 _atom_site_symmetry_multiplicity
 _atom_site_fract_x
 _atom_site_fract_y
 _atom_site_fract_z
 _atom_site_occupancy
  Nd  Nd0  1  0.670230  0.000017  0.999943  1
  Nd  Nd1  1  0.000071  0.670295  0.000052  1
  Nd  Nd2  1  0.329766  0.329712  0.329779  1
  Nd  Nd3  1  0.999931  0.999985  0.670216  1
  Co  Co4  1  0.500002  0.657956  0.157953  1
  Co  Co5  1  0.842047  0.499993  0.342045  1
  Co  Co6  1  0.657902  0.157907  0.500001  1
  Co  Co7  1  0.342098  0.842102  0.500004  1
  Co  Co8  1  0.157949  0.499999  0.657946  1
  Co  Co9  1  0.499998  0.342041  0.842046  1
  O  O10  1  0.999998  0.999996  0.999996  1
  O  O11  1  0.354604  0.354609  0.000000  1
  O  O12  1  0.645401  0.645391  0.000004  1
  O  O13  1  0.747957  0.363952  0.040930  1
  O  O14  1  0.292970  0.615958  0.252012  1
  O  O15  1  0.615990  0.252056  0.292946  1
  O  O16  1  0.707034  0.959041  0.322988  1
  O  O17  1  0.000012  0.354585  0.354573  1
  O  O18  1  0.354521  0.999992  0.354522  1
  O  O19  1  0.040888  0.747948  0.363945  1
  O  O20  1  0.676992  0.636050  0.383997  1
  O  O21  1  0.252042  0.292978  0.615996  1
  O  O22  1  0.384005  0.676952  0.636061  1
  O  O23  1  0.999990  0.645393  0.645417  1
  O  O24  1  0.645464  0.000005  0.645473  1
  O  O25  1  0.636047  0.384043  0.677013  1
  O  O26  1  0.959117  0.323055  0.707074  1
  O  O27  1  0.363945  0.040966  0.747994  1
  O  O28  1  0.323021  0.707018  0.959063  1
