# generated using pymatgen
data_PaAl3Zn5
_symmetry_space_group_name_H-M   'P 1'
_cell_length_a   8.54628259
_cell_length_b   8.54628219
_cell_length_c   10.39813344
_cell_angle_alpha   114.26469828
_cell_angle_beta   114.26469951
_cell_angle_gamma   89.99999729
_symmetry_Int_Tables_number   1
_chemical_formula_structural   PaAl3Zn5
_chemical_formula_sum   'Pa4 Al12 Zn20'
_cell_volume   618.03939391
_cell_formula_units_Z   4
loop_
 _symmetry_equiv_pos_site_id
 _symmetry_equiv_pos_as_xyz
  1  'x, y, z'
loop_
 _atom_site_type_symbol
 _atom_site_label
 _atom_site_symmetry_multiplicity
 _atom_site_fract_x
 _atom_site_fract_y
 _atom_site_fract_z
 _atom_site_occupancy
  Pa  Pa0  1  0.500000  0.000000  0.000000  1
  Pa  Pa1  1  0.000000  0.500000  0.000000  1
  Pa  Pa2  1  0.722816  0.722816  0.445634  1
  Pa  Pa3  1  0.277183  0.277183  0.554366  1
  Al  Al4  1  0.370015  0.137452  0.274905  1
  Al  Al5  1  0.904891  0.137452  0.274905  1
  Al  Al6  1  0.137452  0.370015  0.274905  1
  Al  Al7  1  0.137452  0.904891  0.274905  1
  Al  Al8  1  0.000000  0.000000  0.500000  1
  Al  Al9  1  0.500000  0.000000  0.500000  1
  Al  Al10  1  0.000000  0.500000  0.500000  1
  Al  Al11  1  0.500000  0.500000  0.500000  1
  Al  Al12  1  0.862547  0.095110  0.725094  1
  Al  Al13  1  0.862547  0.629984  0.725094  1
  Al  Al14  1  0.095110  0.862547  0.725094  1
  Al  Al15  1  0.629984  0.862547  0.725094  1
  Zn  Zn16  1  0.152186  0.152186  0.000000  1
  Zn  Zn17  1  0.847814  0.152186  0.000000  1
  Zn  Zn18  1  0.152186  0.847814  0.000000  1
  Zn  Zn19  1  0.847814  0.847814  0.000000  1
  Zn  Zn20  1  0.413414  0.413414  0.153073  1
  Zn  Zn21  1  0.739660  0.413414  0.153073  1
  Zn  Zn22  1  0.413414  0.739660  0.153073  1
  Zn  Zn23  1  0.739660  0.739660  0.153073  1
  Zn  Zn24  1  0.670204  0.015771  0.340409  1
  Zn  Zn25  1  0.670204  0.324637  0.340409  1
  Zn  Zn26  1  0.015771  0.670204  0.340409  1
  Zn  Zn27  1  0.324637  0.670204  0.340409  1
  Zn  Zn28  1  0.675363  0.329796  0.659591  1
  Zn  Zn29  1  0.984229  0.329796  0.659591  1
  Zn  Zn30  1  0.329796  0.675363  0.659591  1
  Zn  Zn31  1  0.329796  0.984229  0.659591  1
  Zn  Zn32  1  0.260341  0.260341  0.846927  1
  Zn  Zn33  1  0.586587  0.260341  0.846927  1
  Zn  Zn34  1  0.260341  0.586587  0.846927  1
  Zn  Zn35  1  0.586587  0.586587  0.846927  1
