# generated using pymatgen
data_Tb5Tm3(LuSb)12
_symmetry_space_group_name_H-M   'P 1'
_cell_length_a   8.07149014
_cell_length_b   9.13699800
_cell_length_c   11.73650766
_cell_angle_alpha   90.00000000
_cell_angle_beta   90.06100905
_cell_angle_gamma   90.00000000
_symmetry_Int_Tables_number   1
_chemical_formula_structural   Tb5Tm3(LuSb)12
_chemical_formula_sum   'Tb5 Tm3 Lu12 Sb12'
_cell_volume   865.55743472
_cell_formula_units_Z   1
loop_
 _symmetry_equiv_pos_site_id
 _symmetry_equiv_pos_as_xyz
  1  'x, y, z'
loop_
 _atom_site_type_symbol
 _atom_site_label
 _atom_site_symmetry_multiplicity
 _atom_site_fract_x
 _atom_site_fract_y
 _atom_site_fract_z
 _atom_site_occupancy
  Tb  Tb0  1  0.175507  0.750000  0.228410  1
  Tb  Tb1  1  0.676011  0.250000  0.271617  1
  Tb  Tb2  1  0.824190  0.250000  0.771602  1
  Tb  Tb3  1  0.323614  0.750000  0.729041  1
  Tb  Tb4  1  0.659341  0.750000  0.290870  1
  Tm  Tm5  1  0.160607  0.250000  0.209413  1
  Tm  Tm6  1  0.339570  0.250000  0.709314  1
  Tm  Tm7  1  0.839437  0.750000  0.790599  1
  Lu  Lu8  1  0.809839  0.938547  0.064877  1
  Lu  Lu9  1  0.309767  0.061778  0.434156  1
  Lu  Lu10  1  0.190569  0.438136  0.934185  1
  Lu  Lu11  1  0.690285  0.561852  0.566271  1
  Lu  Lu12  1  0.190569  0.061864  0.934185  1
  Lu  Lu13  1  0.690285  0.938148  0.566271  1
  Lu  Lu14  1  0.809839  0.561453  0.064877  1
  Lu  Lu15  1  0.309767  0.438222  0.434156  1
  Lu  Lu16  1  0.524699  0.250000  0.995112  1
  Lu  Lu17  1  0.024812  0.750000  0.505051  1
  Lu  Lu18  1  0.474821  0.750000  0.003705  1
  Lu  Lu19  1  0.975374  0.250000  0.495642  1
  Sb  Sb20  1  0.938302  0.992329  0.327198  1
  Sb  Sb21  1  0.435865  0.009387  0.171984  1
  Sb  Sb22  1  0.063487  0.491126  0.672971  1
  Sb  Sb23  1  0.563590  0.508563  0.827225  1
  Sb  Sb24  1  0.063487  0.008874  0.672971  1
  Sb  Sb25  1  0.563590  0.991437  0.827225  1
  Sb  Sb26  1  0.938302  0.507671  0.327198  1
  Sb  Sb27  1  0.435865  0.490613  0.171984  1
  Sb  Sb28  1  0.903012  0.250000  0.027079  1
  Sb  Sb29  1  0.401078  0.750000  0.474820  1
  Sb  Sb30  1  0.097255  0.750000  0.972813  1
  Sb  Sb31  1  0.597265  0.250000  0.527179  1
