# generated using pymatgen
data_Ta2TiFe5B2
_symmetry_space_group_name_H-M   'P 1'
_cell_length_a   8.75761800
_cell_length_b   8.75761800
_cell_length_c   2.92165700
_cell_angle_alpha   90.00000000
_cell_angle_beta   90.00000000
_cell_angle_gamma   90.00000000
_symmetry_Int_Tables_number   1
_chemical_formula_structural   Ta2TiFe5B2
_chemical_formula_sum   'Ta4 Ti2 Fe10 B4'
_cell_volume   224.07903432
_cell_formula_units_Z   2
loop_
 _symmetry_equiv_pos_site_id
 _symmetry_equiv_pos_as_xyz
  1  'x, y, z'
loop_
 _atom_site_type_symbol
 _atom_site_label
 _atom_site_symmetry_multiplicity
 _atom_site_fract_x
 _atom_site_fract_y
 _atom_site_fract_z
 _atom_site_occupancy
  Ta  Ta0  1  0.824011  0.324011  0.000000  1
  Ta  Ta1  1  0.324011  0.175989  0.000000  1
  Ta  Ta2  1  0.675989  0.824011  0.000000  1
  Ta  Ta3  1  0.175989  0.675989  0.000000  1
  Ti  Ti4  1  0.000000  0.000000  0.000000  1
  Ti  Ti5  1  0.500000  0.500000  0.000000  1
  Fe  Fe6  1  0.500000  0.000000  0.500000  1
  Fe  Fe7  1  0.000000  0.500000  0.500000  1
  Fe  Fe8  1  0.068947  0.219715  0.500000  1
  Fe  Fe9  1  0.219715  0.931053  0.500000  1
  Fe  Fe10  1  0.780285  0.068947  0.500000  1
  Fe  Fe11  1  0.931053  0.780285  0.500000  1
  Fe  Fe12  1  0.431053  0.719715  0.500000  1
  Fe  Fe13  1  0.568947  0.280285  0.500000  1
  Fe  Fe14  1  0.719715  0.568947  0.500000  1
  Fe  Fe15  1  0.280285  0.431053  0.500000  1
  B  B16  1  0.621153  0.121153  0.000000  1
  B  B17  1  0.121153  0.378847  0.000000  1
  B  B18  1  0.878847  0.621153  0.000000  1
  B  B19  1  0.378847  0.878847  0.000000  1
