# generated using pymatgen
data_Pr6Dy10CdHg3Ir4
_symmetry_space_group_name_H-M   'P 1'
_cell_length_a   9.74549662
_cell_length_b   9.74866336
_cell_length_c   9.74866400
_cell_angle_alpha   59.99999782
_cell_angle_beta   59.98924817
_cell_angle_gamma   59.98924638
_symmetry_Int_Tables_number   1
_chemical_formula_structural   Pr6Dy10CdHg3Ir4
_chemical_formula_sum   'Pr6 Dy10 Cd1 Hg3 Ir4'
_cell_volume   654.79980569
_cell_formula_units_Z   1
loop_
 _symmetry_equiv_pos_site_id
 _symmetry_equiv_pos_as_xyz
  1  'x, y, z'
loop_
 _atom_site_type_symbol
 _atom_site_label
 _atom_site_symmetry_multiplicity
 _atom_site_fract_x
 _atom_site_fract_y
 _atom_site_fract_z
 _atom_site_occupancy
  Pr  Pr0  1  0.939743  0.559421  0.559421  1
  Pr  Pr1  1  0.558812  0.941022  0.941022  1
  Pr  Pr2  1  0.558812  0.941022  0.559144  1
  Pr  Pr3  1  0.939743  0.559421  0.941415  1
  Pr  Pr4  1  0.558812  0.559144  0.941022  1
  Pr  Pr5  1  0.939743  0.941415  0.559421  1
  Dy  Dy6  1  0.347966  0.347580  0.347580  1
  Dy  Dy7  1  0.347966  0.347580  0.956873  1
  Dy  Dy8  1  0.347966  0.956873  0.347580  1
  Dy  Dy9  1  0.955880  0.348040  0.348040  1
  Dy  Dy10  1  0.812323  0.187532  0.187532  1
  Dy  Dy11  1  0.186859  0.812915  0.812915  1
  Dy  Dy12  1  0.186859  0.812915  0.187312  1
  Dy  Dy13  1  0.812323  0.187532  0.812613  1
  Dy  Dy14  1  0.186859  0.187312  0.812915  1
  Dy  Dy15  1  0.812323  0.812613  0.187532  1
  Cd  Cd16  1  0.262961  0.579012  0.579012  1
  Hg  Hg17  1  0.581207  0.582933  0.582933  1
  Hg  Hg18  1  0.581207  0.582933  0.252925  1
  Hg  Hg19  1  0.581207  0.252925  0.582933  1
  Ir  Ir20  1  0.141631  0.141488  0.141488  1
  Ir  Ir21  1  0.141631  0.141488  0.575392  1
  Ir  Ir22  1  0.141631  0.575392  0.141488  1
  Ir  Ir23  1  0.575531  0.141490  0.141490  1
