# generated using pymatgen
data_ZnBi3Ru3PtO14
_symmetry_space_group_name_H-M   'P 1'
_cell_length_a   7.19431979
_cell_length_b   7.38321787
_cell_length_c   7.38321800
_cell_angle_alpha   60.00000839
_cell_angle_beta   59.12758025
_cell_angle_gamma   59.12758193
_symmetry_Int_Tables_number   1
_chemical_formula_structural   ZnBi3Ru3PtO14
_chemical_formula_sum   'Zn1 Bi3 Ru3 Pt1 O14'
_cell_volume   273.59716843
_cell_formula_units_Z   1
loop_
 _symmetry_equiv_pos_site_id
 _symmetry_equiv_pos_as_xyz
  1  'x, y, z'
loop_
 _atom_site_type_symbol
 _atom_site_label
 _atom_site_symmetry_multiplicity
 _atom_site_fract_x
 _atom_site_fract_y
 _atom_site_fract_z
 _atom_site_occupancy
  Zn  Zn0  1  0.625000  0.125000  0.125000  1
  Bi  Bi1  1  0.125000  0.125000  0.625000  1
  Bi  Bi2  1  0.125000  0.625000  0.125000  1
  Bi  Bi3  1  0.125000  0.125000  0.125000  1
  Ru  Ru4  1  0.625000  0.625000  0.125000  1
  Ru  Ru5  1  0.625000  0.125000  0.625000  1
  Ru  Ru6  1  0.625000  0.625000  0.625000  1
  Pt  Pt7  1  0.125000  0.625000  0.625000  1
  O  O8  1  0.297026  0.234324  0.234324  1
  O  O9  1  0.952974  0.015676  0.015676  1
  O  O10  1  0.550705  0.945194  0.558907  1
  O  O11  1  0.286987  0.711877  0.289260  1
  O  O12  1  0.550705  0.558907  0.945194  1
  O  O13  1  0.963013  0.538123  0.538123  1
  O  O14  1  0.550705  0.945194  0.945194  1
  O  O15  1  0.963013  0.960740  0.538123  1
  O  O16  1  0.963013  0.538123  0.960740  1
  O  O17  1  0.699295  0.304806  0.304806  1
  O  O18  1  0.286987  0.711877  0.711877  1
  O  O19  1  0.699295  0.304806  0.691093  1
  O  O20  1  0.286987  0.289260  0.711877  1
  O  O21  1  0.699295  0.691093  0.304806  1
