# generated using pymatgen
data_Yb6Zn2Ru
_symmetry_space_group_name_H-M   'P 1'
_cell_length_a   8.17509400
_cell_length_b   8.17509393
_cell_length_c   4.19420500
_cell_angle_alpha   90.00000000
_cell_angle_beta   90.00000000
_cell_angle_gamma   120.00000029
_symmetry_Int_Tables_number   1
_chemical_formula_structural   Yb6Zn2Ru
_chemical_formula_sum   'Yb6 Zn2 Ru1'
_cell_volume   242.75366215
_cell_formula_units_Z   1
loop_
 _symmetry_equiv_pos_site_id
 _symmetry_equiv_pos_as_xyz
  1  'x, y, z'
loop_
 _atom_site_type_symbol
 _atom_site_label
 _atom_site_symmetry_multiplicity
 _atom_site_fract_x
 _atom_site_fract_y
 _atom_site_fract_z
 _atom_site_occupancy
  Yb  Yb0  1  0.762141  0.000000  0.000000  1
  Yb  Yb1  1  0.237860  0.237859  0.000000  1
  Yb  Yb2  1  0.000000  0.762141  0.000000  1
  Yb  Yb3  1  0.397607  0.000000  0.500001  1
  Yb  Yb4  1  0.000000  0.397607  0.500001  1
  Yb  Yb5  1  0.602393  0.602393  0.500001  1
  Zn  Zn6  1  0.666667  0.333333  0.000000  1
  Zn  Zn7  1  0.333333  0.666666  0.000000  1
  Ru  Ru8  1  0.000000  0.000000  0.500001  1
