# generated using pymatgen
data_Dy4MnAl6Ir
_symmetry_space_group_name_H-M   'P 1'
_cell_length_a   5.54003600
_cell_length_b   5.54003694
_cell_length_c   8.73795300
_cell_angle_alpha   90.00000000
_cell_angle_beta   90.00000000
_cell_angle_gamma   119.99999438
_symmetry_Int_Tables_number   1
_chemical_formula_structural   Dy4MnAl6Ir
_chemical_formula_sum   'Dy4 Mn1 Al6 Ir1'
_cell_volume   232.25528654
_cell_formula_units_Z   1
loop_
 _symmetry_equiv_pos_site_id
 _symmetry_equiv_pos_as_xyz
  1  'x, y, z'
loop_
 _atom_site_type_symbol
 _atom_site_label
 _atom_site_symmetry_multiplicity
 _atom_site_fract_x
 _atom_site_fract_y
 _atom_site_fract_z
 _atom_site_occupancy
  Dy  Dy0  1  0.666667  0.333332  0.053749  1
  Dy  Dy1  1  0.666667  0.333332  0.444647  1
  Dy  Dy2  1  0.333334  0.666667  0.555353  1
  Dy  Dy3  1  0.333334  0.666667  0.946251  1
  Mn  Mn4  1  0.000000  0.000000  0.000000  1
  Al  Al5  1  0.162548  0.325095  0.250386  1
  Al  Al6  1  0.162547  0.837452  0.250386  1
  Al  Al7  1  0.674904  0.837452  0.250386  1
  Al  Al8  1  0.325096  0.162548  0.749614  1
  Al  Al9  1  0.837453  0.162548  0.749614  1
  Al  Al10  1  0.837453  0.674904  0.749614  1
  Ir  Ir11  1  0.000000  0.000000  0.500000  1
