# generated using pymatgen
data_RbTm6Sc4(C2I9)2
_symmetry_space_group_name_H-M   'P 1'
_cell_length_a   11.29974547
_cell_length_b   11.28443268
_cell_length_c   11.29978041
_cell_angle_alpha   113.25855455
_cell_angle_beta   86.39873082
_cell_angle_gamma   120.27162458
_symmetry_Int_Tables_number   1
_chemical_formula_structural   RbTm6Sc4(C2I9)2
_chemical_formula_sum   'Rb1 Tm6 Sc4 C4 I18'
_cell_volume   1126.27347763
_cell_formula_units_Z   1
loop_
 _symmetry_equiv_pos_site_id
 _symmetry_equiv_pos_as_xyz
  1  'x, y, z'
loop_
 _atom_site_type_symbol
 _atom_site_label
 _atom_site_symmetry_multiplicity
 _atom_site_fract_x
 _atom_site_fract_y
 _atom_site_fract_z
 _atom_site_occupancy
  Rb  Rb0  1  0.500557  0.997521  0.498998  1
  Tm  Tm1  1  0.906197  0.612865  0.708814  1
  Tm  Tm2  1  0.102524  0.942735  0.998829  1
  Tm  Tm3  1  0.035869  0.966409  0.676389  1
  Tm  Tm4  1  0.318456  0.275175  0.287521  1
  Tm  Tm5  1  0.720535  0.646646  0.985699  1
  Tm  Tm6  1  0.894870  0.054479  0.998589  1
  Sc  Sc7  1  0.694680  0.733655  0.724133  1
  Sc  Sc8  1  0.269676  0.344994  0.020238  1
  Sc  Sc9  1  0.093160  0.374818  0.281153  1
  Sc  Sc10  1  0.967657  0.041282  0.315939  1
  C  C11  1  0.150717  0.216407  0.117085  1
  C  C12  1  0.849584  0.781824  0.882765  1
  C  C13  1  0.927499  0.860608  0.805411  1
  C  C14  1  0.073020  0.138803  0.194279  1
  I  I15  1  0.452787  0.532880  0.831794  1
  I  I16  1  0.383710  0.041627  0.158058  1
  I  I17  1  0.778436  0.858326  0.504785  1
  I  I18  1  0.846926  0.313203  0.158529  1
  I  I19  1  0.542378  0.468468  0.164520  1
  I  I20  1  0.213562  0.142457  0.493802  1
  I  I21  1  0.316996  0.104245  0.832499  1
  I  I22  1  0.687278  0.905822  0.176457  1
  I  I23  1  0.971163  0.760482  0.173644  1
  I  I24  1  0.937465  0.293310  0.491917  1
  I  I25  1  0.034653  0.251993  0.836199  1
  I  I26  1  0.068065  0.707796  0.501205  1
  I  I27  1  0.257972  0.609481  0.180984  1
  I  I28  1  0.738771  0.376399  0.815960  1
  I  I29  1  0.642812  0.447259  0.508548  1
  I  I30  1  0.160408  0.689223  0.845742  1
  I  I31  1  0.619231  0.951326  0.839427  1
  I  I32  1  0.342386  0.557482  0.490090  1
