# generated using pymatgen
data_Tb6AlIn5Au6
_symmetry_space_group_name_H-M   'P 1'
_cell_length_a   7.77133672
_cell_length_b   7.72811496
_cell_length_c   7.97403405
_cell_angle_alpha   90.00000096
_cell_angle_beta   89.98659433
_cell_angle_gamma   119.81620472
_symmetry_Int_Tables_number   1
_chemical_formula_structural   Tb6AlIn5Au6
_chemical_formula_sum   'Tb6 Al1 In5 Au6'
_cell_volume   415.50796998
_cell_formula_units_Z   1
loop_
 _symmetry_equiv_pos_site_id
 _symmetry_equiv_pos_as_xyz
  1  'x, y, z'
loop_
 _atom_site_type_symbol
 _atom_site_label
 _atom_site_symmetry_multiplicity
 _atom_site_fract_x
 _atom_site_fract_y
 _atom_site_fract_z
 _atom_site_occupancy
  Tb  Tb0  1  0.592752  0.997277  0.749511  1
  Tb  Tb1  1  0.003430  0.593553  0.747521  1
  Tb  Tb2  1  0.404403  0.407060  0.749423  1
  Tb  Tb3  1  0.996570  0.590123  0.252479  1
  Tb  Tb4  1  0.595597  0.002657  0.250577  1
  Tb  Tb5  1  0.407248  0.404525  0.250489  1
  Al  Al6  1  0.000000  0.252774  0.500000  1
  In  In7  1  0.746951  0.745539  0.999603  1
  In  In8  1  0.253049  0.998588  0.000397  1
  In  In9  1  0.000000  0.261414  0.000000  1
  In  In10  1  0.736696  0.738646  0.500193  1
  In  In11  1  0.263304  0.001951  0.499807  1
  Au  Au12  1  0.000077  0.013487  0.741852  1
  Au  Au13  1  0.999923  0.013410  0.258148  1
  Au  Au14  1  0.664896  0.332376  0.995367  1
  Au  Au15  1  0.679596  0.329367  0.504604  1
  Au  Au16  1  0.320404  0.649771  0.495396  1
  Au  Au17  1  0.335104  0.667481  0.004633  1
