# generated using pymatgen
data_Ac7La13Si15Pt
_symmetry_space_group_name_H-M   'P 1'
_cell_length_a   8.12644799
_cell_length_b   8.11130445
_cell_length_c   15.58608500
_cell_angle_alpha   90.24658022
_cell_angle_beta   89.60410949
_cell_angle_gamma   90.01818296
_symmetry_Int_Tables_number   1
_chemical_formula_structural   Ac7La13Si15Pt
_chemical_formula_sum   'Ac7 La13 Si15 Pt1'
_cell_volume   1027.33975884
_cell_formula_units_Z   1
loop_
 _symmetry_equiv_pos_site_id
 _symmetry_equiv_pos_as_xyz
  1  'x, y, z'
loop_
 _atom_site_type_symbol
 _atom_site_label
 _atom_site_symmetry_multiplicity
 _atom_site_fract_x
 _atom_site_fract_y
 _atom_site_fract_z
 _atom_site_occupancy
  Ac  Ac0  1  0.368811  0.016039  0.450281  1
  Ac  Ac1  1  0.481902  0.872636  0.701085  1
  Ac  Ac2  1  0.512942  0.126172  0.199678  1
  Ac  Ac3  1  0.870793  0.484464  0.296125  1
  Ac  Ac4  1  0.128262  0.511643  0.799597  1
  Ac  Ac5  1  0.631680  0.983265  0.953968  1
  Ac  Ac6  1  0.011256  0.370301  0.549688  1
  La  La7  1  0.309903  0.306466  0.999689  1
  La  La8  1  0.190180  0.808188  0.249133  1
  La  La9  1  0.808957  0.187018  0.752146  1
  La  La10  1  0.689918  0.687681  0.498083  1
  La  La11  1  0.991921  0.623432  0.053125  1
  La  La12  1  0.132622  0.987275  0.877262  1
  La  La13  1  0.516452  0.630090  0.126608  1
  La  La14  1  0.480535  0.368137  0.628549  1
  La  La15  1  0.631421  0.521435  0.875765  1
  La  La16  1  0.372594  0.483433  0.370871  1
  La  La17  1  0.870852  0.017175  0.375306  1
  La  La18  1  0.983515  0.127797  0.123210  1
  La  La19  1  0.016967  0.873910  0.622444  1
  Si  Si20  1  0.331607  0.695801  0.954395  1
  Si  Si21  1  0.661248  0.301132  0.453138  1
  Si  Si22  1  0.705629  0.343405  0.049375  1
  Si  Si23  1  0.301350  0.664143  0.544959  1
  Si  Si24  1  0.804097  0.834215  0.201047  1
  Si  Si25  1  0.163605  0.199082  0.295931  1
  Si  Si26  1  0.837182  0.803277  0.796207  1
  Si  Si27  1  0.282534  0.917985  0.059956  1
  Si  Si28  1  0.581456  0.786425  0.308967  1
  Si  Si29  1  0.429172  0.215370  0.813835  1
  Si  Si30  1  0.784727  0.580858  0.690202  1
  Si  Si31  1  0.212788  0.422114  0.189107  1
  Si  Si32  1  0.708226  0.077994  0.558367  1
  Si  Si33  1  0.922379  0.291799  0.942720  1
  Si  Si34  1  0.078859  0.714558  0.439720  1
  Pt  Pt35  1  0.193656  0.165284  0.699465  1
