# generated using pymatgen
data_Ce3Si4Ir3Ru
_symmetry_space_group_name_H-M   'P 1'
_cell_length_a   4.06525401
_cell_length_b   4.21887760
_cell_length_c   12.38360235
_cell_angle_alpha   80.19233215
_cell_angle_beta   80.55281729
_cell_angle_gamma   89.99998819
_symmetry_Int_Tables_number   1
_chemical_formula_structural   Ce3Si4Ir3Ru
_chemical_formula_sum   'Ce3 Si4 Ir3 Ru1'
_cell_volume   206.36087855
_cell_formula_units_Z   1
loop_
 _symmetry_equiv_pos_site_id
 _symmetry_equiv_pos_as_xyz
  1  'x, y, z'
loop_
 _atom_site_type_symbol
 _atom_site_label
 _atom_site_symmetry_multiplicity
 _atom_site_fract_x
 _atom_site_fract_y
 _atom_site_fract_z
 _atom_site_occupancy
  Ce  Ce0  1  0.999979  0.999979  0.000044  1
  Ce  Ce1  1  0.854645  0.354645  0.290711  1
  Ce  Ce2  1  0.145455  0.645455  0.709089  1
  Si  Si3  1  0.698754  0.198754  0.602492  1
  Si  Si4  1  0.301123  0.801123  0.397752  1
  Si  Si5  1  0.450808  0.450808  0.098384  1
  Si  Si6  1  0.549261  0.549261  0.901478  1
  Ir  Ir7  1  0.598317  0.098317  0.803364  1
  Ir  Ir8  1  0.401629  0.901629  0.196742  1
  Ir  Ir9  1  0.250166  0.250166  0.499668  1
  Ru  Ru10  1  0.749862  0.749862  0.500274  1
