# generated using pymatgen
data_V12AsP6
_symmetry_space_group_name_H-M   'P 1'
_cell_length_a   9.40859002
_cell_length_b   9.35449831
_cell_length_c   3.24250400
_cell_angle_alpha   90.00000000
_cell_angle_beta   90.00000000
_cell_angle_gamma   120.19834060
_symmetry_Int_Tables_number   1
_chemical_formula_structural   V12AsP6
_chemical_formula_sum   'V12 As1 P6'
_cell_volume   246.65205471
_cell_formula_units_Z   1
loop_
 _symmetry_equiv_pos_site_id
 _symmetry_equiv_pos_as_xyz
  1  'x, y, z'
loop_
 _atom_site_type_symbol
 _atom_site_label
 _atom_site_symmetry_multiplicity
 _atom_site_fract_x
 _atom_site_fract_y
 _atom_site_fract_z
 _atom_site_occupancy
  V  V0  1  0.189161  0.999852  0.000000  1
  V  V1  1  0.123521  0.607163  0.000000  1
  V  V2  1  0.007466  0.209468  0.000000  1
  V  V3  1  0.501662  0.867213  0.000000  1
  V  V4  1  0.265578  0.252210  0.500000  1
  V  V5  1  0.378879  0.510394  0.000000  1
  V  V6  1  0.797438  0.800878  0.000000  1
  V  V7  1  0.627498  0.496352  0.500000  1
  V  V8  1  0.506986  0.136016  0.500000  1
  V  V9  1  0.982845  0.734345  0.500000  1
  V  V10  1  0.869614  0.373526  0.500000  1
  V  V11  1  0.748185  0.014524  0.500000  1
  As  As12  1  0.285954  0.840999  0.500000  1
  P  P13  1  0.159250  0.440635  0.500000  1
  P  P14  1  0.561783  0.714395  0.500000  1
  P  P15  1  0.461650  0.292068  0.000000  1
  P  P16  1  0.997154  0.001199  0.500000  1
  P  P17  1  0.827499  0.537018  0.000000  1
  P  P18  1  0.707874  0.171748  0.000000  1
