# generated using pymatgen
data_Hf3Zr7(ZnPb3)2
_symmetry_space_group_name_H-M   'P 1'
_cell_length_a   8.80688400
_cell_length_b   8.80688463
_cell_length_c   5.95834400
_cell_angle_alpha   90.00000000
_cell_angle_beta   90.00000000
_cell_angle_gamma   119.99999763
_symmetry_Int_Tables_number   1
_chemical_formula_structural   Hf3Zr7(ZnPb3)2
_chemical_formula_sum   'Hf3 Zr7 Zn2 Pb6'
_cell_volume   400.22185310
_cell_formula_units_Z   1
loop_
 _symmetry_equiv_pos_site_id
 _symmetry_equiv_pos_as_xyz
  1  'x, y, z'
loop_
 _atom_site_type_symbol
 _atom_site_label
 _atom_site_symmetry_multiplicity
 _atom_site_fract_x
 _atom_site_fract_y
 _atom_site_fract_z
 _atom_site_occupancy
  Hf  Hf0  1  0.666667  0.333333  0.500000  1
  Hf  Hf1  1  0.666667  0.333333  0.000000  1
  Hf  Hf2  1  0.333333  0.666667  0.500000  1
  Zr  Zr3  1  0.333333  0.666667  0.000000  1
  Zr  Zr4  1  0.263623  0.000122  0.249853  1
  Zr  Zr5  1  0.263623  0.263500  0.750147  1
  Zr  Zr6  1  0.999878  0.736377  0.750147  1
  Zr  Zr7  1  0.999878  0.263500  0.249853  1
  Zr  Zr8  1  0.736500  0.736377  0.249853  1
  Zr  Zr9  1  0.736500  0.000122  0.750147  1
  Zn  Zn10  1  0.000000  0.000000  0.000000  1
  Zn  Zn11  1  0.000000  0.000000  0.500000  1
  Pb  Pb12  1  0.614553  0.000257  0.250264  1
  Pb  Pb13  1  0.614553  0.614296  0.749736  1
  Pb  Pb14  1  0.999743  0.385447  0.749736  1
  Pb  Pb15  1  0.999743  0.614296  0.250264  1
  Pb  Pb16  1  0.385704  0.385447  0.250264  1
  Pb  Pb17  1  0.385704  0.000257  0.749736  1
