# generated using pymatgen
data_HoBi11S18
_symmetry_space_group_name_H-M   'P 1'
_cell_length_a   4.09153700
_cell_length_b   10.85287178
_cell_length_c   18.45877096
_cell_angle_alpha   80.97275531
_cell_angle_beta   90.00000000
_cell_angle_gamma   90.00000000
_symmetry_Int_Tables_number   1
_chemical_formula_structural   HoBi11S18
_chemical_formula_sum   'Ho1 Bi11 S18'
_cell_volume   809.50792462
_cell_formula_units_Z   1
loop_
 _symmetry_equiv_pos_site_id
 _symmetry_equiv_pos_as_xyz
  1  'x, y, z'
loop_
 _atom_site_type_symbol
 _atom_site_label
 _atom_site_symmetry_multiplicity
 _atom_site_fract_x
 _atom_site_fract_y
 _atom_site_fract_z
 _atom_site_occupancy
  Ho  Ho0  1  0.250000  0.811497  0.025319  1
  Bi  Bi1  1  0.750000  0.563901  0.897696  1
  Bi  Bi2  1  0.250000  0.436400  0.107913  1
  Bi  Bi3  1  0.750000  0.479413  0.593985  1
  Bi  Bi4  1  0.250000  0.522827  0.404726  1
  Bi  Bi5  1  0.750000  0.196241  0.280068  1
  Bi  Bi6  1  0.250000  0.805454  0.722762  1
  Bi  Bi7  1  0.750000  0.828674  0.216974  1
  Bi  Bi8  1  0.250000  0.172166  0.777198  1
  Bi  Bi9  1  0.750000  0.101647  0.584389  1
  Bi  Bi10  1  0.250000  0.896020  0.413338  1
  Bi  Bi11  1  0.750000  0.179859  0.968842  1
  S  S12  1  0.750000  0.374588  0.470475  1
  S  S13  1  0.250000  0.626623  0.529891  1
  S  S14  1  0.750000  0.308387  0.825705  1
  S  S15  1  0.250000  0.692977  0.172817  1
  S  S16  1  0.750000  0.943023  0.070222  1
  S  S17  1  0.250000  0.041824  0.924298  1
  S  S18  1  0.750000  0.716884  0.365883  1
  S  S19  1  0.250000  0.283522  0.632244  1
  S  S20  1  0.750000  0.006538  0.730950  1
  S  S21  1  0.250000  0.995847  0.269318  1
  S  S22  1  0.750000  0.642130  0.718258  1
  S  S23  1  0.250000  0.360373  0.284777  1
  S  S24  1  0.250000  0.936802  0.576892  1
  S  S25  1  0.750000  0.059265  0.426499  1
  S  S26  1  0.250000  0.738081  0.880452  1
  S  S27  1  0.750000  0.268325  0.127243  1
  S  S28  1  0.250000  0.385944  0.969433  1
  S  S29  1  0.750000  0.624766  0.031432  1
