# generated using pymatgen
data_Sr2Ac3Sn3Cl
_symmetry_space_group_name_H-M   'P 1'
_cell_length_a   9.94126100
_cell_length_b   9.94126162
_cell_length_c   7.27021600
_cell_angle_alpha   90.00000000
_cell_angle_beta   90.00000000
_cell_angle_gamma   120.00000126
_symmetry_Int_Tables_number   1
_chemical_formula_structural   Sr2Ac3Sn3Cl
_chemical_formula_sum   'Sr4 Ac6 Sn6 Cl2'
_cell_volume   622.24428908
_cell_formula_units_Z   2
loop_
 _symmetry_equiv_pos_site_id
 _symmetry_equiv_pos_as_xyz
  1  'x, y, z'
loop_
 _atom_site_type_symbol
 _atom_site_label
 _atom_site_symmetry_multiplicity
 _atom_site_fract_x
 _atom_site_fract_y
 _atom_site_fract_z
 _atom_site_occupancy
  Sr  Sr0  1  0.333333  0.666667  0.500000  1
  Sr  Sr1  1  0.666667  0.333333  0.500000  1
  Sr  Sr2  1  0.333333  0.666667  0.000000  1
  Sr  Sr3  1  0.666667  0.333333  0.000000  1
  Ac  Ac4  1  0.266176  0.266176  0.750000  1
  Ac  Ac5  1  0.000000  0.733824  0.750000  1
  Ac  Ac6  1  0.733824  0.000000  0.750000  1
  Ac  Ac7  1  0.000000  0.266176  0.250000  1
  Ac  Ac8  1  0.733824  0.733824  0.250000  1
  Ac  Ac9  1  0.266176  0.000000  0.250000  1
  Sn  Sn10  1  0.614577  0.000000  0.250000  1
  Sn  Sn11  1  0.000000  0.385423  0.750000  1
  Sn  Sn12  1  0.385423  0.000000  0.750000  1
  Sn  Sn13  1  0.614577  0.614577  0.750000  1
  Sn  Sn14  1  0.000000  0.614577  0.250000  1
  Sn  Sn15  1  0.385423  0.385423  0.250000  1
  Cl  Cl16  1  0.000000  0.000000  0.000000  1
  Cl  Cl17  1  0.000000  0.000000  0.500000  1
