# generated using pymatgen
data_TbEr3(CuP2)4
_symmetry_space_group_name_H-M   'P 1'
_cell_length_a   3.70747200
_cell_length_b   3.73929902
_cell_length_c   19.37868013
_cell_angle_alpha   90.01305353
_cell_angle_beta   90.00000000
_cell_angle_gamma   90.00000000
_symmetry_Int_Tables_number   1
_chemical_formula_structural   TbEr3(CuP2)4
_chemical_formula_sum   'Tb1 Er3 Cu4 P8'
_cell_volume   268.65334901
_cell_formula_units_Z   1
loop_
 _symmetry_equiv_pos_site_id
 _symmetry_equiv_pos_as_xyz
  1  'x, y, z'
loop_
 _atom_site_type_symbol
 _atom_site_label
 _atom_site_symmetry_multiplicity
 _atom_site_fract_x
 _atom_site_fract_y
 _atom_site_fract_z
 _atom_site_occupancy
  Tb  Tb0  1  0.250000  0.723822  0.383157  1
  Er  Er1  1  0.250000  0.775684  0.882894  1
  Er  Er2  1  0.750000  0.276506  0.618044  1
  Er  Er3  1  0.750000  0.224259  0.116662  1
  Cu  Cu4  1  0.250000  0.227831  0.248799  1
  Cu  Cu5  1  0.750000  0.771989  0.750158  1
  Cu  Cu6  1  0.250000  0.271846  0.749884  1
  Cu  Cu7  1  0.750000  0.727961  0.249454  1
  P  P8  1  0.750000  0.799607  0.502760  1
  P  P9  1  0.750000  0.701479  0.001268  1
  P  P10  1  0.250000  0.200970  0.500113  1
  P  P11  1  0.250000  0.298559  0.998728  1
  P  P12  1  0.250000  0.725864  0.170308  1
  P  P13  1  0.750000  0.225257  0.327367  1
  P  P14  1  0.750000  0.274028  0.829170  1
  P  P15  1  0.250000  0.774338  0.671232  1
