# generated using pymatgen
data_EuMo(PO4)2
_symmetry_space_group_name_H-M   'P 1'
_cell_length_a   4.86783355
_cell_length_b   4.86783423
_cell_length_c   7.29928400
_cell_angle_alpha   91.62661246
_cell_angle_beta   91.62661269
_cell_angle_gamma   66.04825906
_symmetry_Int_Tables_number   1
_chemical_formula_structural   EuMo(PO4)2
_chemical_formula_sum   'Eu1 Mo1 P2 O8'
_cell_volume   157.97761971
_cell_formula_units_Z   1
loop_
 _symmetry_equiv_pos_site_id
 _symmetry_equiv_pos_as_xyz
  1  'x, y, z'
loop_
 _atom_site_type_symbol
 _atom_site_label
 _atom_site_symmetry_multiplicity
 _atom_site_fract_x
 _atom_site_fract_y
 _atom_site_fract_z
 _atom_site_occupancy
  Eu  Eu0  1  0.000000  0.000000  0.500000  1
  Mo  Mo1  1  0.000000  0.000000  0.000000  1
  P  P2  1  0.363075  0.363075  0.231514  1
  P  P3  1  0.636925  0.636925  0.768486  1
  O  O4  1  0.245184  0.245184  0.063267  1
  O  O5  1  0.713890  0.232537  0.218631  1
  O  O6  1  0.232537  0.713890  0.218631  1
  O  O7  1  0.286948  0.286948  0.419375  1
  O  O8  1  0.713051  0.713051  0.580625  1
  O  O9  1  0.767463  0.286110  0.781369  1
  O  O10  1  0.286110  0.767463  0.781369  1
  O  O11  1  0.754816  0.754816  0.936733  1
