# generated using pymatgen
data_Yb3CrFeC6
_symmetry_space_group_name_H-M   'P 1'
_cell_length_a   8.05347500
_cell_length_b   8.05347394
_cell_length_c   4.95217000
_cell_angle_alpha   90.00000000
_cell_angle_beta   90.00000000
_cell_angle_gamma   120.00000026
_symmetry_Int_Tables_number   1
_chemical_formula_structural   Yb3CrFeC6
_chemical_formula_sum   'Yb6 Cr2 Fe2 C12'
_cell_volume   278.15876398
_cell_formula_units_Z   2
loop_
 _symmetry_equiv_pos_site_id
 _symmetry_equiv_pos_as_xyz
  1  'x, y, z'
loop_
 _atom_site_type_symbol
 _atom_site_label
 _atom_site_symmetry_multiplicity
 _atom_site_fract_x
 _atom_site_fract_y
 _atom_site_fract_z
 _atom_site_occupancy
  Yb  Yb0  1  0.610497  0.682804  0.750000  1
  Yb  Yb1  1  0.927694  0.610497  0.250000  1
  Yb  Yb2  1  0.682804  0.072306  0.250000  1
  Yb  Yb3  1  0.317196  0.927694  0.750000  1
  Yb  Yb4  1  0.072306  0.389503  0.750000  1
  Yb  Yb5  1  0.389503  0.317196  0.250000  1
  Cr  Cr6  1  0.000000  0.000000  0.500000  1
  Cr  Cr7  1  0.000000  0.000000  0.000000  1
  Fe  Fe8  1  0.666667  0.333333  0.750000  1
  Fe  Fe9  1  0.333333  0.666667  0.250000  1
  C  C10  1  0.952934  0.768990  0.750000  1
  C  C11  1  0.183944  0.952934  0.250000  1
  C  C12  1  0.768990  0.816056  0.250000  1
  C  C13  1  0.231010  0.183944  0.750000  1
  C  C14  1  0.816056  0.047066  0.750000  1
  C  C15  1  0.047066  0.231010  0.250000  1
  C  C16  1  0.857298  0.576887  0.750000  1
  C  C17  1  0.280410  0.857298  0.250000  1
  C  C18  1  0.576887  0.719590  0.250000  1
  C  C19  1  0.423113  0.280410  0.750000  1
  C  C20  1  0.142702  0.423113  0.250000  1
  C  C21  1  0.719590  0.142702  0.750000  1
