# generated using pymatgen
data_Dy24NiRu13
_symmetry_space_group_name_H-M   'P 1'
_cell_length_a   11.36005525
_cell_length_b   8.40201645
_cell_length_c   11.26987566
_cell_angle_alpha   56.32353521
_cell_angle_beta   89.87656594
_cell_angle_gamma   89.84196224
_symmetry_Int_Tables_number   1
_chemical_formula_structural   Dy24NiRu13
_chemical_formula_sum   'Dy24 Ni1 Ru13'
_cell_volume   895.15784094
_cell_formula_units_Z   1
loop_
 _symmetry_equiv_pos_site_id
 _symmetry_equiv_pos_as_xyz
  1  'x, y, z'
loop_
 _atom_site_type_symbol
 _atom_site_label
 _atom_site_symmetry_multiplicity
 _atom_site_fract_x
 _atom_site_fract_y
 _atom_site_fract_z
 _atom_site_occupancy
  Dy  Dy0  1  0.846895  0.508042  0.655236  1
  Dy  Dy1  1  0.494487  0.850322  0.861697  1
  Dy  Dy2  1  0.654029  0.507021  0.156650  1
  Dy  Dy3  1  0.801138  0.759514  0.824026  1
  Dy  Dy4  1  0.569171  0.777636  0.589269  1
  Dy  Dy5  1  0.925825  0.280000  0.292802  1
  Dy  Dy6  1  0.575106  0.278007  0.796229  1
  Dy  Dy7  1  0.293875  0.757384  0.467869  1
  Dy  Dy8  1  0.301693  0.242666  0.672363  1
  Dy  Dy9  1  0.422499  0.722766  0.205171  1
  Dy  Dy10  1  0.432196  0.221977  0.410063  1
  Dy  Dy11  1  0.506859  0.149202  0.139008  1
  Dy  Dy12  1  0.345803  0.499701  0.841475  1
  Dy  Dy13  1  0.006724  0.851285  0.359584  1
  Dy  Dy14  1  0.074452  0.719661  0.707719  1
  Dy  Dy15  1  0.928446  0.777159  0.089460  1
  Dy  Dy16  1  0.203019  0.753886  0.970355  1
  Dy  Dy17  1  0.794956  0.243541  0.031388  1
  Dy  Dy18  1  0.706165  0.242648  0.532096  1
  Dy  Dy19  1  0.993863  0.147213  0.640122  1
  Dy  Dy20  1  0.696959  0.757492  0.325167  1
  Dy  Dy21  1  0.199935  0.238509  0.176289  1
  Dy  Dy22  1  0.153224  0.491807  0.344007  1
  Dy  Dy23  1  0.070417  0.219837  0.911594  1
  Ni  Ni24  1  0.345292  0.088133  0.961368  1
  Ru  Ru25  1  0.498586  0.497387  0.502151  1
  Ru  Ru26  1  0.188446  0.902401  0.147880  1
  Ru  Ru27  1  0.854906  0.924409  0.534649  1
  Ru  Ru28  1  0.397199  0.487047  0.101111  1
  Ru  Ru29  1  0.104789  0.481029  0.605782  1
  Ru  Ru30  1  0.650094  0.918094  0.036775  1
  Ru  Ru31  1  0.601536  0.514255  0.896845  1
  Ru  Ru32  1  0.000297  0.498496  0.000766  1
  Ru  Ru33  1  0.682359  0.096217  0.350412  1
  Ru  Ru34  1  0.145183  0.073005  0.465648  1
  Ru  Ru35  1  0.317656  0.905216  0.651369  1
  Ru  Ru36  1  0.898073  0.515307  0.397473  1
  Ru  Ru37  1  0.817843  0.101728  0.848133  1
