# generated using pymatgen
data_LuUTeN2
_symmetry_space_group_name_H-M   'P 1'
_cell_length_a   6.79298377
_cell_length_b   6.79298451
_cell_length_c   6.79298483
_cell_angle_alpha   146.73261138
_cell_angle_beta   146.73262672
_cell_angle_gamma   47.75984559
_symmetry_Int_Tables_number   1
_chemical_formula_structural   LuUTeN2
_chemical_formula_sum   'Lu1 U1 Te1 N2'
_cell_volume   93.94476997
_cell_formula_units_Z   1
loop_
 _symmetry_equiv_pos_site_id
 _symmetry_equiv_pos_as_xyz
  1  'x, y, z'
loop_
 _atom_site_type_symbol
 _atom_site_label
 _atom_site_symmetry_multiplicity
 _atom_site_fract_x
 _atom_site_fract_y
 _atom_site_fract_z
 _atom_site_occupancy
  Lu  Lu0  1  0.336649  0.336649  0.000000  1
  U  U1  1  0.667375  0.667375  0.000000  1
  Te  Te2  1  0.003497  0.003497  0.000000  1
  N  N3  1  0.746239  0.246239  0.500000  1
  N  N4  1  0.246239  0.746239  0.500000  1
