# generated using pymatgen
data_Sr3Ga3Si2RuO14
_symmetry_space_group_name_H-M   'P 1'
_cell_length_a   8.34414700
_cell_length_b   8.34425180
_cell_length_c   5.13934200
_cell_angle_alpha   89.99904965
_cell_angle_beta   89.99782045
_cell_angle_gamma   120.00013093
_symmetry_Int_Tables_number   1
_chemical_formula_structural   Sr3Ga3Si2RuO14
_chemical_formula_sum   'Sr3 Ga3 Si2 Ru1 O14'
_cell_volume   309.88954545
_cell_formula_units_Z   1
loop_
 _symmetry_equiv_pos_site_id
 _symmetry_equiv_pos_as_xyz
  1  'x, y, z'
loop_
 _atom_site_type_symbol
 _atom_site_label
 _atom_site_symmetry_multiplicity
 _atom_site_fract_x
 _atom_site_fract_y
 _atom_site_fract_z
 _atom_site_occupancy
  Sr  Sr0  1  0.426845  0.000004  0.000001  1
  Sr  Sr1  1  0.999997  0.426838  0.000000  1
  Sr  Sr2  1  0.573159  0.573165  0.000003  1
  Ga  Ga3  1  0.750213  0.000003  0.500003  1
  Ga  Ga4  1  0.999999  0.750210  0.500000  1
  Ga  Ga5  1  0.249786  0.249791  0.499998  1
  Si  Si6  1  0.666667  0.333336  0.464582  1
  Si  Si7  1  0.333331  0.666667  0.535420  1
  Ru  Ru8  1  0.000001  0.000004  0.999999  1
  O  O9  1  0.333339  0.666669  0.221672  1
  O  O10  1  0.127615  0.908767  0.229123  1
  O  O11  1  0.091229  0.218844  0.229126  1
  O  O12  1  0.781156  0.872386  0.229132  1
  O  O13  1  0.473081  0.306507  0.330891  1
  O  O14  1  0.693495  0.166576  0.330896  1
  O  O15  1  0.833417  0.526909  0.330897  1
  O  O16  1  0.166579  0.693488  0.669104  1
  O  O17  1  0.306506  0.473083  0.669106  1
  O  O18  1  0.526919  0.833424  0.669109  1
  O  O19  1  0.218845  0.091227  0.770865  1
  O  O20  1  0.908772  0.127615  0.770871  1
  O  O21  1  0.872385  0.781155  0.770875  1
  O  O22  1  0.666661  0.333329  0.778329  1
