# generated using pymatgen
data_Gd6InSi2
_symmetry_space_group_name_H-M   'P 1'
_cell_length_a   8.57091923
_cell_length_b   8.57091992
_cell_length_c   8.57092000
_cell_angle_alpha   112.34055162
_cell_angle_beta   110.83756804
_cell_angle_gamma   105.31759181
_symmetry_Int_Tables_number   1
_chemical_formula_structural   Gd6InSi2
_chemical_formula_sum   'Gd12 In2 Si4'
_cell_volume   482.70371997
_cell_formula_units_Z   2
loop_
 _symmetry_equiv_pos_site_id
 _symmetry_equiv_pos_as_xyz
  1  'x, y, z'
loop_
 _atom_site_type_symbol
 _atom_site_label
 _atom_site_symmetry_multiplicity
 _atom_site_fract_x
 _atom_site_fract_y
 _atom_site_fract_z
 _atom_site_occupancy
  Gd  Gd0  1  0.442867  0.237951  0.203092  1
  Gd  Gd1  1  0.557133  0.762049  0.796908  1
  Gd  Gd2  1  0.034858  0.237951  0.795083  1
  Gd  Gd3  1  0.965142  0.762049  0.204917  1
  Gd  Gd4  1  0.185351  0.278896  0.465112  1
  Gd  Gd5  1  0.814649  0.721104  0.534888  1
  Gd  Gd6  1  0.186215  0.721104  0.906455  1
  Gd  Gd7  1  0.813785  0.278896  0.093545  1
  Gd  Gd8  1  0.319593  0.616317  0.296725  1
  Gd  Gd9  1  0.680407  0.383683  0.703275  1
  Gd  Gd10  1  0.319623  0.022949  0.703325  1
  Gd  Gd11  1  0.680377  0.977051  0.296675  1
  In  In12  1  0.500000  0.500000  0.000000  1
  In  In13  1  0.000000  0.000000  0.000000  1
  Si  Si14  1  0.368803  0.000000  0.368803  1
  Si  Si15  1  0.631197  0.000000  0.631197  1
  Si  Si16  1  0.114967  0.615097  0.500130  1
  Si  Si17  1  0.885033  0.384903  0.499870  1
