# generated using pymatgen
data_Y7Er3Rh4
_symmetry_space_group_name_H-M   'P 1'
_cell_length_a   6.42839881
_cell_length_b   7.18859421
_cell_length_c   8.64292937
_cell_angle_alpha   96.95034665
_cell_angle_beta   111.61465819
_cell_angle_gamma   89.94955622
_symmetry_Int_Tables_number   1
_chemical_formula_structural   Y7Er3Rh4
_chemical_formula_sum   'Y7 Er3 Rh4'
_cell_volume   368.17280409
_cell_formula_units_Z   1
loop_
 _symmetry_equiv_pos_site_id
 _symmetry_equiv_pos_as_xyz
  1  'x, y, z'
loop_
 _atom_site_type_symbol
 _atom_site_label
 _atom_site_symmetry_multiplicity
 _atom_site_fract_x
 _atom_site_fract_y
 _atom_site_fract_z
 _atom_site_occupancy
  Y  Y0  1  0.792211  0.583661  0.813100  1
  Y  Y1  1  0.979710  0.918574  0.190171  1
  Y  Y2  1  0.208831  0.416384  0.188576  1
  Y  Y3  1  0.021170  0.081974  0.810816  1
  Y  Y4  1  0.209082  0.685438  0.562077  1
  Y  Y5  1  0.646866  0.813986  0.437581  1
  Y  Y6  1  0.791720  0.314299  0.437997  1
  Er  Er7  1  0.353783  0.185821  0.564253  1
  Er  Er8  1  0.425420  0.749953  0.999615  1
  Er  Er9  1  0.573690  0.249979  0.000029  1
  Rh  Rh10  1  0.593453  0.929212  0.781075  1
  Rh  Rh11  1  0.812691  0.572627  0.214842  1
  Rh  Rh12  1  0.404406  0.072349  0.218992  1
  Rh  Rh13  1  0.186969  0.425742  0.780877  1
