# generated using pymatgen
data_Dy20(IrRh3)3
_symmetry_space_group_name_H-M   'P 1'
_cell_length_a   10.90704617
_cell_length_b   10.90704617
_cell_length_c   6.37209900
_cell_angle_alpha   89.99862836
_cell_angle_beta   89.99862836
_cell_angle_gamma   89.97962848
_symmetry_Int_Tables_number   1
_chemical_formula_structural   Dy20(IrRh3)3
_chemical_formula_sum   'Dy20 Ir3 Rh9'
_cell_volume   758.04814661
_cell_formula_units_Z   1
loop_
 _symmetry_equiv_pos_site_id
 _symmetry_equiv_pos_as_xyz
  1  'x, y, z'
loop_
 _atom_site_type_symbol
 _atom_site_label
 _atom_site_symmetry_multiplicity
 _atom_site_fract_x
 _atom_site_fract_y
 _atom_site_fract_z
 _atom_site_occupancy
  Dy  Dy0  1  0.291096  0.089927  0.378192  1
  Dy  Dy1  1  0.291105  0.910026  0.878178  1
  Dy  Dy2  1  0.709085  0.088844  0.878416  1
  Dy  Dy3  1  0.708839  0.910103  0.378110  1
  Dy  Dy4  1  0.588120  0.789989  0.879260  1
  Dy  Dy5  1  0.587799  0.209310  0.378357  1
  Dy  Dy6  1  0.411897  0.789982  0.378946  1
  Dy  Dy7  1  0.410891  0.209462  0.879502  1
  Dy  Dy8  1  0.210011  0.411880  0.620740  1
  Dy  Dy9  1  0.210018  0.588103  0.121054  1
  Dy  Dy10  1  0.790690  0.412201  0.121643  1
  Dy  Dy11  1  0.790538  0.589109  0.620498  1
  Dy  Dy12  1  0.910073  0.708904  0.121808  1
  Dy  Dy13  1  0.911156  0.290915  0.621584  1
  Dy  Dy14  1  0.089974  0.708895  0.621822  1
  Dy  Dy15  1  0.089897  0.291161  0.121890  1
  Dy  Dy16  1  0.999926  0.999992  0.500067  1
  Dy  Dy17  1  0.000008  0.000074  0.999933  1
  Dy  Dy18  1  0.499728  0.500162  0.000060  1
  Dy  Dy19  1  0.499838  0.500272  0.499940  1
  Ir  Ir20  1  0.654617  0.654159  0.250086  1
  Ir  Ir21  1  0.345841  0.345383  0.249914  1
  Ir  Ir22  1  0.345415  0.654585  0.750000  1
  Rh  Rh23  1  0.846300  0.153700  0.250000  1
  Rh  Rh24  1  0.846618  0.846778  0.750081  1
  Rh  Rh25  1  0.153222  0.153382  0.749919  1
  Rh  Rh26  1  0.153229  0.846771  0.250000  1
  Rh  Rh27  1  0.654528  0.345472  0.750000  1
  Rh  Rh28  1  0.500210  0.000385  0.123847  1
  Rh  Rh29  1  0.500259  0.000543  0.624180  1
  Rh  Rh30  1  0.999457  0.499741  0.875820  1
  Rh  Rh31  1  0.999615  0.499790  0.376153  1
