# generated using pymatgen
data_Li(NdAg3)2
_symmetry_space_group_name_H-M   'P 1'
_cell_length_a   5.47529829
_cell_length_b   5.47530013
_cell_length_c   14.09401400
_cell_angle_alpha   90.00000000
_cell_angle_beta   90.00000000
_cell_angle_gamma   115.99935106
_symmetry_Int_Tables_number   1
_chemical_formula_structural   Li(NdAg3)2
_chemical_formula_sum   'Li2 Nd4 Ag12'
_cell_volume   379.76330524
_cell_formula_units_Z   2
loop_
 _symmetry_equiv_pos_site_id
 _symmetry_equiv_pos_as_xyz
  1  'x, y, z'
loop_
 _atom_site_type_symbol
 _atom_site_label
 _atom_site_symmetry_multiplicity
 _atom_site_fract_x
 _atom_site_fract_y
 _atom_site_fract_z
 _atom_site_occupancy
  Li  Li0  1  0.831001  0.831001  0.250000  1
  Li  Li1  1  0.168999  0.168999  0.750000  1
  Nd  Nd2  1  0.323513  0.323513  0.111390  1
  Nd  Nd3  1  0.676487  0.676487  0.611390  1
  Nd  Nd4  1  0.323513  0.323513  0.388610  1
  Nd  Nd5  1  0.676487  0.676487  0.888610  1
  Ag  Ag6  1  0.835177  0.334276  0.250000  1
  Ag  Ag7  1  0.164823  0.665724  0.750000  1
  Ag  Ag8  1  0.334276  0.835177  0.250000  1
  Ag  Ag9  1  0.665724  0.164823  0.750000  1
  Ag  Ag10  1  0.990389  0.668390  0.078111  1
  Ag  Ag11  1  0.009611  0.331610  0.578111  1
  Ag  Ag12  1  0.668390  0.990389  0.421889  1
  Ag  Ag13  1  0.331610  0.009611  0.921889  1
  Ag  Ag14  1  0.009611  0.331610  0.921889  1
  Ag  Ag15  1  0.990389  0.668390  0.421889  1
  Ag  Ag16  1  0.331610  0.009611  0.578111  1
  Ag  Ag17  1  0.668390  0.990389  0.078111  1
