# generated using pymatgen
data_V3Ga2NiC
_symmetry_space_group_name_H-M   'P 1'
_cell_length_a   7.81635684
_cell_length_b   7.81646488
_cell_length_c   7.81607600
_cell_angle_alpha   60.00159544
_cell_angle_beta   59.99929493
_cell_angle_gamma   60.00012152
_symmetry_Int_Tables_number   1
_chemical_formula_structural   V3Ga2NiC
_chemical_formula_sum   'V12 Ga8 Ni4 C4'
_cell_volume   337.66951655
_cell_formula_units_Z   4
loop_
 _symmetry_equiv_pos_site_id
 _symmetry_equiv_pos_as_xyz
  1  'x, y, z'
loop_
 _atom_site_type_symbol
 _atom_site_label
 _atom_site_symmetry_multiplicity
 _atom_site_fract_x
 _atom_site_fract_y
 _atom_site_fract_z
 _atom_site_occupancy
  V  V0  1  0.932445  0.932468  0.567544  1
  V  V1  1  0.682452  0.317541  0.317556  1
  V  V2  1  0.317548  0.682453  0.682455  1
  V  V3  1  0.682458  0.682454  0.317543  1
  V  V4  1  0.682455  0.317536  0.682454  1
  V  V5  1  0.317548  0.682453  0.317541  1
  V  V6  1  0.567545  0.932464  0.567546  1
  V  V7  1  0.567548  0.932459  0.932444  1
  V  V8  1  0.932452  0.567547  0.567545  1
  V  V9  1  0.932452  0.567547  0.932459  1
  V  V10  1  0.317555  0.317532  0.682456  1
  V  V11  1  0.567542  0.567546  0.932457  1
  Ga  Ga12  1  0.912884  0.261357  0.912875  1
  Ga  Ga13  1  0.337133  0.337106  0.988628  1
  Ga  Ga14  1  0.988627  0.337105  0.337140  1
  Ga  Ga15  1  0.337126  0.337103  0.337140  1
  Ga  Ga16  1  0.261373  0.912895  0.912860  1
  Ga  Ga17  1  0.912874  0.912897  0.912860  1
  Ga  Ga18  1  0.912867  0.912894  0.261372  1
  Ga  Ga19  1  0.337116  0.988643  0.337125  1
  Ni  Ni20  1  0.125000  0.625000  0.125000  1
  Ni  Ni21  1  0.125000  0.125000  0.625000  1
  Ni  Ni22  1  0.625000  0.125000  0.125000  1
  Ni  Ni23  1  0.125000  0.125000  0.125000  1
  C  C24  1  0.625000  0.125000  0.625000  1
  C  C25  1  0.625000  0.625000  0.125000  1
  C  C26  1  0.125000  0.625000  0.625000  1
  C  C27  1  0.625000  0.625000  0.625000  1
