# generated using pymatgen
data_Tb2Tm8Si5Ge
_symmetry_space_group_name_H-M   'P 1'
_cell_length_a   8.37481869
_cell_length_b   8.37481857
_cell_length_c   6.27764900
_cell_angle_alpha   90.00000000
_cell_angle_beta   90.00000000
_cell_angle_gamma   120.23319880
_symmetry_Int_Tables_number   1
_chemical_formula_structural   Tb2Tm8Si5Ge
_chemical_formula_sum   'Tb2 Tm8 Si5 Ge1'
_cell_volume   380.41106812
_cell_formula_units_Z   1
loop_
 _symmetry_equiv_pos_site_id
 _symmetry_equiv_pos_as_xyz
  1  'x, y, z'
loop_
 _atom_site_type_symbol
 _atom_site_label
 _atom_site_symmetry_multiplicity
 _atom_site_fract_x
 _atom_site_fract_y
 _atom_site_fract_z
 _atom_site_occupancy
  Tb  Tb0  1  0.759470  0.759470  0.250000  1
  Tb  Tb1  1  0.241219  0.241219  0.750000  1
  Tm  Tm2  1  0.668244  0.332702  0.500743  1
  Tm  Tm3  1  0.332702  0.668244  0.500743  1
  Tm  Tm4  1  0.332702  0.668244  0.999257  1
  Tm  Tm5  1  0.668244  0.332702  0.999257  1
  Tm  Tm6  1  0.243247  0.998112  0.250000  1
  Tm  Tm7  1  0.998112  0.243247  0.250000  1
  Tm  Tm8  1  0.756376  0.000188  0.750000  1
  Tm  Tm9  1  0.000188  0.756376  0.750000  1
  Si  Si10  1  0.604821  0.000916  0.250000  1
  Si  Si11  1  0.000916  0.604821  0.250000  1
  Si  Si12  1  0.607323  0.607323  0.750000  1
  Si  Si13  1  0.395023  0.999113  0.750000  1
  Si  Si14  1  0.999113  0.395023  0.750000  1
  Ge  Ge15  1  0.392300  0.392300  0.250000  1
