# generated using pymatgen
data_Zr10ZnInGeSb5
_symmetry_space_group_name_H-M   'P 1'
_cell_length_a   8.69471765
_cell_length_b   8.69471771
_cell_length_c   5.88881550
_cell_angle_alpha   90.02348158
_cell_angle_beta   90.02347267
_cell_angle_gamma   120.11647634
_symmetry_Int_Tables_number   1
_chemical_formula_structural   Zr10ZnInGeSb5
_chemical_formula_sum   'Zr10 Zn1 In1 Ge1 Sb5'
_cell_volume   385.08666262
_cell_formula_units_Z   1
loop_
 _symmetry_equiv_pos_site_id
 _symmetry_equiv_pos_as_xyz
  1  'x, y, z'
loop_
 _atom_site_type_symbol
 _atom_site_label
 _atom_site_symmetry_multiplicity
 _atom_site_fract_x
 _atom_site_fract_y
 _atom_site_fract_z
 _atom_site_occupancy
  Zr  Zr0  1  0.668794  0.332965  0.999276  1
  Zr  Zr1  1  0.332965  0.668794  0.999276  1
  Zr  Zr2  1  0.332806  0.668283  0.500899  1
  Zr  Zr3  1  0.668283  0.332806  0.500899  1
  Zr  Zr4  1  0.732996  0.732996  0.747204  1
  Zr  Zr5  1  0.268447  0.998798  0.747778  1
  Zr  Zr6  1  0.998798  0.268447  0.747778  1
  Zr  Zr7  1  0.263933  0.263933  0.252275  1
  Zr  Zr8  1  0.734710  0.999389  0.252524  1
  Zr  Zr9  1  0.999389  0.734710  0.252524  1
  Zn  Zn10  1  0.001755  0.001755  0.995319  1
  In  In11  1  0.385535  0.385535  0.752705  1
  Ge  Ge12  1  0.001386  0.001386  0.504266  1
  Sb  Sb13  1  0.612148  0.000208  0.752633  1
  Sb  Sb14  1  0.000208  0.612148  0.752633  1
  Sb  Sb15  1  0.606401  0.606401  0.247065  1
  Sb  Sb16  1  0.389982  0.001463  0.247474  1
  Sb  Sb17  1  0.001463  0.389982  0.247474  1
