# generated using pymatgen
data_Tb3Tm2Ga4P8Ir19
_symmetry_space_group_name_H-M   'P 1'
_cell_length_a   12.90615546
_cell_length_b   12.88088079
_cell_length_c   3.96188800
_cell_angle_alpha   90.00000000
_cell_angle_beta   90.00000000
_cell_angle_gamma   120.02518141
_symmetry_Int_Tables_number   1
_chemical_formula_structural   Tb3Tm2Ga4P8Ir19
_chemical_formula_sum   'Tb3 Tm2 Ga4 P8 Ir19'
_cell_volume   570.24964437
_cell_formula_units_Z   1
loop_
 _symmetry_equiv_pos_site_id
 _symmetry_equiv_pos_as_xyz
  1  'x, y, z'
loop_
 _atom_site_type_symbol
 _atom_site_label
 _atom_site_symmetry_multiplicity
 _atom_site_fract_x
 _atom_site_fract_y
 _atom_site_fract_z
 _atom_site_occupancy
  Tb  Tb0  1  0.335850  0.669533  0.500000  1
  Tb  Tb1  1  0.180898  0.181438  0.000000  1
  Tb  Tb2  1  0.818110  0.999040  0.000000  1
  Tm  Tm3  1  0.665755  0.331455  0.500000  1
  Tm  Tm4  1  0.002761  0.817040  0.000000  1
  Ga  Ga5  1  0.317969  0.834769  0.000000  1
  Ga  Ga6  1  0.357221  0.358262  0.500000  1
  Ga  Ga7  1  0.641257  0.001047  0.500000  1
  Ga  Ga8  1  0.996806  0.638807  0.500000  1
  P  P9  1  0.173105  0.484511  0.000000  1
  P  P10  1  0.521671  0.690307  0.000000  1
  P  P11  1  0.822574  0.305913  0.000000  1
  P  P12  1  0.482693  0.175798  0.000000  1
  P  P13  1  0.691955  0.514223  0.000000  1
  P  P14  1  0.823236  0.818110  0.500000  1
  P  P15  1  0.178472  0.000798  0.500000  1
  P  P16  1  0.999807  0.179740  0.500000  1
  Ir  Ir17  1  0.190006  0.825367  0.500000  1
  Ir  Ir18  1  0.174374  0.382003  0.500000  1
  Ir  Ir19  1  0.626020  0.795118  0.500000  1
  Ir  Ir20  1  0.825369  0.206004  0.500000  1
  Ir  Ir21  1  0.385920  0.178426  0.500000  1
  Ir  Ir22  1  0.790988  0.614698  0.500000  1
  Ir  Ir23  1  0.127941  0.633596  0.000000  1
  Ir  Ir24  1  0.362869  0.497045  0.000000  1
  Ir  Ir25  1  0.522226  0.871418  0.000000  1
  Ir  Ir26  1  0.633448  0.132752  0.000000  1
  Ir  Ir27  1  0.497679  0.366189  0.000000  1
  Ir  Ir28  1  0.865611  0.500113  0.000000  1
  Ir  Ir29  1  0.547758  0.550667  0.500000  1
  Ir  Ir30  1  0.443500  0.992818  0.500000  1
  Ir  Ir31  1  0.997952  0.447541  0.500000  1
  Ir  Ir32  1  0.719644  0.715520  0.000000  1
  Ir  Ir33  1  0.279961  0.007980  0.000000  1
  Ir  Ir34  1  0.999854  0.282549  0.000000  1
  Ir  Ir35  1  0.998742  0.999406  0.500000  1
