# generated using pymatgen
data_CaSb6(S2I)4
_symmetry_space_group_name_H-M   'P 1'
_cell_length_a   7.57099927
_cell_length_b   9.22692090
_cell_length_c   9.29365673
_cell_angle_alpha   93.33418415
_cell_angle_beta   107.83938611
_cell_angle_gamma   95.79682369
_symmetry_Int_Tables_number   1
_chemical_formula_structural   CaSb6(S2I)4
_chemical_formula_sum   'Ca1 Sb6 S8 I4'
_cell_volume   612.12403920
_cell_formula_units_Z   1
loop_
 _symmetry_equiv_pos_site_id
 _symmetry_equiv_pos_as_xyz
  1  'x, y, z'
loop_
 _atom_site_type_symbol
 _atom_site_label
 _atom_site_symmetry_multiplicity
 _atom_site_fract_x
 _atom_site_fract_y
 _atom_site_fract_z
 _atom_site_occupancy
  Ca  Ca0  1  0.000000  0.000000  0.000000  1
  Sb  Sb1  1  0.241821  0.645952  0.145781  1
  Sb  Sb2  1  0.237104  0.931224  0.434704  1
  Sb  Sb3  1  0.758179  0.354048  0.854219  1
  Sb  Sb4  1  0.207224  0.296951  0.778615  1
  Sb  Sb5  1  0.792776  0.703049  0.221385  1
  Sb  Sb6  1  0.762896  0.068776  0.565296  1
  S  S7  1  0.657579  0.080030  0.800588  1
  S  S8  1  0.082983  0.315661  0.009960  1
  S  S9  1  0.917017  0.684339  0.990040  1
  S  S10  1  0.913856  0.979927  0.281709  1
  S  S11  1  0.097899  0.647302  0.386418  1
  S  S12  1  0.902101  0.352698  0.613582  1
  S  S13  1  0.342421  0.919970  0.199412  1
  S  S14  1  0.086144  0.020073  0.718291  1
  I  I15  1  0.351265  0.667033  0.861698  1
  I  I16  1  0.645496  0.729459  0.539553  1
  I  I17  1  0.648735  0.332967  0.138302  1
  I  I18  1  0.354504  0.270541  0.460447  1
