# generated using pymatgen
data_YTm7(Ge4Mo3)4
_symmetry_space_group_name_H-M   'P 1'
_cell_length_a   6.87956239
_cell_length_b   7.04859054
_cell_length_c   13.09774302
_cell_angle_alpha   89.97454902
_cell_angle_beta   89.99462235
_cell_angle_gamma   89.97989736
_symmetry_Int_Tables_number   1
_chemical_formula_structural   YTm7(Ge4Mo3)4
_chemical_formula_sum   'Y1 Tm7 Ge16 Mo12'
_cell_volume   635.12541222
_cell_formula_units_Z   1
loop_
 _symmetry_equiv_pos_site_id
 _symmetry_equiv_pos_as_xyz
  1  'x, y, z'
loop_
 _atom_site_type_symbol
 _atom_site_label
 _atom_site_symmetry_multiplicity
 _atom_site_fract_x
 _atom_site_fract_y
 _atom_site_fract_z
 _atom_site_occupancy
  Y  Y0  1  0.989590  0.830217  0.591271  1
  Tm  Tm1  1  0.488813  0.669379  0.591813  1
  Tm  Tm2  1  0.988992  0.830483  0.908186  1
  Tm  Tm3  1  0.511239  0.329992  0.091965  1
  Tm  Tm4  1  0.010903  0.170322  0.408040  1
  Tm  Tm5  1  0.510952  0.330476  0.408350  1
  Tm  Tm6  1  0.011125  0.169821  0.091886  1
  Tm  Tm7  1  0.489088  0.670116  0.908200  1
  Ge  Ge8  1  0.670170  0.955375  0.452388  1
  Ge  Ge9  1  0.171532  0.544924  0.047294  1
  Ge  Ge10  1  0.329092  0.045276  0.952459  1
  Ge  Ge11  1  0.828197  0.453581  0.547279  1
  Ge  Ge12  1  0.329765  0.045466  0.547069  1
  Ge  Ge13  1  0.828565  0.455203  0.952659  1
  Ge  Ge14  1  0.671266  0.954897  0.047595  1
  Ge  Ge15  1  0.171542  0.544577  0.452140  1
  Ge  Ge16  1  0.468582  0.368908  0.750172  1
  Ge  Ge17  1  0.968750  0.131831  0.749936  1
  Ge  Ge18  1  0.531248  0.630959  0.249969  1
  Ge  Ge19  1  0.031343  0.868961  0.250220  1
  Ge  Ge20  1  0.687108  0.854050  0.750255  1
  Ge  Ge21  1  0.188275  0.645171  0.750555  1
  Ge  Ge22  1  0.312367  0.146156  0.250230  1
  Ge  Ge23  1  0.812250  0.353928  0.250181  1
  Mo  Mo24  1  0.667563  0.158204  0.626432  1
  Mo  Mo25  1  0.168541  0.341942  0.873808  1
  Mo  Mo26  1  0.330744  0.842391  0.125968  1
  Mo  Mo27  1  0.830107  0.657459  0.373746  1
  Mo  Mo28  1  0.331462  0.842092  0.373688  1
  Mo  Mo29  1  0.831416  0.657794  0.126255  1
  Mo  Mo30  1  0.669611  0.157812  0.874129  1
  Mo  Mo31  1  0.169666  0.342232  0.625755  1
  Mo  Mo32  1  0.832274  0.496870  0.750108  1
  Mo  Mo33  1  0.332765  0.003034  0.750003  1
  Mo  Mo34  1  0.167478  0.502822  0.249930  1
  Mo  Mo35  1  0.667620  0.997279  0.250067  1
