# generated using pymatgen
data_Tm4Lu4Sc11Si16Ru
_symmetry_space_group_name_H-M   'P 1'
_cell_length_a   6.94289613
_cell_length_b   7.30123640
_cell_length_c   13.79111708
_cell_angle_alpha   90.00106826
_cell_angle_beta   89.98788548
_cell_angle_gamma   90.09631829
_symmetry_Int_Tables_number   1
_chemical_formula_structural   Tm4Lu4Sc11Si16Ru
_chemical_formula_sum   'Tm4 Lu4 Sc11 Si16 Ru1'
_cell_volume   699.09452417
_cell_formula_units_Z   1
loop_
 _symmetry_equiv_pos_site_id
 _symmetry_equiv_pos_as_xyz
  1  'x, y, z'
loop_
 _atom_site_type_symbol
 _atom_site_label
 _atom_site_symmetry_multiplicity
 _atom_site_fract_x
 _atom_site_fract_y
 _atom_site_fract_z
 _atom_site_occupancy
  Tm  Tm0  1  0.510451  0.322621  0.094208  1
  Tm  Tm1  1  0.011512  0.178904  0.406992  1
  Tm  Tm2  1  0.510424  0.322716  0.405648  1
  Tm  Tm3  1  0.489488  0.673910  0.596970  1
  Lu  Lu4  1  0.011555  0.179092  0.093205  1
  Lu  Lu5  1  0.992683  0.816958  0.901719  1
  Lu  Lu6  1  0.489368  0.673936  0.902907  1
  Lu  Lu7  1  0.992711  0.816989  0.598413  1
  Sc  Sc8  1  0.840682  0.495457  0.249925  1
  Sc  Sc9  1  0.341543  0.004150  0.249926  1
  Sc  Sc10  1  0.657343  0.995012  0.750052  1
  Sc  Sc11  1  0.326057  0.177042  0.627242  1
  Sc  Sc12  1  0.671459  0.824673  0.374352  1
  Sc  Sc13  1  0.172095  0.674179  0.376313  1
  Sc  Sc14  1  0.671433  0.824635  0.125548  1
  Sc  Sc15  1  0.826895  0.330750  0.628534  1
  Sc  Sc16  1  0.326056  0.177128  0.872820  1
  Sc  Sc17  1  0.826868  0.330745  0.871582  1
  Sc  Sc18  1  0.172097  0.674245  0.123631  1
  Si  Si19  1  0.028244  0.110987  0.750101  1
  Si  Si20  1  0.972968  0.888623  0.249868  1
  Si  Si21  1  0.469235  0.612900  0.249904  1
  Si  Si22  1  0.515677  0.398462  0.750232  1
  Si  Si23  1  0.283900  0.858665  0.750253  1
  Si  Si24  1  0.716871  0.131972  0.249732  1
  Si  Si25  1  0.214227  0.368466  0.249759  1
  Si  Si26  1  0.795279  0.632519  0.750216  1
  Si  Si27  1  0.158345  0.466568  0.546520  1
  Si  Si28  1  0.842103  0.535883  0.463721  1
  Si  Si29  1  0.343349  0.965047  0.463298  1
  Si  Si30  1  0.842162  0.535428  0.036346  1
  Si  Si31  1  0.661066  0.034054  0.539763  1
  Si  Si32  1  0.159114  0.466656  0.953467  1
  Si  Si33  1  0.660968  0.033576  0.960163  1
  Si  Si34  1  0.342769  0.964972  0.036654  1
  Ru  Ru35  1  0.153005  0.502075  0.750018  1
