# generated using pymatgen
data_Ba2H7Rh
_symmetry_space_group_name_H-M   'P 1'
_cell_length_a   8.63433934
_cell_length_b   8.86594258
_cell_length_c   8.86599137
_cell_angle_alpha   109.26840526
_cell_angle_beta   109.36487569
_cell_angle_gamma   70.63383271
_symmetry_Int_Tables_number   1
_chemical_formula_structural   Ba2H7Rh
_chemical_formula_sum   'Ba8 H28 Rh4'
_cell_volume   585.32747768
_cell_formula_units_Z   4
loop_
 _symmetry_equiv_pos_site_id
 _symmetry_equiv_pos_as_xyz
  1  'x, y, z'
loop_
 _atom_site_type_symbol
 _atom_site_label
 _atom_site_symmetry_multiplicity
 _atom_site_fract_x
 _atom_site_fract_y
 _atom_site_fract_z
 _atom_site_occupancy
  Ba  Ba0  1  0.975315  0.761839  0.070449  1
  Ba  Ba1  1  0.524727  0.570451  0.261857  1
  Ba  Ba2  1  0.524002  0.071171  0.283338  1
  Ba  Ba3  1  0.023998  0.216665  0.428831  1
  Ba  Ba4  1  0.976034  0.783324  0.571180  1
  Ba  Ba5  1  0.476039  0.928809  0.716668  1
  Ba  Ba6  1  0.475302  0.429536  0.738159  1
  Ba  Ba7  1  0.024712  0.238140  0.929561  1
  H  H8  1  0.675228  0.000119  0.019759  1
  H  H9  1  0.723498  0.365533  0.039055  1
  H  H10  1  0.512739  0.751778  0.039384  1
  H  H11  1  0.907670  0.109556  0.094646  1
  H  H12  1  0.223530  0.460950  0.134478  1
  H  H13  1  0.279722  0.883700  0.170611  1
  H  H14  1  0.686968  0.248000  0.220935  1
  H  H15  1  0.186995  0.279066  0.252008  1
  H  H16  1  0.987290  0.539388  0.251785  1
  H  H17  1  0.873485  0.953221  0.346356  1
  H  H18  1  0.220340  0.670592  0.383714  1
  H  H19  1  0.407687  0.405365  0.390447  1
  H  H20  1  0.626596  0.846347  0.453236  1
  H  H21  1  0.824731  0.519748  0.500103  1
  H  H22  1  0.175251  0.480251  0.499891  1
  H  H23  1  0.373468  0.153634  0.546770  1
  H  H24  1  0.592118  0.594695  0.609477  1
  H  H25  1  0.779637  0.329394  0.616269  1
  H  H26  1  0.126580  0.046766  0.653663  1
  H  H27  1  0.012516  0.460665  0.748153  1
  H  H28  1  0.812986  0.720929  0.747983  1
  H  H29  1  0.313067  0.751992  0.779089  1
  H  H30  1  0.720310  0.116298  0.829411  1
  H  H31  1  0.776444  0.539057  0.865516  1
  H  H32  1  0.092338  0.890446  0.905365  1
  H  H33  1  0.487272  0.248219  0.960624  1
  H  H34  1  0.276533  0.634475  0.960958  1
  H  H35  1  0.324811  0.999880  0.980256  1
  Rh  Rh36  1  0.699143  0.182160  0.025850  1
  Rh  Rh37  1  0.199176  0.474185  0.317870  1
  Rh  Rh38  1  0.800866  0.525807  0.682126  1
  Rh  Rh39  1  0.300879  0.817852  0.974173  1
