# generated using pymatgen
data_HoEr7Re2(B12Rh)2
_symmetry_space_group_name_H-M   'P 1'
_cell_length_a   3.65771100
_cell_length_b   9.10732027
_cell_length_c   11.49476400
_cell_angle_alpha   90.43160746
_cell_angle_beta   90.00000000
_cell_angle_gamma   90.00000000
_symmetry_Int_Tables_number   1
_chemical_formula_structural   HoEr7Re2(B12Rh)2
_chemical_formula_sum   'Ho1 Er7 Re2 B24 Rh2'
_cell_volume   382.90208790
_cell_formula_units_Z   1
loop_
 _symmetry_equiv_pos_site_id
 _symmetry_equiv_pos_as_xyz
  1  'x, y, z'
loop_
 _atom_site_type_symbol
 _atom_site_label
 _atom_site_symmetry_multiplicity
 _atom_site_fract_x
 _atom_site_fract_y
 _atom_site_fract_z
 _atom_site_occupancy
  Ho  Ho0  1  0.000000  0.318066  0.410830  1
  Er  Er1  1  0.000000  0.682139  0.589241  1
  Er  Er2  1  0.000000  0.825957  0.082538  1
  Er  Er3  1  0.000000  0.174027  0.917451  1
  Er  Er4  1  0.000000  0.945163  0.371859  1
  Er  Er5  1  0.000000  0.054702  0.628164  1
  Er  Er6  1  0.000000  0.442500  0.126692  1
  Er  Er7  1  0.000000  0.557533  0.873270  1
  Re  Re8  1  0.000000  0.138755  0.179711  1
  Re  Re9  1  0.000000  0.861125  0.820171  1
  B  B10  1  0.500000  0.554423  0.434362  1
  B  B11  1  0.500000  0.445796  0.565768  1
  B  B12  1  0.500000  0.052967  0.067125  1
  B  B13  1  0.500000  0.947021  0.932853  1
  B  B14  1  0.500000  0.749263  0.421467  1
  B  B15  1  0.500000  0.250709  0.578732  1
  B  B16  1  0.500000  0.248596  0.080911  1
  B  B17  1  0.500000  0.751397  0.919059  1
  B  B18  1  0.500000  0.791279  0.265085  1
  B  B19  1  0.500000  0.208721  0.734929  1
  B  B20  1  0.500000  0.292937  0.234780  1
  B  B21  1  0.500000  0.706983  0.765073  1
  B  B22  1  0.500000  0.632346  0.183269  1
  B  B23  1  0.500000  0.367668  0.816718  1
  B  B24  1  0.500000  0.131597  0.314995  1
  B  B25  1  0.500000  0.868260  0.684910  1
  B  B26  1  0.500000  0.982509  0.212901  1
  B  B27  1  0.500000  0.017455  0.787090  1
  B  B28  1  0.500000  0.483270  0.287715  1
  B  B29  1  0.500000  0.516916  0.712203  1
  B  B30  1  0.500000  0.605942  0.029406  1
  B  B31  1  0.500000  0.394067  0.970587  1
  B  B32  1  0.500000  0.106883  0.471144  1
  B  B33  1  0.500000  0.892873  0.528923  1
  Rh  Rh34  1  0.000000  0.637946  0.321473  1
  Rh  Rh35  1  0.000000  0.362209  0.678595  1
