# generated using pymatgen
data_Er12Th4Cd4Ir3Rh
_symmetry_space_group_name_H-M   'P 1'
_cell_length_a   9.68934280
_cell_length_b   9.68934310
_cell_length_c   9.68934321
_cell_angle_alpha   59.91277924
_cell_angle_beta   59.91277707
_cell_angle_gamma   59.91278658
_symmetry_Int_Tables_number   1
_chemical_formula_structural   Er12Th4Cd4Ir3Rh
_chemical_formula_sum   'Er12 Th4 Cd4 Ir3 Rh1'
_cell_volume   641.95985471
_cell_formula_units_Z   1
loop_
 _symmetry_equiv_pos_site_id
 _symmetry_equiv_pos_as_xyz
  1  'x, y, z'
loop_
 _atom_site_type_symbol
 _atom_site_label
 _atom_site_symmetry_multiplicity
 _atom_site_fract_x
 _atom_site_fract_y
 _atom_site_fract_z
 _atom_site_occupancy
  Er  Er0  1  0.062261  0.437747  0.437747  1
  Er  Er1  1  0.437088  0.063204  0.063204  1
  Er  Er2  1  0.437747  0.062261  0.437747  1
  Er  Er3  1  0.063204  0.437088  0.063204  1
  Er  Er4  1  0.437747  0.437747  0.062261  1
  Er  Er5  1  0.063204  0.063204  0.437088  1
  Er  Er6  1  0.186279  0.815612  0.815612  1
  Er  Er7  1  0.816157  0.185276  0.185276  1
  Er  Er8  1  0.815612  0.186279  0.815612  1
  Er  Er9  1  0.185276  0.816157  0.185276  1
  Er  Er10  1  0.815612  0.815612  0.186279  1
  Er  Er11  1  0.185276  0.185276  0.816157  1
  Th  Th12  1  0.599390  0.599390  0.599390  1
  Th  Th13  1  0.601667  0.601667  0.196661  1
  Th  Th14  1  0.601667  0.196661  0.601667  1
  Th  Th15  1  0.196661  0.601667  0.601667  1
  Cd  Cd16  1  0.833113  0.833113  0.833113  1
  Cd  Cd17  1  0.831821  0.831821  0.500050  1
  Cd  Cd18  1  0.831821  0.500050  0.831821  1
  Cd  Cd19  1  0.500050  0.831821  0.831821  1
  Ir  Ir20  1  0.391660  0.391660  0.821276  1
  Ir  Ir21  1  0.391660  0.821276  0.391660  1
  Ir  Ir22  1  0.821276  0.391660  0.391660  1
  Rh  Rh23  1  0.393747  0.393747  0.393747  1
