# generated using pymatgen
data_Zr10C4N5
_symmetry_space_group_name_H-M   'P 1'
_cell_length_a   8.74116799
_cell_length_b   8.73940894
_cell_length_c   10.94768043
_cell_angle_alpha   62.77521098
_cell_angle_beta   62.78811090
_cell_angle_gamma   44.46324916
_symmetry_Int_Tables_number   1
_chemical_formula_structural   Zr10C4N5
_chemical_formula_sum   'Zr20 C8 N10'
_cell_volume   509.29561873
_cell_formula_units_Z   2
loop_
 _symmetry_equiv_pos_site_id
 _symmetry_equiv_pos_as_xyz
  1  'x, y, z'
loop_
 _atom_site_type_symbol
 _atom_site_label
 _atom_site_symmetry_multiplicity
 _atom_site_fract_x
 _atom_site_fract_y
 _atom_site_fract_z
 _atom_site_occupancy
  Zr  Zr0  1  0.226206  0.478341  0.948683  1
  Zr  Zr1  1  0.722042  0.968123  0.958733  1
  Zr  Zr2  1  0.563334  0.329638  0.649161  1
  Zr  Zr3  1  0.436084  0.672449  0.350588  1
  Zr  Zr4  1  0.278538  0.032195  0.041339  1
  Zr  Zr5  1  0.082990  0.816720  0.644284  1
  Zr  Zr6  1  0.120984  0.374052  0.752219  1
  Zr  Zr7  1  0.919085  0.182703  0.356085  1
  Zr  Zr8  1  0.968299  0.722250  0.457145  1
  Zr  Zr9  1  0.775329  0.520100  0.051820  1
  Zr  Zr10  1  0.627421  0.876015  0.746667  1
  Zr  Zr11  1  0.816949  0.081276  0.144195  1
  Zr  Zr12  1  0.479269  0.223257  0.446712  1
  Zr  Zr13  1  0.669719  0.437529  0.850941  1
  Zr  Zr14  1  0.522295  0.773919  0.551794  1
  Zr  Zr15  1  0.327749  0.564318  0.148738  1
  Zr  Zr16  1  0.373981  0.122163  0.252228  1
  Zr  Zr17  1  0.183665  0.917966  0.855508  1
  Zr  Zr18  1  0.031525  0.278741  0.542806  1
  Zr  Zr19  1  0.876114  0.628351  0.249495  1
  C  C20  1  0.976862  0.224976  0.950911  1
  C  C21  1  0.827965  0.576724  0.648838  1
  C  C22  1  0.025857  0.775141  0.048970  1
  C  C23  1  0.676257  0.926332  0.350211  1
  C  C24  1  0.724733  0.472009  0.449328  1
  C  C25  1  0.524443  0.275655  0.050911  1
  C  C26  1  0.371755  0.625207  0.750328  1
  C  C27  1  0.221577  0.974952  0.450038  1
  N  N28  1  0.072804  0.323233  0.149900  1
  N  N29  1  0.921501  0.675128  0.850384  1
  N  N30  1  0.576063  0.825103  0.148364  1
  N  N31  1  0.774134  0.025357  0.549286  1
  N  N32  1  0.423818  0.172281  0.851490  1
  N  N33  1  0.624418  0.376233  0.250403  1
  N  N34  1  0.277514  0.524312  0.550508  1
  N  N35  1  0.476079  0.724753  0.949772  1
  N  N36  1  0.326935  0.078253  0.649878  1
  N  N37  1  0.175706  0.424243  0.351338  1
