# generated using pymatgen
data_Ca2La3Ru2
_symmetry_space_group_name_H-M   'P 1'
_cell_length_a   8.98338014
_cell_length_b   8.98338012
_cell_length_c   7.44123046
_cell_angle_alpha   84.92319801
_cell_angle_beta   84.92319827
_cell_angle_gamma   44.57644291
_symmetry_Int_Tables_number   1
_chemical_formula_structural   Ca2La3Ru2
_chemical_formula_sum   'Ca4 La6 Ru4'
_cell_volume   419.54613455
_cell_formula_units_Z   2
loop_
 _symmetry_equiv_pos_site_id
 _symmetry_equiv_pos_as_xyz
  1  'x, y, z'
loop_
 _atom_site_type_symbol
 _atom_site_label
 _atom_site_symmetry_multiplicity
 _atom_site_fract_x
 _atom_site_fract_y
 _atom_site_fract_z
 _atom_site_occupancy
  Ca  Ca0  1  0.011947  0.803291  0.904347  1
  Ca  Ca1  1  0.196709  0.988053  0.595653  1
  Ca  Ca2  1  0.988053  0.196709  0.095653  1
  Ca  Ca3  1  0.803291  0.011947  0.404347  1
  La  La4  1  0.365126  0.206523  0.825167  1
  La  La5  1  0.793477  0.634874  0.674833  1
  La  La6  1  0.634874  0.793477  0.174833  1
  La  La7  1  0.206523  0.365126  0.325167  1
  La  La8  1  0.572919  0.427081  0.750000  1
  La  La9  1  0.427081  0.572919  0.250000  1
  Ru  Ru10  1  0.197124  0.571717  0.545060  1
  Ru  Ru11  1  0.428283  0.802876  0.954940  1
  Ru  Ru12  1  0.802876  0.428283  0.454940  1
  Ru  Ru13  1  0.571717  0.197124  0.045060  1
