# generated using pymatgen
data_CsSb3(SeO6)2
_symmetry_space_group_name_H-M   'P 1'
_cell_length_a   7.30245100
_cell_length_b   7.30245118
_cell_length_c   12.75283500
_cell_angle_alpha   90.00000000
_cell_angle_beta   90.00000000
_cell_angle_gamma   120.00000370
_symmetry_Int_Tables_number   1
_chemical_formula_structural   CsSb3(SeO6)2
_chemical_formula_sum   'Cs2 Sb6 Se4 O24'
_cell_volume   588.94490658
_cell_formula_units_Z   2
loop_
 _symmetry_equiv_pos_site_id
 _symmetry_equiv_pos_as_xyz
  1  'x, y, z'
loop_
 _atom_site_type_symbol
 _atom_site_label
 _atom_site_symmetry_multiplicity
 _atom_site_fract_x
 _atom_site_fract_y
 _atom_site_fract_z
 _atom_site_occupancy
  Cs  Cs0  1  0.666667  0.333333  0.466959  1
  Cs  Cs1  1  0.333333  0.666667  0.966959  1
  Sb  Sb2  1  0.834086  0.667121  0.794491  1
  Sb  Sb3  1  0.833036  0.165914  0.794491  1
  Sb  Sb4  1  0.667121  0.833036  0.294491  1
  Sb  Sb5  1  0.165914  0.332879  0.294491  1
  Sb  Sb6  1  0.332879  0.166964  0.794491  1
  Sb  Sb7  1  0.166964  0.834086  0.294491  1
  Se  Se8  1  0.000000  0.000000  0.580371  1
  Se  Se9  1  0.666667  0.333333  0.011542  1
  Se  Se10  1  0.333333  0.666667  0.511542  1
  Se  Se11  1  0.000000  0.000000  0.080371  1
  O  O12  1  0.261008  0.130859  0.332558  1
  O  O13  1  0.130149  0.261008  0.832558  1
  O  O14  1  0.130859  0.869851  0.832558  1
  O  O15  1  0.869141  0.130149  0.332558  1
  O  O16  1  0.869851  0.738992  0.332558  1
  O  O17  1  0.738992  0.869141  0.832558  1
  O  O18  1  0.466558  0.932475  0.263270  1
  O  O19  1  0.534083  0.466558  0.763270  1
  O  O20  1  0.932475  0.465917  0.763270  1
  O  O21  1  0.067525  0.534083  0.263270  1
  O  O22  1  0.465917  0.533442  0.263270  1
  O  O23  1  0.533442  0.067525  0.763270  1
  O  O24  1  0.791665  0.207796  0.955418  1
  O  O25  1  0.583869  0.791665  0.455418  1
  O  O26  1  0.207796  0.416131  0.455418  1
  O  O27  1  0.792204  0.583869  0.955418  1
  O  O28  1  0.416131  0.208335  0.955418  1
  O  O29  1  0.208335  0.792204  0.455418  1
  O  O30  1  0.874395  0.125232  0.637166  1
  O  O31  1  0.749163  0.874395  0.137166  1
  O  O32  1  0.125232  0.250837  0.137166  1
  O  O33  1  0.874768  0.749163  0.637166  1
  O  O34  1  0.250837  0.125605  0.637166  1
  O  O35  1  0.125605  0.874768  0.137166  1
