# generated using pymatgen
data_SrMn3NiO8
_symmetry_space_group_name_H-M   'P 1'
_cell_length_a   5.86353300
_cell_length_b   6.92808610
_cell_length_c   10.15625401
_cell_angle_alpha   104.13959582
_cell_angle_beta   89.99884500
_cell_angle_gamma   64.96330638
_symmetry_Int_Tables_number   1
_chemical_formula_structural   SrMn3NiO8
_chemical_formula_sum   'Sr2 Mn6 Ni2 O16'
_cell_volume   359.96667974
_cell_formula_units_Z   2
loop_
 _symmetry_equiv_pos_site_id
 _symmetry_equiv_pos_as_xyz
  1  'x, y, z'
loop_
 _atom_site_type_symbol
 _atom_site_label
 _atom_site_symmetry_multiplicity
 _atom_site_fract_x
 _atom_site_fract_y
 _atom_site_fract_z
 _atom_site_occupancy
  Sr  Sr0  1  0.750003  0.500001  0.750018  1
  Sr  Sr1  1  0.250008  0.499996  0.249983  1
  Mn  Mn2  1  0.249986  0.999991  0.750013  1
  Mn  Mn3  1  0.750008  0.000004  0.249985  1
  Mn  Mn4  1  0.999998  0.000006  0.499985  1
  Mn  Mn5  1  0.499958  0.000033  0.000004  1
  Mn  Mn6  1  0.750029  0.999965  0.750010  1
  Mn  Mn7  1  0.249965  0.000030  0.249994  1
  Ni  Ni8  1  0.500001  0.000001  0.500001  1
  Ni  Ni9  1  0.000001  0.999999  0.999999  1
  O  O10  1  0.082886  0.834276  0.639029  1
  O  O11  1  0.582890  0.834266  0.139062  1
  O  O12  1  0.417113  0.165729  0.860942  1
  O  O13  1  0.917117  0.165723  0.360971  1
  O  O14  1  0.819787  0.829995  0.883274  1
  O  O15  1  0.319793  0.830016  0.383280  1
  O  O16  1  0.915005  0.170000  0.851509  1
  O  O17  1  0.415000  0.170011  0.351535  1
  O  O18  1  0.680211  0.169982  0.616720  1
  O  O19  1  0.180215  0.170006  0.116730  1
  O  O20  1  0.149792  0.169997  0.616717  1
  O  O21  1  0.649763  0.170018  0.116726  1
  O  O22  1  0.585008  0.829986  0.648464  1
  O  O23  1  0.085005  0.829996  0.148491  1
  O  O24  1  0.350245  0.829977  0.883277  1
  O  O25  1  0.850215  0.829998  0.383282  1
