# generated using pymatgen
data_Tm6ZrCo16TcP12
_symmetry_space_group_name_H-M   'P 1'
_cell_length_a   3.67619100
_cell_length_b   10.54080800
_cell_length_c   12.22142700
_cell_angle_alpha   90.00000000
_cell_angle_beta   90.00000000
_cell_angle_gamma   90.00000000
_symmetry_Int_Tables_number   1
_chemical_formula_structural   Tm6ZrCo16TcP12
_chemical_formula_sum   'Tm6 Zr1 Co16 Tc1 P12'
_cell_volume   473.58058348
_cell_formula_units_Z   1
loop_
 _symmetry_equiv_pos_site_id
 _symmetry_equiv_pos_as_xyz
  1  'x, y, z'
loop_
 _atom_site_type_symbol
 _atom_site_label
 _atom_site_symmetry_multiplicity
 _atom_site_fract_x
 _atom_site_fract_y
 _atom_site_fract_z
 _atom_site_occupancy
  Tm  Tm0  1  0.000000  0.500000  0.529739  1
  Tm  Tm1  1  0.500000  0.000000  0.474861  1
  Tm  Tm2  1  0.500000  0.822424  0.206590  1
  Tm  Tm3  1  0.500000  0.177576  0.206590  1
  Tm  Tm4  1  0.000000  0.681038  0.795078  1
  Tm  Tm5  1  0.000000  0.318962  0.795078  1
  Zr  Zr6  1  0.500000  0.500000  0.156090  1
  Co  Co7  1  0.500000  0.500000  0.702482  1
  Co  Co8  1  0.000000  0.000000  0.297221  1
  Co  Co9  1  0.000000  0.500000  0.983337  1
  Co  Co10  1  0.500000  0.000000  0.010008  1
  Co  Co11  1  0.500000  0.327297  0.987694  1
  Co  Co12  1  0.500000  0.672703  0.987694  1
  Co  Co13  1  0.000000  0.162969  0.005354  1
  Co  Co14  1  0.000000  0.837031  0.005354  1
  Co  Co15  1  0.500000  0.293549  0.435132  1
  Co  Co16  1  0.500000  0.706451  0.435132  1
  Co  Co17  1  0.000000  0.202050  0.570220  1
  Co  Co18  1  0.000000  0.797950  0.570220  1
  Co  Co19  1  0.500000  0.879049  0.705965  1
  Co  Co20  1  0.500000  0.120951  0.705965  1
  Co  Co21  1  0.000000  0.624333  0.297392  1
  Co  Co22  1  0.000000  0.375667  0.297392  1
  Tc  Tc23  1  0.000000  0.000000  0.839890  1
  P  P24  1  0.500000  0.500000  0.880737  1
  P  P25  1  0.000000  0.000000  0.118516  1
  P  P26  1  0.500000  0.500000  0.364060  1
  P  P27  1  0.000000  0.000000  0.648365  1
  P  P28  1  0.500000  0.311479  0.617980  1
  P  P29  1  0.500000  0.688521  0.617980  1
  P  P30  1  0.000000  0.186376  0.385559  1
  P  P31  1  0.000000  0.813624  0.385559  1
  P  P32  1  0.500000  0.846965  0.887975  1
  P  P33  1  0.500000  0.153035  0.887975  1
  P  P34  1  0.000000  0.664715  0.102406  1
  P  P35  1  0.000000  0.335285  0.102406  1
