# generated using pymatgen
data_Ho10Tm2Co4SnRu
_symmetry_space_group_name_H-M   'P 1'
_cell_length_a   8.21279254
_cell_length_b   8.21925484
_cell_length_c   8.21925479
_cell_angle_alpha   111.31984783
_cell_angle_beta   110.87931425
_cell_angle_gamma   106.29160849
_symmetry_Int_Tables_number   1
_chemical_formula_structural   Ho10Tm2Co4SnRu
_chemical_formula_sum   'Ho10 Tm2 Co4 Sn1 Ru1'
_cell_volume   425.95126665
_cell_formula_units_Z   1
loop_
 _symmetry_equiv_pos_site_id
 _symmetry_equiv_pos_as_xyz
  1  'x, y, z'
loop_
 _atom_site_type_symbol
 _atom_site_label
 _atom_site_symmetry_multiplicity
 _atom_site_fract_x
 _atom_site_fract_y
 _atom_site_fract_z
 _atom_site_occupancy
  Ho  Ho0  1  0.022386  0.215769  0.806617  1
  Ho  Ho1  1  0.977614  0.784231  0.193383  1
  Ho  Ho2  1  0.185644  0.286107  0.470776  1
  Ho  Ho3  1  0.814356  0.713893  0.529224  1
  Ho  Ho4  1  0.185644  0.714867  0.899537  1
  Ho  Ho5  1  0.814356  0.285133  0.100463  1
  Ho  Ho6  1  0.313559  0.618996  0.307466  1
  Ho  Ho7  1  0.686441  0.381004  0.692534  1
  Ho  Ho8  1  0.313559  0.006094  0.694563  1
  Ho  Ho9  1  0.686441  0.993906  0.305437  1
  Tm  Tm10  1  0.409546  0.215965  0.193581  1
  Tm  Tm11  1  0.590454  0.784035  0.806419  1
  Co  Co12  1  0.377308  0.000828  0.376480  1
  Co  Co13  1  0.622692  0.999172  0.623520  1
  Co  Co14  1  0.112941  0.611640  0.501301  1
  Co  Co15  1  0.887059  0.388360  0.498699  1
  Sn  Sn16  1  0.500000  0.500000  0.000000  1
  Ru  Ru17  1  0.000000  0.000000  0.000000  1
