# generated using pymatgen
data_Li13Co17O40
_symmetry_space_group_name_H-M   'P 1'
_cell_length_a   5.70270542
_cell_length_b   5.70270559
_cell_length_c   23.43756800
_cell_angle_alpha   83.27561795
_cell_angle_beta   83.27561776
_cell_angle_gamma   59.98286352
_symmetry_Int_Tables_number   1
_chemical_formula_structural   Li13Co17O40
_chemical_formula_sum   'Li13 Co17 O40'
_cell_volume   653.91953477
_cell_formula_units_Z   1
loop_
 _symmetry_equiv_pos_site_id
 _symmetry_equiv_pos_as_xyz
  1  'x, y, z'
loop_
 _atom_site_type_symbol
 _atom_site_label
 _atom_site_symmetry_multiplicity
 _atom_site_fract_x
 _atom_site_fract_y
 _atom_site_fract_z
 _atom_site_occupancy
  Li  Li0  1  0.773325  0.773325  0.176956  1
  Li  Li1  1  0.500000  0.500000  0.000000  1
  Li  Li2  1  0.823555  0.823555  0.026906  1
  Li  Li3  1  0.100102  0.100102  0.699956  1
  Li  Li4  1  0.975212  0.975212  0.577267  1
  Li  Li5  1  0.570850  0.570850  0.773832  1
  Li  Li6  1  0.176445  0.176445  0.973094  1
  Li  Li7  1  0.629859  0.629859  0.624483  1
  Li  Li8  1  0.024788  0.024788  0.422733  1
  Li  Li9  1  0.226675  0.226675  0.823044  1
  Li  Li10  1  0.370141  0.370141  0.375517  1
  Li  Li11  1  0.429150  0.429150  0.226168  1
  Li  Li12  1  0.899898  0.899898  0.300044  1
  Co  Co13  1  0.301488  0.301488  0.100217  1
  Co  Co14  1  0.898471  0.898471  0.797906  1
  Co  Co15  1  0.300799  0.796260  0.100531  1
  Co  Co16  1  0.699201  0.203740  0.899469  1
  Co  Co17  1  0.101529  0.101529  0.202094  1
  Co  Co18  1  0.203740  0.699201  0.899469  1
  Co  Co19  1  0.698512  0.698512  0.899783  1
  Co  Co20  1  0.796260  0.300799  0.100531  1
  Co  Co21  1  0.100057  0.599731  0.699811  1
  Co  Co22  1  0.400269  0.899943  0.300189  1
  Co  Co23  1  0.599731  0.100057  0.699811  1
  Co  Co24  1  0.000000  0.500000  0.500000  1
  Co  Co25  1  0.500000  0.500000  0.500000  1
  Co  Co26  1  0.500000  0.000000  0.500000  1
  Co  Co27  1  0.899943  0.400269  0.300189  1
  Co  Co28  1  0.302061  0.302061  0.601409  1
  Co  Co29  1  0.697939  0.697939  0.398591  1
  O  O30  1  0.412600  0.971852  0.146682  1
  O  O31  1  0.971852  0.412600  0.146682  1
  O  O32  1  0.633376  0.172105  0.059863  1
  O  O33  1  0.451942  0.451942  0.143392  1
  O  O34  1  0.853677  0.853677  0.942439  1
  O  O35  1  0.587400  0.028148  0.853318  1
  O  O36  1  0.172105  0.633376  0.059863  1
  O  O37  1  0.633022  0.633022  0.060180  1
  O  O38  1  0.827895  0.366624  0.940137  1
  O  O39  1  0.366978  0.366978  0.939820  1
  O  O40  1  0.970302  0.970302  0.147508  1
  O  O41  1  0.936837  0.936837  0.659370  1
  O  O42  1  0.746685  0.204892  0.751986  1
  O  O43  1  0.366624  0.827895  0.940137  1
  O  O44  1  0.146323  0.146323  0.057561  1
  O  O45  1  0.548058  0.548058  0.856608  1
  O  O46  1  0.028149  0.587400  0.853318  1
  O  O47  1  0.995175  0.453406  0.647568  1
  O  O48  1  0.029698  0.029698  0.852492  1
  O  O49  1  0.435923  0.435923  0.653112  1
  O  O50  1  0.172589  0.172589  0.546152  1
  O  O51  1  0.204892  0.746685  0.751986  1
  O  O52  1  0.764341  0.764341  0.746682  1
  O  O53  1  0.171207  0.617631  0.546108  1
  O  O54  1  0.828793  0.382369  0.453892  1
  O  O55  1  0.453406  0.995175  0.647568  1
  O  O56  1  0.652667  0.652667  0.541523  1
  O  O57  1  0.063163  0.063163  0.340630  1
  O  O58  1  0.263181  0.263181  0.740497  1
  O  O59  1  0.382369  0.828793  0.453892  1
  O  O60  1  0.827411  0.827411  0.453848  1
  O  O61  1  0.235659  0.235659  0.253318  1
  O  O62  1  0.564077  0.564077  0.346888  1
  O  O63  1  0.004825  0.546594  0.352432  1
  O  O64  1  0.617631  0.171207  0.546108  1
  O  O65  1  0.736819  0.736819  0.259503  1
  O  O66  1  0.347333  0.347333  0.458477  1
  O  O67  1  0.546594  0.004825  0.352432  1
  O  O68  1  0.253315  0.795108  0.248014  1
  O  O69  1  0.795108  0.253315  0.248014  1
