# generated using pymatgen
data_Dy12Tm8Co3Bi8Os
_symmetry_space_group_name_H-M   'P 1'
_cell_length_a   7.91997282
_cell_length_b   8.90828700
_cell_length_c   12.41199919
_cell_angle_alpha   90.00000000
_cell_angle_beta   90.28676602
_cell_angle_gamma   90.00000000
_symmetry_Int_Tables_number   1
_chemical_formula_structural   Dy12Tm8Co3Bi8Os
_chemical_formula_sum   'Dy12 Tm8 Co3 Bi8 Os1'
_cell_volume   875.69766261
_cell_formula_units_Z   1
loop_
 _symmetry_equiv_pos_site_id
 _symmetry_equiv_pos_as_xyz
  1  'x, y, z'
loop_
 _atom_site_type_symbol
 _atom_site_label
 _atom_site_symmetry_multiplicity
 _atom_site_fract_x
 _atom_site_fract_y
 _atom_site_fract_z
 _atom_site_occupancy
  Dy  Dy0  1  0.847688  0.750000  0.800285  1
  Dy  Dy1  1  0.151585  0.250000  0.198363  1
  Dy  Dy2  1  0.348674  0.250000  0.699037  1
  Dy  Dy3  1  0.654026  0.750000  0.294300  1
  Dy  Dy4  1  0.377527  0.750000  0.692643  1
  Dy  Dy5  1  0.619279  0.250000  0.312360  1
  Dy  Dy6  1  0.880425  0.250000  0.812911  1
  Dy  Dy7  1  0.119228  0.750000  0.185260  1
  Dy  Dy8  1  0.944742  0.750000  0.504207  1
  Dy  Dy9  1  0.052109  0.250000  0.496426  1
  Dy  Dy10  1  0.449452  0.250000  0.997020  1
  Dy  Dy11  1  0.550008  0.750000  0.002663  1
  Tm  Tm12  1  0.674061  0.041455  0.565014  1
  Tm  Tm13  1  0.326636  0.964541  0.436583  1
  Tm  Tm14  1  0.172852  0.965731  0.936990  1
  Tm  Tm15  1  0.326636  0.535459  0.436583  1
  Tm  Tm16  1  0.826277  0.036093  0.062927  1
  Tm  Tm17  1  0.674061  0.458545  0.565014  1
  Tm  Tm18  1  0.826277  0.463907  0.062927  1
  Tm  Tm19  1  0.172852  0.534269  0.936990  1
  Co  Co20  1  0.434806  0.250000  0.491769  1
  Co  Co21  1  0.059765  0.250000  0.992808  1
  Co  Co22  1  0.939102  0.750000  0.006465  1
  Bi  Bi23  1  0.569234  0.492228  0.827588  1
  Bi  Bi24  1  0.430437  0.506855  0.172929  1
  Bi  Bi25  1  0.069063  0.506809  0.674368  1
  Bi  Bi26  1  0.430437  0.993145  0.172929  1
  Bi  Bi27  1  0.932866  0.492981  0.325871  1
  Bi  Bi28  1  0.569234  0.007772  0.827588  1
  Bi  Bi29  1  0.932866  0.007019  0.325871  1
  Bi  Bi30  1  0.069063  0.993191  0.674368  1
  Os  Os31  1  0.568732  0.750000  0.508940  1
