# generated using pymatgen
data_HfSc(ZnPd)2
_symmetry_space_group_name_H-M   'P 1'
_cell_length_a   5.05085846
_cell_length_b   5.05085896
_cell_length_c   5.24532100
_cell_angle_alpha   90.00000000
_cell_angle_beta   90.00000000
_cell_angle_gamma   128.89136687
_symmetry_Int_Tables_number   1
_chemical_formula_structural   HfSc(ZnPd)2
_chemical_formula_sum   'Hf1 Sc1 Zn2 Pd2'
_cell_volume   104.15271847
_cell_formula_units_Z   1
loop_
 _symmetry_equiv_pos_site_id
 _symmetry_equiv_pos_as_xyz
  1  'x, y, z'
loop_
 _atom_site_type_symbol
 _atom_site_label
 _atom_site_symmetry_multiplicity
 _atom_site_fract_x
 _atom_site_fract_y
 _atom_site_fract_z
 _atom_site_occupancy
  Hf  Hf0  1  0.704688  0.295312  0.250000  1
  Sc  Sc1  1  0.295308  0.704692  0.750000  1
  Zn  Zn2  1  0.001725  0.998275  0.499372  1
  Zn  Zn3  1  0.001725  0.998275  0.000628  1
  Pd  Pd4  1  0.395959  0.604041  0.250000  1
  Pd  Pd5  1  0.600596  0.399404  0.750000  1
