# generated using pymatgen
data_NbTlSe2O7
_symmetry_space_group_name_H-M   'P 1'
_cell_length_a   7.38611500
_cell_length_b   7.38611599
_cell_length_c   7.46863800
_cell_angle_alpha   90.00000000
_cell_angle_beta   90.00000000
_cell_angle_gamma   110.60461413
_symmetry_Int_Tables_number   1
_chemical_formula_structural   NbTlSe2O7
_chemical_formula_sum   'Nb2 Tl2 Se4 O14'
_cell_volume   381.38527634
_cell_formula_units_Z   2
loop_
 _symmetry_equiv_pos_site_id
 _symmetry_equiv_pos_as_xyz
  1  'x, y, z'
loop_
 _atom_site_type_symbol
 _atom_site_label
 _atom_site_symmetry_multiplicity
 _atom_site_fract_x
 _atom_site_fract_y
 _atom_site_fract_z
 _atom_site_occupancy
  Nb  Nb0  1  0.512462  0.512462  0.900267  1
  Nb  Nb1  1  0.487538  0.487538  0.400267  1
  Tl  Tl2  1  0.977731  0.977731  0.358124  1
  Tl  Tl3  1  0.022269  0.022269  0.858124  1
  Se  Se4  1  0.530336  0.925897  0.627230  1
  Se  Se5  1  0.925897  0.530336  0.627230  1
  Se  Se6  1  0.469664  0.074103  0.127230  1
  Se  Se7  1  0.074103  0.469664  0.127230  1
  O  O8  1  0.549734  0.783544  0.813412  1
  O  O9  1  0.783544  0.549734  0.813412  1
  O  O10  1  0.450266  0.216456  0.313412  1
  O  O11  1  0.216456  0.450266  0.313412  1
  O  O12  1  0.539562  0.774438  0.444254  1
  O  O13  1  0.774438  0.539562  0.444254  1
  O  O14  1  0.460438  0.225562  0.944254  1
  O  O15  1  0.225562  0.460438  0.944254  1
  O  O16  1  0.753254  0.090702  0.620041  1
  O  O17  1  0.090702  0.753254  0.620041  1
  O  O18  1  0.246746  0.909298  0.120041  1
  O  O19  1  0.909298  0.246746  0.120041  1
  O  O20  1  0.419627  0.419627  0.634676  1
  O  O21  1  0.580373  0.580373  0.134676  1
