# generated using pymatgen
data_HoLu4(In2Au)2
_symmetry_space_group_name_H-M   'P 1'
_cell_length_a   3.59954600
_cell_length_b   8.12684600
_cell_length_c   18.21392500
_cell_angle_alpha   90.00000000
_cell_angle_beta   90.00000000
_cell_angle_gamma   90.00000000
_symmetry_Int_Tables_number   1
_chemical_formula_structural   HoLu4(In2Au)2
_chemical_formula_sum   'Ho2 Lu8 In8 Au4'
_cell_volume   532.81114683
_cell_formula_units_Z   2
loop_
 _symmetry_equiv_pos_site_id
 _symmetry_equiv_pos_as_xyz
  1  'x, y, z'
loop_
 _atom_site_type_symbol
 _atom_site_label
 _atom_site_symmetry_multiplicity
 _atom_site_fract_x
 _atom_site_fract_y
 _atom_site_fract_z
 _atom_site_occupancy
  Ho  Ho0  1  0.000000  0.500000  0.500000  1
  Ho  Ho1  1  0.000000  0.000000  0.000000  1
  Lu  Lu2  1  0.000000  0.737489  0.281417  1
  Lu  Lu3  1  0.000000  0.262511  0.718583  1
  Lu  Lu4  1  0.000000  0.762511  0.781417  1
  Lu  Lu5  1  0.000000  0.237489  0.218583  1
  Lu  Lu6  1  0.000000  0.618567  0.080101  1
  Lu  Lu7  1  0.000000  0.381433  0.919899  1
  Lu  Lu8  1  0.000000  0.881433  0.580101  1
  Lu  Lu9  1  0.000000  0.118567  0.419899  1
  In  In10  1  0.500000  0.710282  0.933344  1
  In  In11  1  0.500000  0.289718  0.066656  1
  In  In12  1  0.500000  0.789718  0.433344  1
  In  In13  1  0.500000  0.210282  0.566656  1
  In  In14  1  0.500000  0.581647  0.646908  1
  In  In15  1  0.500000  0.418353  0.353092  1
  In  In16  1  0.500000  0.918353  0.146908  1
  In  In17  1  0.500000  0.081647  0.853092  1
  Au  Au18  1  0.500000  0.526388  0.196271  1
  Au  Au19  1  0.500000  0.473612  0.803729  1
  Au  Au20  1  0.500000  0.973612  0.696271  1
  Au  Au21  1  0.500000  0.026388  0.303729  1
