# generated using pymatgen
data_Np3Pa3P8
_symmetry_space_group_name_H-M   'P 1'
_cell_length_a   7.15620726
_cell_length_b   7.18027200
_cell_length_c   7.15620748
_cell_angle_alpha   109.68166028
_cell_angle_beta   109.30793783
_cell_angle_gamma   109.28804887
_symmetry_Int_Tables_number   1
_chemical_formula_structural   Np3Pa3P8
_chemical_formula_sum   'Np3 Pa3 P8'
_cell_volume   283.53509810
_cell_formula_units_Z   1
loop_
 _symmetry_equiv_pos_site_id
 _symmetry_equiv_pos_as_xyz
  1  'x, y, z'
loop_
 _atom_site_type_symbol
 _atom_site_label
 _atom_site_symmetry_multiplicity
 _atom_site_fract_x
 _atom_site_fract_y
 _atom_site_fract_z
 _atom_site_occupancy
  Np  Np0  1  0.752875  0.877618  0.127237  1
  Np  Np1  1  0.375179  0.250000  0.625179  1
  Np  Np2  1  0.249619  0.622382  0.375257  1
  Pa  Pa3  1  0.871860  0.124478  0.748612  1
  Pa  Pa4  1  0.624134  0.375522  0.247382  1
  Pa  Pa5  1  0.126067  0.750000  0.876067  1
  P  P6  1  0.659566  0.658166  0.659846  1
  P  P7  1  0.840702  0.502726  0.000678  1
  P  P8  1  0.497952  0.997274  0.837977  1
  P  P9  1  0.342300  0.503441  0.001826  1
  P  P10  1  0.001680  0.841834  0.501401  1
  P  P11  1  0.999521  0.340349  0.500509  1
  P  P12  1  0.498385  0.996559  0.338859  1
  P  P13  1  0.160160  0.159651  0.159173  1
