# generated using pymatgen
data_RbCd3Pt2
_symmetry_space_group_name_H-M   'P 1'
_cell_length_a   7.35941009
_cell_length_b   7.35940990
_cell_length_c   5.91749200
_cell_angle_alpha   90.00000000
_cell_angle_beta   90.00000000
_cell_angle_gamma   105.65383294
_symmetry_Int_Tables_number   1
_chemical_formula_structural   RbCd3Pt2
_chemical_formula_sum   'Rb2 Cd6 Pt4'
_cell_volume   308.60938990
_cell_formula_units_Z   2
loop_
 _symmetry_equiv_pos_site_id
 _symmetry_equiv_pos_as_xyz
  1  'x, y, z'
loop_
 _atom_site_type_symbol
 _atom_site_label
 _atom_site_symmetry_multiplicity
 _atom_site_fract_x
 _atom_site_fract_y
 _atom_site_fract_z
 _atom_site_occupancy
  Rb  Rb0  1  0.644848  0.644848  0.250000  1
  Rb  Rb1  1  0.355152  0.355152  0.750000  1
  Cd  Cd2  1  0.949506  0.949506  0.750000  1
  Cd  Cd3  1  0.050494  0.050494  0.250000  1
  Cd  Cd4  1  0.522458  0.944528  0.750000  1
  Cd  Cd5  1  0.477542  0.055472  0.250000  1
  Cd  Cd6  1  0.944528  0.522458  0.750000  1
  Cd  Cd7  1  0.055472  0.477542  0.250000  1
  Pt  Pt8  1  0.802223  0.197777  0.500000  1
  Pt  Pt9  1  0.197777  0.802223  0.000000  1
  Pt  Pt10  1  0.802223  0.197777  0.000000  1
  Pt  Pt11  1  0.197777  0.802223  0.500000  1
