# generated using pymatgen
data_KRb3Y2Zr2(PO4)6
_symmetry_space_group_name_H-M   'P 1'
_cell_length_a   10.48429700
_cell_length_b   10.48429700
_cell_length_c   10.48429700
_cell_angle_alpha   90.00000000
_cell_angle_beta   90.00000000
_cell_angle_gamma   90.00000000
_symmetry_Int_Tables_number   1
_chemical_formula_structural   KRb3Y2Zr2(PO4)6
_chemical_formula_sum   'K2 Rb6 Y4 Zr4 P12 O48'
_cell_volume   1152.43899628
_cell_formula_units_Z   2
loop_
 _symmetry_equiv_pos_site_id
 _symmetry_equiv_pos_as_xyz
  1  'x, y, z'
loop_
 _atom_site_type_symbol
 _atom_site_label
 _atom_site_symmetry_multiplicity
 _atom_site_fract_x
 _atom_site_fract_y
 _atom_site_fract_z
 _atom_site_occupancy
  K  K0  1  0.803835  0.196222  0.696036  1
  K  K1  1  0.933094  0.566686  0.433317  1
  Rb  Rb2  1  0.065672  0.066015  0.065781  1
  Rb  Rb3  1  0.201736  0.701803  0.798112  1
  Rb  Rb4  1  0.298100  0.298332  0.298145  1
  Rb  Rb5  1  0.434181  0.934325  0.565973  1
  Rb  Rb6  1  0.566036  0.433967  0.933921  1
  Rb  Rb7  1  0.701916  0.798017  0.201930  1
  Y  Y8  1  0.146351  0.352978  0.646518  1
  Y  Y9  1  0.353405  0.646753  0.146864  1
  Y  Y10  1  0.647501  0.146712  0.353296  1
  Y  Y11  1  0.853133  0.853170  0.852773  1
  Zr  Zr12  1  0.087995  0.911979  0.412126  1
  Zr  Zr13  1  0.412021  0.088088  0.912062  1
  Zr  Zr14  1  0.587934  0.587825  0.588052  1
  Zr  Zr15  1  0.912066  0.412095  0.087977  1
  P  P16  1  0.032705  0.726788  0.130247  1
  P  P17  1  0.128178  0.033374  0.727041  1
  P  P18  1  0.227176  0.370535  0.966871  1
  P  P19  1  0.271982  0.629314  0.466737  1
  P  P20  1  0.370625  0.967022  0.227346  1
  P  P21  1  0.468010  0.272709  0.630016  1
  P  P22  1  0.533046  0.772854  0.870375  1
  P  P23  1  0.630501  0.467236  0.273413  1
  P  P24  1  0.727264  0.130176  0.031905  1
  P  P25  1  0.773545  0.870780  0.533012  1
  P  P26  1  0.869892  0.532197  0.772077  1
  P  P27  1  0.966421  0.227677  0.371727  1
  O  O28  1  0.992571  0.584737  0.148868  1
  O  O29  1  0.022428  0.791783  0.264079  1
  O  O30  1  0.040677  0.939024  0.796936  1
  O  O31  1  0.060044  0.299111  0.458773  1
  O  O32  1  0.073983  0.169298  0.733516  1
  O  O33  1  0.085134  0.352841  0.007674  1
  O  O34  1  0.146642  0.992983  0.585078  1
  O  O35  1  0.169436  0.734307  0.078634  1
  O  O36  1  0.207788  0.763510  0.476869  1
  O  O37  1  0.200655  0.540733  0.559156  1
  O  O38  1  0.234105  0.421884  0.829954  1
  O  O39  1  0.236794  0.976980  0.292471  1
  O  O40  1  0.261889  0.025490  0.792425  1
  O  O41  1  0.265095  0.577947  0.329946  1
  O  O42  1  0.296940  0.459648  0.059791  1
  O  O43  1  0.292349  0.236912  0.977022  1
  O  O44  1  0.331297  0.264703  0.577795  1
  O  O45  1  0.352818  0.007321  0.085216  1
  O  O46  1  0.414102  0.646082  0.507758  1
  O  O47  1  0.422177  0.830284  0.234886  1
  O  O48  1  0.440066  0.703104  0.959472  1
  O  O49  1  0.459654  0.060224  0.297112  1
  O  O50  1  0.477052  0.207930  0.763955  1
  O  O51  1  0.507036  0.415246  0.647307  1
  O  O52  1  0.492321  0.914952  0.852644  1
  O  O53  1  0.523048  0.707778  0.736701  1
  O  O54  1  0.541089  0.560093  0.203825  1
  O  O55  1  0.563044  0.203273  0.542588  1
  O  O56  1  0.578980  0.330412  0.266259  1
  O  O57  1  0.584670  0.147502  0.992954  1
  O  O58  1  0.649066  0.507804  0.415431  1
  O  O59  1  0.669874  0.765671  0.921840  1
  O  O60  1  0.708364  0.737030  0.524945  1
  O  O61  1  0.703825  0.958600  0.438734  1
  O  O62  1  0.735524  0.077845  0.168534  1
  O  O63  1  0.735547  0.523117  0.708320  1
  O  O64  1  0.764177  0.477556  0.208471  1
  O  O65  1  0.766836  0.925115  0.668850  1
  O  O66  1  0.796682  0.042759  0.936815  1
  O  O67  1  0.791942  0.264164  0.023012  1
  O  O68  1  0.830533  0.233758  0.425849  1
  O  O69  1  0.853587  0.492518  0.914657  1
  O  O70  1  0.915483  0.851478  0.492864  1
  O  O71  1  0.922027  0.668881  0.764445  1
  O  O72  1  0.939623  0.796394  0.040913  1
  O  O73  1  0.956909  0.437885  0.701157  1
  O  O74  1  0.974333  0.292036  0.237597  1
  O  O75  1  0.007465  0.085666  0.354255  1
