# generated using pymatgen
data_Ca3Hg2Pd3Pb
_symmetry_space_group_name_H-M   'P 1'
_cell_length_a   7.79223519
_cell_length_b   7.77149690
_cell_length_c   4.01902000
_cell_angle_alpha   90.00000000
_cell_angle_beta   90.00000000
_cell_angle_gamma   119.91200359
_symmetry_Int_Tables_number   1
_chemical_formula_structural   Ca3Hg2Pd3Pb
_chemical_formula_sum   'Ca3 Hg2 Pd3 Pb1'
_cell_volume   210.96088569
_cell_formula_units_Z   1
loop_
 _symmetry_equiv_pos_site_id
 _symmetry_equiv_pos_as_xyz
  1  'x, y, z'
loop_
 _atom_site_type_symbol
 _atom_site_label
 _atom_site_symmetry_multiplicity
 _atom_site_fract_x
 _atom_site_fract_y
 _atom_site_fract_z
 _atom_site_occupancy
  Ca  Ca0  1  0.406958  0.399410  0.500000  1
  Ca  Ca1  1  0.000000  0.612148  0.500000  1
  Ca  Ca2  1  0.593042  0.992453  0.500000  1
  Hg  Hg3  1  0.268082  0.000475  0.000000  1
  Hg  Hg4  1  0.731918  0.732393  0.000000  1
  Pd  Pd5  1  0.000000  0.009193  0.500000  1
  Pd  Pd6  1  0.672977  0.332249  0.000000  1
  Pd  Pd7  1  0.327023  0.659272  0.000000  1
  Pb  Pb8  1  0.000000  0.262407  0.000000  1
