# generated using pymatgen
data_Lu6CrFeB14
_symmetry_space_group_name_H-M   'P 1'
_cell_length_a   7.87486740
_cell_length_b   7.87486733
_cell_length_c   9.15944000
_cell_angle_alpha   90.00000000
_cell_angle_beta   90.00000000
_cell_angle_gamma   155.29603028
_symmetry_Int_Tables_number   1
_chemical_formula_structural   Lu6CrFeB14
_chemical_formula_sum   'Lu6 Cr1 Fe1 B14'
_cell_volume   237.38812159
_cell_formula_units_Z   1
loop_
 _symmetry_equiv_pos_site_id
 _symmetry_equiv_pos_as_xyz
  1  'x, y, z'
loop_
 _atom_site_type_symbol
 _atom_site_label
 _atom_site_symmetry_multiplicity
 _atom_site_fract_x
 _atom_site_fract_y
 _atom_site_fract_z
 _atom_site_occupancy
  Lu  Lu0  1  0.894221  0.105779  0.440844  1
  Lu  Lu1  1  0.105416  0.894584  0.560094  1
  Lu  Lu2  1  0.894221  0.105779  0.059156  1
  Lu  Lu3  1  0.105416  0.894584  0.939906  1
  Lu  Lu4  1  0.243186  0.756814  0.250000  1
  Lu  Lu5  1  0.757468  0.242532  0.750000  1
  Cr  Cr6  1  0.051856  0.948144  0.250000  1
  Fe  Fe7  1  0.946732  0.053268  0.750000  1
  B  B8  1  0.728448  0.271552  0.467208  1
  B  B9  1  0.272613  0.727387  0.535131  1
  B  B10  1  0.728448  0.271552  0.032792  1
  B  B11  1  0.272613  0.727387  0.964869  1
  B  B12  1  0.631554  0.368446  0.150760  1
  B  B13  1  0.370161  0.629839  0.847499  1
  B  B14  1  0.631554  0.368446  0.349240  1
  B  B15  1  0.370161  0.629839  0.652501  1
  B  B16  1  0.519624  0.480376  0.094537  1
  B  B17  1  0.479680  0.520320  0.903161  1
  B  B18  1  0.519624  0.480376  0.405463  1
  B  B19  1  0.479680  0.520320  0.596839  1
  B  B20  1  0.453711  0.546289  0.250000  1
  B  B21  1  0.543613  0.456387  0.750000  1
