# generated using pymatgen
data_Th3NiPt2Au3
_symmetry_space_group_name_H-M   'P 1'
_cell_length_a   7.61023800
_cell_length_b   7.61023812
_cell_length_c   3.89467700
_cell_angle_alpha   90.00000000
_cell_angle_beta   90.00000000
_cell_angle_gamma   120.00000816
_symmetry_Int_Tables_number   1
_chemical_formula_structural   Th3NiPt2Au3
_chemical_formula_sum   'Th3 Ni1 Pt2 Au3'
_cell_volume   195.34330295
_cell_formula_units_Z   1
loop_
 _symmetry_equiv_pos_site_id
 _symmetry_equiv_pos_as_xyz
  1  'x, y, z'
loop_
 _atom_site_type_symbol
 _atom_site_label
 _atom_site_symmetry_multiplicity
 _atom_site_fract_x
 _atom_site_fract_y
 _atom_site_fract_z
 _atom_site_occupancy
  Th  Th0  1  0.000000  0.390452  0.500000  1
  Th  Th1  1  0.609548  0.609548  0.500000  1
  Th  Th2  1  0.390452  0.000000  0.500000  1
  Ni  Ni3  1  0.000000  0.000000  0.500000  1
  Pt  Pt4  1  0.333333  0.666667  0.000000  1
  Pt  Pt5  1  0.666667  0.333333  0.000000  1
  Au  Au6  1  0.000000  0.755433  0.000000  1
  Au  Au7  1  0.244567  0.244567  0.000000  1
  Au  Au8  1  0.755433  0.000000  0.000000  1
