# generated using pymatgen
data_Eu2Ga9Pt2Rh
_symmetry_space_group_name_H-M   'P 1'
_cell_length_a   7.72516383
_cell_length_b   7.72516409
_cell_length_c   9.69758100
_cell_angle_alpha   90.00000000
_cell_angle_beta   90.00000000
_cell_angle_gamma   119.70968972
_symmetry_Int_Tables_number   1
_chemical_formula_structural   Eu2Ga9Pt2Rh
_chemical_formula_sum   'Eu4 Ga18 Pt4 Rh2'
_cell_volume   502.65789422
_cell_formula_units_Z   2
loop_
 _symmetry_equiv_pos_site_id
 _symmetry_equiv_pos_as_xyz
  1  'x, y, z'
loop_
 _atom_site_type_symbol
 _atom_site_label
 _atom_site_symmetry_multiplicity
 _atom_site_fract_x
 _atom_site_fract_y
 _atom_site_fract_z
 _atom_site_occupancy
  Eu  Eu0  1  0.998485  0.665758  0.250000  1
  Eu  Eu1  1  0.665758  0.998485  0.250000  1
  Eu  Eu2  1  0.334242  0.001515  0.750000  1
  Eu  Eu3  1  0.001515  0.334242  0.750000  1
  Ga  Ga4  1  0.673283  0.673283  0.062214  1
  Ga  Ga5  1  0.329679  0.000251  0.078855  1
  Ga  Ga6  1  0.000251  0.329679  0.078855  1
  Ga  Ga7  1  0.122228  0.122228  0.250000  1
  Ga  Ga8  1  0.542204  0.341578  0.250000  1
  Ga  Ga9  1  0.341578  0.542204  0.250000  1
  Ga  Ga10  1  0.329679  0.000251  0.421145  1
  Ga  Ga11  1  0.000251  0.329679  0.421145  1
  Ga  Ga12  1  0.673283  0.673283  0.437785  1
  Ga  Ga13  1  0.326717  0.326717  0.562214  1
  Ga  Ga14  1  0.999749  0.670321  0.578856  1
  Ga  Ga15  1  0.670321  0.999749  0.578856  1
  Ga  Ga16  1  0.658422  0.457796  0.750000  1
  Ga  Ga17  1  0.457796  0.658422  0.750000  1
  Ga  Ga18  1  0.877772  0.877772  0.750000  1
  Ga  Ga19  1  0.999749  0.670321  0.921144  1
  Ga  Ga20  1  0.670321  0.999749  0.921144  1
  Ga  Ga21  1  0.326717  0.326717  0.937786  1
  Pt  Pt22  1  0.669472  0.330529  0.000000  1
  Pt  Pt23  1  0.330529  0.669472  0.000000  1
  Pt  Pt24  1  0.669472  0.330529  0.500000  1
  Pt  Pt25  1  0.330529  0.669472  0.500000  1
  Rh  Rh26  1  0.000000  0.000000  0.000000  1
  Rh  Rh27  1  0.000000  0.000000  0.500000  1
