# generated using pymatgen
data_MnZn3P7N12
_symmetry_space_group_name_H-M   'P 1'
_cell_length_a   7.17068321
_cell_length_b   7.11602140
_cell_length_c   7.17068402
_cell_angle_alpha   109.31687314
_cell_angle_beta   109.62512152
_cell_angle_gamma   109.31687618
_symmetry_Int_Tables_number   1
_chemical_formula_structural   MnZn3P7N12
_chemical_formula_sum   'Mn1 Zn3 P7 N12'
_cell_volume   282.20207959
_cell_formula_units_Z   1
loop_
 _symmetry_equiv_pos_site_id
 _symmetry_equiv_pos_as_xyz
  1  'x, y, z'
loop_
 _atom_site_type_symbol
 _atom_site_label
 _atom_site_symmetry_multiplicity
 _atom_site_fract_x
 _atom_site_fract_y
 _atom_site_fract_z
 _atom_site_occupancy
  Mn  Mn0  1  0.000000  0.339503  0.000000  1
  Zn  Zn1  1  0.674772  0.678067  0.674772  1
  Zn  Zn2  1  0.325228  0.003296  0.000000  1
  Zn  Zn3  1  0.000000  0.003296  0.325228  1
  P  P4  1  0.749449  0.247755  0.498020  1
  P  P5  1  0.251429  0.749735  0.501980  1
  P  P6  1  0.501980  0.749735  0.251429  1
  P  P7  1  0.498020  0.247755  0.749449  1
  P  P8  1  0.748571  0.498305  0.250551  1
  P  P9  1  0.250551  0.498305  0.748571  1
  P  P10  1  0.000000  0.008280  0.000000  1
  N  N11  1  0.556330  0.269348  0.000000  1
  N  N12  1  0.447896  0.446564  0.718030  1
  N  N13  1  0.000000  0.269348  0.556330  1
  N  N14  1  0.270134  0.998668  0.552104  1
  N  N15  1  0.718030  0.446564  0.447896  1
  N  N16  1  0.000000  0.549940  0.273094  1
  N  N17  1  0.552104  0.998668  0.270134  1
  N  N18  1  0.443670  0.713018  0.443670  1
  N  N19  1  0.273094  0.549940  0.000000  1
  N  N20  1  0.726906  0.276846  0.726906  1
  N  N21  1  0.729866  0.728534  0.281970  1
  N  N22  1  0.281970  0.728534  0.729866  1
