# generated using pymatgen
data_Ca3LuSc6(Si5Ir2)4
_symmetry_space_group_name_H-M   'P 1'
_cell_length_a   12.52583484
_cell_length_b   12.52583461
_cell_length_c   4.15588400
_cell_angle_alpha   90.00000000
_cell_angle_beta   90.00000000
_cell_angle_gamma   90.10263628
_symmetry_Int_Tables_number   1
_chemical_formula_structural   Ca3LuSc6(Si5Ir2)4
_chemical_formula_sum   'Ca3 Lu1 Sc6 Si20 Ir8'
_cell_volume   652.04275560
_cell_formula_units_Z   1
loop_
 _symmetry_equiv_pos_site_id
 _symmetry_equiv_pos_as_xyz
  1  'x, y, z'
loop_
 _atom_site_type_symbol
 _atom_site_label
 _atom_site_symmetry_multiplicity
 _atom_site_fract_x
 _atom_site_fract_y
 _atom_site_fract_z
 _atom_site_occupancy
  Ca  Ca0  1  0.116072  0.615754  0.500000  1
  Ca  Ca1  1  0.884246  0.383928  0.500000  1
  Ca  Ca2  1  0.614724  0.885276  0.500000  1
  Lu  Lu3  1  0.383745  0.116255  0.500000  1
  Sc  Sc4  1  0.673017  0.172535  0.500000  1
  Sc  Sc5  1  0.327465  0.826983  0.500000  1
  Sc  Sc6  1  0.174601  0.325399  0.500000  1
  Sc  Sc7  1  0.827068  0.672932  0.500000  1
  Sc  Sc8  1  0.000513  0.999968  0.000000  1
  Sc  Sc9  1  0.500032  0.499487  0.000000  1
  Si  Si10  1  0.567283  0.067955  0.000000  1
  Si  Si11  1  0.432045  0.932717  0.000000  1
  Si  Si12  1  0.068948  0.431052  0.000000  1
  Si  Si13  1  0.931566  0.568434  0.000000  1
  Si  Si14  1  0.201173  0.165239  0.000000  1
  Si  Si15  1  0.799162  0.835308  0.000000  1
  Si  Si16  1  0.165771  0.800766  0.000000  1
  Si  Si17  1  0.699234  0.334229  0.000000  1
  Si  Si18  1  0.834560  0.200705  0.000000  1
  Si  Si19  1  0.299295  0.665440  0.000000  1
  Si  Si20  1  0.664692  0.700838  0.000000  1
  Si  Si21  1  0.334761  0.298827  0.000000  1
  Si  Si22  1  0.008090  0.149181  0.500000  1
  Si  Si23  1  0.992194  0.850630  0.500000  1
  Si  Si24  1  0.151351  0.991809  0.500000  1
  Si  Si25  1  0.508191  0.348649  0.500000  1
  Si  Si26  1  0.849764  0.009576  0.500000  1
  Si  Si27  1  0.490424  0.650236  0.500000  1
  Si  Si28  1  0.649370  0.507806  0.500000  1
  Si  Si29  1  0.350819  0.491910  0.500000  1
  Ir  Ir30  1  0.022587  0.242104  0.000000  1
  Ir  Ir31  1  0.977913  0.757832  0.000000  1
  Ir  Ir32  1  0.245260  0.980753  0.000000  1
  Ir  Ir33  1  0.519247  0.254740  0.000000  1
  Ir  Ir34  1  0.756654  0.021905  0.000000  1
  Ir  Ir35  1  0.478095  0.743346  0.000000  1
  Ir  Ir36  1  0.742168  0.522087  0.000000  1
  Ir  Ir37  1  0.257896  0.477413  0.000000  1
