# generated using pymatgen
data_Bi3Ru3RhO14
_symmetry_space_group_name_H-M   'P 1'
_cell_length_a   7.18756896
_cell_length_b   7.18756851
_cell_length_c   7.18756824
_cell_angle_alpha   61.33742122
_cell_angle_beta   61.33742710
_cell_angle_gamma   61.33742513
_symmetry_Int_Tables_number   1
_chemical_formula_structural   Bi3Ru3RhO14
_chemical_formula_sum   'Bi3 Ru3 Rh1 O14'
_cell_volume   270.45296620
_cell_formula_units_Z   1
loop_
 _symmetry_equiv_pos_site_id
 _symmetry_equiv_pos_as_xyz
  1  'x, y, z'
loop_
 _atom_site_type_symbol
 _atom_site_label
 _atom_site_symmetry_multiplicity
 _atom_site_fract_x
 _atom_site_fract_y
 _atom_site_fract_z
 _atom_site_occupancy
  Bi  Bi0  1  0.000000  0.500000  0.500000  1
  Bi  Bi1  1  0.500000  0.500000  0.000000  1
  Bi  Bi2  1  0.500000  0.000000  0.500000  1
  Ru  Ru3  1  0.500000  0.000000  0.000000  1
  Ru  Ru4  1  0.000000  0.000000  0.500000  1
  Ru  Ru5  1  0.000000  0.500000  0.000000  1
  Rh  Rh6  1  0.000000  0.000000  0.000000  1
  O  O7  1  0.945244  0.319256  0.319256  1
  O  O8  1  0.331050  0.917563  0.917563  1
  O  O9  1  0.319256  0.319256  0.945244  1
  O  O10  1  0.917563  0.917563  0.331050  1
  O  O11  1  0.917563  0.331050  0.917563  1
  O  O12  1  0.319256  0.945244  0.319256  1
  O  O13  1  0.054756  0.680744  0.680744  1
  O  O14  1  0.668950  0.082437  0.082437  1
  O  O15  1  0.680744  0.680744  0.054756  1
  O  O16  1  0.082437  0.082437  0.668950  1
  O  O17  1  0.082437  0.668950  0.082437  1
  O  O18  1  0.680744  0.054756  0.680744  1
  O  O19  1  0.374420  0.374420  0.374420  1
  O  O20  1  0.625580  0.625580  0.625580  1
