# generated using pymatgen
data_Na5RuO6
_symmetry_space_group_name_H-M   'P 1'
_cell_length_a   5.68847585
_cell_length_b   5.68847510
_cell_length_c   5.64565364
_cell_angle_alpha   79.68342920
_cell_angle_beta   79.68343513
_cell_angle_gamma   119.44868198
_symmetry_Int_Tables_number   1
_chemical_formula_structural   Na5RuO6
_chemical_formula_sum   'Na5 Ru1 O6'
_cell_volume   148.70780463
_cell_formula_units_Z   1
loop_
 _symmetry_equiv_pos_site_id
 _symmetry_equiv_pos_as_xyz
  1  'x, y, z'
loop_
 _atom_site_type_symbol
 _atom_site_label
 _atom_site_symmetry_multiplicity
 _atom_site_fract_x
 _atom_site_fract_y
 _atom_site_fract_z
 _atom_site_occupancy
  Na  Na0  1  0.832902  0.167098  0.000000  1
  Na  Na1  1  0.167098  0.832902  0.000000  1
  Na  Na2  1  0.671453  0.328547  0.500000  1
  Na  Na3  1  0.328547  0.671453  0.500000  1
  Na  Na4  1  0.000000  0.000000  0.500000  1
  Ru  Ru5  1  0.500000  0.500000  0.000000  1
  O  O6  1  0.429306  0.149281  0.216735  1
  O  O7  1  0.570694  0.850719  0.783265  1
  O  O8  1  0.850719  0.570694  0.783265  1
  O  O9  1  0.149281  0.429306  0.216735  1
  O  O10  1  0.704205  0.704205  0.203880  1
  O  O11  1  0.295795  0.295795  0.796120  1
