# generated using pymatgen
data_Tb5Nb3Co16(SiP5)2
_symmetry_space_group_name_H-M   'P 1'
_cell_length_a   12.23717944
_cell_length_b   12.25982374
_cell_length_c   3.72229200
_cell_angle_alpha   90.00000000
_cell_angle_beta   90.00000000
_cell_angle_gamma   119.96964556
_symmetry_Int_Tables_number   1
_chemical_formula_structural   Tb5Nb3Co16(SiP5)2
_chemical_formula_sum   'Tb5 Nb3 Co16 Si2 P10'
_cell_volume   483.77050082
_cell_formula_units_Z   1
loop_
 _symmetry_equiv_pos_site_id
 _symmetry_equiv_pos_as_xyz
  1  'x, y, z'
loop_
 _atom_site_type_symbol
 _atom_site_label
 _atom_site_symmetry_multiplicity
 _atom_site_fract_x
 _atom_site_fract_y
 _atom_site_fract_z
 _atom_site_occupancy
  Tb  Tb0  1  0.816592  0.999091  0.500000  1
  Tb  Tb1  1  0.001388  0.816198  0.500000  1
  Tb  Tb2  1  0.182552  0.183259  0.500000  1
  Tb  Tb3  1  0.330574  0.663467  0.000000  1
  Tb  Tb4  1  0.666732  0.333937  0.000000  1
  Nb  Nb5  1  0.443240  0.003406  0.000000  1
  Nb  Nb6  1  0.998683  0.441080  0.000000  1
  Nb  Nb7  1  0.558686  0.556717  0.000000  1
  Co  Co8  1  0.279466  0.003775  0.500000  1
  Co  Co9  1  0.998750  0.278452  0.500000  1
  Co  Co10  1  0.724623  0.720027  0.500000  1
  Co  Co11  1  0.630106  0.805593  0.000000  1
  Co  Co12  1  0.194962  0.823090  0.000000  1
  Co  Co13  1  0.174710  0.372060  0.000000  1
  Co  Co14  1  0.374125  0.179571  0.000000  1
  Co  Co15  1  0.804631  0.624807  0.000000  1
  Co  Co16  1  0.822045  0.196307  0.000000  1
  Co  Co17  1  0.526989  0.882176  0.500000  1
  Co  Co18  1  0.121243  0.642031  0.500000  1
  Co  Co19  1  0.350978  0.474547  0.500000  1
  Co  Co20  1  0.480687  0.354455  0.500000  1
  Co  Co21  1  0.872614  0.517477  0.500000  1
  Co  Co22  1  0.646166  0.129159  0.500000  1
  Co  Co23  1  0.000083  0.000169  0.000000  1
  Si  Si24  1  0.521955  0.690737  0.500000  1
  Si  Si25  1  0.311462  0.832161  0.500000  1
  P  P26  1  0.179775  0.000265  0.000000  1
  P  P27  1  0.998735  0.178470  0.000000  1
  P  P28  1  0.821342  0.819544  0.000000  1
  P  P29  1  0.167037  0.477528  0.500000  1
  P  P30  1  0.478426  0.169335  0.500000  1
  P  P31  1  0.689843  0.521373  0.500000  1
  P  P32  1  0.831128  0.310305  0.500000  1
  P  P33  1  0.643215  0.999326  0.000000  1
  P  P34  1  0.000639  0.642940  0.000000  1
  P  P35  1  0.355817  0.357167  0.000000  1
