# generated using pymatgen
data_Ho11Er9(Sn3Pb5)2
_symmetry_space_group_name_H-M   'P 1'
_cell_length_a   8.11457005
_cell_length_b   15.50836300
_cell_length_c   8.18396805
_cell_angle_alpha   90.00046022
_cell_angle_beta   90.01307727
_cell_angle_gamma   89.99777231
_symmetry_Int_Tables_number   1
_chemical_formula_structural   Ho11Er9(Sn3Pb5)2
_chemical_formula_sum   'Ho11 Er9 Sn6 Pb10'
_cell_volume   1029.90077665
_cell_formula_units_Z   1
loop_
 _symmetry_equiv_pos_site_id
 _symmetry_equiv_pos_as_xyz
  1  'x, y, z'
loop_
 _atom_site_type_symbol
 _atom_site_label
 _atom_site_symmetry_multiplicity
 _atom_site_fract_x
 _atom_site_fract_y
 _atom_site_fract_z
 _atom_site_occupancy
  Ho  Ho0  1  0.877786  0.122317  0.661580  1
  Ho  Ho1  1  0.621879  0.876652  0.160157  1
  Ho  Ho2  1  0.121935  0.623274  0.339845  1
  Ho  Ho3  1  0.464991  0.603397  0.676391  1
  Ho  Ho4  1  0.965004  0.896496  0.823681  1
  Ho  Ho5  1  0.534546  0.100383  0.325414  1
  Ho  Ho6  1  0.034602  0.399640  0.174519  1
  Ho  Ho7  1  0.534555  0.399722  0.325433  1
  Ho  Ho8  1  0.034586  0.100310  0.174468  1
  Ho  Ho9  1  0.465035  0.896562  0.676241  1
  Ho  Ho10  1  0.964970  0.603455  0.823713  1
  Er  Er11  1  0.622097  0.623433  0.160088  1
  Er  Er12  1  0.122068  0.876549  0.339955  1
  Er  Er13  1  0.377646  0.122391  0.838509  1
  Er  Er14  1  0.877674  0.377675  0.661439  1
  Er  Er15  1  0.377770  0.377562  0.838491  1
  Er  Er16  1  0.790523  0.749966  0.496432  1
  Er  Er17  1  0.290508  0.750007  0.003555  1
  Er  Er18  1  0.210153  0.250057  0.507549  1
  Er  Er19  1  0.709955  0.250111  0.992491  1
  Sn  Sn20  1  0.425825  0.749963  0.376309  1
  Sn  Sn21  1  0.925850  0.750015  0.123693  1
  Sn  Sn22  1  0.573459  0.250094  0.624890  1
  Sn  Sn23  1  0.073738  0.250141  0.875266  1
  Sn  Sn24  1  0.657120  0.749926  0.851138  1
  Sn  Sn25  1  0.157115  0.750063  0.648870  1
  Pb  Pb26  1  0.717341  0.458472  0.966515  1
  Pb  Pb27  1  0.217719  0.041496  0.533396  1
  Pb  Pb28  1  0.281991  0.958014  0.033607  1
  Pb  Pb29  1  0.781973  0.541989  0.466427  1
  Pb  Pb30  1  0.282535  0.541987  0.033349  1
  Pb  Pb31  1  0.782416  0.957822  0.466453  1
  Pb  Pb32  1  0.717321  0.041686  0.966644  1
  Pb  Pb33  1  0.217478  0.458272  0.533688  1
  Pb  Pb34  1  0.344917  0.250017  0.151734  1
  Pb  Pb35  1  0.844918  0.250085  0.348070  1
