# generated using pymatgen
data_Ca7Nd(Ge3Rh4)2
_symmetry_space_group_name_H-M   'P 1'
_cell_length_a   10.98521727
_cell_length_b   10.97528149
_cell_length_c   7.75726010
_cell_angle_alpha   72.20875713
_cell_angle_beta   72.07954677
_cell_angle_gamma   30.38607907
_symmetry_Int_Tables_number   1
_chemical_formula_structural   Ca7Nd(Ge3Rh4)2
_chemical_formula_sum   'Ca7 Nd1 Ge6 Rh8'
_cell_volume   448.55928459
_cell_formula_units_Z   1
loop_
 _symmetry_equiv_pos_site_id
 _symmetry_equiv_pos_as_xyz
  1  'x, y, z'
loop_
 _atom_site_type_symbol
 _atom_site_label
 _atom_site_symmetry_multiplicity
 _atom_site_fract_x
 _atom_site_fract_y
 _atom_site_fract_z
 _atom_site_occupancy
  Ca  Ca0  1  0.213599  0.446077  0.404430  1
  Ca  Ca1  1  0.552225  0.790127  0.093741  1
  Ca  Ca2  1  0.448031  0.207089  0.906249  1
  Ca  Ca3  1  0.925385  0.208281  0.331909  1
  Ca  Ca4  1  0.788965  0.075572  0.166455  1
  Ca  Ca5  1  0.074936  0.790053  0.666080  1
  Ca  Ca6  1  0.206079  0.926761  0.835751  1
  Nd  Nd7  1  0.785532  0.559980  0.596207  1
  Ge  Ge8  1  0.614858  0.384522  0.749301  1
  Ge  Ge9  1  0.385085  0.615335  0.249618  1
  Ge  Ge10  1  0.297310  0.043997  0.438667  1
  Ge  Ge11  1  0.963847  0.696766  0.056429  1
  Ge  Ge12  1  0.695806  0.961711  0.558982  1
  Ge  Ge13  1  0.043213  0.300580  0.944567  1
  Rh  Rh14  1  0.300168  0.578195  0.023438  1
  Rh  Rh15  1  0.579505  0.298732  0.522276  1
  Rh  Rh16  1  0.703373  0.419987  0.973832  1
  Rh  Rh17  1  0.070866  0.374602  0.190945  1
  Rh  Rh18  1  0.642568  0.910516  0.313737  1
  Rh  Rh19  1  0.423945  0.698876  0.477103  1
  Rh  Rh20  1  0.918932  0.635504  0.813102  1
  Rh  Rh21  1  0.365772  0.076737  0.687179  1
