# generated using pymatgen
data_NdY10Cd9Ni4
_symmetry_space_group_name_H-M   'P 1'
_cell_length_a   13.05153719
_cell_length_b   13.05153693
_cell_length_c   3.70083100
_cell_angle_alpha   90.00000000
_cell_angle_beta   90.00000000
_cell_angle_gamma   112.16256424
_symmetry_Int_Tables_number   1
_chemical_formula_structural   NdY10Cd9Ni4
_chemical_formula_sum   'Nd1 Y10 Cd9 Ni4'
_cell_volume   583.83288465
_cell_formula_units_Z   1
loop_
 _symmetry_equiv_pos_site_id
 _symmetry_equiv_pos_as_xyz
  1  'x, y, z'
loop_
 _atom_site_type_symbol
 _atom_site_label
 _atom_site_symmetry_multiplicity
 _atom_site_fract_x
 _atom_site_fract_y
 _atom_site_fract_z
 _atom_site_occupancy
  Nd  Nd0  1  0.688965  0.688965  0.000000  1
  Y  Y1  1  0.083598  0.417214  0.000000  1
  Y  Y2  1  0.918364  0.582097  0.000000  1
  Y  Y3  1  0.417214  0.083598  0.000000  1
  Y  Y4  1  0.582097  0.918364  0.000000  1
  Y  Y5  1  0.624063  0.372850  0.000000  1
  Y  Y6  1  0.372850  0.624063  0.000000  1
  Y  Y7  1  0.838912  0.163399  0.000000  1
  Y  Y8  1  0.163399  0.838912  0.000000  1
  Y  Y9  1  0.000703  0.000703  0.000000  1
  Y  Y10  1  0.309897  0.309897  0.000000  1
  Cd  Cd11  1  0.840959  0.366995  0.500000  1
  Cd  Cd12  1  0.159572  0.632977  0.500000  1
  Cd  Cd13  1  0.366995  0.840959  0.500000  1
  Cd  Cd14  1  0.632977  0.159572  0.500000  1
  Cd  Cd15  1  0.073758  0.217785  0.500000  1
  Cd  Cd16  1  0.930417  0.783222  0.500000  1
  Cd  Cd17  1  0.217785  0.073758  0.500000  1
  Cd  Cd18  1  0.783222  0.930417  0.500000  1
  Cd  Cd19  1  0.495233  0.495233  0.500000  1
  Ni  Ni20  1  0.250165  0.450216  0.500000  1
  Ni  Ni21  1  0.751529  0.547111  0.500000  1
  Ni  Ni22  1  0.450216  0.250165  0.500000  1
  Ni  Ni23  1  0.547111  0.751529  0.500000  1
