# generated using pymatgen
data_TmHO
_symmetry_space_group_name_H-M   'P 1'
_cell_length_a   3.67837235
_cell_length_b   3.67837200
_cell_length_c   3.67837300
_cell_angle_alpha   60.00000003
_cell_angle_beta   60.00000314
_cell_angle_gamma   59.99999379
_symmetry_Int_Tables_number   1
_chemical_formula_structural   TmHO
_chemical_formula_sum   'Tm1 H1 O1'
_cell_volume   35.19266019
_cell_formula_units_Z   1
loop_
 _symmetry_equiv_pos_site_id
 _symmetry_equiv_pos_as_xyz
  1  'x, y, z'
loop_
 _atom_site_type_symbol
 _atom_site_label
 _atom_site_symmetry_multiplicity
 _atom_site_fract_x
 _atom_site_fract_y
 _atom_site_fract_z
 _atom_site_occupancy
  Tm  Tm0  1  0.000000  0.000000  0.000000  1
  H  H1  1  0.250000  0.250000  0.250000  1
  O  O2  1  0.750000  0.750000  0.750000  1
