# generated using pymatgen
data_Pa6Al24CrOs7
_symmetry_space_group_name_H-M   'P 1'
_cell_length_a   8.88182346
_cell_length_b   8.87725632
_cell_length_c   9.41240886
_cell_angle_alpha   90.00000026
_cell_angle_beta   90.16391401
_cell_angle_gamma   119.98300019
_symmetry_Int_Tables_number   1
_chemical_formula_structural   Pa6Al24CrOs7
_chemical_formula_sum   'Pa6 Al24 Cr1 Os7'
_cell_volume   642.81249920
_cell_formula_units_Z   1
loop_
 _symmetry_equiv_pos_site_id
 _symmetry_equiv_pos_as_xyz
  1  'x, y, z'
loop_
 _atom_site_type_symbol
 _atom_site_label
 _atom_site_symmetry_multiplicity
 _atom_site_fract_x
 _atom_site_fract_y
 _atom_site_fract_z
 _atom_site_occupancy
  Pa  Pa0  1  0.194809  0.395512  0.247702  1
  Pa  Pa1  1  0.805191  0.604488  0.752298  1
  Pa  Pa2  1  0.605110  0.802555  0.249521  1
  Pa  Pa3  1  0.394890  0.197445  0.750479  1
  Pa  Pa4  1  0.194809  0.799297  0.247702  1
  Pa  Pa5  1  0.805191  0.200703  0.752298  1
  Al  Al6  1  0.329374  0.664687  0.015620  1
  Al  Al7  1  0.670626  0.335313  0.984380  1
  Al  Al8  1  0.666863  0.333431  0.516622  1
  Al  Al9  1  0.333137  0.666569  0.483378  1
  Al  Al10  1  0.162233  0.323970  0.578809  1
  Al  Al11  1  0.837767  0.676030  0.421191  1
  Al  Al12  1  0.676593  0.838296  0.579411  1
  Al  Al13  1  0.839226  0.674884  0.079292  1
  Al  Al14  1  0.323407  0.161704  0.420589  1
  Al  Al15  1  0.160774  0.325116  0.920708  1
  Al  Al16  1  0.162233  0.838262  0.578809  1
  Al  Al17  1  0.324151  0.162076  0.078936  1
  Al  Al18  1  0.837767  0.161738  0.421191  1
  Al  Al19  1  0.675849  0.837924  0.921064  1
  Al  Al20  1  0.839226  0.164343  0.079292  1
  Al  Al21  1  0.160774  0.835657  0.920708  1
  Al  Al22  1  0.562398  0.124952  0.250183  1
  Al  Al23  1  0.437602  0.875048  0.749817  1
  Al  Al24  1  0.875938  0.437969  0.246701  1
  Al  Al25  1  0.124062  0.562031  0.753299  1
  Al  Al26  1  0.562398  0.437446  0.250183  1
  Al  Al27  1  0.437602  0.562554  0.749817  1
  Al  Al28  1  0.000275  0.000138  0.249940  1
  Al  Al29  1  0.999725  0.999862  0.750060  1
  Cr  Cr30  1  0.000000  0.500000  0.000000  1
  Os  Os31  1  0.500000  0.000000  0.000000  1
  Os  Os32  1  0.500000  0.000000  0.500000  1
  Os  Os33  1  0.500000  0.500000  0.000000  1
  Os  Os34  1  0.000000  0.500000  0.500000  1
  Os  Os35  1  0.500000  0.500000  0.500000  1
  Os  Os36  1  0.000000  0.000000  0.000000  1
  Os  Os37  1  0.000000  0.000000  0.500000  1
