# generated using pymatgen
data_DyTm3Fe3Ru5
_symmetry_space_group_name_H-M   'P 1'
_cell_length_a   5.21819874
_cell_length_b   5.40226648
_cell_length_c   9.09051900
_cell_angle_alpha   72.71424392
_cell_angle_beta   91.91578359
_cell_angle_gamma   121.17385727
_symmetry_Int_Tables_number   1
_chemical_formula_structural   DyTm3Fe3Ru5
_chemical_formula_sum   'Dy1 Tm3 Fe3 Ru5'
_cell_volume   207.07033403
_cell_formula_units_Z   1
loop_
 _symmetry_equiv_pos_site_id
 _symmetry_equiv_pos_as_xyz
  1  'x, y, z'
loop_
 _atom_site_type_symbol
 _atom_site_label
 _atom_site_symmetry_multiplicity
 _atom_site_fract_x
 _atom_site_fract_y
 _atom_site_fract_z
 _atom_site_occupancy
  Dy  Dy0  1  0.873019  0.748932  0.375155  1
  Tm  Tm1  1  0.375521  0.750833  0.873855  1
  Tm  Tm2  1  0.999650  0.999342  0.000966  1
  Tm  Tm3  1  0.502134  0.001009  0.500119  1
  Fe  Fe4  1  0.687387  0.374979  0.937430  1
  Fe  Fe5  1  0.940381  0.377137  0.186105  1
  Fe  Fe6  1  0.434582  0.372885  0.688810  1
  Ru  Ru7  1  0.442319  0.376955  0.182068  1
  Ru  Ru8  1  0.932746  0.372978  0.692889  1
  Ru  Ru9  1  0.442319  0.883296  0.182068  1
  Ru  Ru10  1  0.932746  0.866878  0.692889  1
  Ru  Ru11  1  0.187195  0.374775  0.437645  1
