# generated using pymatgen
data_Tb4MnPt11
_symmetry_space_group_name_H-M   'P 1'
_cell_length_a   4.20161900
_cell_length_b   5.82866077
_cell_length_c   11.63334415
_cell_angle_alpha   88.04095215
_cell_angle_beta   90.00000000
_cell_angle_gamma   90.00000000
_symmetry_Int_Tables_number   1
_chemical_formula_structural   Tb4MnPt11
_chemical_formula_sum   'Tb4 Mn1 Pt11'
_cell_volume   284.73189098
_cell_formula_units_Z   1
loop_
 _symmetry_equiv_pos_site_id
 _symmetry_equiv_pos_as_xyz
  1  'x, y, z'
loop_
 _atom_site_type_symbol
 _atom_site_label
 _atom_site_symmetry_multiplicity
 _atom_site_fract_x
 _atom_site_fract_y
 _atom_site_fract_z
 _atom_site_occupancy
  Tb  Tb0  1  0.500000  0.756446  0.373267  1
  Tb  Tb1  1  0.500000  0.721427  0.866164  1
  Tb  Tb2  1  0.500000  0.278573  0.133836  1
  Tb  Tb3  1  0.500000  0.243554  0.626733  1
  Mn  Mn4  1  0.000000  0.000000  0.000000  1
  Pt  Pt5  1  0.000000  0.013631  0.244919  1
  Pt  Pt6  1  0.000000  0.986369  0.755081  1
  Pt  Pt7  1  0.000000  0.500000  0.000000  1
  Pt  Pt8  1  0.000000  0.500000  0.500000  1
  Pt  Pt9  1  0.000000  0.515715  0.249155  1
  Pt  Pt10  1  0.000000  0.484285  0.750845  1
  Pt  Pt11  1  0.500000  0.253764  0.377545  1
  Pt  Pt12  1  0.500000  0.222326  0.885346  1
  Pt  Pt13  1  0.500000  0.777674  0.114654  1
  Pt  Pt14  1  0.500000  0.746236  0.622455  1
  Pt  Pt15  1  0.000000  0.000000  0.500000  1
