# generated using pymatgen
data_U8Nb9Si16MoW2
_symmetry_space_group_name_H-M   'P 1'
_cell_length_a   7.00009274
_cell_length_b   7.00163914
_cell_length_c   12.92329512
_cell_angle_alpha   89.99089461
_cell_angle_beta   89.97215716
_cell_angle_gamma   89.97502640
_symmetry_Int_Tables_number   1
_chemical_formula_structural   U8Nb9Si16MoW2
_chemical_formula_sum   'U8 Nb9 Si16 Mo1 W2'
_cell_volume   633.39799102
_cell_formula_units_Z   1
loop_
 _symmetry_equiv_pos_site_id
 _symmetry_equiv_pos_as_xyz
  1  'x, y, z'
loop_
 _atom_site_type_symbol
 _atom_site_label
 _atom_site_symmetry_multiplicity
 _atom_site_fract_x
 _atom_site_fract_y
 _atom_site_fract_z
 _atom_site_occupancy
  U  U0  1  0.995107  0.329714  0.220866  1
  U  U1  1  0.007913  0.672482  0.718059  1
  U  U2  1  0.167477  0.496135  0.469413  1
  U  U3  1  0.505260  0.830779  0.031643  1
  U  U4  1  0.830573  0.506037  0.969410  1
  U  U5  1  0.494926  0.167274  0.529362  1
  U  U6  1  0.327862  0.992777  0.780321  1
  U  U7  1  0.670604  0.005525  0.280550  1
  Nb  Nb8  1  0.329994  0.668559  0.250403  1
  Nb  Nb9  1  0.669049  0.330977  0.749844  1
  Nb  Nb10  1  0.842861  0.000028  0.873740  1
  Nb  Nb11  1  0.497260  0.657256  0.623282  1
  Nb  Nb12  1  0.343632  0.500504  0.876120  1
  Nb  Nb13  1  0.498699  0.341927  0.124651  1
  Nb  Nb14  1  0.657555  0.498372  0.376113  1
  Nb  Nb15  1  0.000634  0.157347  0.626133  1
  Nb  Nb16  1  0.998645  0.842725  0.125669  1
  Si  Si17  1  0.294884  0.039833  0.184833  1
  Si  Si18  1  0.702966  0.958393  0.682358  1
  Si  Si19  1  0.461814  0.796795  0.434041  1
  Si  Si20  1  0.202215  0.536085  0.065112  1
  Si  Si21  1  0.536199  0.202284  0.935202  1
  Si  Si22  1  0.796463  0.463550  0.564938  1
  Si  Si23  1  0.041567  0.297643  0.817418  1
  Si  Si24  1  0.961143  0.709062  0.317903  1
  Si  Si25  1  0.370565  0.290695  0.316468  1
  Si  Si26  1  0.629512  0.706888  0.814777  1
  Si  Si27  1  0.202936  0.872492  0.561876  1
  Si  Si28  1  0.128530  0.795583  0.935467  1
  Si  Si29  1  0.796024  0.130095  0.065184  1
  Si  Si30  1  0.875653  0.201206  0.434629  1
  Si  Si31  1  0.293616  0.370283  0.684437  1
  Si  Si32  1  0.707221  0.627229  0.185266  1
  Mo  Mo33  1  0.160890  0.002701  0.374274  1
  W  W34  1  0.167236  0.167273  0.000618  1
  W  W35  1  0.832518  0.833493  0.499621  1
