# generated using pymatgen
data_Th2(PdPt)3
_symmetry_space_group_name_H-M   'P 1'
_cell_length_a   5.94745507
_cell_length_b   5.94745510
_cell_length_c   9.98371800
_cell_angle_alpha   90.00000000
_cell_angle_beta   90.00000000
_cell_angle_gamma   120.40457818
_symmetry_Int_Tables_number   1
_chemical_formula_structural   Th2(PdPt)3
_chemical_formula_sum   'Th4 Pd6 Pt6'
_cell_volume   304.57922165
_cell_formula_units_Z   2
loop_
 _symmetry_equiv_pos_site_id
 _symmetry_equiv_pos_as_xyz
  1  'x, y, z'
loop_
 _atom_site_type_symbol
 _atom_site_label
 _atom_site_symmetry_multiplicity
 _atom_site_fract_x
 _atom_site_fract_y
 _atom_site_fract_z
 _atom_site_occupancy
  Th  Th0  1  0.000535  0.999465  0.498293  1
  Th  Th1  1  0.000535  0.999465  0.001707  1
  Th  Th2  1  0.332207  0.667793  0.250000  1
  Th  Th3  1  0.667537  0.332463  0.750000  1
  Pd  Pd4  1  0.499942  0.500058  0.501628  1
  Pd  Pd5  1  0.499942  0.500058  0.998372  1
  Pd  Pd6  1  0.825441  0.174559  0.250000  1
  Pd  Pd7  1  0.174685  0.347041  0.750000  1
  Pd  Pd8  1  0.652959  0.825315  0.750000  1
  Pd  Pd9  1  0.174304  0.825696  0.750000  1
  Pt  Pt10  1  0.500894  0.000126  0.502021  1
  Pt  Pt11  1  0.999874  0.499106  0.502021  1
  Pt  Pt12  1  0.500894  0.000126  0.997979  1
  Pt  Pt13  1  0.999874  0.499106  0.997979  1
  Pt  Pt14  1  0.825326  0.654947  0.250000  1
  Pt  Pt15  1  0.345053  0.174674  0.250000  1
