# generated using pymatgen
data_Dy5Lu5(InBi2)2
_symmetry_space_group_name_H-M   'P 1'
_cell_length_a   6.46308404
_cell_length_b   9.00578819
_cell_length_c   9.00340271
_cell_angle_alpha   119.87221188
_cell_angle_beta   89.99913103
_cell_angle_gamma   89.99766885
_symmetry_Int_Tables_number   1
_chemical_formula_structural   Dy5Lu5(InBi2)2
_chemical_formula_sum   'Dy5 Lu5 In2 Bi4'
_cell_volume   454.41915590
_cell_formula_units_Z   1
loop_
 _symmetry_equiv_pos_site_id
 _symmetry_equiv_pos_as_xyz
  1  'x, y, z'
loop_
 _atom_site_type_symbol
 _atom_site_label
 _atom_site_symmetry_multiplicity
 _atom_site_fract_x
 _atom_site_fract_y
 _atom_site_fract_z
 _atom_site_occupancy
  Dy  Dy0  1  0.750147  0.237235  0.999519  1
  Dy  Dy1  1  0.750077  0.763559  0.761160  1
  Dy  Dy2  1  0.750074  0.001672  0.238759  1
  Dy  Dy3  1  0.250241  0.764633  0.999270  1
  Dy  Dy4  1  0.250093  0.233483  0.242828  1
  Lu  Lu5  1  0.496954  0.332659  0.660744  1
  Lu  Lu6  1  0.497001  0.673251  0.340432  1
  Lu  Lu7  1  0.002882  0.673060  0.340236  1
  Lu  Lu8  1  0.002900  0.332728  0.660961  1
  Lu  Lu9  1  0.250063  0.989011  0.756502  1
  In  In10  1  0.249710  0.604548  0.604665  1
  In  In11  1  0.249686  0.998937  0.397750  1
  Bi  Bi12  1  0.750035  0.605359  0.000720  1
  Bi  Bi13  1  0.749969  0.396298  0.392915  1
  Bi  Bi14  1  0.749970  0.004736  0.605387  1
  Bi  Bi15  1  0.250199  0.388832  0.998152  1
