# generated using pymatgen
data_Tb6Y2Re(TcB8)3
_symmetry_space_group_name_H-M   'P 1'
_cell_length_a   3.69815300
_cell_length_b   9.18643510
_cell_length_c   11.57537202
_cell_angle_alpha   89.97555032
_cell_angle_beta   90.00000000
_cell_angle_gamma   90.00000000
_symmetry_Int_Tables_number   1
_chemical_formula_structural   Tb6Y2Re(TcB8)3
_chemical_formula_sum   'Tb6 Y2 Re1 Tc3 B24'
_cell_volume   393.24825531
_cell_formula_units_Z   1
loop_
 _symmetry_equiv_pos_site_id
 _symmetry_equiv_pos_as_xyz
  1  'x, y, z'
loop_
 _atom_site_type_symbol
 _atom_site_label
 _atom_site_symmetry_multiplicity
 _atom_site_fract_x
 _atom_site_fract_y
 _atom_site_fract_z
 _atom_site_occupancy
  Tb  Tb0  1  0.000000  0.824115  0.085854  1
  Tb  Tb1  1  0.000000  0.176155  0.914124  1
  Tb  Tb2  1  0.000000  0.323816  0.414060  1
  Tb  Tb3  1  0.000000  0.676387  0.585703  1
  Tb  Tb4  1  0.000000  0.442281  0.131047  1
  Tb  Tb5  1  0.000000  0.558266  0.869872  1
  Y  Y6  1  0.000000  0.942301  0.369053  1
  Y  Y7  1  0.000000  0.056701  0.630441  1
  Re  Re8  1  0.000000  0.361698  0.679190  1
  Tc  Tc9  1  0.000000  0.138207  0.179376  1
  Tc  Tc10  1  0.000000  0.861831  0.820657  1
  Tc  Tc11  1  0.000000  0.638494  0.320652  1
  B  B12  1  0.500000  0.053399  0.067360  1
  B  B13  1  0.500000  0.946743  0.932610  1
  B  B14  1  0.500000  0.553435  0.432609  1
  B  B15  1  0.500000  0.446742  0.567103  1
  B  B16  1  0.500000  0.248059  0.081913  1
  B  B17  1  0.500000  0.752228  0.918165  1
  B  B18  1  0.500000  0.748307  0.418150  1
  B  B19  1  0.500000  0.251316  0.581687  1
  B  B20  1  0.500000  0.290939  0.234582  1
  B  B21  1  0.500000  0.709012  0.765560  1
  B  B22  1  0.500000  0.791312  0.265311  1
  B  B23  1  0.500000  0.208370  0.734537  1
  B  B24  1  0.500000  0.130510  0.314074  1
  B  B25  1  0.500000  0.869282  0.685914  1
  B  B26  1  0.500000  0.630824  0.186040  1
  B  B27  1  0.500000  0.369387  0.814058  1
  B  B28  1  0.500000  0.482621  0.288513  1
  B  B29  1  0.500000  0.517676  0.711712  1
  B  B30  1  0.500000  0.982361  0.211576  1
  B  B31  1  0.500000  0.017535  0.788308  1
  B  B32  1  0.500000  0.100155  0.471786  1
  B  B33  1  0.500000  0.899316  0.527982  1
  B  B34  1  0.500000  0.600856  0.028525  1
  B  B35  1  0.500000  0.399362  0.971893  1
