# generated using pymatgen
data_Ce3Zn(CoSi)2
_symmetry_space_group_name_H-M   'P 1'
_cell_length_a   6.12778300
_cell_length_b   7.71839300
_cell_length_c   13.13511400
_cell_angle_alpha   90.00000000
_cell_angle_beta   90.00000000
_cell_angle_gamma   90.00000000
_symmetry_Int_Tables_number   1
_chemical_formula_structural   Ce3Zn(CoSi)2
_chemical_formula_sum   'Ce12 Zn4 Co8 Si8'
_cell_volume   621.24672423
_cell_formula_units_Z   4
loop_
 _symmetry_equiv_pos_site_id
 _symmetry_equiv_pos_as_xyz
  1  'x, y, z'
loop_
 _atom_site_type_symbol
 _atom_site_label
 _atom_site_symmetry_multiplicity
 _atom_site_fract_x
 _atom_site_fract_y
 _atom_site_fract_z
 _atom_site_occupancy
  Ce  Ce0  1  0.881633  0.880209  0.750000  1
  Ce  Ce1  1  0.871166  0.463340  0.405560  1
  Ce  Ce2  1  0.371166  0.036660  0.594440  1
  Ce  Ce3  1  0.128834  0.536660  0.905560  1
  Ce  Ce4  1  0.628834  0.963341  0.094440  1
  Ce  Ce5  1  0.118367  0.119791  0.250000  1
  Ce  Ce6  1  0.128834  0.536660  0.594440  1
  Ce  Ce7  1  0.628834  0.963341  0.405560  1
  Ce  Ce8  1  0.381633  0.619791  0.250000  1
  Ce  Ce9  1  0.371166  0.036660  0.905560  1
  Ce  Ce10  1  0.618367  0.380209  0.750000  1
  Ce  Ce11  1  0.871166  0.463340  0.094440  1
  Zn  Zn12  1  0.401210  0.739867  0.750000  1
  Zn  Zn13  1  0.598790  0.260133  0.250000  1
  Zn  Zn14  1  0.901210  0.760133  0.250000  1
  Zn  Zn15  1  0.098790  0.239867  0.750000  1
  Co  Co16  1  0.618288  0.385327  0.950647  1
  Co  Co17  1  0.118288  0.114673  0.450647  1
  Co  Co18  1  0.118288  0.114673  0.049353  1
  Co  Co19  1  0.881712  0.885327  0.950647  1
  Co  Co20  1  0.881712  0.885327  0.549353  1
  Co  Co21  1  0.618288  0.385327  0.549353  1
  Co  Co22  1  0.381712  0.614673  0.450647  1
  Co  Co23  1  0.381712  0.614673  0.049353  1
  Si  Si24  1  0.624145  0.678101  0.915473  1
  Si  Si25  1  0.875855  0.178101  0.584527  1
  Si  Si26  1  0.124145  0.821899  0.084527  1
  Si  Si27  1  0.124145  0.821899  0.415473  1
  Si  Si28  1  0.624145  0.678101  0.584527  1
  Si  Si29  1  0.875855  0.178101  0.915473  1
  Si  Si30  1  0.375855  0.321899  0.084527  1
  Si  Si31  1  0.375855  0.321899  0.415473  1
