# generated using pymatgen
data_MgHN3
_symmetry_space_group_name_H-M   'P 1'
_cell_length_a   3.53865545
_cell_length_b   3.53941268
_cell_length_c   7.15961628
_cell_angle_alpha   81.43522573
_cell_angle_beta   80.29231308
_cell_angle_gamma   60.13725479
_symmetry_Int_Tables_number   1
_chemical_formula_structural   MgHN3
_chemical_formula_sum   'Mg1 H1 N3'
_cell_volume   76.43059444
_cell_formula_units_Z   1
loop_
 _symmetry_equiv_pos_site_id
 _symmetry_equiv_pos_as_xyz
  1  'x, y, z'
loop_
 _atom_site_type_symbol
 _atom_site_label
 _atom_site_symmetry_multiplicity
 _atom_site_fract_x
 _atom_site_fract_y
 _atom_site_fract_z
 _atom_site_occupancy
  Mg  Mg0  1  0.594528  0.385366  0.621166  1
  H  H1  1  0.207588  0.010737  0.798838  1
  N  N2  1  0.254188  0.046952  0.651162  1
  N  N3  1  0.848003  0.617287  0.125394  1
  N  N4  1  0.736591  0.507409  0.267577  1
