# generated using pymatgen
data_Er4Hf(MoO6)2
_symmetry_space_group_name_H-M   'P 1'
_cell_length_a   6.26117630
_cell_length_b   6.33864801
_cell_length_c   6.50021234
_cell_angle_alpha   100.40641440
_cell_angle_beta   98.24670660
_cell_angle_gamma   99.53275132
_symmetry_Int_Tables_number   1
_chemical_formula_structural   Er4Hf(MoO6)2
_chemical_formula_sum   'Er4 Hf1 Mo2 O12'
_cell_volume   246.20075465
_cell_formula_units_Z   1
loop_
 _symmetry_equiv_pos_site_id
 _symmetry_equiv_pos_as_xyz
  1  'x, y, z'
loop_
 _atom_site_type_symbol
 _atom_site_label
 _atom_site_symmetry_multiplicity
 _atom_site_fract_x
 _atom_site_fract_y
 _atom_site_fract_z
 _atom_site_occupancy
  Er  Er0  1  0.386773  0.699633  0.864288  1
  Er  Er1  1  0.698972  0.864962  0.391645  1
  Er  Er2  1  0.612638  0.302229  0.136102  1
  Er  Er3  1  0.299890  0.132127  0.607762  1
  Hf  Hf4  1  0.847670  0.396918  0.672540  1
  Mo  Mo5  1  0.000788  0.999161  0.000155  1
  Mo  Mo6  1  0.148791  0.600457  0.325552  1
  O  O7  1  0.024711  0.680335  0.890075  1
  O  O8  1  0.688500  0.931151  0.057404  1
  O  O9  1  0.925549  0.090874  0.694874  1
  O  O10  1  0.974496  0.321459  0.107405  1
  O  O11  1  0.312174  0.068303  0.943165  1
  O  O12  1  0.076287  0.909289  0.307274  1
  O  O13  1  0.590705  0.188515  0.435254  1
  O  O14  1  0.171533  0.429903  0.567124  1
  O  O15  1  0.416905  0.581724  0.181444  1
  O  O16  1  0.410844  0.814195  0.566188  1
  O  O17  1  0.829033  0.570147  0.430165  1
  O  O18  1  0.583742  0.418618  0.821585  1
