# generated using pymatgen
data_Li2AlInTe4
_symmetry_space_group_name_H-M   'P 1'
_cell_length_a   7.67361521
_cell_length_b   7.67361496
_cell_length_c   7.67361524
_cell_angle_alpha   129.97934129
_cell_angle_beta   129.97933554
_cell_angle_gamma   73.43979440
_symmetry_Int_Tables_number   1
_chemical_formula_structural   Li2AlInTe4
_chemical_formula_sum   'Li2 Al1 In1 Te4'
_cell_volume   258.96002597
_cell_formula_units_Z   1
loop_
 _symmetry_equiv_pos_site_id
 _symmetry_equiv_pos_as_xyz
  1  'x, y, z'
loop_
 _atom_site_type_symbol
 _atom_site_label
 _atom_site_symmetry_multiplicity
 _atom_site_fract_x
 _atom_site_fract_y
 _atom_site_fract_z
 _atom_site_occupancy
  Li  Li0  1  0.250000  0.750000  0.500000  1
  Li  Li1  1  0.500000  0.500000  0.000000  1
  Al  Al2  1  0.000000  0.000000  0.000000  1
  In  In3  1  0.750000  0.250000  0.500000  1
  Te  Te4  1  0.882927  0.874235  0.518836  1
  Te  Te5  1  0.125765  0.644601  0.008693  1
  Te  Te6  1  0.635908  0.117073  0.991307  1
  Te  Te7  1  0.355399  0.364092  0.481164  1
