# generated using pymatgen
data_Tm4Al4Ru3Au
_symmetry_space_group_name_H-M   'P 1'
_cell_length_a   4.17735500
_cell_length_b   6.88407076
_cell_length_c   7.99201861
_cell_angle_alpha   89.92271540
_cell_angle_beta   90.00000000
_cell_angle_gamma   90.00000000
_symmetry_Int_Tables_number   1
_chemical_formula_structural   Tm4Al4Ru3Au
_chemical_formula_sum   'Tm4 Al4 Ru3 Au1'
_cell_volume   229.82792755
_cell_formula_units_Z   1
loop_
 _symmetry_equiv_pos_site_id
 _symmetry_equiv_pos_as_xyz
  1  'x, y, z'
loop_
 _atom_site_type_symbol
 _atom_site_label
 _atom_site_symmetry_multiplicity
 _atom_site_fract_x
 _atom_site_fract_y
 _atom_site_fract_z
 _atom_site_occupancy
  Tm  Tm0  1  0.250000  0.023682  0.331275  1
  Tm  Tm1  1  0.250000  0.543968  0.182466  1
  Tm  Tm2  1  0.750000  0.969191  0.677494  1
  Tm  Tm3  1  0.750000  0.472243  0.814741  1
  Al  Al4  1  0.250000  0.135876  0.932262  1
  Al  Al5  1  0.250000  0.641048  0.559317  1
  Al  Al6  1  0.750000  0.847421  0.055191  1
  Al  Al7  1  0.750000  0.363158  0.446649  1
  Ru  Ru8  1  0.250000  0.270178  0.623602  1
  Ru  Ru9  1  0.250000  0.766200  0.877956  1
  Ru  Ru10  1  0.750000  0.736934  0.374293  1
  Au  Au11  1  0.750000  0.230100  0.124754  1
