# generated using pymatgen
data_Tm4Ga2B4(IrRu)5
_symmetry_space_group_name_H-M   'P 1'
_cell_length_a   9.62263362
_cell_length_b   9.56433771
_cell_length_c   3.07801500
_cell_angle_alpha   90.00000000
_cell_angle_beta   90.00000000
_cell_angle_gamma   89.86493890
_symmetry_Int_Tables_number   1
_chemical_formula_structural   Tm4Ga2B4(IrRu)5
_chemical_formula_sum   'Tm4 Ga2 B4 Ir5 Ru5'
_cell_volume   283.28160734
_cell_formula_units_Z   1
loop_
 _symmetry_equiv_pos_site_id
 _symmetry_equiv_pos_as_xyz
  1  'x, y, z'
loop_
 _atom_site_type_symbol
 _atom_site_label
 _atom_site_symmetry_multiplicity
 _atom_site_fract_x
 _atom_site_fract_y
 _atom_site_fract_z
 _atom_site_occupancy
  Tm  Tm0  1  0.827455  0.328241  0.000000  1
  Tm  Tm1  1  0.174214  0.676516  0.000000  1
  Tm  Tm2  1  0.324865  0.173849  0.000000  1
  Tm  Tm3  1  0.673175  0.822183  0.000000  1
  Ga  Ga4  1  0.499280  0.500107  0.000000  1
  Ga  Ga5  1  0.003183  0.998833  0.000000  1
  B  B6  1  0.622743  0.119790  0.000000  1
  B  B7  1  0.374683  0.881003  0.000000  1
  B  B8  1  0.124281  0.380022  0.000000  1
  B  B9  1  0.874592  0.620460  0.000000  1
  Ir  Ir10  1  0.783798  0.068827  0.500000  1
  Ir  Ir11  1  0.429261  0.716495  0.500000  1
  Ir  Ir12  1  0.571036  0.282962  0.500000  1
  Ir  Ir13  1  0.070313  0.217203  0.500000  1
  Ir  Ir14  1  0.928191  0.782773  0.500000  1
  Ru  Ru15  1  0.501272  0.999611  0.500000  1
  Ru  Ru16  1  0.001177  0.501899  0.500000  1
  Ru  Ru17  1  0.716278  0.568151  0.500000  1
  Ru  Ru18  1  0.282477  0.430378  0.500000  1
  Ru  Ru19  1  0.217725  0.930700  0.500000  1
