# generated using pymatgen
data_Tm16Al6FePt
_symmetry_space_group_name_H-M   'P 1'
_cell_length_a   10.10773800
_cell_length_b   10.10773810
_cell_length_c   6.76157500
_cell_angle_alpha   90.00000000
_cell_angle_beta   90.00000000
_cell_angle_gamma   119.99999967
_symmetry_Int_Tables_number   1
_chemical_formula_structural   Tm16Al6FePt
_chemical_formula_sum   'Tm16 Al6 Fe1 Pt1'
_cell_volume   598.25516873
_cell_formula_units_Z   1
loop_
 _symmetry_equiv_pos_site_id
 _symmetry_equiv_pos_as_xyz
  1  'x, y, z'
loop_
 _atom_site_type_symbol
 _atom_site_label
 _atom_site_symmetry_multiplicity
 _atom_site_fract_x
 _atom_site_fract_y
 _atom_site_fract_z
 _atom_site_occupancy
  Tm  Tm0  1  0.527812  0.055625  0.518308  1
  Tm  Tm1  1  0.944375  0.472188  0.518308  1
  Tm  Tm2  1  0.527812  0.472188  0.518308  1
  Tm  Tm3  1  0.465772  0.931541  0.016432  1
  Tm  Tm4  1  0.068459  0.534228  0.016432  1
  Tm  Tm5  1  0.465772  0.534228  0.016432  1
  Tm  Tm6  1  0.175232  0.350462  0.725747  1
  Tm  Tm7  1  0.649538  0.824768  0.725747  1
  Tm  Tm8  1  0.175232  0.824768  0.725747  1
  Tm  Tm9  1  0.827412  0.654825  0.222802  1
  Tm  Tm10  1  0.345175  0.172588  0.222802  1
  Tm  Tm11  1  0.827412  0.172588  0.222802  1
  Tm  Tm12  1  0.666667  0.333333  0.884344  1
  Tm  Tm13  1  0.333333  0.666667  0.395419  1
  Tm  Tm14  1  0.000000  0.000000  0.500422  1
  Tm  Tm15  1  0.000000  0.000000  0.999601  1
  Al  Al16  1  0.837562  0.675124  0.757677  1
  Al  Al17  1  0.324876  0.162438  0.757677  1
  Al  Al18  1  0.837562  0.162438  0.757677  1
  Al  Al19  1  0.163153  0.326307  0.258653  1
  Al  Al20  1  0.673693  0.836847  0.258653  1
  Al  Al21  1  0.163153  0.836847  0.258653  1
  Fe  Fe22  1  0.333333  0.666667  0.788252  1
  Pt  Pt23  1  0.666667  0.333333  0.291110  1
