# generated using pymatgen
data_Pa3Cr(PO4)6
_symmetry_space_group_name_H-M   'P 1'
_cell_length_a   9.39022284
_cell_length_b   9.39015327
_cell_length_c   9.39001354
_cell_angle_alpha   58.29549822
_cell_angle_beta   58.29625954
_cell_angle_gamma   58.29549319
_symmetry_Int_Tables_number   1
_chemical_formula_structural   Pa3Cr(PO4)6
_chemical_formula_sum   'Pa3 Cr1 P6 O24'
_cell_volume   562.61252068
_cell_formula_units_Z   1
loop_
 _symmetry_equiv_pos_site_id
 _symmetry_equiv_pos_as_xyz
  1  'x, y, z'
loop_
 _atom_site_type_symbol
 _atom_site_label
 _atom_site_symmetry_multiplicity
 _atom_site_fract_x
 _atom_site_fract_y
 _atom_site_fract_z
 _atom_site_occupancy
  Pa  Pa0  1  0.141102  0.141086  0.141094  1
  Pa  Pa1  1  0.355941  0.355932  0.355966  1
  Pa  Pa2  1  0.639590  0.639556  0.639552  1
  Cr  Cr3  1  0.854813  0.855296  0.855058  1
  P  P4  1  0.031551  0.484900  0.745540  1
  P  P5  1  0.484878  0.745520  0.031553  1
  P  P6  1  0.745542  0.031534  0.484870  1
  P  P7  1  0.224912  0.965360  0.553190  1
  P  P8  1  0.553152  0.224947  0.965379  1
  P  P9  1  0.965385  0.553187  0.224897  1
  O  O10  1  0.130135  0.513163  0.261841  1
  O  O11  1  0.261860  0.130104  0.513171  1
  O  O12  1  0.061031  0.309291  0.907192  1
  O  O13  1  0.513203  0.261820  0.130113  1
  O  O14  1  0.199569  0.452660  0.578581  1
  O  O15  1  0.003121  0.644781  0.770763  1
  O  O16  1  0.309329  0.907189  0.061005  1
  O  O17  1  0.452696  0.578569  0.199551  1
  O  O18  1  0.578599  0.199538  0.452679  1
  O  O19  1  0.209472  0.998006  0.379667  1
  O  O20  1  0.061736  0.943725  0.715151  1
  O  O21  1  0.379706  0.209432  0.998003  1
  O  O22  1  0.644751  0.770731  0.003177  1
  O  O23  1  0.907205  0.060993  0.309330  1
  O  O24  1  0.770719  0.003144  0.644774  1
  O  O25  1  0.396586  0.799268  0.574294  1
  O  O26  1  0.574320  0.396550  0.799272  1
  O  O27  1  0.715148  0.061770  0.943738  1
  O  O28  1  0.998030  0.379670  0.209445  1
  O  O29  1  0.799289  0.574280  0.396581  1
  O  O30  1  0.504907  0.715872  0.872084  1
  O  O31  1  0.943724  0.715173  0.061746  1
  O  O32  1  0.715893  0.872082  0.504873  1
  O  O33  1  0.872104  0.504871  0.715870  1
