# generated using pymatgen
data_Dy6Lu10Tl3In2GaCo2
_symmetry_space_group_name_H-M   'P 1'
_cell_length_a   10.11887200
_cell_length_b   10.10983301
_cell_length_c   7.00134500
_cell_angle_alpha   90.01356193
_cell_angle_beta   90.00000000
_cell_angle_gamma   120.02958031
_symmetry_Int_Tables_number   1
_chemical_formula_structural   Dy6Lu10Tl3In2GaCo2
_chemical_formula_sum   'Dy6 Lu10 Tl3 In2 Ga1 Co2'
_cell_volume   620.09560149
_cell_formula_units_Z   1
loop_
 _symmetry_equiv_pos_site_id
 _symmetry_equiv_pos_as_xyz
  1  'x, y, z'
loop_
 _atom_site_type_symbol
 _atom_site_label
 _atom_site_symmetry_multiplicity
 _atom_site_fract_x
 _atom_site_fract_y
 _atom_site_fract_z
 _atom_site_occupancy
  Dy  Dy0  1  0.464857  0.929717  0.216820  1
  Dy  Dy1  1  0.543205  0.470992  0.712127  1
  Dy  Dy2  1  0.927789  0.470992  0.712127  1
  Dy  Dy3  1  0.534207  0.068413  0.712195  1
  Dy  Dy4  1  0.999682  0.999364  0.227690  1
  Dy  Dy5  1  0.996126  0.992253  0.723957  1
  Lu  Lu6  1  0.170428  0.815922  0.502176  1
  Lu  Lu7  1  0.645493  0.815922  0.502176  1
  Lu  Lu8  1  0.179615  0.359229  0.509972  1
  Lu  Lu9  1  0.820925  0.180863  0.009241  1
  Lu  Lu10  1  0.359938  0.180863  0.009241  1
  Lu  Lu11  1  0.821192  0.642385  0.027623  1
  Lu  Lu12  1  0.333101  0.666200  0.816820  1
  Lu  Lu13  1  0.670128  0.340255  0.324564  1
  Lu  Lu14  1  0.460632  0.533382  0.211111  1
  Lu  Lu15  1  0.072748  0.533382  0.211111  1
  Tl  Tl16  1  0.163050  0.835240  0.959484  1
  Tl  Tl17  1  0.672191  0.835240  0.959484  1
  Tl  Tl18  1  0.162888  0.325777  0.959082  1
  In  In19  1  0.835965  0.163062  0.462512  1
  In  In20  1  0.327098  0.163062  0.462512  1
  Ga  Ga21  1  0.838058  0.676117  0.459846  1
  Co  Co22  1  0.332718  0.665438  0.438585  1
  Co  Co23  1  0.667966  0.335930  0.944376  1
