# generated using pymatgen
data_Er8Ti12Si15Ge
_symmetry_space_group_name_H-M   'P 1'
_cell_length_a   7.03747770
_cell_length_b   7.02692809
_cell_length_c   12.91781391
_cell_angle_alpha   89.99412938
_cell_angle_beta   89.93868672
_cell_angle_gamma   89.96435274
_symmetry_Int_Tables_number   1
_chemical_formula_structural   Er8Ti12Si15Ge
_chemical_formula_sum   'Er8 Ti12 Si15 Ge1'
_cell_volume   638.80929942
_cell_formula_units_Z   1
loop_
 _symmetry_equiv_pos_site_id
 _symmetry_equiv_pos_as_xyz
  1  'x, y, z'
loop_
 _atom_site_type_symbol
 _atom_site_label
 _atom_site_symmetry_multiplicity
 _atom_site_fract_x
 _atom_site_fract_y
 _atom_site_fract_z
 _atom_site_occupancy
  Er  Er0  1  0.341507  0.001592  0.465447  1
  Er  Er1  1  0.498820  0.840157  0.716938  1
  Er  Er2  1  0.502424  0.159456  0.216712  1
  Er  Er3  1  0.840875  0.497220  0.283231  1
  Er  Er4  1  0.159251  0.503231  0.783898  1
  Er  Er5  1  0.660049  0.996916  0.967191  1
  Er  Er6  1  0.999944  0.342645  0.532104  1
  Er  Er7  1  0.998063  0.659116  0.033498  1
  Ti  Ti8  1  0.326748  0.326638  0.000184  1
  Ti  Ti9  1  0.173423  0.826468  0.250103  1
  Ti  Ti10  1  0.823467  0.173957  0.750698  1
  Ti  Ti11  1  0.672962  0.673492  0.499874  1
  Ti  Ti12  1  0.151959  0.008369  0.877474  1
  Ti  Ti13  1  0.492208  0.650597  0.126280  1
  Ti  Ti14  1  0.509928  0.350125  0.626377  1
  Ti  Ti15  1  0.652221  0.492517  0.874264  1
  Ti  Ti16  1  0.348316  0.508538  0.373710  1
  Ti  Ti17  1  0.848238  0.992168  0.376041  1
  Ti  Ti18  1  0.008416  0.150994  0.123961  1
  Ti  Ti19  1  0.988930  0.845820  0.622594  1
  Si  Si20  1  0.369027  0.702967  0.934153  1
  Si  Si21  1  0.630443  0.297139  0.433701  1
  Si  Si22  1  0.703595  0.368627  0.066424  1
  Si  Si23  1  0.296856  0.631303  0.566141  1
  Si  Si24  1  0.796851  0.868591  0.183858  1
  Si  Si25  1  0.131184  0.202876  0.316029  1
  Si  Si26  1  0.869296  0.797636  0.816105  1
  Si  Si27  1  0.291894  0.952426  0.065246  1
  Si  Si28  1  0.547710  0.790912  0.314453  1
  Si  Si29  1  0.455758  0.209129  0.816566  1
  Si  Si30  1  0.791909  0.547284  0.685559  1
  Si  Si31  1  0.208710  0.452561  0.185274  1
  Si  Si32  1  0.707936  0.047622  0.564758  1
  Si  Si33  1  0.953109  0.291332  0.935378  1
  Si  Si34  1  0.047252  0.709181  0.434722  1
  Ge  Ge35  1  0.200719  0.130400  0.681058  1
