# generated using pymatgen
data_Lu8Hf11Si16Tc
_symmetry_space_group_name_H-M   'P 1'
_cell_length_a   7.18372863
_cell_length_b   7.18372912
_cell_length_c   13.14441000
_cell_angle_alpha   89.95526381
_cell_angle_beta   90.04473639
_cell_angle_gamma   90.06034850
_symmetry_Int_Tables_number   1
_chemical_formula_structural   Lu8Hf11Si16Tc
_chemical_formula_sum   'Lu8 Hf11 Si16 Tc1'
_cell_volume   678.32911432
_cell_formula_units_Z   1
loop_
 _symmetry_equiv_pos_site_id
 _symmetry_equiv_pos_as_xyz
  1  'x, y, z'
loop_
 _atom_site_type_symbol
 _atom_site_label
 _atom_site_symmetry_multiplicity
 _atom_site_fract_x
 _atom_site_fract_y
 _atom_site_fract_z
 _atom_site_occupancy
  Lu  Lu0  1  0.998650  0.343438  0.212318  1
  Lu  Lu1  1  0.004674  0.655950  0.717380  1
  Lu  Lu2  1  0.155951  0.495380  0.465549  1
  Lu  Lu3  1  0.501087  0.845944  0.033473  1
  Lu  Lu4  1  0.845944  0.501087  0.966527  1
  Lu  Lu5  1  0.495380  0.155951  0.534451  1
  Lu  Lu6  1  0.343438  0.998650  0.787682  1
  Lu  Lu7  1  0.655950  0.004674  0.282620  1
  Hf  Hf8  1  0.824977  0.824977  0.500000  1
  Hf  Hf9  1  0.324606  0.674760  0.248293  1
  Hf  Hf10  1  0.674760  0.324606  0.751707  1
  Hf  Hf11  1  0.146321  0.998347  0.372920  1
  Hf  Hf12  1  0.854533  0.004159  0.877825  1
  Hf  Hf13  1  0.502483  0.646491  0.625285  1
  Hf  Hf14  1  0.351991  0.495892  0.876432  1
  Hf  Hf15  1  0.495892  0.351991  0.123568  1
  Hf  Hf16  1  0.646491  0.502483  0.374715  1
  Hf  Hf17  1  0.998347  0.146321  0.627080  1
  Hf  Hf18  1  0.004159  0.854533  0.122175  1
  Si  Si19  1  0.358404  0.294894  0.317221  1
  Si  Si20  1  0.640889  0.705232  0.819314  1
  Si  Si21  1  0.205497  0.859609  0.568281  1
  Si  Si22  1  0.139586  0.794656  0.931196  1
  Si  Si23  1  0.794656  0.139586  0.068804  1
  Si  Si24  1  0.859609  0.205497  0.431719  1
  Si  Si25  1  0.294894  0.358404  0.682779  1
  Si  Si26  1  0.705232  0.640889  0.180686  1
  Si  Si27  1  0.296245  0.052582  0.181132  1
  Si  Si28  1  0.700590  0.952385  0.685815  1
  Si  Si29  1  0.450826  0.799614  0.434611  1
  Si  Si30  1  0.202042  0.546254  0.064343  1
  Si  Si31  1  0.546254  0.202042  0.935657  1
  Si  Si32  1  0.799614  0.450826  0.565389  1
  Si  Si33  1  0.052582  0.296245  0.818868  1
  Si  Si34  1  0.952385  0.700590  0.314185  1
  Tc  Tc35  1  0.175064  0.175064  0.000000  1
