# generated using pymatgen
data_Y4Tc3PtF28
_symmetry_space_group_name_H-M   'P 1'
_cell_length_a   5.59615850
_cell_length_b   8.93637215
_cell_length_c   12.05405757
_cell_angle_alpha   62.46160648
_cell_angle_beta   90.04858524
_cell_angle_gamma   90.02667413
_symmetry_Int_Tables_number   1
_chemical_formula_structural   Y4Tc3PtF28
_chemical_formula_sum   'Y4 Tc3 Pt1 F28'
_cell_volume   534.51717227
_cell_formula_units_Z   1
loop_
 _symmetry_equiv_pos_site_id
 _symmetry_equiv_pos_as_xyz
  1  'x, y, z'
loop_
 _atom_site_type_symbol
 _atom_site_label
 _atom_site_symmetry_multiplicity
 _atom_site_fract_x
 _atom_site_fract_y
 _atom_site_fract_z
 _atom_site_occupancy
  Y  Y0  1  0.259555  0.814035  0.264811  1
  Y  Y1  1  0.741039  0.186753  0.734999  1
  Y  Y2  1  0.759355  0.186112  0.235421  1
  Y  Y3  1  0.239891  0.814499  0.763062  1
  Tc  Tc4  1  0.758185  0.726835  0.042808  1
  Tc  Tc5  1  0.242126  0.274055  0.956473  1
  Tc  Tc6  1  0.258106  0.273890  0.456589  1
  Pt  Pt7  1  0.740471  0.727144  0.543130  1
  F  F8  1  0.934056  0.703119  0.415994  1
  F  F9  1  0.055599  0.292641  0.581744  1
  F  F10  1  0.445086  0.293101  0.081794  1
  F  F11  1  0.554033  0.707366  0.918240  1
  F  F12  1  0.476690  0.729582  0.139104  1
  F  F13  1  0.524232  0.270780  0.861016  1
  F  F14  1  0.975736  0.270959  0.360728  1
  F  F15  1  0.031471  0.726062  0.635295  1
  F  F16  1  0.957493  0.745325  0.171178  1
  F  F17  1  0.044728  0.254908  0.827989  1
  F  F18  1  0.456364  0.255515  0.327994  1
  F  F19  1  0.552009  0.743582  0.675476  1
  F  F20  1  0.772380  0.479834  0.140399  1
  F  F21  1  0.227624  0.521096  0.858761  1
  F  F22  1  0.271047  0.521122  0.359360  1
  F  F23  1  0.728333  0.479570  0.641762  1
  F  F24  1  0.948982  0.279051  0.045774  1
  F  F25  1  0.050704  0.721689  0.953166  1
  F  F26  1  0.442382  0.719959  0.457844  1
  F  F27  1  0.551332  0.279565  0.545441  1
  F  F28  1  0.741860  0.974859  0.450134  1
  F  F29  1  0.258774  0.027692  0.552271  1
  F  F30  1  0.242100  0.027868  0.052959  1
  F  F31  1  0.758638  0.973049  0.947004  1
  F  F32  1  0.583663  0.969551  0.232703  1
  F  F33  1  0.416486  0.029376  0.768269  1
  F  F34  1  0.083165  0.028811  0.269409  1
  F  F35  1  0.916306  0.970648  0.730901  1
