# generated using pymatgen
data_Dy4Be2(SiRh3)3
_symmetry_space_group_name_H-M   'P 1'
_cell_length_a   11.34686280
_cell_length_b   11.34686351
_cell_length_c   11.34686176
_cell_angle_alpha   28.22421477
_cell_angle_beta   28.22421643
_cell_angle_gamma   28.22422092
_symmetry_Int_Tables_number   1
_chemical_formula_structural   Dy4Be2(SiRh3)3
_chemical_formula_sum   'Dy4 Be2 Si3 Rh9'
_cell_volume   288.68491678
_cell_formula_units_Z   1
loop_
 _symmetry_equiv_pos_site_id
 _symmetry_equiv_pos_as_xyz
  1  'x, y, z'
loop_
 _atom_site_type_symbol
 _atom_site_label
 _atom_site_symmetry_multiplicity
 _atom_site_fract_x
 _atom_site_fract_y
 _atom_site_fract_z
 _atom_site_occupancy
  Dy  Dy0  1  0.948930  0.948930  0.948930  1
  Dy  Dy1  1  0.850406  0.850406  0.850406  1
  Dy  Dy2  1  0.148242  0.148242  0.148242  1
  Dy  Dy3  1  0.050105  0.050105  0.050105  1
  Be  Be4  1  0.279319  0.279319  0.279319  1
  Be  Be5  1  0.387768  0.387768  0.387768  1
  Si  Si6  1  0.501132  0.501132  0.501132  1
  Si  Si7  1  0.720564  0.720564  0.720564  1
  Si  Si8  1  0.612994  0.612994  0.612994  1
  Rh  Rh9  1  0.604899  0.604899  0.111878  1
  Rh  Rh10  1  0.898284  0.390125  0.390125  1
  Rh  Rh11  1  0.496901  0.006529  0.496901  1
  Rh  Rh12  1  0.390125  0.898284  0.390125  1
  Rh  Rh13  1  0.496901  0.496901  0.006529  1
  Rh  Rh14  1  0.111878  0.604899  0.604899  1
  Rh  Rh15  1  0.006529  0.496901  0.496901  1
  Rh  Rh16  1  0.390125  0.390125  0.898284  1
  Rh  Rh17  1  0.604899  0.111878  0.604899  1
