# generated using pymatgen
data_TbEr4(Hg2Pt)2
_symmetry_space_group_name_H-M   'P 1'
_cell_length_a   3.63458700
_cell_length_b   7.90903000
_cell_length_c   18.23324700
_cell_angle_alpha   90.00000000
_cell_angle_beta   90.00000000
_cell_angle_gamma   90.00000000
_symmetry_Int_Tables_number   1
_chemical_formula_structural   TbEr4(Hg2Pt)2
_chemical_formula_sum   'Tb2 Er8 Hg8 Pt4'
_cell_volume   524.13396887
_cell_formula_units_Z   2
loop_
 _symmetry_equiv_pos_site_id
 _symmetry_equiv_pos_as_xyz
  1  'x, y, z'
loop_
 _atom_site_type_symbol
 _atom_site_label
 _atom_site_symmetry_multiplicity
 _atom_site_fract_x
 _atom_site_fract_y
 _atom_site_fract_z
 _atom_site_occupancy
  Tb  Tb0  1  0.000000  0.000000  0.000000  1
  Tb  Tb1  1  0.000000  0.500000  0.500000  1
  Er  Er2  1  0.000000  0.113655  0.414000  1
  Er  Er3  1  0.000000  0.886345  0.586000  1
  Er  Er4  1  0.000000  0.386345  0.914000  1
  Er  Er5  1  0.000000  0.613655  0.086000  1
  Er  Er6  1  0.000000  0.239553  0.217790  1
  Er  Er7  1  0.000000  0.760447  0.782210  1
  Er  Er8  1  0.000000  0.260447  0.717790  1
  Er  Er9  1  0.000000  0.739553  0.282210  1
  Hg  Hg10  1  0.500000  0.424112  0.353849  1
  Hg  Hg11  1  0.500000  0.575888  0.646151  1
  Hg  Hg12  1  0.500000  0.075888  0.853849  1
  Hg  Hg13  1  0.500000  0.924112  0.146151  1
  Hg  Hg14  1  0.500000  0.290350  0.063966  1
  Hg  Hg15  1  0.500000  0.709650  0.936034  1
  Hg  Hg16  1  0.500000  0.209650  0.563966  1
  Hg  Hg17  1  0.500000  0.790350  0.436034  1
  Pt  Pt18  1  0.500000  0.027702  0.303945  1
  Pt  Pt19  1  0.500000  0.972298  0.696055  1
  Pt  Pt20  1  0.500000  0.472298  0.803945  1
  Pt  Pt21  1  0.500000  0.527702  0.196055  1
