# generated using pymatgen
data_Pr3NdSn7GePt4
_symmetry_space_group_name_H-M   'P 1'
_cell_length_a   10.31710995
_cell_length_b   10.38930288
_cell_length_c   10.38930238
_cell_angle_alpha   154.29919151
_cell_angle_beta   125.43783549
_cell_angle_gamma   61.30167001
_symmetry_Int_Tables_number   1
_chemical_formula_structural   Pr3NdSn7GePt4
_chemical_formula_sum   'Pr3 Nd1 Sn7 Ge1 Pt4'
_cell_volume   390.64742565
_cell_formula_units_Z   1
loop_
 _symmetry_equiv_pos_site_id
 _symmetry_equiv_pos_as_xyz
  1  'x, y, z'
loop_
 _atom_site_type_symbol
 _atom_site_label
 _atom_site_symmetry_multiplicity
 _atom_site_fract_x
 _atom_site_fract_y
 _atom_site_fract_z
 _atom_site_occupancy
  Pr  Pr0  1  0.763444  0.998483  0.764961  1
  Pr  Pr1  1  0.231127  0.999752  0.231375  1
  Pr  Pr2  1  0.212904  0.206616  0.006289  1
  Nd  Nd3  1  0.793269  0.797094  0.996175  1
  Sn  Sn4  1  0.421341  0.419845  0.001496  1
  Sn  Sn5  1  0.578939  0.580859  0.998080  1
  Sn  Sn6  1  0.915833  0.421467  0.494366  1
  Sn  Sn7  1  0.076056  0.577570  0.498486  1
  Sn  Sn8  1  0.860283  0.201066  0.659217  1
  Sn  Sn9  1  0.152512  0.802734  0.349777  1
  Sn  Sn10  1  0.545578  0.198216  0.347361  1
  Ge  Ge11  1  0.459960  0.797186  0.662774  1
  Pt  Pt12  1  0.098014  0.352509  0.745507  1
  Pt  Pt13  1  0.902938  0.649741  0.253196  1
  Pt  Pt14  1  0.590583  0.344867  0.245717  1
  Pt  Pt15  1  0.397219  0.651995  0.745224  1
