# generated using pymatgen
data_Al(PtO3)2
_symmetry_space_group_name_H-M   'P 1'
_cell_length_a   4.53321500
_cell_length_b   9.06200300
_cell_length_c   9.26728300
_cell_angle_alpha   89.99977689
_cell_angle_beta   90.00004437
_cell_angle_gamma   90.00142232
_symmetry_Int_Tables_number   1
_chemical_formula_structural   Al(PtO3)2
_chemical_formula_sum   'Al4 Pt8 O24'
_cell_volume   380.70005907
_cell_formula_units_Z   4
loop_
 _symmetry_equiv_pos_site_id
 _symmetry_equiv_pos_as_xyz
  1  'x, y, z'
loop_
 _atom_site_type_symbol
 _atom_site_label
 _atom_site_symmetry_multiplicity
 _atom_site_fract_x
 _atom_site_fract_y
 _atom_site_fract_z
 _atom_site_occupancy
  Al  Al0  1  0.499982  0.750007  0.166646  1
  Al  Al1  1  0.000017  0.500032  0.666466  1
  Al  Al2  1  0.500016  0.250003  0.166654  1
  Al  Al3  1  0.999992  0.999957  0.666472  1
  Pt  Pt4  1  0.500005  0.250003  0.834619  1
  Pt  Pt5  1  0.499996  0.749994  0.834632  1
  Pt  Pt6  1  0.999987  0.000008  0.334520  1
  Pt  Pt7  1  0.000014  0.499994  0.334512  1
  Pt  Pt8  1  0.500002  0.249994  0.498805  1
  Pt  Pt9  1  0.500003  0.750002  0.498792  1
  Pt  Pt10  1  0.999983  0.000021  0.998777  1
  Pt  Pt11  1  0.000016  0.499985  0.998784  1
  O  O12  1  0.199735  0.400181  0.166608  1
  O  O13  1  0.199690  0.900237  0.166618  1
  O  O14  1  0.800291  0.099811  0.166615  1
  O  O15  1  0.800272  0.599783  0.166611  1
  O  O16  1  0.300221  0.150209  0.666640  1
  O  O17  1  0.300260  0.650200  0.666632  1
  O  O18  1  0.699771  0.349800  0.666639  1
  O  O19  1  0.699734  0.849786  0.666631  1
  O  O20  1  0.189417  0.405326  0.507770  1
  O  O21  1  0.189435  0.905335  0.507741  1
  O  O22  1  0.810594  0.094666  0.507764  1
  O  O23  1  0.810564  0.594663  0.507753  1
  O  O24  1  0.310510  0.155278  0.007715  1
  O  O25  1  0.310472  0.655264  0.007747  1
  O  O26  1  0.689505  0.344721  0.007716  1
  O  O27  1  0.689513  0.844745  0.007741  1
  O  O28  1  0.189449  0.405301  0.825704  1
  O  O29  1  0.189445  0.905342  0.825694  1
  O  O30  1  0.810554  0.094698  0.825689  1
  O  O31  1  0.810550  0.594653  0.825700  1
  O  O32  1  0.310515  0.155380  0.325658  1
  O  O33  1  0.310547  0.655381  0.325638  1
  O  O34  1  0.689467  0.344600  0.325644  1
  O  O35  1  0.689477  0.844641  0.325654  1
