# generated using pymatgen
data_Li3La2Pr2AlRh4
_symmetry_space_group_name_H-M   'P 1'
_cell_length_a   4.11619900
_cell_length_b   7.16990001
_cell_length_c   8.63831445
_cell_angle_alpha   90.19771596
_cell_angle_beta   90.00000000
_cell_angle_gamma   90.00000000
_symmetry_Int_Tables_number   1
_chemical_formula_structural   Li3La2Pr2AlRh4
_chemical_formula_sum   'Li3 La2 Pr2 Al1 Rh4'
_cell_volume   254.93876957
_cell_formula_units_Z   1
loop_
 _symmetry_equiv_pos_site_id
 _symmetry_equiv_pos_as_xyz
  1  'x, y, z'
loop_
 _atom_site_type_symbol
 _atom_site_label
 _atom_site_symmetry_multiplicity
 _atom_site_fract_x
 _atom_site_fract_y
 _atom_site_fract_z
 _atom_site_occupancy
  Li  Li0  1  0.250000  0.622950  0.548273  1
  Li  Li1  1  0.750000  0.372049  0.446911  1
  Li  Li2  1  0.750000  0.873666  0.055603  1
  La  La3  1  0.750000  0.460229  0.819017  1
  La  La4  1  0.750000  0.959081  0.683443  1
  Pr  Pr5  1  0.250000  0.546399  0.179548  1
  Pr  Pr6  1  0.250000  0.041326  0.315462  1
  Al  Al7  1  0.250000  0.127491  0.947880  1
  Rh  Rh8  1  0.250000  0.761921  0.880903  1
  Rh  Rh9  1  0.750000  0.242107  0.102823  1
  Rh  Rh10  1  0.750000  0.755324  0.370145  1
  Rh  Rh11  1  0.250000  0.237456  0.649991  1
