# generated using pymatgen
data_Ba6ZnPd4O15
_symmetry_space_group_name_H-M   'P 1'
_cell_length_a   7.48624684
_cell_length_b   7.48702021
_cell_length_c   7.46254300
_cell_angle_alpha   85.60717571
_cell_angle_beta   85.61919446
_cell_angle_gamma   85.81088195
_symmetry_Int_Tables_number   1
_chemical_formula_structural   Ba6ZnPd4O15
_chemical_formula_sum   'Ba6 Zn1 Pd4 O15'
_cell_volume   414.87496008
_cell_formula_units_Z   1
loop_
 _symmetry_equiv_pos_site_id
 _symmetry_equiv_pos_as_xyz
  1  'x, y, z'
loop_
 _atom_site_type_symbol
 _atom_site_label
 _atom_site_symmetry_multiplicity
 _atom_site_fract_x
 _atom_site_fract_y
 _atom_site_fract_z
 _atom_site_occupancy
  Ba  Ba0  1  0.341221  0.658831  0.000080  1
  Ba  Ba1  1  0.999906  0.338987  0.661144  1
  Ba  Ba2  1  0.661050  0.000123  0.338893  1
  Ba  Ba3  1  0.149039  0.850689  0.499975  1
  Ba  Ba4  1  0.500139  0.148640  0.849854  1
  Ba  Ba5  1  0.851614  0.499940  0.150306  1
  Zn  Zn6  1  0.497848  0.502155  0.499971  1
  Pd  Pd7  1  0.295194  0.295722  0.295246  1
  Pd  Pd8  1  0.704311  0.704736  0.704758  1
  Pd  Pd9  1  0.098132  0.096593  0.097040  1
  Pd  Pd10  1  0.903319  0.901931  0.902933  1
  O  O11  1  0.151968  0.999040  0.848235  1
  O  O12  1  0.849738  0.150314  0.999955  1
  O  O13  1  0.000797  0.848084  0.151776  1
  O  O14  1  0.034737  0.197161  0.342346  1
  O  O15  1  0.342914  0.035095  0.197954  1
  O  O16  1  0.198137  0.341646  0.033264  1
  O  O17  1  0.802709  0.965298  0.657564  1
  O  O18  1  0.658185  0.801997  0.966651  1
  O  O19  1  0.964804  0.657159  0.802211  1
  O  O20  1  0.378339  0.236642  0.541155  1
  O  O21  1  0.540026  0.381482  0.235510  1
  O  O22  1  0.233714  0.540731  0.379135  1
  O  O23  1  0.763938  0.621559  0.459053  1
  O  O24  1  0.459352  0.765537  0.620252  1
  O  O25  1  0.618866  0.459908  0.764738  1
