# generated using pymatgen
data_Si(Pt2Se5)2
_symmetry_space_group_name_H-M   'P 1'
_cell_length_a   16.02320936
_cell_length_b   16.02320904
_cell_length_c   6.63009558
_cell_angle_alpha   87.30563792
_cell_angle_beta   87.30563745
_cell_angle_gamma   13.53904855
_symmetry_Int_Tables_number   1
_chemical_formula_structural   Si(Pt2Se5)2
_chemical_formula_sum   'Si1 Pt4 Se10'
_cell_volume   398.05942057
_cell_formula_units_Z   1
loop_
 _symmetry_equiv_pos_site_id
 _symmetry_equiv_pos_as_xyz
  1  'x, y, z'
loop_
 _atom_site_type_symbol
 _atom_site_label
 _atom_site_symmetry_multiplicity
 _atom_site_fract_x
 _atom_site_fract_y
 _atom_site_fract_z
 _atom_site_occupancy
  Si  Si0  1  0.405745  0.405745  0.001235  1
  Pt  Pt1  1  0.002878  0.002878  0.003477  1
  Pt  Pt2  1  0.604900  0.604900  0.999966  1
  Pt  Pt3  1  0.206475  0.206475  0.998006  1
  Pt  Pt4  1  0.808567  0.808567  0.997357  1
  Se  Se5  1  0.675439  0.675439  0.803866  1
  Se  Se6  1  0.276821  0.276821  0.804011  1
  Se  Se7  1  0.876785  0.876785  0.789733  1
  Se  Se8  1  0.534805  0.534805  0.195978  1
  Se  Se9  1  0.135948  0.135948  0.193768  1
  Se  Se10  1  0.737300  0.737300  0.192546  1
  Se  Se11  1  0.339091  0.339091  0.190113  1
  Se  Se12  1  0.934824  0.934824  0.212461  1
  Se  Se13  1  0.073881  0.073881  0.806138  1
  Se  Se14  1  0.472262  0.472262  0.811346  1
