# generated using pymatgen
data_LiNd6Mg(Co4P3)4
_symmetry_space_group_name_H-M   'P 1'
_cell_length_a   3.79022500
_cell_length_b   10.73146400
_cell_length_c   12.46478800
_cell_angle_alpha   90.00000000
_cell_angle_beta   90.00000000
_cell_angle_gamma   90.00000000
_symmetry_Int_Tables_number   1
_chemical_formula_structural   LiNd6Mg(Co4P3)4
_chemical_formula_sum   'Li1 Nd6 Mg1 Co16 P12'
_cell_volume   507.00105300
_cell_formula_units_Z   1
loop_
 _symmetry_equiv_pos_site_id
 _symmetry_equiv_pos_as_xyz
  1  'x, y, z'
loop_
 _atom_site_type_symbol
 _atom_site_label
 _atom_site_symmetry_multiplicity
 _atom_site_fract_x
 _atom_site_fract_y
 _atom_site_fract_z
 _atom_site_occupancy
  Li  Li0  1  0.500000  0.500000  0.152934  1
  Nd  Nd1  1  0.000000  0.500000  0.523102  1
  Nd  Nd2  1  0.500000  0.000000  0.474135  1
  Nd  Nd3  1  0.500000  0.818694  0.206049  1
  Nd  Nd4  1  0.500000  0.181306  0.206049  1
  Nd  Nd5  1  0.000000  0.679039  0.793139  1
  Nd  Nd6  1  0.000000  0.320961  0.793139  1
  Mg  Mg7  1  0.000000  0.000000  0.846769  1
  Co  Co8  1  0.500000  0.500000  0.706727  1
  Co  Co9  1  0.000000  0.000000  0.293492  1
  Co  Co10  1  0.000000  0.500000  0.988808  1
  Co  Co11  1  0.500000  0.000000  0.011773  1
  Co  Co12  1  0.500000  0.334345  0.998806  1
  Co  Co13  1  0.500000  0.665655  0.998806  1
  Co  Co14  1  0.000000  0.168682  0.004170  1
  Co  Co15  1  0.000000  0.831318  0.004170  1
  Co  Co16  1  0.500000  0.297233  0.431159  1
  Co  Co17  1  0.500000  0.702767  0.431159  1
  Co  Co18  1  0.000000  0.203071  0.568314  1
  Co  Co19  1  0.000000  0.796929  0.568314  1
  Co  Co20  1  0.500000  0.880128  0.705053  1
  Co  Co21  1  0.500000  0.119872  0.705053  1
  Co  Co22  1  0.000000  0.619295  0.294323  1
  Co  Co23  1  0.000000  0.380705  0.294323  1
  P  P24  1  0.500000  0.500000  0.889050  1
  P  P25  1  0.000000  0.000000  0.112567  1
  P  P26  1  0.500000  0.500000  0.343671  1
  P  P27  1  0.000000  0.000000  0.649034  1
  P  P28  1  0.500000  0.304914  0.613074  1
  P  P29  1  0.500000  0.695086  0.613074  1
  P  P30  1  0.000000  0.195917  0.386032  1
  P  P31  1  0.000000  0.804083  0.386032  1
  P  P32  1  0.500000  0.839610  0.898622  1
  P  P33  1  0.500000  0.160390  0.898622  1
  P  P34  1  0.000000  0.653883  0.105229  1
  P  P35  1  0.000000  0.346117  0.105229  1
