# generated using pymatgen
data_BaLi2(AgAs)2
_symmetry_space_group_name_H-M   'P 1'
_cell_length_a   8.75914086
_cell_length_b   8.75913940
_cell_length_c   8.75914055
_cell_angle_alpha   30.28322086
_cell_angle_beta   30.28322557
_cell_angle_gamma   30.28322450
_symmetry_Int_Tables_number   1
_chemical_formula_structural   BaLi2(AgAs)2
_chemical_formula_sum   'Ba1 Li2 Ag2 As2'
_cell_volume   151.43593799
_cell_formula_units_Z   1
loop_
 _symmetry_equiv_pos_site_id
 _symmetry_equiv_pos_as_xyz
  1  'x, y, z'
loop_
 _atom_site_type_symbol
 _atom_site_label
 _atom_site_symmetry_multiplicity
 _atom_site_fract_x
 _atom_site_fract_y
 _atom_site_fract_z
 _atom_site_occupancy
  Ba  Ba0  1  0.000000  0.000000  0.000000  1
  Li  Li1  1  0.859209  0.859209  0.859209  1
  Li  Li2  1  0.140791  0.140791  0.140791  1
  Ag  Ag3  1  0.562307  0.562307  0.562307  1
  Ag  Ag4  1  0.437693  0.437693  0.437693  1
  As  As5  1  0.753550  0.753550  0.753550  1
  As  As6  1  0.246450  0.246450  0.246450  1
