# generated using pymatgen
data_Nd3YEr(In2Pd)2
_symmetry_space_group_name_H-M   'P 1'
_cell_length_a   3.71885900
_cell_length_b   8.30876066
_cell_length_c   18.47357948
_cell_angle_alpha   89.95422956
_cell_angle_beta   90.00000000
_cell_angle_gamma   90.00000000
_symmetry_Int_Tables_number   1
_chemical_formula_structural   Nd3YEr(In2Pd)2
_chemical_formula_sum   'Nd6 Y2 Er2 In8 Pd4'
_cell_volume   570.81697047
_cell_formula_units_Z   2
loop_
 _symmetry_equiv_pos_site_id
 _symmetry_equiv_pos_as_xyz
  1  'x, y, z'
loop_
 _atom_site_type_symbol
 _atom_site_label
 _atom_site_symmetry_multiplicity
 _atom_site_fract_x
 _atom_site_fract_y
 _atom_site_fract_z
 _atom_site_occupancy
  Nd  Nd0  1  0.500000  0.237395  0.785306  1
  Nd  Nd1  1  0.500000  0.762605  0.214694  1
  Nd  Nd2  1  0.500000  0.262398  0.285448  1
  Nd  Nd3  1  0.500000  0.737602  0.714552  1
  Nd  Nd4  1  0.500000  0.000000  0.000000  1
  Nd  Nd5  1  0.500000  0.500000  0.500000  1
  Y  Y6  1  0.500000  0.378798  0.084819  1
  Y  Y7  1  0.500000  0.621202  0.915181  1
  Er  Er8  1  0.500000  0.120482  0.585330  1
  Er  Er9  1  0.500000  0.879518  0.414670  1
  In  In10  1  0.000000  0.086916  0.152651  1
  In  In11  1  0.000000  0.913084  0.847349  1
  In  In12  1  0.000000  0.412372  0.652445  1
  In  In13  1  0.000000  0.587628  0.347555  1
  In  In14  1  0.000000  0.193912  0.437344  1
  In  In15  1  0.000000  0.806088  0.562656  1
  In  In16  1  0.000000  0.305204  0.937003  1
  In  In17  1  0.000000  0.694796  0.062997  1
  Pd  Pd18  1  0.000000  0.025469  0.693619  1
  Pd  Pd19  1  0.000000  0.974531  0.306381  1
  Pd  Pd20  1  0.000000  0.475272  0.194536  1
  Pd  Pd21  1  0.000000  0.524728  0.805464  1
