# generated using pymatgen
data_Pr2HgRhPb
_symmetry_space_group_name_H-M   'P 1'
_cell_length_a   8.29722999
_cell_length_b   8.29723009
_cell_length_c   3.87296600
_cell_angle_alpha   90.00000000
_cell_angle_beta   90.00000000
_cell_angle_gamma   88.69404420
_symmetry_Int_Tables_number   1
_chemical_formula_structural   Pr2HgRhPb
_chemical_formula_sum   'Pr4 Hg2 Rh2 Pb2'
_cell_volume   266.56131485
_cell_formula_units_Z   2
loop_
 _symmetry_equiv_pos_site_id
 _symmetry_equiv_pos_as_xyz
  1  'x, y, z'
loop_
 _atom_site_type_symbol
 _atom_site_label
 _atom_site_symmetry_multiplicity
 _atom_site_fract_x
 _atom_site_fract_y
 _atom_site_fract_z
 _atom_site_occupancy
  Pr  Pr0  1  0.657618  0.157618  0.500000  1
  Pr  Pr1  1  0.342382  0.842382  0.500000  1
  Pr  Pr2  1  0.196416  0.303584  0.500000  1
  Pr  Pr3  1  0.803584  0.696416  0.500000  1
  Hg  Hg4  1  0.125260  0.625260  0.000000  1
  Hg  Hg5  1  0.874740  0.374740  0.000000  1
  Rh  Rh6  1  0.623924  0.876076  0.000000  1
  Rh  Rh7  1  0.376076  0.123924  0.000000  1
  Pb  Pb8  1  0.000000  0.000000  0.000000  1
  Pb  Pb9  1  0.500000  0.500000  0.000000  1
