# generated using pymatgen
data_GdLu2Bi5O14
_symmetry_space_group_name_H-M   'P 1'
_cell_length_a   6.59224751
_cell_length_b   6.71342326
_cell_length_c   7.74487900
_cell_angle_alpha   106.70680050
_cell_angle_beta   89.49652750
_cell_angle_gamma   99.10724487
_symmetry_Int_Tables_number   1
_chemical_formula_structural   GdLu2Bi5O14
_chemical_formula_sum   'Gd1 Lu2 Bi5 O14'
_cell_volume   323.91018244
_cell_formula_units_Z   1
loop_
 _symmetry_equiv_pos_site_id
 _symmetry_equiv_pos_as_xyz
  1  'x, y, z'
loop_
 _atom_site_type_symbol
 _atom_site_label
 _atom_site_symmetry_multiplicity
 _atom_site_fract_x
 _atom_site_fract_y
 _atom_site_fract_z
 _atom_site_occupancy
  Gd  Gd0  1  0.264490  0.539154  0.885048  1
  Lu  Lu1  1  0.463588  0.004270  0.253503  1
  Lu  Lu2  1  0.537629  0.993700  0.750428  1
  Bi  Bi3  1  0.002190  0.005152  0.501404  1
  Bi  Bi4  1  0.001720  0.001369  0.000149  1
  Bi  Bi5  1  0.737659  0.472495  0.115306  1
  Bi  Bi6  1  0.724019  0.461348  0.613026  1
  Bi  Bi7  1  0.269823  0.532466  0.389374  1
  O  O8  1  0.451724  0.660594  0.170944  1
  O  O9  1  0.540178  0.335573  0.821739  1
  O  O10  1  0.305895  0.927943  0.948765  1
  O  O11  1  0.693331  0.051449  0.050779  1
  O  O12  1  0.303397  0.926031  0.517159  1
  O  O13  1  0.697455  0.076600  0.485206  1
  O  O14  1  0.530380  0.349385  0.347497  1
  O  O15  1  0.461566  0.648642  0.658321  1
  O  O16  1  0.932645  0.667899  0.954583  1
  O  O17  1  0.079704  0.328956  0.039995  1
  O  O18  1  0.090648  0.334511  0.622755  1
  O  O19  1  0.909227  0.677195  0.373534  1
  O  O20  1  0.870102  0.932928  0.733138  1
  O  O21  1  0.132630  0.072339  0.267347  1
