# generated using pymatgen
data_PrDyTcB6
_symmetry_space_group_name_H-M   'P 1'
_cell_length_a   3.75781800
_cell_length_b   9.25814100
_cell_length_c   11.73126600
_cell_angle_alpha   90.00000000
_cell_angle_beta   90.00000000
_cell_angle_gamma   90.00000000
_symmetry_Int_Tables_number   1
_chemical_formula_structural   PrDyTcB6
_chemical_formula_sum   'Pr4 Dy4 Tc4 B24'
_cell_volume   408.13554101
_cell_formula_units_Z   4
loop_
 _symmetry_equiv_pos_site_id
 _symmetry_equiv_pos_as_xyz
  1  'x, y, z'
loop_
 _atom_site_type_symbol
 _atom_site_label
 _atom_site_symmetry_multiplicity
 _atom_site_fract_x
 _atom_site_fract_y
 _atom_site_fract_z
 _atom_site_occupancy
  Pr  Pr0  1  0.000000  0.322893  0.414533  1
  Pr  Pr1  1  0.000000  0.677107  0.585467  1
  Pr  Pr2  1  0.000000  0.822893  0.085467  1
  Pr  Pr3  1  0.000000  0.177107  0.914533  1
  Dy  Dy4  1  0.000000  0.942287  0.368355  1
  Dy  Dy5  1  0.000000  0.057713  0.631645  1
  Dy  Dy6  1  0.000000  0.442287  0.131645  1
  Dy  Dy7  1  0.000000  0.557713  0.868355  1
  Tc  Tc8  1  0.000000  0.639697  0.318888  1
  Tc  Tc9  1  0.000000  0.360303  0.681112  1
  Tc  Tc10  1  0.000000  0.139697  0.181112  1
  Tc  Tc11  1  0.000000  0.860303  0.818888  1
  B  B12  1  0.500000  0.555539  0.429981  1
  B  B13  1  0.500000  0.444461  0.570019  1
  B  B14  1  0.500000  0.055539  0.070019  1
  B  B15  1  0.500000  0.944461  0.929981  1
  B  B16  1  0.500000  0.749444  0.415170  1
  B  B17  1  0.500000  0.250556  0.584830  1
  B  B18  1  0.500000  0.249444  0.084830  1
  B  B19  1  0.500000  0.750556  0.915170  1
  B  B20  1  0.500000  0.790899  0.265933  1
  B  B21  1  0.500000  0.209101  0.734067  1
  B  B22  1  0.500000  0.290899  0.234067  1
  B  B23  1  0.500000  0.709101  0.765933  1
  B  B24  1  0.500000  0.629547  0.186758  1
  B  B25  1  0.500000  0.370453  0.813242  1
  B  B26  1  0.500000  0.129547  0.313242  1
  B  B27  1  0.500000  0.870453  0.686758  1
  B  B28  1  0.500000  0.984561  0.212924  1
  B  B29  1  0.500000  0.015439  0.787076  1
  B  B30  1  0.500000  0.484561  0.287076  1
  B  B31  1  0.500000  0.515439  0.712924  1
  B  B32  1  0.500000  0.595546  0.026375  1
  B  B33  1  0.500000  0.404454  0.973625  1
  B  B34  1  0.500000  0.095546  0.473625  1
  B  B35  1  0.500000  0.904454  0.526375  1
