# generated using pymatgen
data_PrErZn5Si
_symmetry_space_group_name_H-M   'P 1'
_cell_length_a   8.23678854
_cell_length_b   8.23678906
_cell_length_c   8.76556000
_cell_angle_alpha   90.00000000
_cell_angle_beta   90.00000000
_cell_angle_gamma   149.46985604
_symmetry_Int_Tables_number   1
_chemical_formula_structural   PrErZn5Si
_chemical_formula_sum   'Pr2 Er2 Zn10 Si2'
_cell_volume   302.10093080
_cell_formula_units_Z   2
loop_
 _symmetry_equiv_pos_site_id
 _symmetry_equiv_pos_as_xyz
  1  'x, y, z'
loop_
 _atom_site_type_symbol
 _atom_site_label
 _atom_site_symmetry_multiplicity
 _atom_site_fract_x
 _atom_site_fract_y
 _atom_site_fract_z
 _atom_site_occupancy
  Pr  Pr0  1  0.000000  0.000000  0.500000  1
  Pr  Pr1  1  0.000000  0.000000  0.000000  1
  Er  Er2  1  0.200762  0.799238  0.250000  1
  Er  Er3  1  0.799238  0.200762  0.750000  1
  Zn  Zn4  1  0.811881  0.188119  0.392533  1
  Zn  Zn5  1  0.188119  0.811881  0.607467  1
  Zn  Zn6  1  0.811881  0.188119  0.107467  1
  Zn  Zn7  1  0.188119  0.811881  0.892533  1
  Zn  Zn8  1  0.652152  0.347848  0.473576  1
  Zn  Zn9  1  0.347848  0.652152  0.526424  1
  Zn  Zn10  1  0.652152  0.347848  0.026424  1
  Zn  Zn11  1  0.347848  0.652152  0.973576  1
  Zn  Zn12  1  0.402376  0.597624  0.250000  1
  Zn  Zn13  1  0.597624  0.402376  0.750000  1
  Si  Si14  1  0.558110  0.441890  0.250000  1
  Si  Si15  1  0.441890  0.558110  0.750000  1
