# generated using pymatgen
data_Tb15NdMgAg3Rh4
_symmetry_space_group_name_H-M   'P 1'
_cell_length_a   9.64028514
_cell_length_b   9.65933113
_cell_length_c   9.62351000
_cell_angle_alpha   60.12259884
_cell_angle_beta   60.05754565
_cell_angle_gamma   60.06706341
_symmetry_Int_Tables_number   1
_chemical_formula_structural   Tb15NdMgAg3Rh4
_chemical_formula_sum   'Tb15 Nd1 Mg1 Ag3 Rh4'
_cell_volume   634.84150760
_cell_formula_units_Z   1
loop_
 _symmetry_equiv_pos_site_id
 _symmetry_equiv_pos_as_xyz
  1  'x, y, z'
loop_
 _atom_site_type_symbol
 _atom_site_label
 _atom_site_symmetry_multiplicity
 _atom_site_fract_x
 _atom_site_fract_y
 _atom_site_fract_z
 _atom_site_occupancy
  Tb  Tb0  1  0.600712  0.599238  0.598152  1
  Tb  Tb1  1  0.600712  0.599238  0.201897  1
  Tb  Tb2  1  0.600337  0.203873  0.597895  1
  Tb  Tb3  1  0.190357  0.603914  0.602865  1
  Tb  Tb4  1  0.059955  0.439143  0.438040  1
  Tb  Tb5  1  0.436304  0.063195  0.064582  1
  Tb  Tb6  1  0.436304  0.063195  0.435919  1
  Tb  Tb7  1  0.059955  0.439143  0.062861  1
  Tb  Tb8  1  0.435954  0.437042  0.063502  1
  Tb  Tb9  1  0.059963  0.061149  0.439443  1
  Tb  Tb10  1  0.183593  0.811784  0.815102  1
  Tb  Tb11  1  0.812122  0.185738  0.187456  1
  Tb  Tb12  1  0.812122  0.185738  0.814684  1
  Tb  Tb13  1  0.183593  0.811784  0.189520  1
  Tb  Tb14  1  0.813818  0.815305  0.185439  1
  Nd  Nd15  1  0.184326  0.183549  0.816062  1
  Mg  Mg16  1  0.538774  0.820716  0.820256  1
  Ag  Ag17  1  0.832720  0.834617  0.834451  1
  Ag  Ag18  1  0.832720  0.834617  0.498213  1
  Ag  Ag19  1  0.829116  0.501764  0.834561  1
  Rh  Rh20  1  0.391591  0.395363  0.390266  1
  Rh  Rh21  1  0.391591  0.395363  0.822780  1
  Rh  Rh22  1  0.391046  0.821625  0.393664  1
  Rh  Rh23  1  0.822310  0.392908  0.392390  1
