# generated using pymatgen
data_TbY11Co6Sn
_symmetry_space_group_name_H-M   'P 1'
_cell_length_a   8.40099917
_cell_length_b   8.40099864
_cell_length_c   8.40356706
_cell_angle_alpha   109.48174636
_cell_angle_beta   109.46351284
_cell_angle_gamma   109.45602062
_symmetry_Int_Tables_number   1
_chemical_formula_structural   TbY11Co6Sn
_chemical_formula_sum   'Tb1 Y11 Co6 Sn1'
_cell_volume   456.63580890
_cell_formula_units_Z   1
loop_
 _symmetry_equiv_pos_site_id
 _symmetry_equiv_pos_as_xyz
  1  'x, y, z'
loop_
 _atom_site_type_symbol
 _atom_site_label
 _atom_site_symmetry_multiplicity
 _atom_site_fract_x
 _atom_site_fract_y
 _atom_site_fract_z
 _atom_site_occupancy
  Tb  Tb0  1  0.805256  0.695644  0.500902  1
  Y  Y1  1  0.194644  0.303130  0.497772  1
  Y  Y2  1  0.194783  0.696893  0.891676  1
  Y  Y3  1  0.805315  0.302860  0.108175  1
  Y  Y4  1  0.696854  0.502136  0.805297  1
  Y  Y5  1  0.302870  0.497656  0.194467  1
  Y  Y6  1  0.696808  0.891597  0.194467  1
  Y  Y7  1  0.303163  0.108443  0.805297  1
  Y  Y8  1  0.502296  0.805440  0.696785  1
  Y  Y9  1  0.497558  0.194472  0.303034  1
  Y  Y10  1  0.108562  0.805474  0.303034  1
  Y  Y11  1  0.891345  0.194491  0.696785  1
  Co  Co12  1  0.887786  0.388197  0.500141  1
  Co  Co13  1  0.111944  0.612355  0.500141  1
  Co  Co14  1  0.388214  0.499957  0.888172  1
  Co  Co15  1  0.612584  0.500764  0.113348  1
  Co  Co16  1  0.499714  0.887926  0.387640  1
  Co  Co17  1  0.500049  0.112146  0.612195  1
  Sn  Sn18  1  0.000256  0.000418  0.000674  1
