# generated using pymatgen
data_Ho4Tm6Si5Bi
_symmetry_space_group_name_H-M   'P 1'
_cell_length_a   8.48843074
_cell_length_b   8.48843069
_cell_length_c   6.27929700
_cell_angle_alpha   90.00000000
_cell_angle_beta   90.00000000
_cell_angle_gamma   120.30915237
_symmetry_Int_Tables_number   1
_chemical_formula_structural   Ho4Tm6Si5Bi
_chemical_formula_sum   'Ho4 Tm6 Si5 Bi1'
_cell_volume   390.60257430
_cell_formula_units_Z   1
loop_
 _symmetry_equiv_pos_site_id
 _symmetry_equiv_pos_as_xyz
  1  'x, y, z'
loop_
 _atom_site_type_symbol
 _atom_site_label
 _atom_site_symmetry_multiplicity
 _atom_site_fract_x
 _atom_site_fract_y
 _atom_site_fract_z
 _atom_site_occupancy
  Ho  Ho0  1  0.768351  0.768351  0.250000  1
  Ho  Ho1  1  0.239666  0.239666  0.750000  1
  Ho  Ho2  1  0.755146  0.998590  0.750000  1
  Ho  Ho3  1  0.998590  0.755146  0.750000  1
  Tm  Tm4  1  0.677140  0.330571  0.504783  1
  Tm  Tm5  1  0.330571  0.677140  0.504783  1
  Tm  Tm6  1  0.330571  0.677140  0.995217  1
  Tm  Tm7  1  0.677140  0.330571  0.995217  1
  Tm  Tm8  1  0.239597  0.984317  0.250000  1
  Tm  Tm9  1  0.984317  0.239597  0.250000  1
  Si  Si10  1  0.603663  0.998975  0.250000  1
  Si  Si11  1  0.998975  0.603663  0.250000  1
  Si  Si12  1  0.606625  0.606625  0.750000  1
  Si  Si13  1  0.393856  0.002817  0.750000  1
  Si  Si14  1  0.002817  0.393856  0.750000  1
  Bi  Bi15  1  0.392976  0.392976  0.250000  1
