# generated using pymatgen
data_Yb6PtAu7
_symmetry_space_group_name_H-M   'P 1'
_cell_length_a   8.14205158
_cell_length_b   8.14205085
_cell_length_c   8.14204988
_cell_angle_alpha   114.53642395
_cell_angle_beta   114.53641571
_cell_angle_gamma   114.53642400
_symmetry_Int_Tables_number   1
_chemical_formula_structural   Yb6PtAu7
_chemical_formula_sum   'Yb6 Pt1 Au7'
_cell_volume   314.46384743
_cell_formula_units_Z   1
loop_
 _symmetry_equiv_pos_site_id
 _symmetry_equiv_pos_as_xyz
  1  'x, y, z'
loop_
 _atom_site_type_symbol
 _atom_site_label
 _atom_site_symmetry_multiplicity
 _atom_site_fract_x
 _atom_site_fract_y
 _atom_site_fract_z
 _atom_site_occupancy
  Yb  Yb0  1  0.611851  0.731011  0.982407  1
  Yb  Yb1  1  0.268989  0.017593  0.388149  1
  Yb  Yb2  1  0.731011  0.982407  0.611851  1
  Yb  Yb3  1  0.388149  0.268989  0.017593  1
  Yb  Yb4  1  0.982407  0.611851  0.731011  1
  Yb  Yb5  1  0.017593  0.388149  0.268989  1
  Pt  Pt6  1  0.000000  0.000000  0.000000  1
  Au  Au7  1  0.556783  0.066265  0.229091  1
  Au  Au8  1  0.933735  0.770909  0.443217  1
  Au  Au9  1  0.066265  0.229091  0.556783  1
  Au  Au10  1  0.229091  0.556783  0.066265  1
  Au  Au11  1  0.770909  0.443217  0.933735  1
  Au  Au12  1  0.443217  0.933735  0.770909  1
  Au  Au13  1  0.500000  0.500000  0.500000  1
