# generated using pymatgen
data_NaSr21(Ga4Hg3)2
_symmetry_space_group_name_H-M   'P 1'
_cell_length_a   12.21207546
_cell_length_b   12.21207616
_cell_length_c   12.21207500
_cell_angle_alpha   60.00000586
_cell_angle_beta   60.00000395
_cell_angle_gamma   60.00000298
_symmetry_Int_Tables_number   1
_chemical_formula_structural   NaSr21(Ga4Hg3)2
_chemical_formula_sum   'Na1 Sr21 Ga8 Hg6'
_cell_volume   1287.81503261
_cell_formula_units_Z   1
loop_
 _symmetry_equiv_pos_site_id
 _symmetry_equiv_pos_as_xyz
  1  'x, y, z'
loop_
 _atom_site_type_symbol
 _atom_site_label
 _atom_site_symmetry_multiplicity
 _atom_site_fract_x
 _atom_site_fract_y
 _atom_site_fract_z
 _atom_site_occupancy
  Na  Na0  1  0.500000  0.500000  0.500000  1
  Sr  Sr1  1  0.868434  0.868434  0.394696  1
  Sr  Sr2  1  0.605304  0.131566  0.131566  1
  Sr  Sr3  1  0.868434  0.394696  0.868434  1
  Sr  Sr4  1  0.131566  0.131566  0.131566  1
  Sr  Sr5  1  0.394696  0.868434  0.868434  1
  Sr  Sr6  1  0.868434  0.868434  0.868434  1
  Sr  Sr7  1  0.167444  0.832556  0.500000  1
  Sr  Sr8  1  0.832556  0.500000  0.500000  1
  Sr  Sr9  1  0.131566  0.131566  0.605304  1
  Sr  Sr10  1  0.832556  0.167444  0.500000  1
  Sr  Sr11  1  0.167444  0.500000  0.500000  1
  Sr  Sr12  1  0.131566  0.605304  0.131566  1
  Sr  Sr13  1  0.500000  0.500000  0.167444  1
  Sr  Sr14  1  0.500000  0.167444  0.832556  1
  Sr  Sr15  1  0.500000  0.832556  0.167444  1
  Sr  Sr16  1  0.500000  0.500000  0.832556  1
  Sr  Sr17  1  0.500000  0.167444  0.500000  1
  Sr  Sr18  1  0.167444  0.500000  0.832556  1
  Sr  Sr19  1  0.000000  0.000000  0.000000  1
  Sr  Sr20  1  0.500000  0.832556  0.500000  1
  Sr  Sr21  1  0.832556  0.500000  0.167444  1
  Ga  Ga22  1  0.693410  0.919770  0.693410  1
  Ga  Ga23  1  0.693410  0.693410  0.919770  1
  Ga  Ga24  1  0.693410  0.693410  0.693410  1
  Ga  Ga25  1  0.306590  0.080230  0.306590  1
  Ga  Ga26  1  0.919770  0.693410  0.693410  1
  Ga  Ga27  1  0.306590  0.306590  0.080230  1
  Ga  Ga28  1  0.080230  0.306590  0.306590  1
  Ga  Ga29  1  0.306590  0.306590  0.306590  1
  Hg  Hg30  1  0.783505  0.216495  0.783505  1
  Hg  Hg31  1  0.783505  0.216495  0.216495  1
  Hg  Hg32  1  0.216495  0.783505  0.216495  1
  Hg  Hg33  1  0.216495  0.783505  0.783505  1
  Hg  Hg34  1  0.783505  0.783505  0.216495  1
  Hg  Hg35  1  0.216495  0.216495  0.783505  1
