# generated using pymatgen
data_Ho10Tl6Se
_symmetry_space_group_name_H-M   'P 1'
_cell_length_a   9.07129600
_cell_length_b   9.07129792
_cell_length_c   6.67748800
_cell_angle_alpha   90.00000000
_cell_angle_beta   90.00000000
_cell_angle_gamma   119.99999299
_symmetry_Int_Tables_number   1
_chemical_formula_structural   Ho10Tl6Se
_chemical_formula_sum   'Ho10 Tl6 Se1'
_cell_volume   475.86366743
_cell_formula_units_Z   1
loop_
 _symmetry_equiv_pos_site_id
 _symmetry_equiv_pos_as_xyz
  1  'x, y, z'
loop_
 _atom_site_type_symbol
 _atom_site_label
 _atom_site_symmetry_multiplicity
 _atom_site_fract_x
 _atom_site_fract_y
 _atom_site_fract_z
 _atom_site_occupancy
  Ho  Ho0  1  0.666667  0.333333  0.500000  1
  Ho  Ho1  1  0.333333  0.666667  0.500000  1
  Ho  Ho2  1  0.333333  0.666667  0.000000  1
  Ho  Ho3  1  0.666667  0.333333  0.000000  1
  Ho  Ho4  1  0.750404  0.750404  0.242927  1
  Ho  Ho5  1  0.249596  0.000000  0.242927  1
  Ho  Ho6  1  0.000000  0.249596  0.242927  1
  Ho  Ho7  1  0.249596  0.249596  0.757073  1
  Ho  Ho8  1  0.750404  0.000000  0.757073  1
  Ho  Ho9  1  0.000000  0.750404  0.757073  1
  Tl  Tl10  1  0.396822  0.396822  0.247787  1
  Tl  Tl11  1  0.603178  0.000000  0.247787  1
  Tl  Tl12  1  0.000000  0.603178  0.247787  1
  Tl  Tl13  1  0.603178  0.603178  0.752213  1
  Tl  Tl14  1  0.396822  0.000000  0.752213  1
  Tl  Tl15  1  0.000000  0.396822  0.752213  1
  Se  Se16  1  0.000000  0.000000  0.500000  1
