# generated using pymatgen
data_Ho2Er3Tm5(CoBi2)2
_symmetry_space_group_name_H-M   'P 1'
_cell_length_a   7.88326006
_cell_length_b   8.84468600
_cell_length_c   12.32443640
_cell_angle_alpha   90.00000000
_cell_angle_beta   89.87272519
_cell_angle_gamma   90.00000000
_symmetry_Int_Tables_number   1
_chemical_formula_structural   Ho2Er3Tm5(CoBi2)2
_chemical_formula_sum   'Ho4 Er6 Tm10 Co4 Bi8'
_cell_volume   859.31871332
_cell_formula_units_Z   2
loop_
 _symmetry_equiv_pos_site_id
 _symmetry_equiv_pos_as_xyz
  1  'x, y, z'
loop_
 _atom_site_type_symbol
 _atom_site_label
 _atom_site_symmetry_multiplicity
 _atom_site_fract_x
 _atom_site_fract_y
 _atom_site_fract_z
 _atom_site_occupancy
  Ho  Ho0  1  0.153676  0.250000  0.799948  1
  Ho  Ho1  1  0.846324  0.750000  0.200052  1
  Ho  Ho2  1  0.118540  0.750000  0.813313  1
  Ho  Ho3  1  0.881460  0.250000  0.186687  1
  Er  Er4  1  0.618622  0.250000  0.686505  1
  Er  Er5  1  0.381378  0.750000  0.313495  1
  Er  Er6  1  0.554168  0.750000  0.997259  1
  Er  Er7  1  0.445832  0.250000  0.002741  1
  Er  Er8  1  0.054843  0.250000  0.502574  1
  Er  Er9  1  0.945157  0.750000  0.497426  1
  Tm  Tm10  1  0.652671  0.750000  0.698726  1
  Tm  Tm11  1  0.347329  0.250000  0.301274  1
  Tm  Tm12  1  0.826636  0.463046  0.936217  1
  Tm  Tm13  1  0.173364  0.536954  0.063783  1
  Tm  Tm14  1  0.327106  0.537190  0.563711  1
  Tm  Tm15  1  0.173364  0.963046  0.063783  1
  Tm  Tm16  1  0.672894  0.462810  0.436289  1
  Tm  Tm17  1  0.826636  0.036954  0.936217  1
  Tm  Tm18  1  0.672894  0.037190  0.436289  1
  Tm  Tm19  1  0.327106  0.962810  0.563711  1
  Co  Co20  1  0.936044  0.750000  0.993214  1
  Co  Co21  1  0.063956  0.250000  0.006786  1
  Co  Co22  1  0.436296  0.250000  0.507134  1
  Co  Co23  1  0.563704  0.750000  0.492866  1
  Bi  Bi24  1  0.930966  0.007703  0.672915  1
  Bi  Bi25  1  0.069034  0.992297  0.327085  1
  Bi  Bi26  1  0.433151  0.991684  0.826807  1
  Bi  Bi27  1  0.069034  0.507703  0.327085  1
  Bi  Bi28  1  0.566849  0.008316  0.173193  1
  Bi  Bi29  1  0.930966  0.492297  0.672915  1
  Bi  Bi30  1  0.566849  0.491684  0.173193  1
  Bi  Bi31  1  0.433151  0.508316  0.826807  1
