# generated using pymatgen
data_Pr5Nd3(TmSn3)2
_symmetry_space_group_name_H-M   'P 1'
_cell_length_a   6.79392102
_cell_length_b   9.25400338
_cell_length_c   9.24738597
_cell_angle_alpha   120.02357099
_cell_angle_beta   89.99648085
_cell_angle_gamma   90.00729016
_symmetry_Int_Tables_number   1
_chemical_formula_structural   Pr5Nd3(TmSn3)2
_chemical_formula_sum   'Pr5 Nd3 Tm2 Sn6'
_cell_volume   503.38069866
_cell_formula_units_Z   1
loop_
 _symmetry_equiv_pos_site_id
 _symmetry_equiv_pos_as_xyz
  1  'x, y, z'
loop_
 _atom_site_type_symbol
 _atom_site_label
 _atom_site_symmetry_multiplicity
 _atom_site_fract_x
 _atom_site_fract_y
 _atom_site_fract_z
 _atom_site_occupancy
  Pr  Pr0  1  0.752409  0.757697  0.757691  1
  Pr  Pr1  1  0.752406  0.000009  0.242312  1
  Pr  Pr2  1  0.247611  0.757488  0.999999  1
  Pr  Pr3  1  0.247590  0.242327  0.242202  1
  Pr  Pr4  1  0.247598  0.000126  0.757793  1
  Nd  Nd5  1  0.500043  0.333299  0.666769  1
  Nd  Nd6  1  0.500044  0.666533  0.333231  1
  Nd  Nd7  1  0.752670  0.242875  0.999998  1
  Tm  Tm8  1  0.999913  0.666550  0.333245  1
  Tm  Tm9  1  0.999910  0.333305  0.666758  1
  Sn  Sn10  1  0.762055  0.601667  0.000000  1
  Sn  Sn11  1  0.762101  0.397578  0.397112  1
  Sn  Sn12  1  0.762108  0.000462  0.602892  1
  Sn  Sn13  1  0.237802  0.397870  0.000000  1
  Sn  Sn14  1  0.237872  0.602176  0.602133  1
  Sn  Sn15  1  0.237869  0.000041  0.397864  1
