# generated using pymatgen
data_Tb2Ce3Al2Os3
_symmetry_space_group_name_H-M   'P 1'
_cell_length_a   8.46282715
_cell_length_b   8.46282697
_cell_length_c   8.46282744
_cell_angle_alpha   110.11148912
_cell_angle_beta   110.11148794
_cell_angle_gamma   110.11149323
_symmetry_Int_Tables_number   1
_chemical_formula_structural   Tb2Ce3Al2Os3
_chemical_formula_sum   'Tb4 Ce6 Al4 Os6'
_cell_volume   455.18225741
_cell_formula_units_Z   2
loop_
 _symmetry_equiv_pos_site_id
 _symmetry_equiv_pos_as_xyz
  1  'x, y, z'
loop_
 _atom_site_type_symbol
 _atom_site_label
 _atom_site_symmetry_multiplicity
 _atom_site_fract_x
 _atom_site_fract_y
 _atom_site_fract_z
 _atom_site_occupancy
  Tb  Tb0  1  0.773768  0.773768  0.773768  1
  Tb  Tb1  1  0.317208  0.569115  0.749857  1
  Tb  Tb2  1  0.749857  0.317208  0.569115  1
  Tb  Tb3  1  0.569115  0.749857  0.317208  1
  Ce  Ce4  1  0.713893  0.508744  0.999409  1
  Ce  Ce5  1  0.999409  0.713893  0.508744  1
  Ce  Ce6  1  0.508744  0.999409  0.713893  1
  Ce  Ce7  1  0.247934  0.187904  0.939352  1
  Ce  Ce8  1  0.939352  0.247934  0.187904  1
  Ce  Ce9  1  0.187904  0.939352  0.247934  1
  Al  Al10  1  0.398772  0.398772  0.398772  1
  Al  Al11  1  0.098764  0.501375  0.001522  1
  Al  Al12  1  0.001522  0.098764  0.501375  1
  Al  Al13  1  0.501375  0.001522  0.098764  1
  Os  Os14  1  0.886353  0.120945  0.750909  1
  Os  Os15  1  0.750909  0.886353  0.120945  1
  Os  Os16  1  0.120945  0.750909  0.886353  1
  Os  Os17  1  0.239826  0.617720  0.376629  1
  Os  Os18  1  0.376629  0.239826  0.617720  1
  Os  Os19  1  0.617720  0.376629  0.239826  1
