# generated using pymatgen
data_Sr6Si7Cl3
_symmetry_space_group_name_H-M   'P 1'
_cell_length_a   17.75569500
_cell_length_b   4.16110300
_cell_length_c   11.76553400
_cell_angle_alpha   90.00000000
_cell_angle_beta   90.00000000
_cell_angle_gamma   90.00000000
_symmetry_Int_Tables_number   1
_chemical_formula_structural   Sr6Si7Cl3
_chemical_formula_sum   'Sr12 Si14 Cl6'
_cell_volume   869.27619265
_cell_formula_units_Z   2
loop_
 _symmetry_equiv_pos_site_id
 _symmetry_equiv_pos_as_xyz
  1  'x, y, z'
loop_
 _atom_site_type_symbol
 _atom_site_label
 _atom_site_symmetry_multiplicity
 _atom_site_fract_x
 _atom_site_fract_y
 _atom_site_fract_z
 _atom_site_occupancy
  Sr  Sr0  1  0.626024  0.249999  0.041195  1
  Sr  Sr1  1  0.873976  0.249999  0.041195  1
  Sr  Sr2  1  0.250000  0.249999  0.322436  1
  Sr  Sr3  1  0.503238  0.249999  0.340089  1
  Sr  Sr4  1  0.996763  0.249999  0.340089  1
  Sr  Sr5  1  0.750000  0.249999  0.367177  1
  Sr  Sr6  1  0.250000  0.750000  0.632824  1
  Sr  Sr7  1  0.003237  0.750000  0.659911  1
  Sr  Sr8  1  0.496763  0.750000  0.659911  1
  Sr  Sr9  1  0.750000  0.750000  0.677565  1
  Sr  Sr10  1  0.126024  0.750000  0.958806  1
  Sr  Sr11  1  0.373976  0.750000  0.958806  1
  Si  Si12  1  0.750000  0.750000  0.159838  1
  Si  Si13  1  0.632328  0.750000  0.252165  1
  Si  Si14  1  0.867672  0.750000  0.252165  1
  Si  Si15  1  0.121996  0.750000  0.436980  1
  Si  Si16  1  0.378004  0.750000  0.436980  1
  Si  Si17  1  0.624887  0.750000  0.456733  1
  Si  Si18  1  0.875113  0.750000  0.456733  1
  Si  Si19  1  0.124887  0.249999  0.543268  1
  Si  Si20  1  0.375113  0.249999  0.543268  1
  Si  Si21  1  0.621996  0.249999  0.563021  1
  Si  Si22  1  0.878004  0.249999  0.563021  1
  Si  Si23  1  0.132328  0.249999  0.747835  1
  Si  Si24  1  0.367672  0.249999  0.747835  1
  Si  Si25  1  0.250000  0.249999  0.840163  1
  Cl  Cl26  1  0.055618  0.249999  0.103029  1
  Cl  Cl27  1  0.444382  0.249999  0.103029  1
  Cl  Cl28  1  0.250000  0.750000  0.138036  1
  Cl  Cl29  1  0.750000  0.249999  0.861963  1
  Cl  Cl30  1  0.555618  0.750000  0.896970  1
  Cl  Cl31  1  0.944382  0.750000  0.896970  1
