# generated using pymatgen
data_Ca2PaSn3IrRh2
_symmetry_space_group_name_H-M   'P 1'
_cell_length_a   7.77760696
_cell_length_b   7.54761711
_cell_length_c   3.92560400
_cell_angle_alpha   90.00000000
_cell_angle_beta   90.00000000
_cell_angle_gamma   120.92955800
_symmetry_Int_Tables_number   1
_chemical_formula_structural   Ca2PaSn3IrRh2
_chemical_formula_sum   'Ca2 Pa1 Sn3 Ir1 Rh2'
_cell_volume   197.67343663
_cell_formula_units_Z   1
loop_
 _symmetry_equiv_pos_site_id
 _symmetry_equiv_pos_as_xyz
  1  'x, y, z'
loop_
 _atom_site_type_symbol
 _atom_site_label
 _atom_site_symmetry_multiplicity
 _atom_site_fract_x
 _atom_site_fract_y
 _atom_site_fract_z
 _atom_site_occupancy
  Ca  Ca0  1  0.405527  0.406487  0.500000  1
  Ca  Ca1  1  0.003801  0.595954  0.500000  1
  Pa  Pa2  1  0.585953  0.999921  0.500000  1
  Sn  Sn3  1  0.239668  0.001232  0.000000  1
  Sn  Sn4  1  0.741861  0.727477  0.000000  1
  Sn  Sn5  1  0.013173  0.271321  0.000000  1
  Ir  Ir6  1  0.373131  0.714206  0.000000  1
  Rh  Rh7  1  0.977912  0.999107  0.500000  1
  Rh  Rh8  1  0.658973  0.284298  0.000000  1
