# generated using pymatgen
data_Tb2LuAl3Ga2Ni
_symmetry_space_group_name_H-M   'P 1'
_cell_length_a   6.93539600
_cell_length_b   6.88585506
_cell_length_c   4.24234600
_cell_angle_alpha   90.00000000
_cell_angle_beta   90.00000000
_cell_angle_gamma   120.23827239
_symmetry_Int_Tables_number   1
_chemical_formula_structural   Tb2LuAl3Ga2Ni
_chemical_formula_sum   'Tb2 Lu1 Al3 Ga2 Ni1'
_cell_volume   175.03226247
_cell_formula_units_Z   1
loop_
 _symmetry_equiv_pos_site_id
 _symmetry_equiv_pos_as_xyz
  1  'x, y, z'
loop_
 _atom_site_type_symbol
 _atom_site_label
 _atom_site_symmetry_multiplicity
 _atom_site_fract_x
 _atom_site_fract_y
 _atom_site_fract_z
 _atom_site_occupancy
  Tb  Tb0  1  0.998874  0.408083  0.500000  1
  Tb  Tb1  1  0.590791  0.591917  0.500000  1
  Lu  Lu2  1  0.405659  0.000000  0.500000  1
  Al  Al3  1  0.767888  0.000000  0.000000  1
  Al  Al4  1  0.001364  0.769915  0.000000  1
  Al  Al5  1  0.231450  0.230085  0.000000  1
  Ga  Ga6  1  0.335420  0.670879  0.000000  1
  Ga  Ga7  1  0.664542  0.329121  0.000000  1
  Ni  Ni8  1  0.004011  0.000000  0.500000  1
