# generated using pymatgen
data_K8Li4Er3LuAs8
_symmetry_space_group_name_H-M   'P 1'
_cell_length_a   10.27422290
_cell_length_b   10.27422281
_cell_length_c   6.71064024
_cell_angle_alpha   90.02342219
_cell_angle_beta   89.97657654
_cell_angle_gamma   98.38192183
_symmetry_Int_Tables_number   1
_chemical_formula_structural   K8Li4Er3LuAs8
_chemical_formula_sum   'K8 Li4 Er3 Lu1 As8'
_cell_volume   700.80619620
_cell_formula_units_Z   1
loop_
 _symmetry_equiv_pos_site_id
 _symmetry_equiv_pos_as_xyz
  1  'x, y, z'
loop_
 _atom_site_type_symbol
 _atom_site_label
 _atom_site_symmetry_multiplicity
 _atom_site_fract_x
 _atom_site_fract_y
 _atom_site_fract_z
 _atom_site_occupancy
  K  K0  1  0.068142  0.431639  0.750182  1
  K  K1  1  0.677837  0.322200  0.789661  1
  K  K2  1  0.322200  0.677837  0.210339  1
  K  K3  1  0.568102  0.931852  0.750089  1
  K  K4  1  0.431639  0.068142  0.249818  1
  K  K5  1  0.931852  0.568102  0.249911  1
  K  K6  1  0.822397  0.177809  0.289453  1
  K  K7  1  0.177809  0.822397  0.710547  1
  Li  Li8  1  0.118501  0.118501  0.500000  1
  Li  Li9  1  0.881632  0.881632  0.500000  1
  Li  Li10  1  0.381242  0.381242  0.000000  1
  Li  Li11  1  0.618448  0.618448  0.000000  1
  Er  Er12  1  0.868728  0.868728  0.000000  1
  Er  Er13  1  0.368065  0.368065  0.500000  1
  Er  Er14  1  0.631768  0.631768  0.500000  1
  Lu  Lu15  1  0.131425  0.131425  0.000000  1
  As  As16  1  0.847824  0.652245  0.749934  1
  As  As17  1  0.095838  0.905926  0.234942  1
  As  As18  1  0.404497  0.595398  0.736134  1
  As  As19  1  0.595398  0.404497  0.263866  1
  As  As20  1  0.652245  0.847824  0.250066  1
  As  As21  1  0.152231  0.346253  0.248256  1
  As  As22  1  0.346253  0.152231  0.751744  1
  As  As23  1  0.905926  0.095838  0.765058  1
