# generated using pymatgen
data_LaY5IrBr10
_symmetry_space_group_name_H-M   'P 1'
_cell_length_a   7.44500680
_cell_length_b   9.35482469
_cell_length_c   9.40246732
_cell_angle_alpha   107.74845804
_cell_angle_beta   95.71552242
_cell_angle_gamma   105.92683197
_symmetry_Int_Tables_number   1
_chemical_formula_structural   LaY5IrBr10
_chemical_formula_sum   'La1 Y5 Ir1 Br10'
_cell_volume   587.61471674
_cell_formula_units_Z   1
loop_
 _symmetry_equiv_pos_site_id
 _symmetry_equiv_pos_as_xyz
  1  'x, y, z'
loop_
 _atom_site_type_symbol
 _atom_site_label
 _atom_site_symmetry_multiplicity
 _atom_site_fract_x
 _atom_site_fract_y
 _atom_site_fract_z
 _atom_site_occupancy
  La  La0  1  0.128660  0.049258  0.751536  1
  Y  Y1  1  0.874661  0.952638  0.236326  1
  Y  Y2  1  0.974533  0.302614  0.100581  1
  Y  Y3  1  0.024714  0.699289  0.906999  1
  Y  Y4  1  0.363093  0.137122  0.176548  1
  Y  Y5  1  0.637446  0.861959  0.821254  1
  Ir  Ir6  1  0.001862  0.001898  0.996126  1
  Br  Br7  1  0.557912  0.177707  0.923079  1
  Br  Br8  1  0.455722  0.827529  0.086090  1
  Br  Br9  1  0.351962  0.450463  0.272241  1
  Br  Br10  1  0.650226  0.549404  0.728881  1
  Br  Br11  1  0.246361  0.079975  0.443080  1
  Br  Br12  1  0.735437  0.912339  0.539816  1
  Br  Br13  1  0.782190  0.250010  0.344757  1
  Br  Br14  1  0.220862  0.734086  0.660317  1
  Br  Br15  1  0.081947  0.381449  0.838897  1
  Br  Br16  1  0.912415  0.632260  0.173472  1
