# generated using pymatgen
data_Tm12Fe3CoSnPt
_symmetry_space_group_name_H-M   'P 1'
_cell_length_a   8.17192767
_cell_length_b   8.17192703
_cell_length_c   8.17192772
_cell_angle_alpha   111.23122291
_cell_angle_beta   111.07433918
_cell_angle_gamma   106.15807706
_symmetry_Int_Tables_number   1
_chemical_formula_structural   Tm12Fe3CoSnPt
_chemical_formula_sum   'Tm12 Fe3 Co1 Sn1 Pt1'
_cell_volume   419.05243575
_cell_formula_units_Z   1
loop_
 _symmetry_equiv_pos_site_id
 _symmetry_equiv_pos_as_xyz
  1  'x, y, z'
loop_
 _atom_site_type_symbol
 _atom_site_label
 _atom_site_symmetry_multiplicity
 _atom_site_fract_x
 _atom_site_fract_y
 _atom_site_fract_z
 _atom_site_occupancy
  Tm  Tm0  1  0.419212  0.218531  0.200681  1
  Tm  Tm1  1  0.580014  0.781398  0.798617  1
  Tm  Tm2  1  0.017850  0.218531  0.799319  1
  Tm  Tm3  1  0.982781  0.781398  0.201383  1
  Tm  Tm4  1  0.187392  0.287441  0.472683  1
  Tm  Tm5  1  0.814758  0.714709  0.527317  1
  Tm  Tm6  1  0.187392  0.714709  0.899951  1
  Tm  Tm7  1  0.814758  0.287441  0.100049  1
  Tm  Tm8  1  0.312276  0.615429  0.303153  1
  Tm  Tm9  1  0.686775  0.383812  0.697038  1
  Tm  Tm10  1  0.312276  0.009122  0.696847  1
  Tm  Tm11  1  0.686775  0.989737  0.302962  1
  Fe  Fe12  1  0.382712  0.000468  0.382245  1
  Fe  Fe13  1  0.618223  0.000468  0.617755  1
  Fe  Fe14  1  0.108558  0.608558  0.500000  1
  Co  Co15  1  0.887414  0.387414  0.500000  1
  Sn  Sn16  1  0.500342  0.500342  0.000000  1
  Pt  Pt17  1  0.000492  0.000492  0.000000  1
