# generated using pymatgen
data_Tb11Ho5Cd4Co3Pd
_symmetry_space_group_name_H-M   'P 1'
_cell_length_a   9.58689526
_cell_length_b   9.58482471
_cell_length_c   9.58484917
_cell_angle_alpha   59.91253072
_cell_angle_beta   59.90305602
_cell_angle_gamma   59.91961000
_symmetry_Int_Tables_number   1
_chemical_formula_structural   Tb11Ho5Cd4Co3Pd
_chemical_formula_sum   'Tb11 Ho5 Cd4 Co3 Pd1'
_cell_volume   621.52977524
_cell_formula_units_Z   1
loop_
 _symmetry_equiv_pos_site_id
 _symmetry_equiv_pos_as_xyz
  1  'x, y, z'
loop_
 _atom_site_type_symbol
 _atom_site_label
 _atom_site_symmetry_multiplicity
 _atom_site_fract_x
 _atom_site_fract_y
 _atom_site_fract_z
 _atom_site_occupancy
  Tb  Tb0  1  0.814357  0.187703  0.814497  1
  Tb  Tb1  1  0.438527  0.049642  0.438487  1
  Tb  Tb2  1  0.605046  0.204127  0.605334  1
  Tb  Tb3  1  0.814426  0.814319  0.188045  1
  Tb  Tb4  1  0.204011  0.605505  0.604477  1
  Tb  Tb5  1  0.811790  0.188464  0.188366  1
  Tb  Tb6  1  0.049426  0.438615  0.438893  1
  Tb  Tb7  1  0.188519  0.812489  0.187320  1
  Tb  Tb8  1  0.604344  0.605578  0.203975  1
  Tb  Tb9  1  0.188436  0.187388  0.812517  1
  Tb  Tb10  1  0.062351  0.435566  0.061189  1
  Ho  Ho11  1  0.439214  0.439065  0.049215  1
  Ho  Ho12  1  0.593954  0.594324  0.595330  1
  Ho  Ho13  1  0.188504  0.813773  0.814039  1
  Ho  Ho14  1  0.061790  0.060809  0.436200  1
  Ho  Ho15  1  0.436191  0.061641  0.061483  1
  Cd  Cd16  1  0.829518  0.829565  0.508249  1
  Cd  Cd17  1  0.831315  0.831173  0.830629  1
  Cd  Cd18  1  0.507495  0.829395  0.829795  1
  Cd  Cd19  1  0.829152  0.508066  0.829605  1
  Co  Co20  1  0.826398  0.391506  0.391965  1
  Co  Co21  1  0.390983  0.826633  0.392115  1
  Co  Co22  1  0.391526  0.392093  0.826669  1
  Pd  Pd23  1  0.392727  0.392561  0.391606  1
