# generated using pymatgen
data_Ba12Sn11BiAu12
_symmetry_space_group_name_H-M   'P 1'
_cell_length_a   5.05895000
_cell_length_b   8.55093821
_cell_length_c   25.31135457
_cell_angle_alpha   90.14013842
_cell_angle_beta   90.00000000
_cell_angle_gamma   90.00000000
_symmetry_Int_Tables_number   1
_chemical_formula_structural   Ba12Sn11BiAu12
_chemical_formula_sum   'Ba12 Sn11 Bi1 Au12'
_cell_volume   1094.93476138
_cell_formula_units_Z   1
loop_
 _symmetry_equiv_pos_site_id
 _symmetry_equiv_pos_as_xyz
  1  'x, y, z'
loop_
 _atom_site_type_symbol
 _atom_site_label
 _atom_site_symmetry_multiplicity
 _atom_site_fract_x
 _atom_site_fract_y
 _atom_site_fract_z
 _atom_site_occupancy
  Ba  Ba0  1  0.750000  0.223225  0.496955  1
  Ba  Ba1  1  0.250000  0.794070  0.165854  1
  Ba  Ba2  1  0.250000  0.785434  0.500907  1
  Ba  Ba3  1  0.250000  0.792500  0.833731  1
  Ba  Ba4  1  0.250000  0.709397  0.332919  1
  Ba  Ba5  1  0.750000  0.205569  0.834649  1
  Ba  Ba6  1  0.750000  0.292075  0.997615  1
  Ba  Ba7  1  0.750000  0.291500  0.668450  1
  Ba  Ba8  1  0.750000  0.295887  0.332994  1
  Ba  Ba9  1  0.250000  0.704939  0.667492  1
  Ba  Ba10  1  0.250000  0.707431  0.002715  1
  Ba  Ba11  1  0.750000  0.207107  0.166484  1
  Sn  Sn12  1  0.250000  0.083654  0.394620  1
  Sn  Sn13  1  0.250000  0.085317  0.062929  1
  Sn  Sn14  1  0.250000  0.417996  0.896246  1
  Sn  Sn15  1  0.750000  0.581636  0.104090  1
  Sn  Sn16  1  0.250000  0.417686  0.772614  1
  Sn  Sn17  1  0.750000  0.582039  0.227743  1
  Sn  Sn18  1  0.750000  0.589392  0.433982  1
  Sn  Sn19  1  0.750000  0.913768  0.938029  1
  Sn  Sn20  1  0.250000  0.081899  0.271139  1
  Sn  Sn21  1  0.750000  0.913729  0.604395  1
  Sn  Sn22  1  0.750000  0.917502  0.729987  1
  Bi  Bi23  1  0.250000  0.404480  0.574023  1
  Au  Au24  1  0.250000  0.066098  0.595524  1
  Au  Au25  1  0.250000  0.084996  0.741896  1
  Au  Au26  1  0.750000  0.586024  0.907344  1
  Au  Au27  1  0.750000  0.915720  0.405717  1
  Au  Au28  1  0.750000  0.600053  0.563520  1
  Au  Au29  1  0.750000  0.585254  0.760684  1
  Au  Au30  1  0.250000  0.419397  0.423316  1
  Au  Au31  1  0.250000  0.416407  0.239323  1
  Au  Au32  1  0.750000  0.919944  0.066541  1
  Au  Au33  1  0.250000  0.413233  0.093081  1
  Au  Au34  1  0.250000  0.079779  0.933848  1
  Au  Au35  1  0.750000  0.914867  0.258644  1
