# generated using pymatgen
data_BaIn2AgGe
_symmetry_space_group_name_H-M   'P 1'
_cell_length_a   6.92635959
_cell_length_b   6.92635956
_cell_length_c   6.92635931
_cell_angle_alpha   139.93197446
_cell_angle_beta   139.93197629
_cell_angle_gamma   57.95659794
_symmetry_Int_Tables_number   1
_chemical_formula_structural   BaIn2AgGe
_chemical_formula_sum   'Ba1 In2 Ag1 Ge1'
_cell_volume   136.45962809
_cell_formula_units_Z   1
loop_
 _symmetry_equiv_pos_site_id
 _symmetry_equiv_pos_as_xyz
  1  'x, y, z'
loop_
 _atom_site_type_symbol
 _atom_site_label
 _atom_site_symmetry_multiplicity
 _atom_site_fract_x
 _atom_site_fract_y
 _atom_site_fract_z
 _atom_site_occupancy
  Ba  Ba0  1  0.002677  0.002677  0.000000  1
  In  In1  1  0.252232  0.752232  0.500000  1
  In  In2  1  0.752232  0.252232  0.500000  1
  Ag  Ag3  1  0.386102  0.386102  0.000000  1
  Ge  Ge4  1  0.606756  0.606756  0.000000  1
