# generated using pymatgen
data_CaInNi5
_symmetry_space_group_name_H-M   'P 1'
_cell_length_a   10.26287776
_cell_length_b   10.26287761
_cell_length_c   10.26287704
_cell_angle_alpha   27.48836931
_cell_angle_beta   27.48836843
_cell_angle_gamma   27.48836638
_symmetry_Int_Tables_number   1
_chemical_formula_structural   CaInNi5
_chemical_formula_sum   'Ca2 In2 Ni10'
_cell_volume   203.26071071
_cell_formula_units_Z   2
loop_
 _symmetry_equiv_pos_site_id
 _symmetry_equiv_pos_as_xyz
  1  'x, y, z'
loop_
 _atom_site_type_symbol
 _atom_site_label
 _atom_site_symmetry_multiplicity
 _atom_site_fract_x
 _atom_site_fract_y
 _atom_site_fract_z
 _atom_site_occupancy
  Ca  Ca0  1  0.000000  0.000000  0.000000  1
  Ca  Ca1  1  0.500000  0.500000  0.500000  1
  In  In2  1  0.110529  0.110529  0.110529  1
  In  In3  1  0.889471  0.889471  0.889471  1
  Ni  Ni4  1  0.333507  0.333507  0.333507  1
  Ni  Ni5  1  0.566590  0.566590  0.069128  1
  Ni  Ni6  1  0.069128  0.566590  0.566590  1
  Ni  Ni7  1  0.566590  0.069128  0.566590  1
  Ni  Ni8  1  0.801136  0.801136  0.801136  1
  Ni  Ni9  1  0.198864  0.198864  0.198864  1
  Ni  Ni10  1  0.433410  0.930872  0.433410  1
  Ni  Ni11  1  0.930872  0.433410  0.433410  1
  Ni  Ni12  1  0.433410  0.433410  0.930872  1
  Ni  Ni13  1  0.666493  0.666493  0.666493  1
