# generated using pymatgen
data_Pr3NbZn2Ir3
_symmetry_space_group_name_H-M   'P 1'
_cell_length_a   7.27195030
_cell_length_b   7.04531340
_cell_length_c   4.32623500
_cell_angle_alpha   90.00000000
_cell_angle_beta   90.00000000
_cell_angle_gamma   118.97427416
_symmetry_Int_Tables_number   1
_chemical_formula_structural   Pr3NbZn2Ir3
_chemical_formula_sum   'Pr3 Nb1 Zn2 Ir3'
_cell_volume   193.90482524
_cell_formula_units_Z   1
loop_
 _symmetry_equiv_pos_site_id
 _symmetry_equiv_pos_as_xyz
  1  'x, y, z'
loop_
 _atom_site_type_symbol
 _atom_site_label
 _atom_site_symmetry_multiplicity
 _atom_site_fract_x
 _atom_site_fract_y
 _atom_site_fract_z
 _atom_site_occupancy
  Pr  Pr0  1  0.568037  0.581363  0.000000  1
  Pr  Pr1  1  0.431963  0.013325  0.000000  1
  Pr  Pr2  1  0.000000  0.393948  0.000000  1
  Nb  Nb3  1  0.000000  0.763955  0.500000  1
  Zn  Zn4  1  0.236592  0.237366  0.500000  1
  Zn  Zn5  1  0.763408  0.000774  0.500000  1
  Ir  Ir6  1  0.000000  0.965887  0.000000  1
  Ir  Ir7  1  0.686415  0.364898  0.500000  1
  Ir  Ir8  1  0.313585  0.678484  0.500000  1
