# generated using pymatgen
data_NiRu2F12
_symmetry_space_group_name_H-M   'P 1'
_cell_length_a   5.48603558
_cell_length_b   11.09158869
_cell_length_c   5.49066068
_cell_angle_alpha   57.65128718
_cell_angle_beta   57.44188518
_cell_angle_gamma   58.02117290
_symmetry_Int_Tables_number   1
_chemical_formula_structural   NiRu2F12
_chemical_formula_sum   'Ni1 Ru2 F12'
_cell_volume   223.77426794
_cell_formula_units_Z   1
loop_
 _symmetry_equiv_pos_site_id
 _symmetry_equiv_pos_as_xyz
  1  'x, y, z'
loop_
 _atom_site_type_symbol
 _atom_site_label
 _atom_site_symmetry_multiplicity
 _atom_site_fract_x
 _atom_site_fract_y
 _atom_site_fract_z
 _atom_site_occupancy
  Ni  Ni0  1  0.500000  0.750000  0.500000  1
  Ru  Ru1  1  0.006202  0.000184  0.993974  1
  Ru  Ru2  1  0.993798  0.499816  0.006026  1
  F  F3  1  0.351629  0.056769  0.769561  1
  F  F4  1  0.343381  0.573030  0.756961  1
  F  F5  1  0.120719  0.390565  0.340232  1
  F  F6  1  0.140677  0.873969  0.350356  1
  F  F7  1  0.225167  0.339020  0.864793  1
  F  F8  1  0.242903  0.822803  0.864067  1
  F  F9  1  0.879281  0.109435  0.659768  1
  F  F10  1  0.859323  0.626031  0.649644  1
  F  F11  1  0.648371  0.443231  0.230439  1
  F  F12  1  0.656619  0.926970  0.243039  1
  F  F13  1  0.774833  0.160980  0.135207  1
  F  F14  1  0.757097  0.677197  0.135933  1
