# generated using pymatgen
data_CeTh3(AlOs)4
_symmetry_space_group_name_H-M   'P 1'
_cell_length_a   4.04638100
_cell_length_b   7.11176981
_cell_length_c   8.42323300
_cell_angle_alpha   90.53221019
_cell_angle_beta   90.00000000
_cell_angle_gamma   90.00000000
_symmetry_Int_Tables_number   1
_chemical_formula_structural   CeTh3(AlOs)4
_chemical_formula_sum   'Ce1 Th3 Al4 Os4'
_cell_volume   242.38433121
_cell_formula_units_Z   1
loop_
 _symmetry_equiv_pos_site_id
 _symmetry_equiv_pos_as_xyz
  1  'x, y, z'
loop_
 _atom_site_type_symbol
 _atom_site_label
 _atom_site_symmetry_multiplicity
 _atom_site_fract_x
 _atom_site_fract_y
 _atom_site_fract_z
 _atom_site_occupancy
  Ce  Ce0  1  0.250000  0.535214  0.186856  1
  Th  Th1  1  0.750000  0.464014  0.817043  1
  Th  Th2  1  0.250000  0.036354  0.313948  1
  Th  Th3  1  0.750000  0.962872  0.684801  1
  Al  Al4  1  0.250000  0.629560  0.554297  1
  Al  Al5  1  0.250000  0.132718  0.944590  1
  Al  Al6  1  0.750000  0.370784  0.442010  1
  Al  Al7  1  0.750000  0.865167  0.057682  1
  Os  Os8  1  0.250000  0.762375  0.874566  1
  Os  Os9  1  0.250000  0.261717  0.625122  1
  Os  Os10  1  0.750000  0.737556  0.371993  1
  Os  Os11  1  0.750000  0.241667  0.127092  1
