# generated using pymatgen
data_Y6HoCo2(P4Rh5)3
_symmetry_space_group_name_H-M   'P 1'
_cell_length_a   3.90017000
_cell_length_b   11.18764000
_cell_length_c   12.90187100
_cell_angle_alpha   90.00000000
_cell_angle_beta   90.00000000
_cell_angle_gamma   90.00000000
_symmetry_Int_Tables_number   1
_chemical_formula_structural   Y6HoCo2(P4Rh5)3
_chemical_formula_sum   'Y6 Ho1 Co2 P12 Rh15'
_cell_volume   562.95634154
_cell_formula_units_Z   1
loop_
 _symmetry_equiv_pos_site_id
 _symmetry_equiv_pos_as_xyz
  1  'x, y, z'
loop_
 _atom_site_type_symbol
 _atom_site_label
 _atom_site_symmetry_multiplicity
 _atom_site_fract_x
 _atom_site_fract_y
 _atom_site_fract_z
 _atom_site_occupancy
  Y  Y0  1  0.000000  0.500000  0.523568  1
  Y  Y1  1  0.500000  0.000000  0.477119  1
  Y  Y2  1  0.500000  0.819464  0.203365  1
  Y  Y3  1  0.500000  0.180536  0.203365  1
  Y  Y4  1  0.000000  0.681678  0.799536  1
  Y  Y5  1  0.000000  0.318322  0.799536  1
  Ho  Ho6  1  0.500000  0.500000  0.154465  1
  Co  Co7  1  0.000000  0.500000  0.983063  1
  Co  Co8  1  0.500000  0.000000  0.019807  1
  P  P9  1  0.500000  0.500000  0.882687  1
  P  P10  1  0.000000  0.000000  0.119010  1
  P  P11  1  0.500000  0.500000  0.363529  1
  P  P12  1  0.000000  0.000000  0.648545  1
  P  P13  1  0.500000  0.314664  0.619963  1
  P  P14  1  0.500000  0.685336  0.619963  1
  P  P15  1  0.000000  0.185377  0.383563  1
  P  P16  1  0.000000  0.814623  0.383563  1
  P  P17  1  0.500000  0.858154  0.891428  1
  P  P18  1  0.500000  0.141846  0.891428  1
  P  P19  1  0.000000  0.661204  0.100193  1
  P  P20  1  0.000000  0.338796  0.100193  1
  Rh  Rh21  1  0.000000  0.000000  0.829483  1
  Rh  Rh22  1  0.500000  0.500000  0.703727  1
  Rh  Rh23  1  0.000000  0.000000  0.297392  1
  Rh  Rh24  1  0.500000  0.328170  0.986012  1
  Rh  Rh25  1  0.500000  0.671830  0.986012  1
  Rh  Rh26  1  0.000000  0.158607  0.004220  1
  Rh  Rh27  1  0.000000  0.841393  0.004220  1
  Rh  Rh28  1  0.500000  0.288889  0.435117  1
  Rh  Rh29  1  0.500000  0.711111  0.435117  1
  Rh  Rh30  1  0.000000  0.204496  0.572500  1
  Rh  Rh31  1  0.000000  0.795504  0.572500  1
  Rh  Rh32  1  0.500000  0.875085  0.710375  1
  Rh  Rh33  1  0.500000  0.124915  0.710375  1
  Rh  Rh34  1  0.000000  0.628789  0.292530  1
  Rh  Rh35  1  0.000000  0.371211  0.292530  1
