# generated using pymatgen
data_Tm12CoTc3
_symmetry_space_group_name_H-M   'P 1'
_cell_length_a   7.24465101
_cell_length_b   9.02032500
_cell_length_c   6.18194100
_cell_angle_alpha   90.00000000
_cell_angle_beta   89.99713087
_cell_angle_gamma   90.00000000
_symmetry_Int_Tables_number   1
_chemical_formula_structural   Tm12CoTc3
_chemical_formula_sum   'Tm12 Co1 Tc3'
_cell_volume   403.98432091
_cell_formula_units_Z   1
loop_
 _symmetry_equiv_pos_site_id
 _symmetry_equiv_pos_as_xyz
  1  'x, y, z'
loop_
 _atom_site_type_symbol
 _atom_site_label
 _atom_site_symmetry_multiplicity
 _atom_site_fract_x
 _atom_site_fract_y
 _atom_site_fract_z
 _atom_site_occupancy
  Tm  Tm0  1  0.047935  0.250001  0.124496  1
  Tm  Tm1  1  0.322079  0.563482  0.168794  1
  Tm  Tm2  1  0.322079  0.936519  0.168794  1
  Tm  Tm3  1  0.824458  0.560889  0.337198  1
  Tm  Tm4  1  0.824458  0.939112  0.337198  1
  Tm  Tm5  1  0.541539  0.250001  0.359746  1
  Tm  Tm6  1  0.460559  0.750000  0.625815  1
  Tm  Tm7  1  0.178534  0.062548  0.667218  1
  Tm  Tm8  1  0.178534  0.437452  0.667218  1
  Tm  Tm9  1  0.672873  0.064137  0.835626  1
  Tm  Tm10  1  0.672873  0.435863  0.835626  1
  Tm  Tm11  1  0.959340  0.750000  0.874597  1
  Co  Co12  1  0.383419  0.250001  0.961537  1
  Tc  Tc13  1  0.611356  0.750000  0.039831  1
  Tc  Tc14  1  0.113656  0.750000  0.459840  1
  Tc  Tc15  1  0.886305  0.250001  0.536463  1
