# generated using pymatgen
data_CeTm5Al18
_symmetry_space_group_name_H-M   'P 1'
_cell_length_a   14.52397802
_cell_length_b   14.52397852
_cell_length_c   14.52397964
_cell_angle_alpha   24.39060657
_cell_angle_beta   24.39060199
_cell_angle_gamma   24.39060402
_symmetry_Int_Tables_number   1
_chemical_formula_structural   CeTm5Al18
_chemical_formula_sum   'Ce1 Tm5 Al18'
_cell_volume   459.30217520
_cell_formula_units_Z   1
loop_
 _symmetry_equiv_pos_site_id
 _symmetry_equiv_pos_as_xyz
  1  'x, y, z'
loop_
 _atom_site_type_symbol
 _atom_site_label
 _atom_site_symmetry_multiplicity
 _atom_site_fract_x
 _atom_site_fract_y
 _atom_site_fract_z
 _atom_site_occupancy
  Ce  Ce0  1  0.109036  0.109036  0.109036  1
  Tm  Tm1  1  0.891183  0.891183  0.891183  1
  Tm  Tm2  1  0.390663  0.390663  0.390663  1
  Tm  Tm3  1  0.999618  0.999618  0.999618  1
  Tm  Tm4  1  0.499990  0.499990  0.499990  1
  Tm  Tm5  1  0.609267  0.609267  0.609267  1
  Al  Al6  1  0.922164  0.372171  0.372171  1
  Al  Al7  1  0.420952  0.871064  0.871064  1
  Al  Al8  1  0.372171  0.372171  0.922164  1
  Al  Al9  1  0.871064  0.871064  0.420952  1
  Al  Al10  1  0.372171  0.922164  0.372171  1
  Al  Al11  1  0.871064  0.420952  0.871064  1
  Al  Al12  1  0.578374  0.128241  0.128241  1
  Al  Al13  1  0.079788  0.627613  0.627613  1
  Al  Al14  1  0.128241  0.128241  0.578374  1
  Al  Al15  1  0.627613  0.627613  0.079788  1
  Al  Al16  1  0.128241  0.578374  0.128241  1
  Al  Al17  1  0.627613  0.079788  0.627613  1
  Al  Al18  1  0.498988  0.498988  0.000999  1
  Al  Al19  1  0.001213  0.001213  0.499384  1
  Al  Al20  1  0.498988  0.000999  0.498988  1
  Al  Al21  1  0.001213  0.499384  0.001213  1
  Al  Al22  1  0.000999  0.498988  0.498988  1
  Al  Al23  1  0.499384  0.001213  0.001213  1
