# generated using pymatgen
data_Pr4TmSi12Ir19
_symmetry_space_group_name_H-M   'P 1'
_cell_length_a   12.92408000
_cell_length_b   12.92408035
_cell_length_c   4.02692700
_cell_angle_alpha   90.00000000
_cell_angle_beta   90.00000000
_cell_angle_gamma   119.99999911
_symmetry_Int_Tables_number   1
_chemical_formula_structural   Pr4TmSi12Ir19
_chemical_formula_sum   'Pr4 Tm1 Si12 Ir19'
_cell_volume   582.51039425
_cell_formula_units_Z   1
loop_
 _symmetry_equiv_pos_site_id
 _symmetry_equiv_pos_as_xyz
  1  'x, y, z'
loop_
 _atom_site_type_symbol
 _atom_site_label
 _atom_site_symmetry_multiplicity
 _atom_site_fract_x
 _atom_site_fract_y
 _atom_site_fract_z
 _atom_site_occupancy
  Pr  Pr0  1  0.333333  0.666667  0.500000  1
  Pr  Pr1  1  0.000326  0.814478  0.000000  1
  Pr  Pr2  1  0.185522  0.185847  0.000000  1
  Pr  Pr3  1  0.814153  0.999674  0.000000  1
  Tm  Tm4  1  0.666667  0.333333  0.500000  1
  Si  Si5  1  0.000023  0.629314  0.500000  1
  Si  Si6  1  0.370686  0.370708  0.500000  1
  Si  Si7  1  0.629292  0.999977  0.500000  1
  Si  Si8  1  0.520922  0.688507  0.000000  1
  Si  Si9  1  0.311493  0.832414  0.000000  1
  Si  Si10  1  0.167586  0.479078  0.000000  1
  Si  Si11  1  0.482610  0.171839  0.000000  1
  Si  Si12  1  0.689230  0.517390  0.000000  1
  Si  Si13  1  0.828161  0.310770  0.000000  1
  Si  Si14  1  0.998649  0.183984  0.500000  1
  Si  Si15  1  0.816016  0.814664  0.500000  1
  Si  Si16  1  0.185336  0.001351  0.500000  1
  Ir  Ir17  1  0.513403  0.875663  0.000000  1
  Ir  Ir18  1  0.124337  0.637740  0.000000  1
  Ir  Ir19  1  0.362260  0.486597  0.000000  1
  Ir  Ir20  1  0.490497  0.363091  0.000000  1
  Ir  Ir21  1  0.872594  0.509503  0.000000  1
  Ir  Ir22  1  0.636909  0.127406  0.000000  1
  Ir  Ir23  1  0.000069  0.446887  0.500000  1
  Ir  Ir24  1  0.553113  0.553182  0.500000  1
  Ir  Ir25  1  0.446818  0.999931  0.500000  1
  Ir  Ir26  1  0.998245  0.284913  0.000000  1
  Ir  Ir27  1  0.715087  0.713332  0.000000  1
  Ir  Ir28  1  0.286668  0.001755  0.000000  1
  Ir  Ir29  1  0.621984  0.803863  0.500000  1
  Ir  Ir30  1  0.196137  0.818120  0.500000  1
  Ir  Ir31  1  0.181880  0.378016  0.500000  1
  Ir  Ir32  1  0.381472  0.184424  0.500000  1
  Ir  Ir33  1  0.802951  0.618528  0.500000  1
  Ir  Ir34  1  0.815576  0.197049  0.500000  1
  Ir  Ir35  1  0.000000  0.000000  0.500000  1
