# generated using pymatgen
data_Sr4ScMnO8
_symmetry_space_group_name_H-M   'P 1'
_cell_length_a   6.94958669
_cell_length_b   6.94958643
_cell_length_c   5.60531100
_cell_angle_alpha   90.00000000
_cell_angle_beta   90.00000000
_cell_angle_gamma   132.44567039
_symmetry_Int_Tables_number   1
_chemical_formula_structural   Sr4ScMnO8
_chemical_formula_sum   'Sr4 Sc1 Mn1 O8'
_cell_volume   199.76782082
_cell_formula_units_Z   1
loop_
 _symmetry_equiv_pos_site_id
 _symmetry_equiv_pos_as_xyz
  1  'x, y, z'
loop_
 _atom_site_type_symbol
 _atom_site_label
 _atom_site_symmetry_multiplicity
 _atom_site_fract_x
 _atom_site_fract_y
 _atom_site_fract_z
 _atom_site_occupancy
  Sr  Sr0  1  0.644512  0.355488  0.000000  1
  Sr  Sr1  1  0.142311  0.857689  0.500000  1
  Sr  Sr2  1  0.857689  0.142311  0.500000  1
  Sr  Sr3  1  0.355488  0.644512  0.000000  1
  Sc  Sc4  1  0.500000  0.500000  0.500000  1
  Mn  Mn5  1  0.000000  0.000000  0.000000  1
  O  O6  1  0.759622  0.759622  0.761163  1
  O  O7  1  0.240378  0.240378  0.238837  1
  O  O8  1  0.240378  0.240378  0.761163  1
  O  O9  1  0.759622  0.759622  0.238837  1
  O  O10  1  0.843622  0.156378  0.000000  1
  O  O11  1  0.333696  0.666304  0.500000  1
  O  O12  1  0.666304  0.333696  0.500000  1
  O  O13  1  0.156378  0.843622  0.000000  1
