# generated using pymatgen
data_Hf4ScH8
_symmetry_space_group_name_H-M   'P 1'
_cell_length_a   5.78869365
_cell_length_b   5.78875124
_cell_length_c   5.78873954
_cell_angle_alpha   99.18317769
_cell_angle_beta   99.18892938
_cell_angle_gamma   132.89978400
_symmetry_Int_Tables_number   1
_chemical_formula_structural   Hf4ScH8
_chemical_formula_sum   'Hf4 Sc1 H8'
_cell_volume   130.26163060
_cell_formula_units_Z   1
loop_
 _symmetry_equiv_pos_site_id
 _symmetry_equiv_pos_as_xyz
  1  'x, y, z'
loop_
 _atom_site_type_symbol
 _atom_site_label
 _atom_site_symmetry_multiplicity
 _atom_site_fract_x
 _atom_site_fract_y
 _atom_site_fract_z
 _atom_site_occupancy
  Hf  Hf0  1  0.406960  0.811904  0.218869  1
  Hf  Hf1  1  0.811911  0.593038  0.404948  1
  Hf  Hf2  1  0.188090  0.406963  0.595053  1
  Hf  Hf3  1  0.593041  0.188097  0.781132  1
  Sc  Sc4  1  0.000000  0.000000  0.000000  1
  H  H5  1  0.455102  0.152203  0.098422  1
  H  H6  1  0.946229  0.643321  0.098429  1
  H  H7  1  0.356682  0.455102  0.302907  1
  H  H8  1  0.847793  0.946221  0.302900  1
  H  H9  1  0.152208  0.053779  0.697101  1
  H  H10  1  0.643319  0.544898  0.697094  1
  H  H11  1  0.053771  0.356680  0.901571  1
  H  H12  1  0.544898  0.847798  0.901578  1
