# generated using pymatgen
data_Tb9Ce8Ho3(CoBi2)4
_symmetry_space_group_name_H-M   'P 1'
_cell_length_a   7.95240335
_cell_length_b   9.10021200
_cell_length_c   12.23466055
_cell_angle_alpha   90.00000000
_cell_angle_beta   89.96586771
_cell_angle_gamma   90.00000000
_symmetry_Int_Tables_number   1
_chemical_formula_structural   Tb9Ce8Ho3(CoBi2)4
_chemical_formula_sum   'Tb9 Ce8 Ho3 Co4 Bi8'
_cell_volume   885.40456466
_cell_formula_units_Z   1
loop_
 _symmetry_equiv_pos_site_id
 _symmetry_equiv_pos_as_xyz
  1  'x, y, z'
loop_
 _atom_site_type_symbol
 _atom_site_label
 _atom_site_symmetry_multiplicity
 _atom_site_fract_x
 _atom_site_fract_y
 _atom_site_fract_z
 _atom_site_occupancy
  Tb  Tb0  1  0.663188  0.750000  0.290364  1
  Tb  Tb1  1  0.366277  0.750000  0.701250  1
  Tb  Tb2  1  0.633725  0.250000  0.298746  1
  Tb  Tb3  1  0.866308  0.250000  0.798741  1
  Tb  Tb4  1  0.133916  0.750000  0.201244  1
  Tb  Tb5  1  0.979617  0.750000  0.500135  1
  Tb  Tb6  1  0.020747  0.250000  0.499992  1
  Tb  Tb7  1  0.479233  0.250000  0.999958  1
  Tb  Tb8  1  0.520556  0.750000  0.999906  1
  Ce  Ce9  1  0.655414  0.013034  0.551150  1
  Ce  Ce10  1  0.344604  0.987241  0.448934  1
  Ce  Ce11  1  0.155415  0.987173  0.948890  1
  Ce  Ce12  1  0.344604  0.512759  0.448934  1
  Ce  Ce13  1  0.844535  0.012993  0.051122  1
  Ce  Ce14  1  0.655414  0.486966  0.551150  1
  Ce  Ce15  1  0.844535  0.487007  0.051122  1
  Ce  Ce16  1  0.155415  0.512827  0.948890  1
  Ho  Ho17  1  0.836282  0.750000  0.790423  1
  Ho  Ho18  1  0.163701  0.250000  0.209531  1
  Ho  Ho19  1  0.336263  0.250000  0.709583  1
  Co  Co20  1  0.630504  0.750000  0.539319  1
  Co  Co21  1  0.369611  0.250000  0.461217  1
  Co  Co22  1  0.130381  0.250000  0.961180  1
  Co  Co23  1  0.869733  0.750000  0.038572  1
  Bi  Bi24  1  0.566150  0.494228  0.825055  1
  Bi  Bi25  1  0.433469  0.505365  0.174688  1
  Bi  Bi26  1  0.066128  0.505773  0.674934  1
  Bi  Bi27  1  0.433469  0.994635  0.174688  1
  Bi  Bi28  1  0.934263  0.493871  0.325147  1
  Bi  Bi29  1  0.566150  0.005772  0.825055  1
  Bi  Bi30  1  0.934263  0.006129  0.325147  1
  Bi  Bi31  1  0.066128  0.994227  0.674934  1
