# generated using pymatgen
data_LaPr2Al12RuRh3
_symmetry_space_group_name_H-M   'P 1'
_cell_length_a   8.93724300
_cell_length_b   8.95767221
_cell_length_c   9.68358700
_cell_angle_alpha   90.00000000
_cell_angle_beta   90.00000000
_cell_angle_gamma   119.92457466
_symmetry_Int_Tables_number   1
_chemical_formula_structural   LaPr2Al12RuRh3
_chemical_formula_sum   'La2 Pr4 Al24 Ru2 Rh6'
_cell_volume   671.88539497
_cell_formula_units_Z   2
loop_
 _symmetry_equiv_pos_site_id
 _symmetry_equiv_pos_as_xyz
  1  'x, y, z'
loop_
 _atom_site_type_symbol
 _atom_site_label
 _atom_site_symmetry_multiplicity
 _atom_site_fract_x
 _atom_site_fract_y
 _atom_site_fract_z
 _atom_site_occupancy
  La  La0  1  0.190116  0.380231  0.250000  1
  La  La1  1  0.809884  0.619769  0.750000  1
  Pr  Pr2  1  0.619297  0.809782  0.250000  1
  Pr  Pr3  1  0.380703  0.190218  0.750000  1
  Pr  Pr4  1  0.190486  0.809782  0.250000  1
  Pr  Pr5  1  0.809514  0.190218  0.750000  1
  Al  Al6  1  0.334017  0.668036  0.018843  1
  Al  Al7  1  0.665983  0.331964  0.981157  1
  Al  Al8  1  0.665983  0.331964  0.518843  1
  Al  Al9  1  0.334017  0.668036  0.481157  1
  Al  Al10  1  0.163213  0.326425  0.575238  1
  Al  Al11  1  0.836787  0.673575  0.424762  1
  Al  Al12  1  0.673232  0.836865  0.575331  1
  Al  Al13  1  0.836787  0.673575  0.075238  1
  Al  Al14  1  0.326768  0.163135  0.424669  1
  Al  Al15  1  0.163213  0.326425  0.924762  1
  Al  Al16  1  0.163634  0.836865  0.575331  1
  Al  Al17  1  0.326768  0.163135  0.075331  1
  Al  Al18  1  0.836366  0.163135  0.424669  1
  Al  Al19  1  0.673232  0.836865  0.924669  1
  Al  Al20  1  0.836366  0.163135  0.075331  1
  Al  Al21  1  0.163634  0.836865  0.924669  1
  Al  Al22  1  0.562982  0.125963  0.250000  1
  Al  Al23  1  0.437018  0.874037  0.750000  1
  Al  Al24  1  0.873243  0.436694  0.250000  1
  Al  Al25  1  0.126757  0.563306  0.750000  1
  Al  Al26  1  0.563452  0.436694  0.250000  1
  Al  Al27  1  0.436548  0.563306  0.750000  1
  Al  Al28  1  0.999894  0.999788  0.250000  1
  Al  Al29  1  0.000106  0.000212  0.750000  1
  Ru  Ru30  1  0.000000  0.000000  0.000000  1
  Ru  Ru31  1  0.000000  0.000000  0.500000  1
  Rh  Rh32  1  0.500000  0.000000  0.000000  1
  Rh  Rh33  1  0.000000  0.500000  0.000000  1
  Rh  Rh34  1  0.500000  0.000000  0.500000  1
  Rh  Rh35  1  0.500000  0.500000  0.000000  1
  Rh  Rh36  1  0.000000  0.500000  0.500000  1
  Rh  Rh37  1  0.500000  0.500000  0.500000  1
