# generated using pymatgen
data_Cs2Te3RhO12
_symmetry_space_group_name_H-M   'P 1'
_cell_length_a   7.25751226
_cell_length_b   7.36299762
_cell_length_c   7.25043845
_cell_angle_alpha   90.00000315
_cell_angle_beta   61.02519502
_cell_angle_gamma   120.48197121
_symmetry_Int_Tables_number   1
_chemical_formula_structural   Cs2Te3RhO12
_chemical_formula_sum   'Cs2 Te3 Rh1 O12'
_cell_volume   276.14926018
_cell_formula_units_Z   1
loop_
 _symmetry_equiv_pos_site_id
 _symmetry_equiv_pos_as_xyz
  1  'x, y, z'
loop_
 _atom_site_type_symbol
 _atom_site_label
 _atom_site_symmetry_multiplicity
 _atom_site_fract_x
 _atom_site_fract_y
 _atom_site_fract_z
 _atom_site_occupancy
  Cs  Cs0  1  0.257071  0.125884  0.628467  1
  Cs  Cs1  1  0.742929  0.868813  0.371533  1
  Te  Te2  1  0.499933  0.497274  0.999993  1
  Te  Te3  1  0.500067  0.997341  0.000007  1
  Te  Te4  1  0.000000  0.497286  0.500000  1
  Rh  Rh5  1  0.000000  0.497279  0.000000  1
  O  O6  1  0.643988  0.819305  0.930612  1
  O  O7  1  0.852190  0.423478  0.327786  1
  O  O8  1  0.253638  0.423598  0.925994  1
  O  O9  1  0.252485  0.819204  0.322058  1
  O  O10  1  0.253602  0.824754  0.925985  1
  O  O11  1  0.252505  0.427928  0.322045  1
  O  O12  1  0.356012  0.175316  0.069388  1
  O  O13  1  0.147810  0.571288  0.672214  1
  O  O14  1  0.746398  0.571152  0.074015  1
  O  O15  1  0.747495  0.175423  0.677955  1
  O  O16  1  0.746362  0.169960  0.074006  1
  O  O17  1  0.747515  0.566719  0.677942  1
