# generated using pymatgen
data_Sm4Si10(OsPt)3
_symmetry_space_group_name_H-M   'P 1'
_cell_length_a   8.20420234
_cell_length_b   8.22904754
_cell_length_c   8.22904712
_cell_angle_alpha   137.41624806
_cell_angle_beta   105.41191003
_cell_angle_gamma   89.92855092
_symmetry_Int_Tables_number   1
_chemical_formula_structural   Sm4Si10(OsPt)3
_chemical_formula_sum   'Sm4 Si10 Os3 Pt3'
_cell_volume   345.94328848
_cell_formula_units_Z   1
loop_
 _symmetry_equiv_pos_site_id
 _symmetry_equiv_pos_as_xyz
  1  'x, y, z'
loop_
 _atom_site_type_symbol
 _atom_site_label
 _atom_site_symmetry_multiplicity
 _atom_site_fract_x
 _atom_site_fract_y
 _atom_site_fract_z
 _atom_site_occupancy
  Sm  Sm0  1  0.863922  0.628631  0.235291  1
  Sm  Sm1  1  0.137800  0.371149  0.766651  1
  Sm  Sm2  1  0.396917  0.131606  0.265311  1
  Sm  Sm3  1  0.604079  0.870261  0.733817  1
  Si  Si4  1  0.493890  0.753669  0.253732  1
  Si  Si5  1  0.493890  0.240158  0.740221  1
  Si  Si6  1  0.222282  0.972918  0.744288  1
  Si  Si7  1  0.776185  0.523581  0.746774  1
  Si  Si8  1  0.776185  0.029411  0.252604  1
  Si  Si9  1  0.222282  0.477993  0.249364  1
  Si  Si10  1  0.053256  0.898459  0.154797  1
  Si  Si11  1  0.957231  0.104760  0.852471  1
  Si  Si12  1  0.746381  0.394667  0.351714  1
  Si  Si13  1  0.253805  0.604053  0.649751  1
  Os  Os14  1  0.999605  0.750498  0.751312  1
  Os  Os15  1  0.999605  0.248293  0.249107  1
  Os  Os16  1  0.245587  0.859495  0.386093  1
  Pt  Pt17  1  0.751910  0.138879  0.613030  1
  Pt  Pt18  1  0.475119  0.361478  0.113641  1
  Pt  Pt19  1  0.530072  0.640042  0.890031  1
