# generated using pymatgen
data_Dy3Tm4PaSb20
_symmetry_space_group_name_H-M   'P 1'
_cell_length_a   4.22478300
_cell_length_b   13.16673468
_cell_length_c   14.52690370
_cell_angle_alpha   78.42850203
_cell_angle_beta   90.00000000
_cell_angle_gamma   90.00000000
_symmetry_Int_Tables_number   1
_chemical_formula_structural   Dy3Tm4PaSb20
_chemical_formula_sum   'Dy3 Tm4 Pa1 Sb20'
_cell_volume   791.65807044
_cell_formula_units_Z   1
loop_
 _symmetry_equiv_pos_site_id
 _symmetry_equiv_pos_as_xyz
  1  'x, y, z'
loop_
 _atom_site_type_symbol
 _atom_site_label
 _atom_site_symmetry_multiplicity
 _atom_site_fract_x
 _atom_site_fract_y
 _atom_site_fract_z
 _atom_site_occupancy
  Dy  Dy0  1  0.750000  0.329201  0.425939  1
  Dy  Dy1  1  0.250000  0.954392  0.355318  1
  Dy  Dy2  1  0.750000  0.048422  0.642233  1
  Tm  Tm3  1  0.250000  0.390512  0.773014  1
  Tm  Tm4  1  0.750000  0.606116  0.228483  1
  Tm  Tm5  1  0.250000  0.662375  0.857849  1
  Tm  Tm6  1  0.750000  0.338605  0.143757  1
  Pa  Pa7  1  0.250000  0.669729  0.571586  1
  Sb  Sb8  1  0.250000  0.142979  0.776637  1
  Sb  Sb9  1  0.750000  0.856262  0.221785  1
  Sb  Sb10  1  0.250000  0.140505  0.483076  1
  Sb  Sb11  1  0.750000  0.852149  0.514552  1
  Sb  Sb12  1  0.250000  0.154053  0.168040  1
  Sb  Sb13  1  0.750000  0.847425  0.834714  1
  Sb  Sb14  1  0.250000  0.420318  0.977176  1
  Sb  Sb15  1  0.750000  0.579503  0.022624  1
  Sb  Sb16  1  0.750000  0.033913  0.911910  1
  Sb  Sb17  1  0.250000  0.971084  0.088961  1
  Sb  Sb18  1  0.750000  0.140600  0.318950  1
  Sb  Sb19  1  0.250000  0.859920  0.684885  1
  Sb  Sb20  1  0.750000  0.277272  0.937579  1
  Sb  Sb21  1  0.250000  0.721450  0.063682  1
  Sb  Sb22  1  0.750000  0.285677  0.656668  1
  Sb  Sb23  1  0.250000  0.714532  0.344473  1
  Sb  Sb24  1  0.750000  0.578824  0.729946  1
  Sb  Sb25  1  0.250000  0.424051  0.265175  1
  Sb  Sb26  1  0.750000  0.571207  0.447301  1
  Sb  Sb27  1  0.250000  0.428924  0.553686  1
