# generated using pymatgen
data_Y2Er2ReOsC4
_symmetry_space_group_name_H-M   'P 1'
_cell_length_a   5.08846200
_cell_length_b   6.53545798
_cell_length_c   9.78213126
_cell_angle_alpha   89.76735598
_cell_angle_beta   90.00000000
_cell_angle_gamma   90.00000000
_symmetry_Int_Tables_number   1
_chemical_formula_structural   Y2Er2ReOsC4
_chemical_formula_sum   'Y4 Er4 Re2 Os2 C8'
_cell_volume   325.30629571
_cell_formula_units_Z   2
loop_
 _symmetry_equiv_pos_site_id
 _symmetry_equiv_pos_as_xyz
  1  'x, y, z'
loop_
 _atom_site_type_symbol
 _atom_site_label
 _atom_site_symmetry_multiplicity
 _atom_site_fract_x
 _atom_site_fract_y
 _atom_site_fract_z
 _atom_site_occupancy
  Y  Y0  1  0.250000  0.532814  0.214704  1
  Y  Y1  1  0.750000  0.467186  0.785296  1
  Y  Y2  1  0.750000  0.969014  0.712977  1
  Y  Y3  1  0.250000  0.030986  0.287023  1
  Er  Er4  1  0.250000  0.676329  0.555598  1
  Er  Er5  1  0.750000  0.323671  0.444402  1
  Er  Er6  1  0.750000  0.822340  0.056293  1
  Er  Er7  1  0.250000  0.177660  0.943707  1
  Re  Re8  1  0.250000  0.722655  0.865825  1
  Re  Re9  1  0.750000  0.277345  0.134175  1
  Os  Os10  1  0.750000  0.775826  0.365242  1
  Os  Os11  1  0.250000  0.224174  0.634758  1
  C  C12  1  0.250000  0.455864  0.760442  1
  C  C13  1  0.750000  0.544136  0.239558  1
  C  C14  1  0.750000  0.043803  0.259041  1
  C  C15  1  0.250000  0.956197  0.740959  1
  C  C16  1  0.250000  0.826075  0.051340  1
  C  C17  1  0.750000  0.173925  0.948660  1
  C  C18  1  0.750000  0.672775  0.550425  1
  C  C19  1  0.250000  0.327225  0.449575  1
