# generated using pymatgen
data_KBi(SeO4)2
_symmetry_space_group_name_H-M   'P 1'
_cell_length_a   5.09707579
_cell_length_b   5.09707570
_cell_length_c   9.09364056
_cell_angle_alpha   90.72788636
_cell_angle_beta   90.72788776
_cell_angle_gamma   63.08870646
_symmetry_Int_Tables_number   1
_chemical_formula_structural   KBi(SeO4)2
_chemical_formula_sum   'K1 Bi1 Se2 O8'
_cell_volume   210.64663631
_cell_formula_units_Z   1
loop_
 _symmetry_equiv_pos_site_id
 _symmetry_equiv_pos_as_xyz
  1  'x, y, z'
loop_
 _atom_site_type_symbol
 _atom_site_label
 _atom_site_symmetry_multiplicity
 _atom_site_fract_x
 _atom_site_fract_y
 _atom_site_fract_z
 _atom_site_occupancy
  K  K0  1  0.961009  0.038990  0.000000  1
  Bi  Bi1  1  0.010180  0.989819  0.500000  1
  Se  Se2  1  0.308466  0.309701  0.269560  1
  Se  Se3  1  0.690298  0.691533  0.730439  1
  O  O4  1  0.190148  0.452140  0.106642  1
  O  O5  1  0.275857  0.995508  0.286587  1
  O  O6  1  0.661879  0.233145  0.295429  1
  O  O7  1  0.104349  0.521341  0.413111  1
  O  O8  1  0.478660  0.895651  0.586888  1
  O  O9  1  0.766855  0.338122  0.704572  1
  O  O10  1  0.004491  0.724142  0.713412  1
  O  O11  1  0.547860  0.809853  0.893358  1
