# generated using pymatgen
data_Hf3Nb(AlRh5)2
_symmetry_space_group_name_H-M   'P 1'
_cell_length_a   4.05483000
_cell_length_b   5.58024823
_cell_length_c   10.91203500
_cell_angle_alpha   89.93834303
_cell_angle_beta   90.00000000
_cell_angle_gamma   90.00000000
_symmetry_Int_Tables_number   1
_chemical_formula_structural   Hf3Nb(AlRh5)2
_chemical_formula_sum   'Hf3 Nb1 Al2 Rh10'
_cell_volume   246.90601396
_cell_formula_units_Z   1
loop_
 _symmetry_equiv_pos_site_id
 _symmetry_equiv_pos_as_xyz
  1  'x, y, z'
loop_
 _atom_site_type_symbol
 _atom_site_label
 _atom_site_symmetry_multiplicity
 _atom_site_fract_x
 _atom_site_fract_y
 _atom_site_fract_z
 _atom_site_occupancy
  Hf  Hf0  1  0.500000  0.818013  0.359860  1
  Hf  Hf1  1  0.500000  0.679679  0.861851  1
  Hf  Hf2  1  0.500000  0.319064  0.140147  1
  Nb  Nb3  1  0.500000  0.178944  0.640407  1
  Al  Al4  1  0.000000  0.499309  0.501403  1
  Al  Al5  1  0.000000  0.000811  0.999324  1
  Rh  Rh6  1  0.500000  0.186301  0.888549  1
  Rh  Rh7  1  0.500000  0.813285  0.106889  1
  Rh  Rh8  1  0.500000  0.692471  0.607635  1
  Rh  Rh9  1  0.500000  0.311855  0.396428  1
  Rh  Rh10  1  0.000000  0.426311  0.741642  1
  Rh  Rh11  1  0.000000  0.567609  0.255859  1
  Rh  Rh12  1  0.000000  0.005234  0.502675  1
  Rh  Rh13  1  0.000000  0.498817  0.999097  1
  Rh  Rh14  1  0.000000  0.068558  0.245864  1
  Rh  Rh15  1  0.000000  0.933740  0.752368  1
