# generated using pymatgen
data_Sc8CoAg2Rh
_symmetry_space_group_name_H-M   'P 1'
_cell_length_a   8.81964438
_cell_length_b   8.81964534
_cell_length_c   8.84634600
_cell_angle_alpha   59.89981105
_cell_angle_beta   59.89980744
_cell_angle_gamma   59.82812762
_symmetry_Int_Tables_number   1
_chemical_formula_structural   Sc8CoAg2Rh
_chemical_formula_sum   'Sc16 Co2 Ag4 Rh2'
_cell_volume   485.20602539
_cell_formula_units_Z   2
loop_
 _symmetry_equiv_pos_site_id
 _symmetry_equiv_pos_as_xyz
  1  'x, y, z'
loop_
 _atom_site_type_symbol
 _atom_site_label
 _atom_site_symmetry_multiplicity
 _atom_site_fract_x
 _atom_site_fract_y
 _atom_site_fract_z
 _atom_site_occupancy
  Sc  Sc0  1  0.355622  0.355622  0.341677  1
  Sc  Sc1  1  0.355622  0.355622  0.947078  1
  Sc  Sc2  1  0.366586  0.931104  0.351153  1
  Sc  Sc3  1  0.931104  0.366586  0.351153  1
  Sc  Sc4  1  0.806248  0.187442  0.186644  1
  Sc  Sc5  1  0.187442  0.806248  0.819665  1
  Sc  Sc6  1  0.187442  0.806248  0.186644  1
  Sc  Sc7  1  0.806248  0.187442  0.819665  1
  Sc  Sc8  1  0.187197  0.187197  0.812803  1
  Sc  Sc9  1  0.813611  0.813611  0.186389  1
  Sc  Sc10  1  0.936683  0.565197  0.562978  1
  Sc  Sc11  1  0.565197  0.936683  0.935142  1
  Sc  Sc12  1  0.565197  0.936683  0.562978  1
  Sc  Sc13  1  0.936683  0.565197  0.935142  1
  Sc  Sc14  1  0.565734  0.565734  0.934266  1
  Sc  Sc15  1  0.937259  0.937259  0.562741  1
  Co  Co16  1  0.140845  0.570773  0.144191  1
  Co  Co17  1  0.570773  0.140845  0.144191  1
  Ag  Ag18  1  0.582738  0.582738  0.585206  1
  Ag  Ag19  1  0.582738  0.582738  0.249319  1
  Ag  Ag20  1  0.581553  0.250783  0.583832  1
  Ag  Ag21  1  0.250783  0.581553  0.583832  1
  Rh  Rh22  1  0.143348  0.143348  0.148591  1
  Rh  Rh23  1  0.143348  0.143348  0.564714  1
