# generated using pymatgen
data_DyHoTm2(Al3Ir)6
_symmetry_space_group_name_H-M   'P 1'
_cell_length_a   7.54277435
_cell_length_b   7.54217592
_cell_length_c   9.45511900
_cell_angle_alpha   90.00000000
_cell_angle_beta   90.00000000
_cell_angle_gamma   119.50393986
_symmetry_Int_Tables_number   1
_chemical_formula_structural   DyHoTm2(Al3Ir)6
_chemical_formula_sum   'Dy1 Ho1 Tm2 Al18 Ir6'
_cell_volume   468.13881515
_cell_formula_units_Z   1
loop_
 _symmetry_equiv_pos_site_id
 _symmetry_equiv_pos_as_xyz
  1  'x, y, z'
loop_
 _atom_site_type_symbol
 _atom_site_label
 _atom_site_symmetry_multiplicity
 _atom_site_fract_x
 _atom_site_fract_y
 _atom_site_fract_z
 _atom_site_occupancy
  Dy  Dy0  1  0.671313  0.994755  0.250000  1
  Ho  Ho1  1  0.994795  0.671328  0.250000  1
  Tm  Tm2  1  0.005455  0.328419  0.750000  1
  Tm  Tm3  1  0.328436  0.005477  0.750000  1
  Al  Al4  1  0.129360  0.129221  0.250000  1
  Al  Al5  1  0.871385  0.871408  0.750000  1
  Al  Al6  1  0.001106  0.335327  0.073584  1
  Al  Al7  1  0.999395  0.664795  0.924934  1
  Al  Al8  1  0.999395  0.664795  0.575066  1
  Al  Al9  1  0.334902  0.000890  0.426433  1
  Al  Al10  1  0.001106  0.335327  0.426416  1
  Al  Al11  1  0.664792  0.999411  0.575185  1
  Al  Al12  1  0.664792  0.999411  0.924815  1
  Al  Al13  1  0.334902  0.000890  0.073567  1
  Al  Al14  1  0.333076  0.333077  0.552919  1
  Al  Al15  1  0.666735  0.666534  0.448514  1
  Al  Al16  1  0.666735  0.666534  0.051486  1
  Al  Al17  1  0.333076  0.333077  0.947081  1
  Al  Al18  1  0.339184  0.548175  0.250000  1
  Al  Al19  1  0.660460  0.451024  0.750000  1
  Al  Al20  1  0.548378  0.339498  0.250000  1
  Al  Al21  1  0.450958  0.660476  0.750000  1
  Ir  Ir22  1  0.672010  0.327717  0.999545  1
  Ir  Ir23  1  0.327617  0.671941  0.999530  1
  Ir  Ir24  1  0.327617  0.671941  0.500470  1
  Ir  Ir25  1  0.672010  0.327717  0.500455  1
  Ir  Ir26  1  0.000503  0.000417  0.999385  1
  Ir  Ir27  1  0.000503  0.000417  0.500615  1
