# generated using pymatgen
data_Dy12InSi4Hg
_symmetry_space_group_name_H-M   'P 1'
_cell_length_a   8.51816266
_cell_length_b   8.51816335
_cell_length_c   8.51816320
_cell_angle_alpha   112.32999078
_cell_angle_beta   110.77997023
_cell_angle_gamma   105.38355928
_symmetry_Int_Tables_number   1
_chemical_formula_structural   Dy12InSi4Hg
_chemical_formula_sum   'Dy12 In1 Si4 Hg1'
_cell_volume   473.89761115
_cell_formula_units_Z   1
loop_
 _symmetry_equiv_pos_site_id
 _symmetry_equiv_pos_as_xyz
  1  'x, y, z'
loop_
 _atom_site_type_symbol
 _atom_site_label
 _atom_site_symmetry_multiplicity
 _atom_site_fract_x
 _atom_site_fract_y
 _atom_site_fract_z
 _atom_site_occupancy
  Dy  Dy0  1  0.441570  0.238240  0.203331  1
  Dy  Dy1  1  0.558430  0.761760  0.796669  1
  Dy  Dy2  1  0.034909  0.238240  0.796669  1
  Dy  Dy3  1  0.965091  0.761760  0.203331  1
  Dy  Dy4  1  0.184726  0.276010  0.460736  1
  Dy  Dy5  1  0.815274  0.723990  0.539264  1
  Dy  Dy6  1  0.184726  0.723990  0.908716  1
  Dy  Dy7  1  0.815274  0.276010  0.091284  1
  Dy  Dy8  1  0.321105  0.617507  0.296403  1
  Dy  Dy9  1  0.678895  0.382493  0.703597  1
  Dy  Dy10  1  0.321105  0.024703  0.703597  1
  Dy  Dy11  1  0.678895  0.975297  0.296403  1
  In  In12  1  0.500000  0.500000  0.000000  1
  Si  Si13  1  0.367435  0.000000  0.367435  1
  Si  Si14  1  0.632565  0.000000  0.632565  1
  Si  Si15  1  0.115922  0.615922  0.500000  1
  Si  Si16  1  0.884078  0.384078  0.500000  1
  Hg  Hg17  1  0.000000  0.000000  0.000000  1
