# generated using pymatgen
data_Nd5Sn3O
_symmetry_space_group_name_H-M   'P 1'
_cell_length_a   9.39494049
_cell_length_b   9.39494024
_cell_length_c   9.39494170
_cell_angle_alpha   126.36589337
_cell_angle_beta   126.36588836
_cell_angle_gamma   79.28760369
_symmetry_Int_Tables_number   1
_chemical_formula_structural   Nd5Sn3O
_chemical_formula_sum   'Nd10 Sn6 O2'
_cell_volume   519.84779824
_cell_formula_units_Z   2
loop_
 _symmetry_equiv_pos_site_id
 _symmetry_equiv_pos_as_xyz
  1  'x, y, z'
loop_
 _atom_site_type_symbol
 _atom_site_label
 _atom_site_symmetry_multiplicity
 _atom_site_fract_x
 _atom_site_fract_y
 _atom_site_fract_z
 _atom_site_occupancy
  Nd  Nd0  1  0.498541  0.303728  0.500000  1
  Nd  Nd1  1  0.803728  0.998541  0.500000  1
  Nd  Nd2  1  0.998541  0.498541  0.194813  1
  Nd  Nd3  1  0.303728  0.803728  0.805187  1
  Nd  Nd4  1  0.503262  0.698362  0.500000  1
  Nd  Nd5  1  0.198362  0.003262  0.500000  1
  Nd  Nd6  1  0.003262  0.503262  0.804900  1
  Nd  Nd7  1  0.698362  0.198362  0.195100  1
  Nd  Nd8  1  0.503581  0.503581  0.000000  1
  Nd  Nd9  1  0.003581  0.003581  0.000000  1
  Sn  Sn10  1  0.141342  0.359974  0.500000  1
  Sn  Sn11  1  0.859974  0.641342  0.500000  1
  Sn  Sn12  1  0.641342  0.141342  0.781367  1
  Sn  Sn13  1  0.359974  0.859974  0.218633  1
  Sn  Sn14  1  0.751922  0.751922  0.000000  1
  Sn  Sn15  1  0.251922  0.251922  0.000000  1
  O  O16  1  0.750709  0.250709  0.500000  1
  O  O17  1  0.250709  0.750709  0.500000  1
