# generated using pymatgen
data_La3Mg2CdRuAu2
_symmetry_space_group_name_H-M   'P 1'
_cell_length_a   7.78365952
_cell_length_b   7.67571420
_cell_length_c   4.27527400
_cell_angle_alpha   90.00000000
_cell_angle_beta   90.00000000
_cell_angle_gamma   120.06019899
_symmetry_Int_Tables_number   1
_chemical_formula_structural   La3Mg2CdRuAu2
_chemical_formula_sum   'La3 Mg2 Cd1 Ru1 Au2'
_cell_volume   221.07185034
_cell_formula_units_Z   1
loop_
 _symmetry_equiv_pos_site_id
 _symmetry_equiv_pos_as_xyz
  1  'x, y, z'
loop_
 _atom_site_type_symbol
 _atom_site_label
 _atom_site_symmetry_multiplicity
 _atom_site_fract_x
 _atom_site_fract_y
 _atom_site_fract_z
 _atom_site_occupancy
  La  La0  1  0.567447  0.975624  0.000000  1
  La  La1  1  0.026442  0.597328  0.000000  1
  La  La2  1  0.403377  0.426189  0.000000  1
  Mg  Mg3  1  0.001936  0.242109  0.500000  1
  Mg  Mg4  1  0.757994  0.757886  0.500000  1
  Cd  Cd5  1  0.246386  0.999512  0.500000  1
  Ru  Ru6  1  0.335150  0.662750  0.500000  1
  Au  Au7  1  0.674783  0.339382  0.500000  1
  Au  Au8  1  0.986485  0.999221  0.000000  1
