# generated using pymatgen
data_LiLa5AlRu3
_symmetry_space_group_name_H-M   'P 1'
_cell_length_a   8.66644558
_cell_length_b   8.66644589
_cell_length_c   8.55878305
_cell_angle_alpha   109.57256496
_cell_angle_beta   109.36074391
_cell_angle_gamma   109.98443635
_symmetry_Int_Tables_number   1
_chemical_formula_structural   LiLa5AlRu3
_chemical_formula_sum   'Li2 La10 Al2 Ru6'
_cell_volume   491.73454486
_cell_formula_units_Z   2
loop_
 _symmetry_equiv_pos_site_id
 _symmetry_equiv_pos_as_xyz
  1  'x, y, z'
loop_
 _atom_site_type_symbol
 _atom_site_label
 _atom_site_symmetry_multiplicity
 _atom_site_fract_x
 _atom_site_fract_y
 _atom_site_fract_z
 _atom_site_occupancy
  Li  Li0  1  0.499827  0.001292  0.914092  1
  Li  Li1  1  0.587200  0.585734  0.585908  1
  La  La2  1  0.248731  0.684528  0.441505  1
  La  La3  1  0.743024  0.807227  0.058496  1
  La  La4  1  0.436767  0.249568  0.690475  1
  La  La5  1  0.689907  0.439908  0.250000  1
  La  La6  1  0.059093  0.746291  0.809525  1
  La  La7  1  0.812602  0.062602  0.750000  1
  La  La8  1  0.213980  0.215061  0.213129  1
  La  La9  1  0.501933  0.000851  0.286871  1
  La  La10  1  0.283798  0.500673  0.998461  1
  La  La11  1  0.002210  0.285336  0.501540  1
  Al  Al12  1  0.913603  0.501380  0.003157  1
  Al  Al13  1  0.998221  0.910445  0.496844  1
  Ru  Ru14  1  0.238325  0.123474  0.862665  1
  Ru  Ru15  1  0.760809  0.375658  0.637334  1
  Ru  Ru16  1  0.890350  0.263281  0.126177  1
  Ru  Ru17  1  0.116663  0.866663  0.250001  1
  Ru  Ru18  1  0.637101  0.764172  0.373822  1
  Ru  Ru19  1  0.365857  0.615857  0.750000  1
