# generated using pymatgen
data_Cu3Bi4Te4AsO24
_symmetry_space_group_name_H-M   'P 1'
_cell_length_a   5.18529828
_cell_length_b   9.15495602
_cell_length_c   10.17032256
_cell_angle_alpha   89.99734223
_cell_angle_beta   90.69613575
_cell_angle_gamma   90.00341698
_symmetry_Int_Tables_number   1
_chemical_formula_structural   Cu3Bi4Te4AsO24
_chemical_formula_sum   'Cu3 Bi4 Te4 As1 O24'
_cell_volume   482.76155334
_cell_formula_units_Z   1
loop_
 _symmetry_equiv_pos_site_id
 _symmetry_equiv_pos_as_xyz
  1  'x, y, z'
loop_
 _atom_site_type_symbol
 _atom_site_label
 _atom_site_symmetry_multiplicity
 _atom_site_fract_x
 _atom_site_fract_y
 _atom_site_fract_z
 _atom_site_occupancy
  Cu  Cu0  1  0.499993  0.166533  0.249997  1
  Cu  Cu1  1  0.000003  0.329557  0.749992  1
  Cu  Cu2  1  0.999979  0.665575  0.250000  1
  Bi  Bi3  1  0.011533  0.006699  0.483622  1
  Bi  Bi4  1  0.491749  0.494287  0.489383  1
  Bi  Bi5  1  0.988483  0.006702  0.016379  1
  Bi  Bi6  1  0.508237  0.494288  0.010617  1
  Te  Te7  1  0.500003  0.167753  0.749992  1
  Te  Te8  1  0.000013  0.666259  0.750015  1
  Te  Te9  1  0.999992  0.336537  0.250008  1
  Te  Te10  1  0.499998  0.829937  0.249991  1
  As  As11  1  0.500023  0.839029  0.749998  1
  O  O12  1  0.624036  0.990134  0.646663  1
  O  O13  1  0.120899  0.517103  0.635836  1
  O  O14  1  0.681646  0.306508  0.641142  1
  O  O15  1  0.193844  0.820029  0.647350  1
  O  O16  1  0.197307  0.174434  0.637883  1
  O  O17  1  0.674704  0.699554  0.645853  1
  O  O18  1  0.174718  0.186346  0.145268  1
  O  O19  1  0.673956  0.682664  0.141443  1
  O  O20  1  0.141866  0.492592  0.143037  1
  O  O21  1  0.631976  0.989242  0.139826  1
  O  O22  1  0.694283  0.320582  0.136469  1
  O  O23  1  0.187849  0.819197  0.141726  1
  O  O24  1  0.858097  0.492587  0.356969  1
  O  O25  1  0.368031  0.989261  0.360135  1
  O  O26  1  0.825239  0.186334  0.354746  1
  O  O27  1  0.326008  0.682672  0.358557  1
  O  O28  1  0.305664  0.320599  0.363559  1
  O  O29  1  0.812128  0.819200  0.358262  1
  O  O30  1  0.318371  0.306488  0.858842  1
  O  O31  1  0.806201  0.820049  0.852647  1
  O  O32  1  0.376013  0.990125  0.853327  1
  O  O33  1  0.879086  0.517130  0.864222  1
  O  O34  1  0.802745  0.174461  0.862085  1
  O  O35  1  0.325330  0.699553  0.854159  1
