# generated using pymatgen
data_Hf18Mn2CrRe7
_symmetry_space_group_name_H-M   'P 1'
_cell_length_a   8.54328100
_cell_length_b   8.54328042
_cell_length_c   8.47240600
_cell_angle_alpha   90.00000000
_cell_angle_beta   90.00000000
_cell_angle_gamma   119.99999836
_symmetry_Int_Tables_number   1
_chemical_formula_structural   Hf18Mn2CrRe7
_chemical_formula_sum   'Hf18 Mn2 Cr1 Re7'
_cell_volume   535.53363296
_cell_formula_units_Z   1
loop_
 _symmetry_equiv_pos_site_id
 _symmetry_equiv_pos_as_xyz
  1  'x, y, z'
loop_
 _atom_site_type_symbol
 _atom_site_label
 _atom_site_symmetry_multiplicity
 _atom_site_fract_x
 _atom_site_fract_y
 _atom_site_fract_z
 _atom_site_occupancy
  Hf  Hf0  1  0.199223  0.800777  0.443498  1
  Hf  Hf1  1  0.199223  0.398447  0.443498  1
  Hf  Hf2  1  0.601553  0.800777  0.443498  1
  Hf  Hf3  1  0.800777  0.199223  0.556502  1
  Hf  Hf4  1  0.800777  0.601553  0.556502  1
  Hf  Hf5  1  0.398447  0.199223  0.556502  1
  Hf  Hf6  1  0.799725  0.200275  0.942706  1
  Hf  Hf7  1  0.799725  0.599449  0.942706  1
  Hf  Hf8  1  0.400551  0.200275  0.942706  1
  Hf  Hf9  1  0.200275  0.799725  0.057294  1
  Hf  Hf10  1  0.200275  0.400551  0.057294  1
  Hf  Hf11  1  0.599449  0.799725  0.057294  1
  Hf  Hf12  1  0.539387  0.460613  0.250331  1
  Hf  Hf13  1  0.539387  0.078773  0.250331  1
  Hf  Hf14  1  0.921227  0.460613  0.250331  1
  Hf  Hf15  1  0.460613  0.539387  0.749669  1
  Hf  Hf16  1  0.460613  0.921227  0.749669  1
  Hf  Hf17  1  0.078773  0.539387  0.749669  1
  Mn  Mn18  1  0.333333  0.666667  0.250763  1
  Mn  Mn19  1  0.666667  0.333333  0.749237  1
  Cr  Cr20  1  0.000000  0.000000  0.500000  1
  Re  Re21  1  0.890147  0.109853  0.254583  1
  Re  Re22  1  0.890147  0.780294  0.254583  1
  Re  Re23  1  0.219706  0.109853  0.254583  1
  Re  Re24  1  0.109853  0.890147  0.745417  1
  Re  Re25  1  0.109853  0.219706  0.745417  1
  Re  Re26  1  0.780294  0.890147  0.745417  1
  Re  Re27  1  0.000000  0.000000  0.000000  1
