# generated using pymatgen
data_Ta5Ti7Al8(PdC)4
_symmetry_space_group_name_H-M   'P 1'
_cell_length_a   8.28379037
_cell_length_b   8.28430141
_cell_length_c   8.26915938
_cell_angle_alpha   60.03836577
_cell_angle_beta   60.06022654
_cell_angle_gamma   59.94294490
_symmetry_Int_Tables_number   1
_chemical_formula_structural   Ta5Ti7Al8(PdC)4
_chemical_formula_sum   'Ta5 Ti7 Al8 Pd4 C4'
_cell_volume   401.39007347
_cell_formula_units_Z   1
loop_
 _symmetry_equiv_pos_site_id
 _symmetry_equiv_pos_as_xyz
  1  'x, y, z'
loop_
 _atom_site_type_symbol
 _atom_site_label
 _atom_site_symmetry_multiplicity
 _atom_site_fract_x
 _atom_site_fract_y
 _atom_site_fract_z
 _atom_site_occupancy
  Ta  Ta0  1  0.933292  0.566699  0.565799  1
  Ta  Ta1  1  0.568175  0.932821  0.934576  1
  Ta  Ta2  1  0.933555  0.933136  0.567399  1
  Ta  Ta3  1  0.683348  0.317331  0.683434  1
  Ta  Ta4  1  0.931797  0.568809  0.932800  1
  Ti  Ti5  1  0.567008  0.933588  0.564729  1
  Ti  Ti6  1  0.317206  0.682583  0.685294  1
  Ti  Ti7  1  0.685062  0.316407  0.315712  1
  Ti  Ti8  1  0.316410  0.684282  0.314630  1
  Ti  Ti9  1  0.685591  0.683218  0.315851  1
  Ti  Ti10  1  0.315878  0.315180  0.685671  1
  Ti  Ti11  1  0.566192  0.565254  0.934721  1
  Al  Al12  1  0.917253  0.916161  0.916736  1
  Al  Al13  1  0.995872  0.335911  0.332455  1
  Al  Al14  1  0.335749  0.994463  0.335464  1
  Al  Al15  1  0.332304  0.335744  0.996584  1
  Al  Al16  1  0.913825  0.252786  0.917189  1
  Al  Al17  1  0.914088  0.917252  0.252064  1
  Al  Al18  1  0.254548  0.913960  0.914494  1
  Al  Al19  1  0.335545  0.334196  0.335105  1
  Pd  Pd20  1  0.125218  0.124289  0.124810  1
  Pd  Pd21  1  0.624008  0.125385  0.124089  1
  Pd  Pd22  1  0.124545  0.624987  0.125925  1
  Pd  Pd23  1  0.124166  0.125687  0.624778  1
  C  C24  1  0.622157  0.629521  0.625821  1
  C  C25  1  0.132401  0.622478  0.622567  1
  C  C26  1  0.622090  0.125638  0.622276  1
  C  C27  1  0.622720  0.622239  0.129028  1
