# generated using pymatgen
data_Er8Re5Si16W7
_symmetry_space_group_name_H-M   'P 1'
_cell_length_a   6.79306534
_cell_length_b   6.80315254
_cell_length_c   12.84342572
_cell_angle_alpha   89.83280585
_cell_angle_beta   90.01573925
_cell_angle_gamma   90.25070817
_symmetry_Int_Tables_number   1
_chemical_formula_structural   Er8Re5Si16W7
_chemical_formula_sum   'Er8 Re5 Si16 W7'
_cell_volume   593.54118184
_cell_formula_units_Z   1
loop_
 _symmetry_equiv_pos_site_id
 _symmetry_equiv_pos_as_xyz
  1  'x, y, z'
loop_
 _atom_site_type_symbol
 _atom_site_label
 _atom_site_symmetry_multiplicity
 _atom_site_fract_x
 _atom_site_fract_y
 _atom_site_fract_z
 _atom_site_occupancy
  Er  Er0  1  0.010459  0.663807  0.031141  1
  Er  Er1  1  0.988792  0.333872  0.532445  1
  Er  Er2  1  0.333688  0.989954  0.468764  1
  Er  Er3  1  0.162239  0.492057  0.780142  1
  Er  Er4  1  0.835803  0.505407  0.279899  1
  Er  Er5  1  0.495000  0.164254  0.219449  1
  Er  Er6  1  0.504423  0.835758  0.720746  1
  Er  Er7  1  0.665422  0.011203  0.968255  1
  Re  Re8  1  0.319849  0.492669  0.382187  1
  Re  Re9  1  0.683208  0.511664  0.882481  1
  Re  Re10  1  0.486611  0.316404  0.617961  1
  Re  Re11  1  0.508446  0.685354  0.117123  1
  Re  Re12  1  0.185980  0.990109  0.868671  1
  Si  Si13  1  0.031277  0.708912  0.436666  1
  Si  Si14  1  0.617987  0.299396  0.432074  1
  Si  Si15  1  0.383210  0.699459  0.931501  1
  Si  Si16  1  0.200180  0.117588  0.682089  1
  Si  Si17  1  0.299465  0.617847  0.569151  1
  Si  Si18  1  0.701099  0.384103  0.068946  1
  Si  Si19  1  0.797033  0.881741  0.181058  1
  Si  Si20  1  0.120389  0.205511  0.319130  1
  Si  Si21  1  0.975762  0.280311  0.936650  1
  Si  Si22  1  0.707886  0.030270  0.563052  1
  Si  Si23  1  0.225233  0.481814  0.190641  1
  Si  Si24  1  0.772616  0.519227  0.691145  1
  Si  Si25  1  0.478573  0.224526  0.810169  1
  Si  Si26  1  0.520840  0.778679  0.309048  1
  Si  Si27  1  0.287362  0.974045  0.059640  1
  Si  Si28  1  0.883711  0.800063  0.818245  1
  W  W29  1  0.665976  0.664081  0.501779  1
  W  W30  1  0.160917  0.840668  0.249382  1
  W  W31  1  0.334310  0.338216  0.002805  1
  W  W32  1  0.997182  0.821777  0.626742  1
  W  W33  1  0.001230  0.180646  0.130401  1
  W  W34  1  0.822941  0.997846  0.371942  1
  W  W35  1  0.834898  0.160763  0.748479  1
