# generated using pymatgen
data_Sr3ScBi3
_symmetry_space_group_name_H-M   'P 1'
_cell_length_a   4.97116500
_cell_length_b   13.83811400
_cell_length_c   15.38685200
_cell_angle_alpha   90.00000000
_cell_angle_beta   90.00000000
_cell_angle_gamma   90.00000000
_symmetry_Int_Tables_number   1
_chemical_formula_structural   Sr3ScBi3
_chemical_formula_sum   'Sr12 Sc4 Bi12'
_cell_volume   1058.48536766
_cell_formula_units_Z   4
loop_
 _symmetry_equiv_pos_site_id
 _symmetry_equiv_pos_as_xyz
  1  'x, y, z'
loop_
 _atom_site_type_symbol
 _atom_site_label
 _atom_site_symmetry_multiplicity
 _atom_site_fract_x
 _atom_site_fract_y
 _atom_site_fract_z
 _atom_site_occupancy
  Sr  Sr0  1  0.250000  0.848315  0.497378  1
  Sr  Sr1  1  0.250000  0.348315  0.002622  1
  Sr  Sr2  1  0.750000  0.151685  0.502622  1
  Sr  Sr3  1  0.750000  0.224418  0.214534  1
  Sr  Sr4  1  0.750000  0.433521  0.392485  1
  Sr  Sr5  1  0.250000  0.566479  0.607515  1
  Sr  Sr6  1  0.750000  0.933521  0.107515  1
  Sr  Sr7  1  0.250000  0.066479  0.892485  1
  Sr  Sr8  1  0.250000  0.275582  0.714534  1
  Sr  Sr9  1  0.750000  0.724418  0.285466  1
  Sr  Sr10  1  0.250000  0.775582  0.785466  1
  Sr  Sr11  1  0.750000  0.651685  0.997378  1
  Sc  Sc12  1  0.750000  0.947070  0.703766  1
  Sc  Sc13  1  0.250000  0.052930  0.296234  1
  Sc  Sc14  1  0.250000  0.552930  0.203766  1
  Sc  Sc15  1  0.750000  0.447070  0.796234  1
  Bi  Bi16  1  0.750000  0.458749  0.146196  1
  Bi  Bi17  1  0.250000  0.541251  0.853804  1
  Bi  Bi18  1  0.750000  0.958749  0.353804  1
  Bi  Bi19  1  0.250000  0.041251  0.646196  1
  Bi  Bi20  1  0.750000  0.394591  0.610832  1
  Bi  Bi21  1  0.250000  0.605409  0.389168  1
  Bi  Bi22  1  0.750000  0.894591  0.889168  1
  Bi  Bi23  1  0.250000  0.105409  0.110832  1
  Bi  Bi24  1  0.750000  0.252547  0.873948  1
  Bi  Bi25  1  0.250000  0.747453  0.126052  1
  Bi  Bi26  1  0.750000  0.752547  0.626052  1
  Bi  Bi27  1  0.250000  0.247453  0.373948  1
