# generated using pymatgen
data_Nb6Al3Ga(PtC)2
_symmetry_space_group_name_H-M   'P 1'
_cell_length_a   8.39538443
_cell_length_b   8.38534481
_cell_length_c   8.38550219
_cell_angle_alpha   59.98854972
_cell_angle_beta   59.96162184
_cell_angle_gamma   59.96066164
_symmetry_Int_Tables_number   1
_chemical_formula_structural   Nb6Al3Ga(PtC)2
_chemical_formula_sum   'Nb12 Al6 Ga2 Pt4 C4'
_cell_volume   417.14083950
_cell_formula_units_Z   2
loop_
 _symmetry_equiv_pos_site_id
 _symmetry_equiv_pos_as_xyz
  1  'x, y, z'
loop_
 _atom_site_type_symbol
 _atom_site_label
 _atom_site_symmetry_multiplicity
 _atom_site_fract_x
 _atom_site_fract_y
 _atom_site_fract_z
 _atom_site_occupancy
  Nb  Nb0  1  0.566375  0.932941  0.567259  1
  Nb  Nb1  1  0.316527  0.683592  0.683603  1
  Nb  Nb2  1  0.683164  0.317001  0.316988  1
  Nb  Nb3  1  0.316566  0.682757  0.317038  1
  Nb  Nb4  1  0.684265  0.683228  0.316611  1
  Nb  Nb5  1  0.316549  0.317033  0.682770  1
  Nb  Nb6  1  0.566384  0.567275  0.932939  1
  Nb  Nb7  1  0.933698  0.566435  0.566429  1
  Nb  Nb8  1  0.567158  0.932966  0.932987  1
  Nb  Nb9  1  0.934100  0.933370  0.566766  1
  Nb  Nb10  1  0.684265  0.316609  0.683244  1
  Nb  Nb11  1  0.934083  0.566781  0.933374  1
  Al  Al12  1  0.333913  0.996485  0.334482  1
  Al  Al13  1  0.333904  0.334485  0.996487  1
  Al  Al14  1  0.914871  0.253533  0.915522  1
  Al  Al15  1  0.914860  0.915523  0.253533  1
  Al  Al16  1  0.253179  0.915482  0.915501  1
  Al  Al17  1  0.334160  0.334516  0.334489  1
  Ga  Ga18  1  0.913623  0.914452  0.914424  1
  Ga  Ga19  1  0.992589  0.335529  0.335556  1
  Pt  Pt20  1  0.126100  0.122781  0.122787  1
  Pt  Pt21  1  0.621671  0.127219  0.127193  1
  Pt  Pt22  1  0.128743  0.625017  0.124989  1
  Pt  Pt23  1  0.128791  0.124990  0.625013  1
  C  C24  1  0.625077  0.624744  0.624745  1
  C  C25  1  0.124572  0.625253  0.625260  1
  C  C26  1  0.625407  0.125004  0.625002  1
  C  C27  1  0.625410  0.624997  0.125010  1
