# generated using pymatgen
data_Ho3(SiIr)2
_symmetry_space_group_name_H-M   'P 1'
_cell_length_a   5.55733846
_cell_length_b   5.55733850
_cell_length_c   13.21706500
_cell_angle_alpha   90.00000000
_cell_angle_beta   90.00000000
_cell_angle_gamma   136.82209883
_symmetry_Int_Tables_number   1
_chemical_formula_structural   Ho3(SiIr)2
_chemical_formula_sum   'Ho6 Si4 Ir4'
_cell_volume   279.31458748
_cell_formula_units_Z   2
loop_
 _symmetry_equiv_pos_site_id
 _symmetry_equiv_pos_as_xyz
  1  'x, y, z'
loop_
 _atom_site_type_symbol
 _atom_site_label
 _atom_site_symmetry_multiplicity
 _atom_site_fract_x
 _atom_site_fract_y
 _atom_site_fract_z
 _atom_site_occupancy
  Ho  Ho0  1  0.773713  0.226287  0.604373  1
  Ho  Ho1  1  0.518008  0.481992  0.250000  1
  Ho  Ho2  1  0.226287  0.773713  0.395627  1
  Ho  Ho3  1  0.773713  0.226287  0.895627  1
  Ho  Ho4  1  0.481992  0.518008  0.750000  1
  Ho  Ho5  1  0.226287  0.773713  0.104373  1
  Si  Si6  1  0.061605  0.938395  0.590122  1
  Si  Si7  1  0.061605  0.938395  0.909878  1
  Si  Si8  1  0.938395  0.061605  0.409878  1
  Si  Si9  1  0.938395  0.061605  0.090122  1
  Ir  Ir10  1  0.812133  0.187867  0.250000  1
  Ir  Ir11  1  0.187867  0.812133  0.750000  1
  Ir  Ir12  1  0.500000  0.500000  0.000000  1
  Ir  Ir13  1  0.500000  0.500000  0.500000  1
