# generated using pymatgen
data_TbDy3(HoGa5)2
_symmetry_space_group_name_H-M   'P 1'
_cell_length_a   6.09252704
_cell_length_b   9.63204607
_cell_length_c   11.58072300
_cell_angle_alpha   90.00000000
_cell_angle_beta   90.00000000
_cell_angle_gamma   89.98615984
_symmetry_Int_Tables_number   1
_chemical_formula_structural   TbDy3(HoGa5)2
_chemical_formula_sum   'Tb2 Dy6 Ho4 Ga20'
_cell_volume   679.59735197
_cell_formula_units_Z   2
loop_
 _symmetry_equiv_pos_site_id
 _symmetry_equiv_pos_as_xyz
  1  'x, y, z'
loop_
 _atom_site_type_symbol
 _atom_site_label
 _atom_site_symmetry_multiplicity
 _atom_site_fract_x
 _atom_site_fract_y
 _atom_site_fract_z
 _atom_site_occupancy
  Tb  Tb0  1  0.890263  0.507561  0.351296  1
  Tb  Tb1  1  0.609737  0.992439  0.851296  1
  Dy  Dy2  1  0.109753  0.007514  0.648660  1
  Dy  Dy3  1  0.390247  0.492486  0.148660  1
  Dy  Dy4  1  0.109749  0.492471  0.648867  1
  Dy  Dy5  1  0.390251  0.007529  0.148867  1
  Dy  Dy6  1  0.890323  0.992508  0.351248  1
  Dy  Dy7  1  0.609677  0.507492  0.851248  1
  Ho  Ho8  1  0.848945  0.749962  0.074747  1
  Ho  Ho9  1  0.651055  0.750038  0.574747  1
  Ho  Ho10  1  0.150910  0.250011  0.925273  1
  Ho  Ho11  1  0.349090  0.249989  0.425273  1
  Ga  Ga12  1  0.875481  0.053570  0.089902  1
  Ga  Ga13  1  0.624519  0.446430  0.589902  1
  Ga  Ga14  1  0.124542  0.553524  0.910181  1
  Ga  Ga15  1  0.375458  0.946476  0.410181  1
  Ga  Ga16  1  0.124317  0.946379  0.910233  1
  Ga  Ga17  1  0.375683  0.553621  0.410233  1
  Ga  Ga18  1  0.875448  0.446411  0.089641  1
  Ga  Ga19  1  0.624552  0.053589  0.589641  1
  Ga  Ga20  1  0.170396  0.750150  0.253735  1
  Ga  Ga21  1  0.329604  0.749850  0.753735  1
  Ga  Ga22  1  0.829884  0.250171  0.746103  1
  Ga  Ga23  1  0.670116  0.249829  0.246103  1
  Ga  Ga24  1  0.374682  0.749923  0.003197  1
  Ga  Ga25  1  0.125318  0.750077  0.503197  1
  Ga  Ga26  1  0.625232  0.250202  0.997014  1
  Ga  Ga27  1  0.874768  0.249798  0.497014  1
  Ga  Ga28  1  0.603237  0.750236  0.300004  1
  Ga  Ga29  1  0.896763  0.749764  0.800004  1
  Ga  Ga30  1  0.396466  0.250046  0.699898  1
  Ga  Ga31  1  0.103534  0.249954  0.199898  1
