# generated using pymatgen
data_Ta3Al(AsO4)6
_symmetry_space_group_name_H-M   'P 1'
_cell_length_a   9.35433680
_cell_length_b   9.35433138
_cell_length_c   9.35432643
_cell_angle_alpha   57.10863774
_cell_angle_beta   57.10862523
_cell_angle_gamma   57.10867049
_symmetry_Int_Tables_number   1
_chemical_formula_structural   Ta3Al(AsO4)6
_chemical_formula_sum   'Ta3 Al1 As6 O24'
_cell_volume   540.22686263
_cell_formula_units_Z   1
loop_
 _symmetry_equiv_pos_site_id
 _symmetry_equiv_pos_as_xyz
  1  'x, y, z'
loop_
 _atom_site_type_symbol
 _atom_site_label
 _atom_site_symmetry_multiplicity
 _atom_site_fract_x
 _atom_site_fract_y
 _atom_site_fract_z
 _atom_site_occupancy
  Ta  Ta0  1  0.143419  0.143419  0.143419  1
  Ta  Ta1  1  0.356844  0.356845  0.356844  1
  Ta  Ta2  1  0.640008  0.640008  0.640008  1
  Al  Al3  1  0.854770  0.854769  0.854768  1
  As  As4  1  0.026876  0.487083  0.746468  1
  As  As5  1  0.487083  0.746468  0.026877  1
  As  As6  1  0.746468  0.026877  0.487083  1
  As  As7  1  0.231757  0.968604  0.543049  1
  As  As8  1  0.543049  0.231757  0.968603  1
  As  As9  1  0.968604  0.543049  0.231758  1
  O  O10  1  0.144682  0.504369  0.276282  1
  O  O11  1  0.276282  0.144683  0.504367  1
  O  O12  1  0.047353  0.302323  0.943109  1
  O  O13  1  0.504367  0.276283  0.144682  1
  O  O14  1  0.219971  0.426822  0.572662  1
  O  O15  1  0.010941  0.681779  0.731857  1
  O  O16  1  0.302322  0.943108  0.047354  1
  O  O17  1  0.426823  0.572661  0.219971  1
  O  O18  1  0.572661  0.219971  0.426823  1
  O  O19  1  0.249363  0.991495  0.339152  1
  O  O20  1  0.030531  0.970779  0.709301  1
  O  O21  1  0.339152  0.249363  0.991496  1
  O  O22  1  0.681778  0.731858  0.010942  1
  O  O23  1  0.943108  0.047355  0.302322  1
  O  O24  1  0.731858  0.010942  0.681778  1
  O  O25  1  0.415297  0.775362  0.585818  1
  O  O26  1  0.585819  0.415296  0.775361  1
  O  O27  1  0.709301  0.030531  0.970779  1
  O  O28  1  0.991497  0.339151  0.249364  1
  O  O29  1  0.775362  0.585819  0.415296  1
  O  O30  1  0.496693  0.723949  0.851230  1
  O  O31  1  0.970779  0.709300  0.030530  1
  O  O32  1  0.723950  0.851229  0.496693  1
  O  O33  1  0.851229  0.496692  0.723950  1
