# generated using pymatgen
data_NaNpCuS3
_symmetry_space_group_name_H-M   'P 1'
_cell_length_a   6.76337291
_cell_length_b   6.76337450
_cell_length_c   10.28646000
_cell_angle_alpha   90.00000000
_cell_angle_beta   90.00000000
_cell_angle_gamma   146.12337071
_symmetry_Int_Tables_number   1
_chemical_formula_structural   NaNpCuS3
_chemical_formula_sum   'Na2 Np2 Cu2 S6'
_cell_volume   262.27973915
_cell_formula_units_Z   2
loop_
 _symmetry_equiv_pos_site_id
 _symmetry_equiv_pos_as_xyz
  1  'x, y, z'
loop_
 _atom_site_type_symbol
 _atom_site_label
 _atom_site_symmetry_multiplicity
 _atom_site_fract_x
 _atom_site_fract_y
 _atom_site_fract_z
 _atom_site_occupancy
  Na  Na0  1  0.249579  0.750421  0.750000  1
  Na  Na1  1  0.750421  0.249579  0.250000  1
  Np  Np2  1  0.000000  0.000000  0.500000  1
  Np  Np3  1  0.000000  0.000000  0.000000  1
  Cu  Cu4  1  0.529082  0.470918  0.750000  1
  Cu  Cu5  1  0.470918  0.529082  0.250000  1
  S  S6  1  0.073717  0.926283  0.250000  1
  S  S7  1  0.631447  0.368553  0.931430  1
  S  S8  1  0.926283  0.073717  0.750000  1
  S  S9  1  0.631447  0.368553  0.568570  1
  S  S10  1  0.368553  0.631447  0.068570  1
  S  S11  1  0.368553  0.631447  0.431430  1
