# generated using pymatgen
data_Pr2Al3Cu3Si2
_symmetry_space_group_name_H-M   'P 1'
_cell_length_a   8.34335921
_cell_length_b   8.34335882
_cell_length_c   8.34335907
_cell_angle_alpha   138.63846755
_cell_angle_beta   103.06397425
_cell_angle_gamma   91.34119736
_symmetry_Int_Tables_number   1
_chemical_formula_structural   Pr2Al3Cu3Si2
_chemical_formula_sum   'Pr4 Al6 Cu6 Si4'
_cell_volume   356.64969276
_cell_formula_units_Z   2
loop_
 _symmetry_equiv_pos_site_id
 _symmetry_equiv_pos_as_xyz
  1  'x, y, z'
loop_
 _atom_site_type_symbol
 _atom_site_label
 _atom_site_symmetry_multiplicity
 _atom_site_fract_x
 _atom_site_fract_y
 _atom_site_fract_z
 _atom_site_occupancy
  Pr  Pr0  1  0.877010  0.626394  0.250617  1
  Pr  Pr1  1  0.122990  0.373606  0.749383  1
  Pr  Pr2  1  0.375777  0.126394  0.249383  1
  Pr  Pr3  1  0.624223  0.873606  0.750617  1
  Al  Al4  1  0.500000  0.750000  0.250000  1
  Al  Al5  1  0.500000  0.250000  0.750000  1
  Al  Al6  1  0.248564  0.998564  0.750000  1
  Al  Al7  1  0.751436  0.501436  0.750000  1
  Al  Al8  1  0.751436  0.001436  0.250000  1
  Al  Al9  1  0.248564  0.498564  0.250000  1
  Cu  Cu10  1  0.000000  0.750000  0.750000  1
  Cu  Cu11  1  0.000000  0.250000  0.250000  1
  Cu  Cu12  1  0.241281  0.874443  0.366840  1
  Cu  Cu13  1  0.758719  0.125557  0.633160  1
  Cu  Cu14  1  0.507603  0.374443  0.133160  1
  Cu  Cu15  1  0.492397  0.625557  0.866840  1
  Si  Si16  1  0.021295  0.882627  0.138669  1
  Si  Si17  1  0.978705  0.117373  0.861331  1
  Si  Si18  1  0.743958  0.382627  0.361331  1
  Si  Si19  1  0.256042  0.617373  0.638669  1
