# generated using pymatgen
data_Cs6Na2Sn7Pb
_symmetry_space_group_name_H-M   'P 1'
_cell_length_a   9.49781521
_cell_length_b   9.46053486
_cell_length_c   11.18738500
_cell_angle_alpha   90.00000000
_cell_angle_beta   90.00000000
_cell_angle_gamma   135.14067987
_symmetry_Int_Tables_number   1
_chemical_formula_structural   Cs6Na2Sn7Pb
_chemical_formula_sum   'Cs6 Na2 Sn7 Pb1'
_cell_volume   709.06171196
_cell_formula_units_Z   1
loop_
 _symmetry_equiv_pos_site_id
 _symmetry_equiv_pos_as_xyz
  1  'x, y, z'
loop_
 _atom_site_type_symbol
 _atom_site_label
 _atom_site_symmetry_multiplicity
 _atom_site_fract_x
 _atom_site_fract_y
 _atom_site_fract_z
 _atom_site_occupancy
  Cs  Cs0  1  0.611708  0.387077  0.555794  1
  Cs  Cs1  1  0.611708  0.387077  0.944206  1
  Cs  Cs2  1  0.386904  0.611695  0.445779  1
  Cs  Cs3  1  0.386904  0.611695  0.054221  1
  Cs  Cs4  1  0.767750  0.232559  0.250000  1
  Cs  Cs5  1  0.232642  0.767395  0.750000  1
  Na  Na6  1  0.001092  0.000911  0.500548  1
  Na  Na7  1  0.001092  0.000911  0.999452  1
  Sn  Sn8  1  0.274489  0.173187  0.250000  1
  Sn  Sn9  1  0.831111  0.169551  0.881162  1
  Sn  Sn10  1  0.831111  0.169551  0.618838  1
  Sn  Sn11  1  0.169617  0.270525  0.750000  1
  Sn  Sn12  1  0.729313  0.829417  0.750000  1
  Sn  Sn13  1  0.172560  0.832812  0.381024  1
  Sn  Sn14  1  0.172560  0.832812  0.118976  1
  Pb  Pb15  1  0.819439  0.722826  0.250000  1
