# generated using pymatgen
data_Li8Pr8Sn5Sb3
_symmetry_space_group_name_H-M   'P 1'
_cell_length_a   9.57558500
_cell_length_b   9.57558487
_cell_length_c   7.70811000
_cell_angle_alpha   90.00000000
_cell_angle_beta   90.00000000
_cell_angle_gamma   119.99999701
_symmetry_Int_Tables_number   1
_chemical_formula_structural   Li8Pr8Sn5Sb3
_chemical_formula_sum   'Li8 Pr8 Sn5 Sb3'
_cell_volume   612.08138817
_cell_formula_units_Z   1
loop_
 _symmetry_equiv_pos_site_id
 _symmetry_equiv_pos_as_xyz
  1  'x, y, z'
loop_
 _atom_site_type_symbol
 _atom_site_label
 _atom_site_symmetry_multiplicity
 _atom_site_fract_x
 _atom_site_fract_y
 _atom_site_fract_z
 _atom_site_occupancy
  Li  Li0  1  0.833118  0.166882  0.719435  1
  Li  Li1  1  0.833118  0.666235  0.719435  1
  Li  Li2  1  0.333765  0.166882  0.719435  1
  Li  Li3  1  0.166616  0.833384  0.216782  1
  Li  Li4  1  0.166616  0.333232  0.216782  1
  Li  Li5  1  0.666768  0.833384  0.216782  1
  Li  Li6  1  0.666667  0.333333  0.325847  1
  Li  Li7  1  0.333333  0.666667  0.822189  1
  Pr  Pr8  1  0.487756  0.512244  0.507426  1
  Pr  Pr9  1  0.487756  0.975512  0.507426  1
  Pr  Pr10  1  0.024488  0.512244  0.507426  1
  Pr  Pr11  1  0.509935  0.490065  0.003695  1
  Pr  Pr12  1  0.509935  0.019869  0.003695  1
  Pr  Pr13  1  0.980131  0.490065  0.003695  1
  Pr  Pr14  1  0.000000  0.000000  0.501812  1
  Pr  Pr15  1  0.000000  0.000000  0.996811  1
  Sn  Sn16  1  0.166776  0.833224  0.767381  1
  Sn  Sn17  1  0.166776  0.333551  0.767381  1
  Sn  Sn18  1  0.666449  0.833224  0.767381  1
  Sn  Sn19  1  0.666667  0.333333  0.736514  1
  Sn  Sn20  1  0.333333  0.666667  0.236489  1
  Sb  Sb21  1  0.833285  0.166715  0.264728  1
  Sb  Sb22  1  0.833285  0.666570  0.264728  1
  Sb  Sb23  1  0.333430  0.166715  0.264728  1
