# generated using pymatgen
data_NdSmNi6(BPt)2
_symmetry_space_group_name_H-M   'P 1'
_cell_length_a   5.15375600
_cell_length_b   5.15806887
_cell_length_c   7.16113000
_cell_angle_alpha   90.00000000
_cell_angle_beta   90.00000000
_cell_angle_gamma   119.97234455
_symmetry_Int_Tables_number   1
_chemical_formula_structural   NdSmNi6(BPt)2
_chemical_formula_sum   'Nd1 Sm1 Ni6 B2 Pt2'
_cell_volume   164.90891670
_cell_formula_units_Z   1
loop_
 _symmetry_equiv_pos_site_id
 _symmetry_equiv_pos_as_xyz
  1  'x, y, z'
loop_
 _atom_site_type_symbol
 _atom_site_label
 _atom_site_symmetry_multiplicity
 _atom_site_fract_x
 _atom_site_fract_y
 _atom_site_fract_z
 _atom_site_occupancy
  Nd  Nd0  1  0.999979  0.000000  0.000000  1
  Sm  Sm1  1  0.999985  0.000000  0.500000  1
  Ni  Ni2  1  0.499981  0.000000  0.305765  1
  Ni  Ni3  1  0.499983  0.500000  0.305631  1
  Ni  Ni4  1  0.999983  0.500000  0.305631  1
  Ni  Ni5  1  0.499981  0.000000  0.694235  1
  Ni  Ni6  1  0.499983  0.500000  0.694369  1
  Ni  Ni7  1  0.999983  0.500000  0.694369  1
  B  B8  1  0.333337  0.666702  0.500000  1
  B  B9  1  0.666635  0.333298  0.500000  1
  Pt  Pt10  1  0.333314  0.666662  0.000000  1
  Pt  Pt11  1  0.666654  0.333338  0.000000  1
