# generated using pymatgen
data_LaLu2Th(ReB6)2
_symmetry_space_group_name_H-M   'P 1'
_cell_length_a   3.73636100
_cell_length_b   9.22129401
_cell_length_c   11.69539783
_cell_angle_alpha   89.90737034
_cell_angle_beta   90.00000000
_cell_angle_gamma   90.00000000
_symmetry_Int_Tables_number   1
_chemical_formula_structural   LaLu2Th(ReB6)2
_chemical_formula_sum   'La2 Lu4 Th2 Re4 B24'
_cell_volume   402.95368437
_cell_formula_units_Z   2
loop_
 _symmetry_equiv_pos_site_id
 _symmetry_equiv_pos_as_xyz
  1  'x, y, z'
loop_
 _atom_site_type_symbol
 _atom_site_label
 _atom_site_symmetry_multiplicity
 _atom_site_fract_x
 _atom_site_fract_y
 _atom_site_fract_z
 _atom_site_occupancy
  La  La0  1  0.000000  0.323166  0.414438  1
  La  La1  1  0.000000  0.676834  0.585562  1
  Lu  Lu2  1  0.000000  0.943570  0.370140  1
  Lu  Lu3  1  0.000000  0.056430  0.629860  1
  Lu  Lu4  1  0.000000  0.444361  0.128805  1
  Lu  Lu5  1  0.000000  0.555639  0.871195  1
  Th  Th6  1  0.000000  0.821609  0.085591  1
  Th  Th7  1  0.000000  0.178391  0.914409  1
  Re  Re8  1  0.000000  0.642500  0.316047  1
  Re  Re9  1  0.000000  0.357500  0.683953  1
  Re  Re10  1  0.000000  0.138794  0.179709  1
  Re  Re11  1  0.000000  0.861206  0.820291  1
  B  B12  1  0.500000  0.557509  0.427902  1
  B  B13  1  0.500000  0.442491  0.572098  1
  B  B14  1  0.500000  0.056338  0.070543  1
  B  B15  1  0.500000  0.943662  0.929457  1
  B  B16  1  0.500000  0.751641  0.414416  1
  B  B17  1  0.500000  0.248359  0.585584  1
  B  B18  1  0.500000  0.251285  0.084236  1
  B  B19  1  0.500000  0.748715  0.915764  1
  B  B20  1  0.500000  0.792533  0.265092  1
  B  B21  1  0.500000  0.207467  0.734908  1
  B  B22  1  0.500000  0.291715  0.233047  1
  B  B23  1  0.500000  0.708285  0.766953  1
  B  B24  1  0.500000  0.630207  0.184887  1
  B  B25  1  0.500000  0.369793  0.815113  1
  B  B26  1  0.500000  0.128954  0.313380  1
  B  B27  1  0.500000  0.871046  0.686620  1
  B  B28  1  0.500000  0.984461  0.213766  1
  B  B29  1  0.500000  0.015539  0.786234  1
  B  B30  1  0.500000  0.485592  0.284863  1
  B  B31  1  0.500000  0.514408  0.715137  1
  B  B32  1  0.500000  0.598925  0.026764  1
  B  B33  1  0.500000  0.401075  0.973236  1
  B  B34  1  0.500000  0.094801  0.474129  1
  B  B35  1  0.500000  0.905199  0.525871  1
