# generated using pymatgen
data_EuY2SbO7
_symmetry_space_group_name_H-M   'P 1'
_cell_length_a   6.50213500
_cell_length_b   6.50213493
_cell_length_c   7.60029200
_cell_angle_alpha   90.00000000
_cell_angle_beta   90.00000000
_cell_angle_gamma   108.68127492
_symmetry_Int_Tables_number   1
_chemical_formula_structural   EuY2SbO7
_chemical_formula_sum   'Eu2 Y4 Sb2 O14'
_cell_volume   304.39439789
_cell_formula_units_Z   2
loop_
 _symmetry_equiv_pos_site_id
 _symmetry_equiv_pos_as_xyz
  1  'x, y, z'
loop_
 _atom_site_type_symbol
 _atom_site_label
 _atom_site_symmetry_multiplicity
 _atom_site_fract_x
 _atom_site_fract_y
 _atom_site_fract_z
 _atom_site_occupancy
  Eu  Eu0  1  0.500000  0.500000  0.500000  1
  Eu  Eu1  1  0.500000  0.500000  0.000000  1
  Y  Y2  1  0.531330  0.999324  0.750000  1
  Y  Y3  1  0.999324  0.531330  0.250000  1
  Y  Y4  1  0.468670  0.000676  0.250000  1
  Y  Y5  1  0.000676  0.468670  0.750000  1
  Sb  Sb6  1  0.000000  0.000000  0.500000  1
  Sb  Sb7  1  0.000000  0.000000  0.000000  1
  O  O8  1  0.680302  0.933508  0.470547  1
  O  O9  1  0.933508  0.680302  0.529453  1
  O  O10  1  0.680302  0.933508  0.029453  1
  O  O11  1  0.933508  0.680302  0.970547  1
  O  O12  1  0.319698  0.066492  0.529453  1
  O  O13  1  0.066492  0.319698  0.470547  1
  O  O14  1  0.319698  0.066492  0.970547  1
  O  O15  1  0.066492  0.319698  0.029453  1
  O  O16  1  0.931169  0.068831  0.750000  1
  O  O17  1  0.068831  0.931169  0.250000  1
  O  O18  1  0.366414  0.633586  0.750000  1
  O  O19  1  0.633586  0.366414  0.250000  1
  O  O20  1  0.638993  0.361007  0.750000  1
  O  O21  1  0.361007  0.638993  0.250000  1
