# generated using pymatgen
data_Cs2Dy7BBr18
_symmetry_space_group_name_H-M   'P 1'
_cell_length_a   10.71151628
_cell_length_b   10.71151543
_cell_length_c   11.61540341
_cell_angle_alpha   117.45753353
_cell_angle_beta   62.54246943
_cell_angle_gamma   120.00000325
_symmetry_Int_Tables_number   1
_chemical_formula_structural   Cs2Dy7BBr18
_chemical_formula_sum   'Cs2 Dy7 B1 Br18'
_cell_volume   976.97396871
_cell_formula_units_Z   1
loop_
 _symmetry_equiv_pos_site_id
 _symmetry_equiv_pos_as_xyz
  1  'x, y, z'
loop_
 _atom_site_type_symbol
 _atom_site_label
 _atom_site_symmetry_multiplicity
 _atom_site_fract_x
 _atom_site_fract_y
 _atom_site_fract_z
 _atom_site_occupancy
  Cs  Cs0  1  0.222076  0.777924  0.333775  1
  Cs  Cs1  1  0.777925  0.222075  0.666225  1
  Dy  Dy2  1  0.777133  0.108171  0.155666  1
  Dy  Dy3  1  0.891828  0.824628  0.155666  1
  Dy  Dy4  1  0.175373  0.222867  0.155666  1
  Dy  Dy5  1  0.500000  0.500000  0.500000  1
  Dy  Dy6  1  0.824628  0.777134  0.844334  1
  Dy  Dy7  1  0.108171  0.175371  0.844334  1
  Dy  Dy8  1  0.222866  0.891827  0.844334  1
  B  B9  1  0.000000  0.000000  0.000000  1
  Br  Br10  1  0.286338  0.424109  0.007491  1
  Br  Br11  1  0.575889  0.869720  0.007491  1
  Br  Br12  1  0.130281  0.713663  0.007491  1
  Br  Br13  1  0.946227  0.347952  0.333162  1
  Br  Br14  1  0.068563  0.053773  0.333162  1
  Br  Br15  1  0.652047  0.931437  0.333162  1
  Br  Br16  1  0.523513  0.214697  0.334673  1
  Br  Br17  1  0.785302  0.643489  0.334673  1
  Br  Br18  1  0.356511  0.476486  0.334673  1
  Br  Br19  1  0.643489  0.523514  0.665327  1
  Br  Br20  1  0.214699  0.356513  0.665327  1
  Br  Br21  1  0.476486  0.785302  0.665327  1
  Br  Br22  1  0.347952  0.068562  0.666837  1
  Br  Br23  1  0.931438  0.946226  0.666837  1
  Br  Br24  1  0.053773  0.652047  0.666837  1
  Br  Br25  1  0.869721  0.286338  0.992509  1
  Br  Br26  1  0.424109  0.130279  0.992509  1
  Br  Br27  1  0.713662  0.575891  0.992509  1
