# generated using pymatgen
data_La2B8Ru7
_symmetry_space_group_name_H-M   'P 1'
_cell_length_a   6.48671900
_cell_length_b   6.48671900
_cell_length_c   10.13953500
_cell_angle_alpha   90.00000000
_cell_angle_beta   90.00000000
_cell_angle_gamma   90.00000000
_symmetry_Int_Tables_number   1
_chemical_formula_structural   La2B8Ru7
_chemical_formula_sum   'La4 B16 Ru14'
_cell_volume   426.64652108
_cell_formula_units_Z   2
loop_
 _symmetry_equiv_pos_site_id
 _symmetry_equiv_pos_as_xyz
  1  'x, y, z'
loop_
 _atom_site_type_symbol
 _atom_site_label
 _atom_site_symmetry_multiplicity
 _atom_site_fract_x
 _atom_site_fract_y
 _atom_site_fract_z
 _atom_site_occupancy
  La  La0  1  0.734322  0.881067  0.000000  1
  La  La1  1  0.118933  0.734322  0.500000  1
  La  La2  1  0.881067  0.265678  0.500000  1
  La  La3  1  0.265678  0.118933  0.000000  1
  B  B4  1  0.500000  0.000000  0.589143  1
  B  B5  1  0.500000  0.000000  0.410857  1
  B  B6  1  0.897211  0.276695  0.170129  1
  B  B7  1  0.102789  0.723305  0.829871  1
  B  B8  1  0.500000  0.500000  0.341167  1
  B  B9  1  0.500000  0.500000  0.841167  1
  B  B10  1  0.276695  0.102789  0.670129  1
  B  B11  1  0.102789  0.723305  0.170129  1
  B  B12  1  0.276695  0.102789  0.329871  1
  B  B13  1  0.897211  0.276695  0.829871  1
  B  B14  1  0.500000  0.500000  0.658833  1
  B  B15  1  0.500000  0.500000  0.158833  1
  B  B16  1  0.000000  0.500000  0.910857  1
  B  B17  1  0.723305  0.897211  0.670129  1
  B  B18  1  0.723305  0.897211  0.329871  1
  B  B19  1  0.000000  0.500000  0.089143  1
  Ru  Ru20  1  0.204533  0.399381  0.752080  1
  Ru  Ru21  1  0.399810  0.286242  0.500000  1
  Ru  Ru22  1  0.399381  0.795467  0.252080  1
  Ru  Ru23  1  0.204533  0.399381  0.247920  1
  Ru  Ru24  1  0.600190  0.713758  0.500000  1
  Ru  Ru25  1  0.600619  0.204533  0.747920  1
  Ru  Ru26  1  0.286242  0.600190  0.000000  1
  Ru  Ru27  1  0.713758  0.399810  0.000000  1
  Ru  Ru28  1  0.795467  0.600619  0.247920  1
  Ru  Ru29  1  0.795467  0.600619  0.752080  1
  Ru  Ru30  1  0.399381  0.795467  0.747920  1
  Ru  Ru31  1  0.000000  0.000000  0.250000  1
  Ru  Ru32  1  0.600619  0.204533  0.252080  1
  Ru  Ru33  1  0.000000  0.000000  0.750000  1
