# generated using pymatgen
data_EuAsPRu2
_symmetry_space_group_name_H-M   'P 1'
_cell_length_a   6.05806273
_cell_length_b   6.05806306
_cell_length_c   6.05806364
_cell_angle_alpha   140.09972637
_cell_angle_beta   140.09972720
_cell_angle_gamma   57.70191099
_symmetry_Int_Tables_number   1
_chemical_formula_structural   EuAsPRu2
_chemical_formula_sum   'Eu1 As1 P1 Ru2'
_cell_volume   90.68357497
_cell_formula_units_Z   1
loop_
 _symmetry_equiv_pos_site_id
 _symmetry_equiv_pos_as_xyz
  1  'x, y, z'
loop_
 _atom_site_type_symbol
 _atom_site_label
 _atom_site_symmetry_multiplicity
 _atom_site_fract_x
 _atom_site_fract_y
 _atom_site_fract_z
 _atom_site_occupancy
  Eu  Eu0  1  0.001043  0.001043  0.000000  1
  As  As1  1  0.368772  0.368772  0.000000  1
  P  P2  1  0.643218  0.643218  0.000000  1
  Ru  Ru3  1  0.743484  0.243484  0.500000  1
  Ru  Ru4  1  0.243484  0.743484  0.500000  1
