# generated using pymatgen
data_Dy3Zr5(Ta3Si4)4
_symmetry_space_group_name_H-M   'P 1'
_cell_length_a   6.93499918
_cell_length_b   6.93344642
_cell_length_c   12.85501820
_cell_angle_alpha   89.96882307
_cell_angle_beta   90.08730806
_cell_angle_gamma   89.86016480
_symmetry_Int_Tables_number   1
_chemical_formula_structural   Dy3Zr5(Ta3Si4)4
_chemical_formula_sum   'Dy3 Zr5 Ta12 Si16'
_cell_volume   618.11091276
_cell_formula_units_Z   1
loop_
 _symmetry_equiv_pos_site_id
 _symmetry_equiv_pos_as_xyz
  1  'x, y, z'
loop_
 _atom_site_type_symbol
 _atom_site_label
 _atom_site_symmetry_multiplicity
 _atom_site_fract_x
 _atom_site_fract_y
 _atom_site_fract_z
 _atom_site_occupancy
  Dy  Dy0  1  0.998627  0.660319  0.031431  1
  Dy  Dy1  1  0.001801  0.338728  0.530851  1
  Dy  Dy2  1  0.660438  0.998656  0.968681  1
  Zr  Zr3  1  0.160716  0.497758  0.781393  1
  Zr  Zr4  1  0.839581  0.501978  0.282458  1
  Zr  Zr5  1  0.497834  0.160989  0.218972  1
  Zr  Zr6  1  0.501783  0.840385  0.717969  1
  Zr  Zr7  1  0.343047  0.995424  0.468258  1
  Ta  Ta8  1  0.347440  0.506971  0.375675  1
  Ta  Ta9  1  0.844520  0.995964  0.373523  1
  Ta  Ta10  1  0.005529  0.155224  0.128280  1
  Ta  Ta11  1  0.994913  0.847058  0.625640  1
  Ta  Ta12  1  0.651898  0.492835  0.874187  1
  Ta  Ta13  1  0.504450  0.347778  0.623629  1
  Ta  Ta14  1  0.493005  0.652300  0.125971  1
  Ta  Ta15  1  0.155566  0.004613  0.872035  1
  Ta  Ta16  1  0.668102  0.671447  0.500086  1
  Ta  Ta17  1  0.829999  0.169702  0.749128  1
  Ta  Ta18  1  0.170612  0.830922  0.251207  1
  Ta  Ta19  1  0.330462  0.330588  0.000147  1
  Si  Si20  1  0.044314  0.705136  0.436042  1
  Si  Si21  1  0.957645  0.296241  0.935734  1
  Si  Si22  1  0.700037  0.043485  0.563587  1
  Si  Si23  1  0.202589  0.455113  0.187928  1
  Si  Si24  1  0.797603  0.544023  0.687003  1
  Si  Si25  1  0.455292  0.202625  0.812446  1
  Si  Si26  1  0.543342  0.798854  0.313491  1
  Si  Si27  1  0.296807  0.957633  0.064191  1
  Si  Si28  1  0.866939  0.791931  0.818212  1
  Si  Si29  1  0.136178  0.205577  0.321025  1
  Si  Si30  1  0.791863  0.867031  0.181950  1
  Si  Si31  1  0.294903  0.638016  0.572424  1
  Si  Si32  1  0.704929  0.364966  0.073202  1
  Si  Si33  1  0.632363  0.292969  0.426643  1
  Si  Si34  1  0.364977  0.704578  0.926975  1
  Si  Si35  1  0.209894  0.132184  0.679628  1
