# generated using pymatgen
data_Hf10InCuGeSb5
_symmetry_space_group_name_H-M   'P 1'
_cell_length_a   8.60915816
_cell_length_b   8.60915744
_cell_length_c   5.78281914
_cell_angle_alpha   90.05958169
_cell_angle_beta   90.05957474
_cell_angle_gamma   120.13331727
_symmetry_Int_Tables_number   1
_chemical_formula_structural   Hf10InCuGeSb5
_chemical_formula_sum   'Hf10 In1 Cu1 Ge1 Sb5'
_cell_volume   370.68553400
_cell_formula_units_Z   1
loop_
 _symmetry_equiv_pos_site_id
 _symmetry_equiv_pos_as_xyz
  1  'x, y, z'
loop_
 _atom_site_type_symbol
 _atom_site_label
 _atom_site_symmetry_multiplicity
 _atom_site_fract_x
 _atom_site_fract_y
 _atom_site_fract_z
 _atom_site_occupancy
  Hf  Hf0  1  0.668205  0.332894  0.999384  1
  Hf  Hf1  1  0.332894  0.668205  0.999384  1
  Hf  Hf2  1  0.333044  0.667913  0.501107  1
  Hf  Hf3  1  0.667913  0.333044  0.501107  1
  Hf  Hf4  1  0.734321  0.734321  0.752514  1
  Hf  Hf5  1  0.267229  0.999559  0.752723  1
  Hf  Hf6  1  0.999559  0.267229  0.752723  1
  Hf  Hf7  1  0.262998  0.262998  0.247359  1
  Hf  Hf8  1  0.734871  0.999476  0.247993  1
  Hf  Hf9  1  0.999476  0.734871  0.247993  1
  In  In10  1  0.386320  0.386320  0.750590  1
  Cu  Cu11  1  0.001977  0.001977  0.995474  1
  Ge  Ge12  1  0.000886  0.000886  0.503091  1
  Sb  Sb13  1  0.612053  0.000475  0.751408  1
  Sb  Sb14  1  0.000475  0.612053  0.751408  1
  Sb  Sb15  1  0.607744  0.607744  0.247860  1
  Sb  Sb16  1  0.389275  0.000764  0.248941  1
  Sb  Sb17  1  0.000764  0.389275  0.248941  1
