# generated using pymatgen
data_Ho3Sc2Sn2Bi
_symmetry_space_group_name_H-M   'P 1'
_cell_length_a   8.82837340
_cell_length_b   8.82376369
_cell_length_c   6.23790200
_cell_angle_alpha   90.00000000
_cell_angle_beta   90.00000000
_cell_angle_gamma   119.98271740
_symmetry_Int_Tables_number   1
_chemical_formula_structural   Ho3Sc2Sn2Bi
_chemical_formula_sum   'Ho6 Sc4 Sn4 Bi2'
_cell_volume   420.90040924
_cell_formula_units_Z   2
loop_
 _symmetry_equiv_pos_site_id
 _symmetry_equiv_pos_as_xyz
  1  'x, y, z'
loop_
 _atom_site_type_symbol
 _atom_site_label
 _atom_site_symmetry_multiplicity
 _atom_site_fract_x
 _atom_site_fract_y
 _atom_site_fract_z
 _atom_site_occupancy
  Ho  Ho0  1  0.995383  0.756350  0.750000  1
  Ho  Ho1  1  0.995383  0.239033  0.250000  1
  Ho  Ho2  1  0.763331  0.762835  0.250000  1
  Ho  Ho3  1  0.763331  0.000496  0.750000  1
  Ho  Ho4  1  0.237699  0.242822  0.750000  1
  Ho  Ho5  1  0.237699  0.994877  0.250000  1
  Sc  Sc6  1  0.331508  0.665755  0.500000  1
  Sc  Sc7  1  0.672362  0.336180  0.000000  1
  Sc  Sc8  1  0.672362  0.336180  0.500000  1
  Sc  Sc9  1  0.331508  0.665755  0.000000  1
  Sn  Sn10  1  0.000518  0.600078  0.250000  1
  Sn  Sn11  1  0.000518  0.400440  0.750000  1
  Sn  Sn12  1  0.600528  0.601134  0.750000  1
  Sn  Sn13  1  0.600528  0.999394  0.250000  1
  Bi  Bi14  1  0.398671  0.001130  0.750000  1
  Bi  Bi15  1  0.398671  0.397541  0.250000  1
