# generated using pymatgen
data_PrU(PRh)2
_symmetry_space_group_name_H-M   'P 1'
_cell_length_a   4.11848700
_cell_length_b   4.11848780
_cell_length_c   7.81214200
_cell_angle_alpha   90.00000000
_cell_angle_beta   90.00000000
_cell_angle_gamma   120.00000162
_symmetry_Int_Tables_number   1
_chemical_formula_structural   PrU(PRh)2
_chemical_formula_sum   'Pr1 U1 P2 Rh2'
_cell_volume   114.75622055
_cell_formula_units_Z   1
loop_
 _symmetry_equiv_pos_site_id
 _symmetry_equiv_pos_as_xyz
  1  'x, y, z'
loop_
 _atom_site_type_symbol
 _atom_site_label
 _atom_site_symmetry_multiplicity
 _atom_site_fract_x
 _atom_site_fract_y
 _atom_site_fract_z
 _atom_site_occupancy
  Pr  Pr0  1  0.000000  0.000000  0.000000  1
  U  U1  1  0.000000  0.000000  0.500000  1
  P  P2  1  0.333333  0.666667  0.244587  1
  P  P3  1  0.666667  0.333333  0.755413  1
  Rh  Rh4  1  0.333333  0.666667  0.707590  1
  Rh  Rh5  1  0.666667  0.333333  0.292410  1
