# generated using pymatgen
data_YbHo2(SiIr2)3
_symmetry_space_group_name_H-M   'P 1'
_cell_length_a   5.56836100
_cell_length_b   5.56836118
_cell_length_c   15.12276500
_cell_angle_alpha   90.00000000
_cell_angle_beta   90.00000000
_cell_angle_gamma   120.00000488
_symmetry_Int_Tables_number   1
_chemical_formula_structural   YbHo2(SiIr2)3
_chemical_formula_sum   'Yb2 Ho4 Si6 Ir12'
_cell_volume   406.08466903
_cell_formula_units_Z   2
loop_
 _symmetry_equiv_pos_site_id
 _symmetry_equiv_pos_as_xyz
  1  'x, y, z'
loop_
 _atom_site_type_symbol
 _atom_site_label
 _atom_site_symmetry_multiplicity
 _atom_site_fract_x
 _atom_site_fract_y
 _atom_site_fract_z
 _atom_site_occupancy
  Yb  Yb0  1  0.333333  0.666667  0.750000  1
  Yb  Yb1  1  0.666667  0.333333  0.250000  1
  Ho  Ho2  1  0.333333  0.666667  0.542777  1
  Ho  Ho3  1  0.666667  0.333333  0.457223  1
  Ho  Ho4  1  0.666667  0.333333  0.042777  1
  Ho  Ho5  1  0.333333  0.666667  0.957223  1
  Si  Si6  1  0.000000  0.000000  0.250000  1
  Si  Si7  1  0.000000  0.000000  0.750000  1
  Si  Si8  1  0.333333  0.666667  0.250000  1
  Si  Si9  1  0.666667  0.333333  0.750000  1
  Si  Si10  1  0.000000  0.000000  0.000000  1
  Si  Si11  1  0.000000  0.000000  0.500000  1
  Ir  Ir12  1  0.167743  0.335485  0.129320  1
  Ir  Ir13  1  0.832257  0.664515  0.870680  1
  Ir  Ir14  1  0.664515  0.832257  0.129320  1
  Ir  Ir15  1  0.832257  0.664515  0.629320  1
  Ir  Ir16  1  0.335485  0.167743  0.870680  1
  Ir  Ir17  1  0.167743  0.335485  0.370680  1
  Ir  Ir18  1  0.167743  0.832257  0.129320  1
  Ir  Ir19  1  0.335485  0.167743  0.629320  1
  Ir  Ir20  1  0.832257  0.167743  0.870680  1
  Ir  Ir21  1  0.664515  0.832257  0.370680  1
  Ir  Ir22  1  0.832257  0.167743  0.629320  1
  Ir  Ir23  1  0.167743  0.832257  0.370680  1
