# generated using pymatgen
data_TaCo2Si2Mo
_symmetry_space_group_name_H-M   'P 1'
_cell_length_a   6.15544800
_cell_length_b   3.62717600
_cell_length_c   7.00254700
_cell_angle_alpha   90.00000000
_cell_angle_beta   90.00000000
_cell_angle_gamma   90.00000000
_symmetry_Int_Tables_number   1
_chemical_formula_structural   TaCo2Si2Mo
_chemical_formula_sum   'Ta2 Co4 Si4 Mo2'
_cell_volume   156.34511938
_cell_formula_units_Z   2
loop_
 _symmetry_equiv_pos_site_id
 _symmetry_equiv_pos_as_xyz
  1  'x, y, z'
loop_
 _atom_site_type_symbol
 _atom_site_label
 _atom_site_symmetry_multiplicity
 _atom_site_fract_x
 _atom_site_fract_y
 _atom_site_fract_z
 _atom_site_occupancy
  Ta  Ta0  1  0.975537  0.750000  0.173990  1
  Ta  Ta1  1  0.475537  0.750000  0.326010  1
  Co  Co2  1  0.145989  0.250000  0.434958  1
  Co  Co3  1  0.645989  0.250000  0.065042  1
  Co  Co4  1  0.856705  0.750000  0.559342  1
  Co  Co5  1  0.356705  0.750000  0.940658  1
  Si  Si6  1  0.775913  0.250000  0.385541  1
  Si  Si7  1  0.275913  0.250000  0.114459  1
  Si  Si8  1  0.222487  0.750000  0.628832  1
  Si  Si9  1  0.722487  0.750000  0.871168  1
  Mo  Mo10  1  0.023370  0.250000  0.826415  1
  Mo  Mo11  1  0.523370  0.250000  0.673585  1
