# generated using pymatgen
data_Sr4Ga5Pd9
_symmetry_space_group_name_H-M   'P 1'
_cell_length_a   12.79079501
_cell_length_b   12.79079486
_cell_length_c   12.79079592
_cell_angle_alpha   25.94868793
_cell_angle_beta   25.94868866
_cell_angle_gamma   25.94868371
_symmetry_Int_Tables_number   1
_chemical_formula_structural   Sr4Ga5Pd9
_chemical_formula_sum   'Sr4 Ga5 Pd9'
_cell_volume   352.91086672
_cell_formula_units_Z   1
loop_
 _symmetry_equiv_pos_site_id
 _symmetry_equiv_pos_as_xyz
  1  'x, y, z'
loop_
 _atom_site_type_symbol
 _atom_site_label
 _atom_site_symmetry_multiplicity
 _atom_site_fract_x
 _atom_site_fract_y
 _atom_site_fract_z
 _atom_site_occupancy
  Sr  Sr0  1  0.949442  0.949442  0.949442  1
  Sr  Sr1  1  0.050558  0.050558  0.050558  1
  Sr  Sr2  1  0.852567  0.852567  0.852567  1
  Sr  Sr3  1  0.147433  0.147433  0.147433  1
  Ga  Ga4  1  0.500000  0.500000  0.500000  1
  Ga  Ga5  1  0.721927  0.721927  0.721927  1
  Ga  Ga6  1  0.278073  0.278073  0.278073  1
  Ga  Ga7  1  0.612094  0.612094  0.612094  1
  Ga  Ga8  1  0.387906  0.387906  0.387906  1
  Pd  Pd9  1  0.500000  0.500000  0.000000  1
  Pd  Pd10  1  0.000000  0.500000  0.500000  1
  Pd  Pd11  1  0.500000  0.000000  0.500000  1
  Pd  Pd12  1  0.391797  0.889776  0.391797  1
  Pd  Pd13  1  0.391797  0.391797  0.889776  1
  Pd  Pd14  1  0.889776  0.391797  0.391797  1
  Pd  Pd15  1  0.608203  0.110224  0.608203  1
  Pd  Pd16  1  0.608203  0.608203  0.110224  1
  Pd  Pd17  1  0.110224  0.608203  0.608203  1
