# generated using pymatgen
data_Yb3Dy3Al19Si5Os8
_symmetry_space_group_name_H-M   'P 1'
_cell_length_a   8.70411600
_cell_length_b   8.68313706
_cell_length_c   9.65079900
_cell_angle_alpha   89.99976599
_cell_angle_beta   90.00000000
_cell_angle_gamma   120.07994707
_symmetry_Int_Tables_number   1
_chemical_formula_structural   Yb3Dy3Al19Si5Os8
_chemical_formula_sum   'Yb3 Dy3 Al19 Si5 Os8'
_cell_volume   631.16774593
_cell_formula_units_Z   1
loop_
 _symmetry_equiv_pos_site_id
 _symmetry_equiv_pos_as_xyz
  1  'x, y, z'
loop_
 _atom_site_type_symbol
 _atom_site_label
 _atom_site_symmetry_multiplicity
 _atom_site_fract_x
 _atom_site_fract_y
 _atom_site_fract_z
 _atom_site_occupancy
  Yb  Yb0  1  0.194819  0.389637  0.249998  1
  Yb  Yb1  1  0.606837  0.806606  0.249995  1
  Yb  Yb2  1  0.199770  0.806606  0.249995  1
  Dy  Dy3  1  0.805722  0.611443  0.750004  1
  Dy  Dy4  1  0.389815  0.195192  0.750002  1
  Dy  Dy5  1  0.805377  0.195192  0.750002  1
  Al  Al6  1  0.164570  0.329140  0.575554  1
  Al  Al7  1  0.834002  0.668005  0.422166  1
  Al  Al8  1  0.669906  0.835583  0.574102  1
  Al  Al9  1  0.834004  0.668009  0.077825  1
  Al  Al10  1  0.330395  0.165946  0.422236  1
  Al  Al11  1  0.164571  0.329141  0.924445  1
  Al  Al12  1  0.165678  0.835583  0.574102  1
  Al  Al13  1  0.330395  0.165945  0.077758  1
  Al  Al14  1  0.835551  0.165946  0.422236  1
  Al  Al15  1  0.669910  0.835582  0.925898  1
  Al  Al16  1  0.835550  0.165945  0.077758  1
  Al  Al17  1  0.165672  0.835582  0.925898  1
  Al  Al18  1  0.437181  0.874362  0.750004  1
  Al  Al19  1  0.873225  0.433443  0.249991  1
  Al  Al20  1  0.128369  0.565211  0.750003  1
  Al  Al21  1  0.560217  0.433443  0.249991  1
  Al  Al22  1  0.436843  0.565211  0.750003  1
  Al  Al23  1  0.999062  0.998125  0.249996  1
  Al  Al24  1  0.000444  0.000888  0.750014  1
  Si  Si25  1  0.332362  0.664724  0.026900  1
  Si  Si26  1  0.667327  0.334654  0.961916  1
  Si  Si27  1  0.667328  0.334656  0.538078  1
  Si  Si28  1  0.332363  0.664725  0.473096  1
  Si  Si29  1  0.564185  0.128371  0.250000  1
  Os  Os30  1  0.500982  0.001962  0.003994  1
  Os  Os31  1  0.998567  0.498697  0.997664  1
  Os  Os32  1  0.500979  0.001958  0.496013  1
  Os  Os33  1  0.500130  0.498697  0.997664  1
  Os  Os34  1  0.998559  0.498694  0.502336  1
  Os  Os35  1  0.500135  0.498694  0.502336  1
  Os  Os36  1  0.999604  0.999208  0.000569  1
  Os  Os37  1  0.999596  0.999191  0.499452  1
