# generated using pymatgen
data_Pr4NdSn10(PdRh)2
_symmetry_space_group_name_H-M   'P 1'
_cell_length_a   14.30289123
_cell_length_b   14.29416723
_cell_length_c   4.67232500
_cell_angle_alpha   90.00000000
_cell_angle_beta   90.00000000
_cell_angle_gamma   89.97966792
_symmetry_Int_Tables_number   1
_chemical_formula_structural   Pr4NdSn10(PdRh)2
_chemical_formula_sum   'Pr8 Nd2 Sn20 Pd4 Rh4'
_cell_volume   955.24706287
_cell_formula_units_Z   2
loop_
 _symmetry_equiv_pos_site_id
 _symmetry_equiv_pos_as_xyz
  1  'x, y, z'
loop_
 _atom_site_type_symbol
 _atom_site_label
 _atom_site_symmetry_multiplicity
 _atom_site_fract_x
 _atom_site_fract_y
 _atom_site_fract_z
 _atom_site_occupancy
  Pr  Pr0  1  0.500000  0.500000  0.000000  1
  Pr  Pr1  1  0.000000  0.000000  0.000000  1
  Pr  Pr2  1  0.178040  0.320063  0.500000  1
  Pr  Pr3  1  0.821960  0.679937  0.500000  1
  Pr  Pr4  1  0.892349  0.390456  0.500000  1
  Pr  Pr5  1  0.107651  0.609544  0.500000  1
  Pr  Pr6  1  0.392407  0.109484  0.500000  1
  Pr  Pr7  1  0.607593  0.890516  0.500000  1
  Nd  Nd8  1  0.677862  0.179804  0.500000  1
  Nd  Nd9  1  0.322138  0.820196  0.500000  1
  Sn  Sn10  1  0.567048  0.071545  0.000000  1
  Sn  Sn11  1  0.432952  0.928455  0.000000  1
  Sn  Sn12  1  0.066865  0.428639  0.000000  1
  Sn  Sn13  1  0.933135  0.571361  0.000000  1
  Sn  Sn14  1  0.651971  0.702424  0.000000  1
  Sn  Sn15  1  0.348029  0.297576  0.000000  1
  Sn  Sn16  1  0.152198  0.797617  0.000000  1
  Sn  Sn17  1  0.847802  0.202383  0.000000  1
  Sn  Sn18  1  0.301559  0.653445  0.000000  1
  Sn  Sn19  1  0.698441  0.346555  0.000000  1
  Sn  Sn20  1  0.198514  0.153187  0.000000  1
  Sn  Sn21  1  0.801486  0.846813  0.000000  1
  Sn  Sn22  1  0.662909  0.502788  0.500000  1
  Sn  Sn23  1  0.337091  0.497212  0.500000  1
  Sn  Sn24  1  0.163033  0.997091  0.500000  1
  Sn  Sn25  1  0.836967  0.002909  0.500000  1
  Sn  Sn26  1  0.496171  0.663992  0.500000  1
  Sn  Sn27  1  0.503829  0.336008  0.500000  1
  Sn  Sn28  1  0.003701  0.163872  0.500000  1
  Sn  Sn29  1  0.996299  0.836128  0.500000  1
  Pd  Pd30  1  0.746107  0.530479  0.000000  1
  Pd  Pd31  1  0.253893  0.469521  0.000000  1
  Pd  Pd32  1  0.246207  0.969278  0.000000  1
  Pd  Pd33  1  0.753793  0.030722  0.000000  1
  Rh  Rh34  1  0.468862  0.742977  0.000000  1
  Rh  Rh35  1  0.531138  0.257023  0.000000  1
  Rh  Rh36  1  0.030917  0.242832  0.000000  1
  Rh  Rh37  1  0.969083  0.757168  0.000000  1
