# generated using pymatgen
data_Nb12Al3Au5N4
_symmetry_space_group_name_H-M   'P 1'
_cell_length_a   7.13713460
_cell_length_b   7.13713460
_cell_length_c   7.13713460
_cell_angle_alpha   90.10145904
_cell_angle_beta   89.89854096
_cell_angle_gamma   89.89854096
_symmetry_Int_Tables_number   1
_chemical_formula_structural   Nb12Al3Au5N4
_chemical_formula_sum   'Nb12 Al3 Au5 N4'
_cell_volume   363.55457697
_cell_formula_units_Z   1
loop_
 _symmetry_equiv_pos_site_id
 _symmetry_equiv_pos_as_xyz
  1  'x, y, z'
loop_
 _atom_site_type_symbol
 _atom_site_label
 _atom_site_symmetry_multiplicity
 _atom_site_fract_x
 _atom_site_fract_y
 _atom_site_fract_z
 _atom_site_occupancy
  Nb  Nb0  1  0.785995  0.956266  0.375824  1
  Nb  Nb1  1  0.713164  0.044643  0.878391  1
  Nb  Nb2  1  0.212816  0.457321  0.126868  1
  Nb  Nb3  1  0.291100  0.541166  0.626456  1
  Nb  Nb4  1  0.955357  0.378391  0.786836  1
  Nb  Nb5  1  0.043734  0.875824  0.714005  1
  Nb  Nb6  1  0.458834  0.126456  0.208900  1
  Nb  Nb7  1  0.542679  0.626868  0.287184  1
  Nb  Nb8  1  0.373132  0.787184  0.957321  1
  Nb  Nb9  1  0.873544  0.708900  0.041166  1
  Nb  Nb10  1  0.124176  0.214005  0.456266  1
  Nb  Nb11  1  0.621609  0.286836  0.544643  1
  Al  Al12  1  0.427134  0.928143  0.569240  1
  Al  Al13  1  0.930760  0.572866  0.428143  1
  Al  Al14  1  0.071857  0.069240  0.072866  1
  Au  Au15  1  0.178616  0.821384  0.321384  1
  Au  Au16  1  0.310983  0.169447  0.816914  1
  Au  Au17  1  0.830553  0.316914  0.189017  1
  Au  Au18  1  0.683086  0.689017  0.669447  1
  Au  Au19  1  0.568336  0.431664  0.931664  1
  N  N20  1  0.874827  0.125173  0.625173  1
  N  N21  1  0.623119  0.874656  0.120756  1
  N  N22  1  0.125344  0.620756  0.876881  1
  N  N23  1  0.379244  0.376881  0.374656  1
