# generated using pymatgen
data_Tb2Ta2Mn5(FeP2)3
_symmetry_space_group_name_H-M   'P 1'
_cell_length_a   3.66036900
_cell_length_b   10.73597500
_cell_length_c   12.39769800
_cell_angle_alpha   90.00000000
_cell_angle_beta   90.00000000
_cell_angle_gamma   90.00000000
_symmetry_Int_Tables_number   1
_chemical_formula_structural   Tb2Ta2Mn5(FeP2)3
_chemical_formula_sum   'Tb4 Ta4 Mn10 Fe6 P12'
_cell_volume   487.20014978
_cell_formula_units_Z   2
loop_
 _symmetry_equiv_pos_site_id
 _symmetry_equiv_pos_as_xyz
  1  'x, y, z'
loop_
 _atom_site_type_symbol
 _atom_site_label
 _atom_site_symmetry_multiplicity
 _atom_site_fract_x
 _atom_site_fract_y
 _atom_site_fract_z
 _atom_site_occupancy
  Tb  Tb0  1  0.250000  0.582386  0.712029  1
  Tb  Tb1  1  0.250000  0.917614  0.212029  1
  Tb  Tb2  1  0.750000  0.413034  0.290018  1
  Tb  Tb3  1  0.750000  0.086966  0.790018  1
  Ta  Ta4  1  0.250000  0.704471  0.987116  1
  Ta  Ta5  1  0.250000  0.795529  0.487116  1
  Ta  Ta6  1  0.750000  0.297339  0.010521  1
  Ta  Ta7  1  0.750000  0.202661  0.510521  1
  Mn  Mn8  1  0.250000  0.407031  0.492656  1
  Mn  Mn9  1  0.250000  0.092969  0.992656  1
  Mn  Mn10  1  0.750000  0.590467  0.508028  1
  Mn  Mn11  1  0.750000  0.909533  0.008028  1
  Mn  Mn12  1  0.250000  0.215467  0.173981  1
  Mn  Mn13  1  0.250000  0.284533  0.673981  1
  Mn  Mn14  1  0.750000  0.782773  0.825485  1
  Mn  Mn15  1  0.750000  0.717227  0.325485  1
  Mn  Mn16  1  0.250000  0.879047  0.700347  1
  Mn  Mn17  1  0.250000  0.620953  0.200347  1
  Fe  Fe18  1  0.750000  0.121725  0.299170  1
  Fe  Fe19  1  0.750000  0.378275  0.799170  1
  Fe  Fe20  1  0.250000  0.463730  0.934158  1
  Fe  Fe21  1  0.250000  0.036270  0.434158  1
  Fe  Fe22  1  0.750000  0.538104  0.068023  1
  Fe  Fe23  1  0.750000  0.961896  0.568023  1
  P  P24  1  0.250000  0.426640  0.112716  1
  P  P25  1  0.250000  0.073360  0.612716  1
  P  P26  1  0.750000  0.569219  0.887471  1
  P  P27  1  0.750000  0.930781  0.387471  1
  P  P28  1  0.250000  0.272787  0.861966  1
  P  P29  1  0.250000  0.227213  0.361966  1
  P  P30  1  0.750000  0.734806  0.134935  1
  P  P31  1  0.750000  0.765194  0.634935  1
  P  P32  1  0.250000  0.586443  0.385114  1
  P  P33  1  0.250000  0.913557  0.885114  1
  P  P34  1  0.750000  0.411027  0.616267  1
  P  P35  1  0.750000  0.088973  0.116267  1
