# generated using pymatgen
data_CePrTh(SnRh)3
_symmetry_space_group_name_H-M   'P 1'
_cell_length_a   7.58764953
_cell_length_b   7.63048352
_cell_length_c   4.09597200
_cell_angle_alpha   90.00000000
_cell_angle_beta   90.00000000
_cell_angle_gamma   120.48297757
_symmetry_Int_Tables_number   1
_chemical_formula_structural   CePrTh(SnRh)3
_chemical_formula_sum   'Ce1 Pr1 Th1 Sn3 Rh3'
_cell_volume   204.36789256
_cell_formula_units_Z   1
loop_
 _symmetry_equiv_pos_site_id
 _symmetry_equiv_pos_as_xyz
  1  'x, y, z'
loop_
 _atom_site_type_symbol
 _atom_site_label
 _atom_site_symmetry_multiplicity
 _atom_site_fract_x
 _atom_site_fract_y
 _atom_site_fract_z
 _atom_site_occupancy
  Ce  Ce0  1  0.587092  0.000703  0.500000  1
  Pr  Pr1  1  0.411041  0.410846  0.500000  1
  Th  Th2  1  0.000936  0.586036  0.500000  1
  Sn  Sn3  1  0.741259  0.745280  0.000000  1
  Sn  Sn4  1  0.255047  0.006816  0.000000  1
  Sn  Sn5  1  0.002397  0.246377  0.000000  1
  Rh  Rh6  1  0.683538  0.334164  0.000000  1
  Rh  Rh7  1  0.327990  0.681634  0.000000  1
  Rh  Rh8  1  0.990700  0.988145  0.500000  1
