# generated using pymatgen
data_Y5Tm4Pa3Ga20
_symmetry_space_group_name_H-M   'P 1'
_cell_length_a   6.05072386
_cell_length_b   9.55459926
_cell_length_c   11.64937315
_cell_angle_alpha   90.07886325
_cell_angle_beta   90.12910014
_cell_angle_gamma   89.99317158
_symmetry_Int_Tables_number   1
_chemical_formula_structural   Y5Tm4Pa3Ga20
_chemical_formula_sum   'Y5 Tm4 Pa3 Ga20'
_cell_volume   673.47402462
_cell_formula_units_Z   1
loop_
 _symmetry_equiv_pos_site_id
 _symmetry_equiv_pos_as_xyz
  1  'x, y, z'
loop_
 _atom_site_type_symbol
 _atom_site_label
 _atom_site_symmetry_multiplicity
 _atom_site_fract_x
 _atom_site_fract_y
 _atom_site_fract_z
 _atom_site_occupancy
  Y  Y0  1  0.881432  0.502480  0.351056  1
  Y  Y1  1  0.617093  0.999340  0.850576  1
  Y  Y2  1  0.117616  0.001673  0.650011  1
  Y  Y3  1  0.380811  0.497675  0.148737  1
  Y  Y4  1  0.117100  0.498283  0.648761  1
  Tm  Tm5  1  0.857423  0.753028  0.071824  1
  Tm  Tm6  1  0.644155  0.748397  0.572666  1
  Tm  Tm7  1  0.142515  0.252331  0.927395  1
  Tm  Tm8  1  0.359163  0.246460  0.426974  1
  Pa  Pa9  1  0.378308  0.002031  0.148159  1
  Pa  Pa10  1  0.878920  0.996568  0.351708  1
  Pa  Pa11  1  0.620495  0.502215  0.852522  1
  Ga  Ga12  1  0.870274  0.054486  0.091908  1
  Ga  Ga13  1  0.631304  0.445399  0.592066  1
  Ga  Ga14  1  0.129943  0.553792  0.907795  1
  Ga  Ga15  1  0.372204  0.944527  0.408317  1
  Ga  Ga16  1  0.132574  0.947606  0.909680  1
  Ga  Ga17  1  0.369752  0.551750  0.406536  1
  Ga  Ga18  1  0.867339  0.448219  0.091305  1
  Ga  Ga19  1  0.631053  0.053758  0.590817  1
  Ga  Ga20  1  0.156131  0.750416  0.261923  1
  Ga  Ga21  1  0.345864  0.748226  0.761117  1
  Ga  Ga22  1  0.842646  0.251306  0.739529  1
  Ga  Ga23  1  0.655925  0.248516  0.237898  1
  Ga  Ga24  1  0.390123  0.750389  0.996141  1
  Ga  Ga25  1  0.109638  0.749988  0.496239  1
  Ga  Ga26  1  0.609463  0.251005  0.003988  1
  Ga  Ga27  1  0.890181  0.248129  0.501132  1
  Ga  Ga28  1  0.600656  0.751962  0.293848  1
  Ga  Ga29  1  0.896712  0.749987  0.798503  1
  Ga  Ga30  1  0.402678  0.252129  0.705943  1
  Ga  Ga31  1  0.100509  0.247932  0.204926  1
