# generated using pymatgen
data_Dy5P12Ir11Ru8
_symmetry_space_group_name_H-M   'P 1'
_cell_length_a   12.62413359
_cell_length_b   12.59304822
_cell_length_c   3.97489700
_cell_angle_alpha   90.00000000
_cell_angle_beta   90.00000000
_cell_angle_gamma   120.04653166
_symmetry_Int_Tables_number   1
_chemical_formula_structural   Dy5P12Ir11Ru8
_chemical_formula_sum   'Dy5 P12 Ir11 Ru8'
_cell_volume   546.99723880
_cell_formula_units_Z   1
loop_
 _symmetry_equiv_pos_site_id
 _symmetry_equiv_pos_as_xyz
  1  'x, y, z'
loop_
 _atom_site_type_symbol
 _atom_site_label
 _atom_site_symmetry_multiplicity
 _atom_site_fract_x
 _atom_site_fract_y
 _atom_site_fract_z
 _atom_site_occupancy
  Dy  Dy0  1  0.666947  0.331508  0.000000  1
  Dy  Dy1  1  0.334716  0.669014  0.000000  1
  Dy  Dy2  1  0.814002  0.000938  0.500000  1
  Dy  Dy3  1  0.183091  0.184581  0.500000  1
  Dy  Dy4  1  0.999407  0.815226  0.500000  1
  P  P5  1  0.634116  0.998976  0.000000  1
  P  P6  1  0.363290  0.363581  0.000000  1
  P  P7  1  0.000309  0.636051  0.000000  1
  P  P8  1  0.688994  0.517976  0.500000  1
  P  P9  1  0.829919  0.307323  0.500000  1
  P  P10  1  0.317105  0.834153  0.500000  1
  P  P11  1  0.519587  0.691453  0.500000  1
  P  P12  1  0.179139  0.000140  0.000000  1
  P  P13  1  0.818996  0.819187  0.000000  1
  P  P14  1  0.996685  0.181110  0.000000  1
  P  P15  1  0.479971  0.167380  0.500000  1
  P  P16  1  0.170465  0.482140  0.500000  1
  Ir  Ir17  1  0.624458  0.803965  0.000000  1
  Ir  Ir18  1  0.182969  0.376881  0.000000  1
  Ir  Ir19  1  0.374378  0.181451  0.000000  1
  Ir  Ir20  1  0.191955  0.818722  0.000000  1
  Ir  Ir21  1  0.805945  0.623181  0.000000  1
  Ir  Ir22  1  0.870173  0.506885  0.500000  1
  Ir  Ir23  1  0.492123  0.360339  0.500000  1
  Ir  Ir24  1  0.636998  0.129146  0.500000  1
  Ir  Ir25  1  0.132521  0.640719  0.500000  1
  Ir  Ir26  1  0.362621  0.492271  0.500000  1
  Ir  Ir27  1  0.999007  0.000379  0.000000  1
  Ru  Ru28  1  0.511765  0.871741  0.500000  1
  Ru  Ru29  1  0.712317  0.710711  0.500000  1
  Ru  Ru30  1  0.002290  0.289211  0.500000  1
  Ru  Ru31  1  0.450447  0.998829  0.000000  1
  Ru  Ru32  1  0.546670  0.544522  0.000000  1
  Ru  Ru33  1  0.002130  0.454925  0.000000  1
  Ru  Ru34  1  0.818216  0.195694  0.000000  1
  Ru  Ru35  1  0.286277  0.999687  0.500000  1
