# generated using pymatgen
data_La8Si12NiPt3
_symmetry_space_group_name_H-M   'P 1'
_cell_length_a   8.26656600
_cell_length_b   8.26656673
_cell_length_c   8.79241000
_cell_angle_alpha   90.00000000
_cell_angle_beta   90.00000000
_cell_angle_gamma   119.99999708
_symmetry_Int_Tables_number   1
_chemical_formula_structural   La8Si12NiPt3
_chemical_formula_sum   'La8 Si12 Ni1 Pt3'
_cell_volume   520.34200885
_cell_formula_units_Z   1
loop_
 _symmetry_equiv_pos_site_id
 _symmetry_equiv_pos_as_xyz
  1  'x, y, z'
loop_
 _atom_site_type_symbol
 _atom_site_label
 _atom_site_symmetry_multiplicity
 _atom_site_fract_x
 _atom_site_fract_y
 _atom_site_fract_z
 _atom_site_occupancy
  La  La0  1  0.000000  0.000000  0.250933  1
  La  La1  1  0.000000  0.000000  0.748995  1
  La  La2  1  0.500215  0.499785  0.251710  1
  La  La3  1  0.500215  0.000432  0.251710  1
  La  La4  1  0.999568  0.499785  0.251710  1
  La  La5  1  0.498716  0.501284  0.748412  1
  La  La6  1  0.498716  0.997429  0.748412  1
  La  La7  1  0.002571  0.501284  0.748412  1
  Si  Si8  1  0.171424  0.828576  0.500509  1
  Si  Si9  1  0.171424  0.342849  0.500509  1
  Si  Si10  1  0.657151  0.828576  0.500509  1
  Si  Si11  1  0.835275  0.164725  0.499281  1
  Si  Si12  1  0.835275  0.670549  0.499281  1
  Si  Si13  1  0.329451  0.164725  0.499281  1
  Si  Si14  1  0.833985  0.166015  0.000934  1
  Si  Si15  1  0.833985  0.667969  0.000934  1
  Si  Si16  1  0.332031  0.166015  0.000934  1
  Si  Si17  1  0.165477  0.834523  0.999122  1
  Si  Si18  1  0.165477  0.330954  0.999122  1
  Si  Si19  1  0.669046  0.834523  0.999122  1
  Ni  Ni20  1  0.333333  0.666667  0.497141  1
  Pt  Pt21  1  0.666667  0.333333  0.503022  1
  Pt  Pt22  1  0.666667  0.333333  0.996710  1
  Pt  Pt23  1  0.333333  0.666667  0.003296  1
