# generated using pymatgen
data_Cs4Nd4SiGe3Se16
_symmetry_space_group_name_H-M   'P 1'
_cell_length_a   7.22378112
_cell_length_b   6.90858425
_cell_length_c   19.85957035
_cell_angle_alpha   71.24167123
_cell_angle_beta   89.97619260
_cell_angle_gamma   89.79466755
_symmetry_Int_Tables_number   1
_chemical_formula_structural   Cs4Nd4SiGe3Se16
_chemical_formula_sum   'Cs4 Nd4 Si1 Ge3 Se16'
_cell_volume   938.46280518
_cell_formula_units_Z   1
loop_
 _symmetry_equiv_pos_site_id
 _symmetry_equiv_pos_as_xyz
  1  'x, y, z'
loop_
 _atom_site_type_symbol
 _atom_site_label
 _atom_site_symmetry_multiplicity
 _atom_site_fract_x
 _atom_site_fract_y
 _atom_site_fract_z
 _atom_site_occupancy
  Cs  Cs0  1  0.751607  0.730880  0.031786  1
  Cs  Cs1  1  0.248457  0.268438  0.967328  1
  Cs  Cs2  1  0.747967  0.729349  0.533446  1
  Cs  Cs3  1  0.251470  0.268498  0.467747  1
  Nd  Nd4  1  0.233103  0.227301  0.226852  1
  Nd  Nd5  1  0.733951  0.772586  0.273233  1
  Nd  Nd6  1  0.767308  0.772199  0.773337  1
  Nd  Nd7  1  0.265760  0.228034  0.727554  1
  Si  Si8  1  0.730160  0.214016  0.833004  1
  Ge  Ge9  1  0.767182  0.213006  0.334172  1
  Ge  Ge10  1  0.233432  0.786987  0.665788  1
  Ge  Ge11  1  0.267031  0.786740  0.165807  1
  Se  Se12  1  0.505415  0.039678  0.143801  1
  Se  Se13  1  0.760624  0.414304  0.410119  1
  Se  Se14  1  0.995985  0.017524  0.846216  1
  Se  Se15  1  0.836888  0.428438  0.217015  1
  Se  Se16  1  0.994139  0.040037  0.643913  1
  Se  Se17  1  0.260727  0.585660  0.089790  1
  Se  Se18  1  0.738543  0.404456  0.907337  1
  Se  Se19  1  0.337701  0.571571  0.282929  1
  Se  Se20  1  0.239917  0.583835  0.590459  1
  Se  Se21  1  0.499874  0.970704  0.856630  1
  Se  Se22  1  0.667963  0.420126  0.719427  1
  Se  Se23  1  0.163988  0.574017  0.783087  1
  Se  Se24  1  0.006400  0.959365  0.356205  1
  Se  Se25  1  0.993973  0.992831  0.152586  1
  Se  Se26  1  0.494795  0.007638  0.347435  1
  Se  Se27  1  0.505640  0.991781  0.652995  1
