# generated using pymatgen
data_Tm3MgSc2Bi2Os
_symmetry_space_group_name_H-M   'P 1'
_cell_length_a   7.88386800
_cell_length_b   7.85153950
_cell_length_c   4.22287700
_cell_angle_alpha   90.00000000
_cell_angle_beta   90.00000000
_cell_angle_gamma   120.13630706
_symmetry_Int_Tables_number   1
_chemical_formula_structural   Tm3MgSc2Bi2Os
_chemical_formula_sum   'Tm3 Mg1 Sc2 Bi2 Os1'
_cell_volume   226.06590909
_cell_formula_units_Z   1
loop_
 _symmetry_equiv_pos_site_id
 _symmetry_equiv_pos_as_xyz
  1  'x, y, z'
loop_
 _atom_site_type_symbol
 _atom_site_label
 _atom_site_symmetry_multiplicity
 _atom_site_fract_x
 _atom_site_fract_y
 _atom_site_fract_z
 _atom_site_occupancy
  Tm  Tm0  1  0.615654  0.000000  0.000000  1
  Tm  Tm1  1  0.006752  0.626667  0.000000  1
  Tm  Tm2  1  0.380086  0.373333  0.000000  1
  Mg  Mg3  1  0.230471  0.000000  0.500000  1
  Sc  Sc4  1  0.999691  0.225070  0.500000  1
  Sc  Sc5  1  0.774622  0.774930  0.500000  1
  Bi  Bi6  1  0.335273  0.664524  0.500000  1
  Bi  Bi7  1  0.670750  0.335476  0.500000  1
  Os  Os8  1  0.986699  0.000000  0.000000  1
