# generated using pymatgen
data_Hf13Zr5(Re4Au)2
_symmetry_space_group_name_H-M   'P 1'
_cell_length_a   8.78838590
_cell_length_b   8.77601804
_cell_length_c   8.53910800
_cell_angle_alpha   90.00000000
_cell_angle_beta   90.00000000
_cell_angle_gamma   119.95346476
_symmetry_Int_Tables_number   1
_chemical_formula_structural   Hf13Zr5(Re4Au)2
_chemical_formula_sum   'Hf13 Zr5 Re8 Au2'
_cell_volume   570.62818957
_cell_formula_units_Z   1
loop_
 _symmetry_equiv_pos_site_id
 _symmetry_equiv_pos_as_xyz
  1  'x, y, z'
loop_
 _atom_site_type_symbol
 _atom_site_label
 _atom_site_symmetry_multiplicity
 _atom_site_fract_x
 _atom_site_fract_y
 _atom_site_fract_z
 _atom_site_occupancy
  Hf  Hf0  1  0.191135  0.808065  0.451145  1
  Hf  Hf1  1  0.191135  0.383071  0.451145  1
  Hf  Hf2  1  0.617560  0.808781  0.450715  1
  Hf  Hf3  1  0.809180  0.191967  0.549626  1
  Hf  Hf4  1  0.809180  0.617212  0.549626  1
  Hf  Hf5  1  0.382391  0.191195  0.549355  1
  Hf  Hf6  1  0.809180  0.191967  0.950374  1
  Hf  Hf7  1  0.809180  0.617212  0.950374  1
  Hf  Hf8  1  0.382391  0.191195  0.950645  1
  Hf  Hf9  1  0.191135  0.808065  0.048855  1
  Hf  Hf10  1  0.191135  0.383071  0.048855  1
  Hf  Hf11  1  0.617560  0.808781  0.049285  1
  Hf  Hf12  1  0.081807  0.540905  0.750000  1
  Zr  Zr13  1  0.541203  0.459055  0.250000  1
  Zr  Zr14  1  0.541203  0.082145  0.250000  1
  Zr  Zr15  1  0.917675  0.458836  0.250000  1
  Zr  Zr16  1  0.458279  0.541264  0.750000  1
  Zr  Zr17  1  0.458279  0.917017  0.750000  1
  Re  Re18  1  0.891123  0.109011  0.250000  1
  Re  Re19  1  0.891123  0.782111  0.250000  1
  Re  Re20  1  0.217920  0.108959  0.250000  1
  Re  Re21  1  0.108723  0.889760  0.750000  1
  Re  Re22  1  0.108723  0.218965  0.750000  1
  Re  Re23  1  0.782449  0.891225  0.750000  1
  Re  Re24  1  0.999985  0.999993  0.500016  1
  Re  Re25  1  0.999985  0.999993  0.999984  1
  Au  Au26  1  0.333655  0.666828  0.250000  1
  Au  Au27  1  0.666706  0.333353  0.750000  1
