# generated using pymatgen
data_Te13Rh2Br5
_symmetry_space_group_name_H-M   'P 1'
_cell_length_a   9.30655278
_cell_length_b   9.30655062
_cell_length_c   9.44509830
_cell_angle_alpha   109.41673890
_cell_angle_beta   109.41674068
_cell_angle_gamma   104.82940491
_symmetry_Int_Tables_number   1
_chemical_formula_structural   Te13Rh2Br5
_chemical_formula_sum   'Te13 Rh2 Br5'
_cell_volume   663.02828434
_cell_formula_units_Z   1
loop_
 _symmetry_equiv_pos_site_id
 _symmetry_equiv_pos_as_xyz
  1  'x, y, z'
loop_
 _atom_site_type_symbol
 _atom_site_label
 _atom_site_symmetry_multiplicity
 _atom_site_fract_x
 _atom_site_fract_y
 _atom_site_fract_z
 _atom_site_occupancy
  Te  Te0  1  0.968698  0.531302  0.250000  1
  Te  Te1  1  0.927600  0.192311  0.191794  1
  Te  Te2  1  0.194051  0.930743  0.170061  1
  Te  Te3  1  0.161771  0.183585  0.925359  1
  Te  Te4  1  0.691114  0.658465  0.426065  1
  Te  Te5  1  0.431366  0.693170  0.676021  1
  Te  Te6  1  0.674518  0.425815  0.689622  1
  Te  Te7  1  0.074185  0.825482  0.810378  1
  Te  Te8  1  0.806830  0.068634  0.823979  1
  Te  Te9  1  0.841535  0.808886  0.073935  1
  Te  Te10  1  0.316415  0.338229  0.574641  1
  Te  Te11  1  0.569257  0.305949  0.329939  1
  Te  Te12  1  0.307689  0.572400  0.308206  1
  Rh  Rh13  1  0.246938  0.253062  0.250000  1
  Rh  Rh14  1  0.752003  0.747997  0.750000  1
  Br  Br15  1  0.245398  0.985303  0.512366  1
  Br  Br16  1  0.514697  0.254602  0.987634  1
  Br  Br17  1  0.770436  0.014354  0.491321  1
  Br  Br18  1  0.485646  0.729564  0.008679  1
  Br  Br19  1  0.019851  0.480149  0.750000  1
