# generated using pymatgen
data_DyTa8SbS16
_symmetry_space_group_name_H-M   'P 1'
_cell_length_a   6.70052700
_cell_length_b   6.70052673
_cell_length_c   13.87720400
_cell_angle_alpha   90.00000000
_cell_angle_beta   90.00000000
_cell_angle_gamma   120.00000627
_symmetry_Int_Tables_number   1
_chemical_formula_structural   DyTa8SbS16
_chemical_formula_sum   'Dy1 Ta8 Sb1 S16'
_cell_volume   539.57333893
_cell_formula_units_Z   1
loop_
 _symmetry_equiv_pos_site_id
 _symmetry_equiv_pos_as_xyz
  1  'x, y, z'
loop_
 _atom_site_type_symbol
 _atom_site_label
 _atom_site_symmetry_multiplicity
 _atom_site_fract_x
 _atom_site_fract_y
 _atom_site_fract_z
 _atom_site_occupancy
  Dy  Dy0  1  0.000000  0.000000  0.500000  1
  Ta  Ta1  1  0.505743  0.494257  0.750669  1
  Ta  Ta2  1  0.011484  0.505743  0.249331  1
  Ta  Ta3  1  0.494257  0.988516  0.249331  1
  Ta  Ta4  1  0.505743  0.011484  0.750669  1
  Ta  Ta5  1  0.988516  0.494257  0.750669  1
  Ta  Ta6  1  0.494257  0.505743  0.249331  1
  Ta  Ta7  1  0.000000  0.000000  0.749774  1
  Ta  Ta8  1  0.000000  0.000000  0.250226  1
  Sb  Sb9  1  0.000000  0.000000  0.000000  1
  S  S10  1  0.831724  0.168276  0.362106  1
  S  S11  1  0.831724  0.663448  0.362106  1
  S  S12  1  0.336552  0.168276  0.362106  1
  S  S13  1  0.660405  0.830203  0.862067  1
  S  S14  1  0.168276  0.336552  0.637894  1
  S  S15  1  0.169797  0.830203  0.862067  1
  S  S16  1  0.169797  0.339595  0.862067  1
  S  S17  1  0.830203  0.169797  0.137933  1
  S  S18  1  0.339595  0.169797  0.137933  1
  S  S19  1  0.663448  0.831724  0.637894  1
  S  S20  1  0.333333  0.666667  0.133729  1
  S  S21  1  0.666667  0.333333  0.634394  1
  S  S22  1  0.666667  0.333333  0.866271  1
  S  S23  1  0.333333  0.666667  0.365606  1
  S  S24  1  0.830203  0.660405  0.137933  1
  S  S25  1  0.168276  0.831724  0.637894  1
