# generated using pymatgen
data_La4Pr16Ir7Rh5
_symmetry_space_group_name_H-M   'P 1'
_cell_length_a   11.31691413
_cell_length_b   11.34271307
_cell_length_c   6.68024706
_cell_angle_alpha   90.00773459
_cell_angle_beta   90.01399552
_cell_angle_gamma   89.98986513
_symmetry_Int_Tables_number   1
_chemical_formula_structural   La4Pr16Ir7Rh5
_chemical_formula_sum   'La4 Pr16 Ir7 Rh5'
_cell_volume   857.50659305
_cell_formula_units_Z   1
loop_
 _symmetry_equiv_pos_site_id
 _symmetry_equiv_pos_as_xyz
  1  'x, y, z'
loop_
 _atom_site_type_symbol
 _atom_site_label
 _atom_site_symmetry_multiplicity
 _atom_site_fract_x
 _atom_site_fract_y
 _atom_site_fract_z
 _atom_site_occupancy
  La  La0  1  0.292106  0.092514  0.386975  1
  La  La1  1  0.292028  0.907461  0.886673  1
  La  La2  1  0.707274  0.092203  0.885976  1
  La  La3  1  0.707470  0.906456  0.387322  1
  Pr  Pr4  1  0.591242  0.788961  0.883743  1
  Pr  Pr5  1  0.590222  0.211334  0.383891  1
  Pr  Pr6  1  0.408745  0.788955  0.383754  1
  Pr  Pr7  1  0.408789  0.210998  0.883579  1
  Pr  Pr8  1  0.208452  0.410085  0.616000  1
  Pr  Pr9  1  0.208452  0.589982  0.116066  1
  Pr  Pr10  1  0.791298  0.411114  0.115928  1
  Pr  Pr11  1  0.791504  0.589947  0.616176  1
  Pr  Pr12  1  0.908934  0.708788  0.114149  1
  Pr  Pr13  1  0.909318  0.291917  0.615173  1
  Pr  Pr14  1  0.091046  0.708833  0.614352  1
  Pr  Pr15  1  0.092029  0.291688  0.113918  1
  Pr  Pr16  1  0.000165  0.999742  0.497926  1
  Pr  Pr17  1  0.000256  0.999889  0.998136  1
  Pr  Pr18  1  0.499979  0.499933  0.002111  1
  Pr  Pr19  1  0.500035  0.500002  0.502040  1
  Ir  Ir20  1  0.844741  0.846904  0.747434  1
  Ir  Ir21  1  0.154975  0.153301  0.747706  1
  Ir  Ir22  1  0.155382  0.846544  0.247538  1
  Ir  Ir23  1  0.654463  0.345549  0.750842  1
  Ir  Ir24  1  0.654205  0.654039  0.250809  1
  Ir  Ir25  1  0.345946  0.345923  0.250790  1
  Ir  Ir26  1  0.345951  0.653956  0.750806  1
  Rh  Rh27  1  0.844568  0.153328  0.247203  1
  Rh  Rh28  1  0.500519  0.000236  0.118495  1
  Rh  Rh29  1  0.500280  0.000146  0.618415  1
  Rh  Rh30  1  0.999845  0.499758  0.883110  1
  Rh  Rh31  1  0.999783  0.499519  0.382958  1
