# generated using pymatgen
data_ErSc3(MnC2)2
_symmetry_space_group_name_H-M   'P 1'
_cell_length_a   4.77774000
_cell_length_b   6.19371700
_cell_length_c   9.17989900
_cell_angle_alpha   90.00000000
_cell_angle_beta   90.00000000
_cell_angle_gamma   90.00000000
_symmetry_Int_Tables_number   1
_chemical_formula_structural   ErSc3(MnC2)2
_chemical_formula_sum   'Er2 Sc6 Mn4 C8'
_cell_volume   271.65129085
_cell_formula_units_Z   2
loop_
 _symmetry_equiv_pos_site_id
 _symmetry_equiv_pos_as_xyz
  1  'x, y, z'
loop_
 _atom_site_type_symbol
 _atom_site_label
 _atom_site_symmetry_multiplicity
 _atom_site_fract_x
 _atom_site_fract_y
 _atom_site_fract_z
 _atom_site_occupancy
  Er  Er0  1  0.250000  0.471458  0.212056  1
  Er  Er1  1  0.750000  0.028542  0.712056  1
  Sc  Sc2  1  0.750000  0.529430  0.786550  1
  Sc  Sc3  1  0.250000  0.970570  0.286550  1
  Sc  Sc4  1  0.750000  0.673574  0.440213  1
  Sc  Sc5  1  0.250000  0.826426  0.940213  1
  Sc  Sc6  1  0.750000  0.166289  0.059661  1
  Sc  Sc7  1  0.250000  0.333711  0.559661  1
  Mn  Mn8  1  0.250000  0.273052  0.863312  1
  Mn  Mn9  1  0.250000  0.774506  0.638248  1
  Mn  Mn10  1  0.750000  0.226948  0.363312  1
  Mn  Mn11  1  0.750000  0.725494  0.138248  1
  C  C12  1  0.250000  0.685011  0.453183  1
  C  C13  1  0.250000  0.543929  0.764665  1
  C  C14  1  0.750000  0.455598  0.236839  1
  C  C15  1  0.750000  0.814989  0.953183  1
  C  C16  1  0.250000  0.044402  0.736839  1
  C  C17  1  0.250000  0.169310  0.045273  1
  C  C18  1  0.750000  0.330690  0.545273  1
  C  C19  1  0.750000  0.956071  0.264665  1
