# generated using pymatgen
data_BaTmZn3GaO7
_symmetry_space_group_name_H-M   'P 1'
_cell_length_a   6.37904600
_cell_length_b   6.37904710
_cell_length_c   10.38617200
_cell_angle_alpha   90.00000000
_cell_angle_beta   90.00000000
_cell_angle_gamma   120.00001505
_symmetry_Int_Tables_number   1
_chemical_formula_structural   BaTmZn3GaO7
_chemical_formula_sum   'Ba2 Tm2 Zn6 Ga2 O14'
_cell_volume   366.01393370
_cell_formula_units_Z   2
loop_
 _symmetry_equiv_pos_site_id
 _symmetry_equiv_pos_as_xyz
  1  'x, y, z'
loop_
 _atom_site_type_symbol
 _atom_site_label
 _atom_site_symmetry_multiplicity
 _atom_site_fract_x
 _atom_site_fract_y
 _atom_site_fract_z
 _atom_site_occupancy
  Ba  Ba0  1  0.666667  0.333333  0.985888  1
  Ba  Ba1  1  0.333333  0.666667  0.485888  1
  Tm  Tm2  1  0.666667  0.333333  0.634165  1
  Tm  Tm3  1  0.333333  0.666667  0.134165  1
  Zn  Zn4  1  0.171545  0.828455  0.817265  1
  Zn  Zn5  1  0.656909  0.828455  0.817265  1
  Zn  Zn6  1  0.171545  0.343091  0.817265  1
  Zn  Zn7  1  0.828455  0.171545  0.317265  1
  Zn  Zn8  1  0.343091  0.171545  0.317265  1
  Zn  Zn9  1  0.828455  0.656909  0.317265  1
  Ga  Ga10  1  0.000000  0.000000  0.067881  1
  Ga  Ga11  1  0.000000  0.000000  0.567881  1
  O  O12  1  0.508078  0.491922  0.763173  1
  O  O13  1  0.983844  0.491922  0.763173  1
  O  O14  1  0.508078  0.016156  0.763173  1
  O  O15  1  0.491922  0.508078  0.263173  1
  O  O16  1  0.016156  0.508078  0.263173  1
  O  O17  1  0.491922  0.983844  0.263173  1
  O  O18  1  0.000000  0.000000  0.249713  1
  O  O19  1  0.000000  0.000000  0.749713  1
  O  O20  1  0.160813  0.839187  0.011430  1
  O  O21  1  0.678375  0.839187  0.011430  1
  O  O22  1  0.160813  0.321625  0.011430  1
  O  O23  1  0.839187  0.160813  0.511430  1
  O  O24  1  0.321625  0.160813  0.511430  1
  O  O25  1  0.839187  0.678375  0.511430  1
