# generated using pymatgen
data_Yb5Th3(Si4Mo3)4
_symmetry_space_group_name_H-M   'P 1'
_cell_length_a   6.83652558
_cell_length_b   7.03202655
_cell_length_c   13.04008193
_cell_angle_alpha   90.05613299
_cell_angle_beta   89.92213831
_cell_angle_gamma   89.96674900
_symmetry_Int_Tables_number   1
_chemical_formula_structural   Yb5Th3(Si4Mo3)4
_chemical_formula_sum   'Yb5 Th3 Si16 Mo12'
_cell_volume   626.89612068
_cell_formula_units_Z   1
loop_
 _symmetry_equiv_pos_site_id
 _symmetry_equiv_pos_as_xyz
  1  'x, y, z'
loop_
 _atom_site_type_symbol
 _atom_site_label
 _atom_site_symmetry_multiplicity
 _atom_site_fract_x
 _atom_site_fract_y
 _atom_site_fract_z
 _atom_site_occupancy
  Yb  Yb0  1  0.496295  0.336550  0.090329  1
  Yb  Yb1  1  0.995773  0.164640  0.406300  1
  Yb  Yb2  1  0.501569  0.666121  0.593896  1
  Yb  Yb3  1  0.002254  0.833535  0.906130  1
  Yb  Yb4  1  0.502579  0.664905  0.909984  1
  Th  Th5  1  0.999975  0.832148  0.595316  1
  Th  Th6  1  0.497646  0.335961  0.407083  1
  Th  Th7  1  0.999313  0.164874  0.090032  1
  Si  Si8  1  0.653499  0.041810  0.548150  1
  Si  Si9  1  0.158185  0.464397  0.950419  1
  Si  Si10  1  0.350074  0.955276  0.047495  1
  Si  Si11  1  0.847516  0.540936  0.450703  1
  Si  Si12  1  0.341365  0.951896  0.451434  1
  Si  Si13  1  0.840938  0.548433  0.046236  1
  Si  Si14  1  0.655194  0.040608  0.950029  1
  Si  Si15  1  0.157464  0.450494  0.548527  1
  Si  Si16  1  0.534292  0.366590  0.750772  1
  Si  Si17  1  0.036324  0.137552  0.752411  1
  Si  Si18  1  0.465629  0.639828  0.246355  1
  Si  Si19  1  0.965217  0.861502  0.252494  1
  Si  Si20  1  0.798712  0.622433  0.753603  1
  Si  Si21  1  0.311142  0.874093  0.754440  1
  Si  Si22  1  0.193166  0.376706  0.248369  1
  Si  Si23  1  0.692651  0.123627  0.249072  1
  Mo  Mo24  1  0.831057  0.332090  0.626995  1
  Mo  Mo25  1  0.331560  0.171062  0.873702  1
  Mo  Mo26  1  0.166812  0.668426  0.126337  1
  Mo  Mo27  1  0.668420  0.833404  0.373923  1
  Mo  Mo28  1  0.171108  0.662862  0.373050  1
  Mo  Mo29  1  0.673396  0.835694  0.127053  1
  Mo  Mo30  1  0.832054  0.331010  0.872921  1
  Mo  Mo31  1  0.330500  0.166528  0.627984  1
  Mo  Mo32  1  0.666103  0.005593  0.750116  1
  Mo  Mo33  1  0.165290  0.498035  0.749217  1
  Mo  Mo34  1  0.333309  0.999370  0.250814  1
  Mo  Mo35  1  0.833621  0.501015  0.248309  1
