# generated using pymatgen
data_Hf10AlSb5
_symmetry_space_group_name_H-M   'P 1'
_cell_length_a   5.56863090
_cell_length_b   8.29787082
_cell_length_c   8.29787030
_cell_angle_alpha   96.46469280
_cell_angle_beta   109.60572261
_cell_angle_gamma   70.39427757
_symmetry_Int_Tables_number   1
_chemical_formula_structural   Hf10AlSb5
_chemical_formula_sum   'Hf10 Al1 Sb5'
_cell_volume   340.25587174
_cell_formula_units_Z   1
loop_
 _symmetry_equiv_pos_site_id
 _symmetry_equiv_pos_as_xyz
  1  'x, y, z'
loop_
 _atom_site_type_symbol
 _atom_site_label
 _atom_site_symmetry_multiplicity
 _atom_site_fract_x
 _atom_site_fract_y
 _atom_site_fract_z
 _atom_site_occupancy
  Hf  Hf0  1  0.933067  0.856284  0.705796  1
  Hf  Hf1  1  0.083554  0.143716  0.294204  1
  Hf  Hf2  1  0.416446  0.294204  0.143716  1
  Hf  Hf3  1  0.566933  0.705796  0.856284  1
  Hf  Hf4  1  0.227272  0.705796  0.143716  1
  Hf  Hf5  1  0.789350  0.294204  0.856284  1
  Hf  Hf6  1  0.272728  0.143716  0.705796  1
  Hf  Hf7  1  0.710650  0.856284  0.294204  1
  Hf  Hf8  1  0.250000  0.500000  0.500000  1
  Hf  Hf9  1  0.750000  0.500000  0.500000  1
  Al  Al10  1  0.250000  0.000000  0.000000  1
  Sb  Sb11  1  0.335228  0.829545  0.500000  1
  Sb  Sb12  1  0.664772  0.170455  0.500000  1
  Sb  Sb13  1  0.835228  0.500000  0.170455  1
  Sb  Sb14  1  0.164772  0.500000  0.829545  1
  Sb  Sb15  1  0.750000  0.000000  0.000000  1
