# generated using pymatgen
data_Y5Al2Ru3
_symmetry_space_group_name_H-M   'P 1'
_cell_length_a   8.36004510
_cell_length_b   8.36004498
_cell_length_c   8.36004500
_cell_angle_alpha   109.47122311
_cell_angle_beta   109.47122282
_cell_angle_gamma   109.47121874
_symmetry_Int_Tables_number   1
_chemical_formula_structural   Y5Al2Ru3
_chemical_formula_sum   'Y10 Al4 Ru6'
_cell_volume   449.78393933
_cell_formula_units_Z   2
loop_
 _symmetry_equiv_pos_site_id
 _symmetry_equiv_pos_as_xyz
  1  'x, y, z'
loop_
 _atom_site_type_symbol
 _atom_site_label
 _atom_site_symmetry_multiplicity
 _atom_site_fract_x
 _atom_site_fract_y
 _atom_site_fract_z
 _atom_site_occupancy
  Y  Y0  1  0.784770  0.784770  0.784770  1
  Y  Y1  1  0.317427  0.567427  0.750000  1
  Y  Y2  1  0.750000  0.317427  0.567427  1
  Y  Y3  1  0.567427  0.750000  0.317427  1
  Y  Y4  1  0.715230  0.500000  0.000000  1
  Y  Y5  1  0.000000  0.715230  0.500000  1
  Y  Y6  1  0.500000  0.000000  0.715230  1
  Y  Y7  1  0.250000  0.182573  0.932573  1
  Y  Y8  1  0.932573  0.250000  0.182573  1
  Y  Y9  1  0.182573  0.932573  0.250000  1
  Al  Al10  1  0.411547  0.411547  0.411547  1
  Al  Al11  1  0.088453  0.500000  0.000000  1
  Al  Al12  1  0.000000  0.088453  0.500000  1
  Al  Al13  1  0.500000  0.000000  0.088453  1
  Ru  Ru14  1  0.878446  0.128446  0.750000  1
  Ru  Ru15  1  0.750000  0.878446  0.128446  1
  Ru  Ru16  1  0.128446  0.750000  0.878446  1
  Ru  Ru17  1  0.250000  0.621554  0.371554  1
  Ru  Ru18  1  0.371554  0.250000  0.621554  1
  Ru  Ru19  1  0.621554  0.371554  0.250000  1
