# generated using pymatgen
data_Li3(SnPd)2
_symmetry_space_group_name_H-M   'P 1'
_cell_length_a   7.15614163
_cell_length_b   7.15614188
_cell_length_c   7.15614098
_cell_angle_alpha   37.02692007
_cell_angle_beta   37.02691784
_cell_angle_gamma   37.02691598
_symmetry_Int_Tables_number   1
_chemical_formula_structural   Li3(SnPd)2
_chemical_formula_sum   'Li3 Sn2 Pd2'
_cell_volume   119.08046976
_cell_formula_units_Z   1
loop_
 _symmetry_equiv_pos_site_id
 _symmetry_equiv_pos_as_xyz
  1  'x, y, z'
loop_
 _atom_site_type_symbol
 _atom_site_label
 _atom_site_symmetry_multiplicity
 _atom_site_fract_x
 _atom_site_fract_y
 _atom_site_fract_z
 _atom_site_occupancy
  Li  Li0  1  0.646441  0.646441  0.646441  1
  Li  Li1  1  0.353559  0.353559  0.353559  1
  Li  Li2  1  0.500000  0.500000  0.500000  1
  Sn  Sn3  1  0.919596  0.919596  0.919596  1
  Sn  Sn4  1  0.080404  0.080404  0.080404  1
  Pd  Pd5  1  0.782060  0.782060  0.782060  1
  Pd  Pd6  1  0.217941  0.217941  0.217941  1
