# generated using pymatgen
data_Y10Tl6S
_symmetry_space_group_name_H-M   'P 1'
_cell_length_a   9.09154500
_cell_length_b   9.09154481
_cell_length_c   6.72372800
_cell_angle_alpha   90.00000000
_cell_angle_beta   90.00000000
_cell_angle_gamma   119.99999705
_symmetry_Int_Tables_number   1
_chemical_formula_structural   Y10Tl6S
_chemical_formula_sum   'Y10 Tl6 S1'
_cell_volume   481.30032753
_cell_formula_units_Z   1
loop_
 _symmetry_equiv_pos_site_id
 _symmetry_equiv_pos_as_xyz
  1  'x, y, z'
loop_
 _atom_site_type_symbol
 _atom_site_label
 _atom_site_symmetry_multiplicity
 _atom_site_fract_x
 _atom_site_fract_y
 _atom_site_fract_z
 _atom_site_occupancy
  Y  Y0  1  0.333333  0.666667  0.500000  1
  Y  Y1  1  0.666667  0.333333  0.500000  1
  Y  Y2  1  0.666667  0.333333  0.000000  1
  Y  Y3  1  0.333333  0.666667  0.000000  1
  Y  Y4  1  0.000000  0.757429  0.252596  1
  Y  Y5  1  0.242571  0.242571  0.252596  1
  Y  Y6  1  0.757429  0.000000  0.252596  1
  Y  Y7  1  0.000000  0.242571  0.747404  1
  Y  Y8  1  0.757429  0.757429  0.747404  1
  Y  Y9  1  0.242571  0.000000  0.747404  1
  Tl  Tl10  1  0.000000  0.400765  0.247739  1
  Tl  Tl11  1  0.599235  0.599235  0.247739  1
  Tl  Tl12  1  0.400765  0.000000  0.247739  1
  Tl  Tl13  1  0.000000  0.599235  0.752261  1
  Tl  Tl14  1  0.400765  0.400765  0.752261  1
  Tl  Tl15  1  0.599235  0.000000  0.752261  1
  S  S16  1  0.000000  0.000000  0.500000  1
