# generated using pymatgen
data_Ca3Yb9(GaIr)8
_symmetry_space_group_name_H-M   'P 1'
_cell_length_a   5.67916266
_cell_length_b   7.78775088
_cell_length_c   13.81464000
_cell_angle_alpha   90.00000000
_cell_angle_beta   90.00000000
_cell_angle_gamma   90.05489335
_symmetry_Int_Tables_number   1
_chemical_formula_structural   Ca3Yb9(GaIr)8
_chemical_formula_sum   'Ca3 Yb9 Ga8 Ir8'
_cell_volume   610.99229151
_cell_formula_units_Z   1
loop_
 _symmetry_equiv_pos_site_id
 _symmetry_equiv_pos_as_xyz
  1  'x, y, z'
loop_
 _atom_site_type_symbol
 _atom_site_label
 _atom_site_symmetry_multiplicity
 _atom_site_fract_x
 _atom_site_fract_y
 _atom_site_fract_z
 _atom_site_occupancy
  Ca  Ca0  1  0.373198  0.243840  0.750000  1
  Ca  Ca1  1  0.627000  0.755978  0.250000  1
  Ca  Ca2  1  0.627021  0.743748  0.750000  1
  Yb  Yb3  1  0.146883  0.606451  0.093731  1
  Yb  Yb4  1  0.147181  0.893688  0.906680  1
  Yb  Yb5  1  0.853397  0.106792  0.406175  1
  Yb  Yb6  1  0.852695  0.393603  0.593303  1
  Yb  Yb7  1  0.852695  0.393603  0.906697  1
  Yb  Yb8  1  0.853397  0.106792  0.093825  1
  Yb  Yb9  1  0.147181  0.893688  0.593320  1
  Yb  Yb10  1  0.146883  0.606451  0.406269  1
  Yb  Yb11  1  0.376628  0.254720  0.250000  1
  Ga  Ga12  1  0.390853  0.249994  0.999922  1
  Ga  Ga13  1  0.608178  0.750007  0.499429  1
  Ga  Ga14  1  0.608178  0.750007  0.000571  1
  Ga  Ga15  1  0.390853  0.249994  0.500078  1
  Ga  Ga16  1  0.851713  0.406521  0.250000  1
  Ga  Ga17  1  0.851353  0.091829  0.750000  1
  Ga  Ga18  1  0.148588  0.909301  0.250000  1
  Ga  Ga19  1  0.148452  0.591185  0.750000  1
  Ir  Ir20  1  0.644202  0.470082  0.094332  1
  Ir  Ir21  1  0.646534  0.028801  0.906867  1
  Ir  Ir22  1  0.354951  0.972986  0.405496  1
  Ir  Ir23  1  0.353149  0.529035  0.592996  1
  Ir  Ir24  1  0.353149  0.529035  0.907004  1
  Ir  Ir25  1  0.354951  0.972986  0.094504  1
  Ir  Ir26  1  0.646534  0.028801  0.593133  1
  Ir  Ir27  1  0.644202  0.470082  0.405668  1
