# generated using pymatgen
data_NdGd3(OsO4)4
_symmetry_space_group_name_H-M   'P 1'
_cell_length_a   5.42278245
_cell_length_b   7.72323481
_cell_length_c   7.48865100
_cell_angle_alpha   79.48657535
_cell_angle_beta   91.01831748
_cell_angle_gamma   93.81842912
_symmetry_Int_Tables_number   1
_chemical_formula_structural   NdGd3(OsO4)4
_chemical_formula_sum   'Nd1 Gd3 Os4 O16'
_cell_volume   307.68049962
_cell_formula_units_Z   1
loop_
 _symmetry_equiv_pos_site_id
 _symmetry_equiv_pos_as_xyz
  1  'x, y, z'
loop_
 _atom_site_type_symbol
 _atom_site_label
 _atom_site_symmetry_multiplicity
 _atom_site_fract_x
 _atom_site_fract_y
 _atom_site_fract_z
 _atom_site_occupancy
  Nd  Nd0  1  0.261298  0.626794  0.607107  1
  Gd  Gd1  1  0.191997  0.673152  0.100143  1
  Gd  Gd2  1  0.803038  0.323135  0.901021  1
  Gd  Gd3  1  0.736497  0.377194  0.391862  1
  Os  Os4  1  0.756302  0.837484  0.794326  1
  Os  Os5  1  0.714846  0.836353  0.296681  1
  Os  Os6  1  0.284856  0.163724  0.701059  1
  Os  Os7  1  0.244225  0.163471  0.206937  1
  O  O8  1  0.062952  0.961734  0.709163  1
  O  O9  1  0.406516  0.941489  0.204591  1
  O  O10  1  0.632264  0.828730  0.549487  1
  O  O11  1  0.841365  0.832558  0.051410  1
  O  O12  1  0.454780  0.703337  0.872050  1
  O  O13  1  0.940267  0.613097  0.829563  1
  O  O14  1  0.969276  0.662821  0.373919  1
  O  O15  1  0.494389  0.612403  0.317691  1
  O  O16  1  0.507666  0.387519  0.678138  1
  O  O17  1  0.023236  0.331633  0.621336  1
  O  O18  1  0.053841  0.383190  0.177830  1
  O  O19  1  0.546416  0.300383  0.133333  1
  O  O20  1  0.163793  0.174906  0.946481  1
  O  O21  1  0.375427  0.171264  0.450416  1
  O  O22  1  0.593273  0.058736  0.795537  1
  O  O23  1  0.941480  0.034891  0.289919  1
