# generated using pymatgen
data_Y7Ho9(ZnCo)4
_symmetry_space_group_name_H-M   'P 1'
_cell_length_a   9.35680105
_cell_length_b   9.35914089
_cell_length_c   9.35599815
_cell_angle_alpha   59.99812979
_cell_angle_beta   59.99000932
_cell_angle_gamma   60.08021449
_symmetry_Int_Tables_number   1
_chemical_formula_structural   Y7Ho9(ZnCo)4
_chemical_formula_sum   'Y7 Ho9 Zn4 Co4'
_cell_volume   579.64502147
_cell_formula_units_Z   1
loop_
 _symmetry_equiv_pos_site_id
 _symmetry_equiv_pos_as_xyz
  1  'x, y, z'
loop_
 _atom_site_type_symbol
 _atom_site_label
 _atom_site_symmetry_multiplicity
 _atom_site_fract_x
 _atom_site_fract_y
 _atom_site_fract_z
 _atom_site_occupancy
  Y  Y0  1  0.059433  0.059704  0.440429  1
  Y  Y1  1  0.188792  0.811038  0.812054  1
  Y  Y2  1  0.811045  0.188718  0.188069  1
  Y  Y3  1  0.811031  0.188731  0.812164  1
  Y  Y4  1  0.188787  0.811040  0.188115  1
  Y  Y5  1  0.810873  0.810976  0.189080  1
  Y  Y6  1  0.188638  0.188634  0.811367  1
  Ho  Ho7  1  0.599823  0.598984  0.600231  1
  Ho  Ho8  1  0.599931  0.599053  0.200910  1
  Ho  Ho9  1  0.599124  0.202594  0.599230  1
  Ho  Ho10  1  0.201983  0.598750  0.599730  1
  Ho  Ho11  1  0.059378  0.440406  0.440096  1
  Ho  Ho12  1  0.440478  0.059852  0.059506  1
  Ho  Ho13  1  0.440448  0.059798  0.440175  1
  Ho  Ho14  1  0.059466  0.440444  0.059982  1
  Ho  Ho15  1  0.439757  0.439835  0.060130  1
  Zn  Zn16  1  0.826970  0.827036  0.826572  1
  Zn  Zn17  1  0.826953  0.827022  0.519426  1
  Zn  Zn18  1  0.826900  0.519302  0.826877  1
  Zn  Zn19  1  0.519321  0.826944  0.826848  1
  Co  Co20  1  0.391362  0.391425  0.391793  1
  Co  Co21  1  0.391389  0.391453  0.825373  1
  Co  Co22  1  0.394568  0.823626  0.390924  1
  Co  Co23  1  0.823549  0.394638  0.390919  1
