# generated using pymatgen
data_PrCu4Bi3(SO)4
_symmetry_space_group_name_H-M   'P 1'
_cell_length_a   9.42176683
_cell_length_b   9.42176683
_cell_length_c   9.42176635
_cell_angle_alpha   145.91778401
_cell_angle_beta   145.91778628
_cell_angle_gamma   48.96889337
_symmetry_Int_Tables_number   1
_chemical_formula_structural   PrCu4Bi3(SO)4
_chemical_formula_sum   'Pr1 Cu4 Bi3 S4 O4'
_cell_volume   261.48093715
_cell_formula_units_Z   1
loop_
 _symmetry_equiv_pos_site_id
 _symmetry_equiv_pos_as_xyz
  1  'x, y, z'
loop_
 _atom_site_type_symbol
 _atom_site_label
 _atom_site_symmetry_multiplicity
 _atom_site_fract_x
 _atom_site_fract_y
 _atom_site_fract_z
 _atom_site_occupancy
  Pr  Pr0  1  0.417422  0.417422  0.000000  1
  Cu  Cu1  1  0.500428  0.998707  0.000000  1
  Cu  Cu2  1  0.998707  0.500428  0.000000  1
  Cu  Cu3  1  0.500428  0.500428  0.501721  1
  Cu  Cu4  1  0.998707  0.998707  0.498279  1
  Bi  Bi5  1  0.930442  0.930442  0.000000  1
  Bi  Bi6  1  0.573526  0.073526  0.500000  1
  Bi  Bi7  1  0.073526  0.573526  0.500000  1
  S  S8  1  0.668281  0.668281  0.000000  1
  S  S9  1  0.169348  0.169348  0.000000  1
  S  S10  1  0.333500  0.833500  0.500000  1
  S  S11  1  0.833500  0.333500  0.500000  1
  O  O12  1  0.249626  0.751470  0.000000  1
  O  O13  1  0.751470  0.249626  0.000000  1
  O  O14  1  0.249626  0.249626  0.498156  1
  O  O15  1  0.751470  0.751470  0.501844  1
