# generated using pymatgen
data_Er2Tm2BOs2C3
_symmetry_space_group_name_H-M   'P 1'
_cell_length_a   5.06524800
_cell_length_b   6.51528419
_cell_length_c   9.71648102
_cell_angle_alpha   90.35204853
_cell_angle_beta   90.00000000
_cell_angle_gamma   90.00000000
_symmetry_Int_Tables_number   1
_chemical_formula_structural   Er2Tm2BOs2C3
_chemical_formula_sum   'Er4 Tm4 B2 Os4 C6'
_cell_volume   320.65268925
_cell_formula_units_Z   2
loop_
 _symmetry_equiv_pos_site_id
 _symmetry_equiv_pos_as_xyz
  1  'x, y, z'
loop_
 _atom_site_type_symbol
 _atom_site_label
 _atom_site_symmetry_multiplicity
 _atom_site_fract_x
 _atom_site_fract_y
 _atom_site_fract_z
 _atom_site_occupancy
  Er  Er0  1  0.250000  0.525025  0.211026  1
  Er  Er1  1  0.750000  0.474975  0.788974  1
  Er  Er2  1  0.750000  0.971639  0.715741  1
  Er  Er3  1  0.250000  0.028361  0.284259  1
  Tm  Tm4  1  0.250000  0.676671  0.550951  1
  Tm  Tm5  1  0.750000  0.323329  0.449049  1
  Tm  Tm6  1  0.750000  0.829041  0.053953  1
  Tm  Tm7  1  0.250000  0.170959  0.946047  1
  B  B8  1  0.250000  0.448827  0.757751  1
  B  B9  1  0.750000  0.551173  0.242249  1
  Os  Os10  1  0.250000  0.724601  0.864686  1
  Os  Os11  1  0.750000  0.275399  0.135314  1
  Os  Os12  1  0.750000  0.789609  0.372777  1
  Os  Os13  1  0.250000  0.210391  0.627223  1
  C  C14  1  0.750000  0.047100  0.261268  1
  C  C15  1  0.250000  0.952900  0.738732  1
  C  C16  1  0.250000  0.826028  0.053682  1
  C  C17  1  0.750000  0.173972  0.946318  1
  C  C18  1  0.750000  0.672194  0.555686  1
  C  C19  1  0.250000  0.327806  0.444314  1
