# generated using pymatgen
data_Ho2Al8Fe9
_symmetry_space_group_name_H-M   'P 1'
_cell_length_a   6.53937701
_cell_length_b   6.53937720
_cell_length_c   6.53937700
_cell_angle_alpha   83.97993988
_cell_angle_beta   96.02005149
_cell_angle_gamma   96.02005979
_symmetry_Int_Tables_number   1
_chemical_formula_structural   Ho2Al8Fe9
_chemical_formula_sum   'Ho2 Al8 Fe9'
_cell_volume   275.32169842
_cell_formula_units_Z   1
loop_
 _symmetry_equiv_pos_site_id
 _symmetry_equiv_pos_as_xyz
  1  'x, y, z'
loop_
 _atom_site_type_symbol
 _atom_site_label
 _atom_site_symmetry_multiplicity
 _atom_site_fract_x
 _atom_site_fract_y
 _atom_site_fract_z
 _atom_site_occupancy
  Ho  Ho0  1  0.636298  0.363703  0.363703  1
  Ho  Ho1  1  0.363703  0.636299  0.636298  1
  Al  Al2  1  0.315955  0.315955  0.000000  1
  Al  Al3  1  0.684045  0.684045  0.000000  1
  Al  Al4  1  0.877778  0.122223  0.122223  1
  Al  Al5  1  0.000000  0.684046  0.315954  1
  Al  Al6  1  0.315955  0.000000  0.315955  1
  Al  Al7  1  0.684045  0.000000  0.684045  1
  Al  Al8  1  0.000000  0.315954  0.684045  1
  Al  Al9  1  0.122223  0.877779  0.877778  1
  Fe  Fe10  1  0.500000  0.000000  0.000000  1
  Fe  Fe11  1  0.000000  0.500000  0.000000  1
  Fe  Fe12  1  0.336524  0.663477  0.163011  1
  Fe  Fe13  1  0.163011  0.336523  0.336523  1
  Fe  Fe14  1  0.663477  0.836988  0.336524  1
  Fe  Fe15  1  0.000000  0.000000  0.500000  1
  Fe  Fe16  1  0.836988  0.663477  0.663476  1
  Fe  Fe17  1  0.336524  0.163011  0.663477  1
  Fe  Fe18  1  0.663476  0.336523  0.836988  1
