# generated using pymatgen
data_Hf4CoRhN
_symmetry_space_group_name_H-M   'P 1'
_cell_length_a   8.58276120
_cell_length_b   8.58276104
_cell_length_c   8.58276200
_cell_angle_alpha   59.99999631
_cell_angle_beta   59.99999691
_cell_angle_gamma   60.00000179
_symmetry_Int_Tables_number   1
_chemical_formula_structural   Hf4CoRhN
_chemical_formula_sum   'Hf16 Co4 Rh4 N4'
_cell_volume   447.06030064
_cell_formula_units_Z   4
loop_
 _symmetry_equiv_pos_site_id
 _symmetry_equiv_pos_as_xyz
  1  'x, y, z'
loop_
 _atom_site_type_symbol
 _atom_site_label
 _atom_site_symmetry_multiplicity
 _atom_site_fract_x
 _atom_site_fract_y
 _atom_site_fract_z
 _atom_site_occupancy
  Hf  Hf0  1  0.160061  0.613313  0.613313  1
  Hf  Hf1  1  0.613313  0.160061  0.613313  1
  Hf  Hf2  1  0.613313  0.613313  0.160061  1
  Hf  Hf3  1  0.613313  0.613313  0.613313  1
  Hf  Hf4  1  0.815637  0.815637  0.184363  1
  Hf  Hf5  1  0.184363  0.184363  0.815637  1
  Hf  Hf6  1  0.815637  0.184363  0.815637  1
  Hf  Hf7  1  0.184363  0.815637  0.184363  1
  Hf  Hf8  1  0.184363  0.815637  0.815637  1
  Hf  Hf9  1  0.815637  0.184363  0.184363  1
  Hf  Hf10  1  0.434785  0.434785  0.065215  1
  Hf  Hf11  1  0.065215  0.065215  0.434785  1
  Hf  Hf12  1  0.434785  0.065215  0.434785  1
  Hf  Hf13  1  0.065215  0.434785  0.065215  1
  Hf  Hf14  1  0.065215  0.434785  0.434785  1
  Hf  Hf15  1  0.434785  0.065215  0.065215  1
  Co  Co16  1  0.795491  0.401503  0.401503  1
  Co  Co17  1  0.401503  0.795491  0.401503  1
  Co  Co18  1  0.401503  0.401503  0.795491  1
  Co  Co19  1  0.401503  0.401503  0.401503  1
  Rh  Rh20  1  0.496188  0.834604  0.834604  1
  Rh  Rh21  1  0.834604  0.496188  0.834604  1
  Rh  Rh22  1  0.834604  0.834604  0.496188  1
  Rh  Rh23  1  0.834604  0.834604  0.834604  1
  N  N24  1  0.627040  0.124320  0.124320  1
  N  N25  1  0.124320  0.627040  0.124320  1
  N  N26  1  0.124320  0.124320  0.627040  1
  N  N27  1  0.124320  0.124320  0.124320  1
