# generated using pymatgen
data_Lu6Sc4(InSb)3
_symmetry_space_group_name_H-M   'P 1'
_cell_length_a   6.18728701
_cell_length_b   8.66880174
_cell_length_c   8.66921000
_cell_angle_alpha   59.99904795
_cell_angle_beta   90.00390565
_cell_angle_gamma   90.00132845
_symmetry_Int_Tables_number   1
_chemical_formula_structural   Lu6Sc4(InSb)3
_chemical_formula_sum   'Lu6 Sc4 In3 Sb3'
_cell_volume   402.68487729
_cell_formula_units_Z   1
loop_
 _symmetry_equiv_pos_site_id
 _symmetry_equiv_pos_as_xyz
  1  'x, y, z'
loop_
 _atom_site_type_symbol
 _atom_site_label
 _atom_site_symmetry_multiplicity
 _atom_site_fract_x
 _atom_site_fract_y
 _atom_site_fract_z
 _atom_site_occupancy
  Lu  Lu0  1  0.750013  0.236647  0.763472  1
  Lu  Lu1  1  0.749981  0.763434  0.999873  1
  Lu  Lu2  1  0.749977  0.999817  0.236688  1
  Lu  Lu3  1  0.249951  0.763308  0.236696  1
  Lu  Lu4  1  0.249953  0.236668  0.999962  1
  Lu  Lu5  1  0.250023  0.999982  0.763268  1
  Sc  Sc6  1  0.503433  0.333397  0.333150  1
  Sc  Sc7  1  0.503476  0.666617  0.666903  1
  Sc  Sc8  1  0.996741  0.666675  0.666734  1
  Sc  Sc9  1  0.996487  0.333492  0.333349  1
  In  In10  1  0.749739  0.601485  0.398503  1
  In  In11  1  0.749894  0.398450  0.999983  1
  In  In12  1  0.750297  0.000003  0.601511  1
  Sb  Sb13  1  0.250122  0.399461  0.600555  1
  Sb  Sb14  1  0.249920  0.600582  0.999970  1
  Sb  Sb15  1  0.249993  0.999981  0.399384  1
