# generated using pymatgen
data_Dy4Co15Ni3(P6Ru)2
_symmetry_space_group_name_H-M   'P 1'
_cell_length_a   3.68050700
_cell_length_b   10.32915381
_cell_length_c   11.77650091
_cell_angle_alpha   89.95468317
_cell_angle_beta   90.00000000
_cell_angle_gamma   90.00000000
_symmetry_Int_Tables_number   1
_chemical_formula_structural   Dy4Co15Ni3(P6Ru)2
_chemical_formula_sum   'Dy4 Co15 Ni3 P12 Ru2'
_cell_volume   447.70147683
_cell_formula_units_Z   1
loop_
 _symmetry_equiv_pos_site_id
 _symmetry_equiv_pos_as_xyz
  1  'x, y, z'
loop_
 _atom_site_type_symbol
 _atom_site_label
 _atom_site_symmetry_multiplicity
 _atom_site_fract_x
 _atom_site_fract_y
 _atom_site_fract_z
 _atom_site_occupancy
  Dy  Dy0  1  0.250000  0.582593  0.701876  1
  Dy  Dy1  1  0.250000  0.917787  0.202009  1
  Dy  Dy2  1  0.750000  0.414514  0.294854  1
  Dy  Dy3  1  0.750000  0.085346  0.795331  1
  Co  Co4  1  0.250000  0.092994  0.986576  1
  Co  Co5  1  0.750000  0.591029  0.510312  1
  Co  Co6  1  0.750000  0.908635  0.010834  1
  Co  Co7  1  0.250000  0.220299  0.176589  1
  Co  Co8  1  0.250000  0.280705  0.677232  1
  Co  Co9  1  0.750000  0.778809  0.823164  1
  Co  Co10  1  0.750000  0.721542  0.323020  1
  Co  Co11  1  0.250000  0.885994  0.702007  1
  Co  Co12  1  0.250000  0.613780  0.201826  1
  Co  Co13  1  0.750000  0.117106  0.301402  1
  Co  Co14  1  0.750000  0.382526  0.801934  1
  Co  Co15  1  0.250000  0.464712  0.931744  1
  Co  Co16  1  0.250000  0.034951  0.432056  1
  Co  Co17  1  0.750000  0.533112  0.069269  1
  Co  Co18  1  0.750000  0.966815  0.569031  1
  Ni  Ni19  1  0.750000  0.283778  0.009393  1
  Ni  Ni20  1  0.750000  0.214906  0.510437  1
  Ni  Ni21  1  0.250000  0.407444  0.485851  1
  P  P22  1  0.250000  0.417417  0.111767  1
  P  P23  1  0.250000  0.082865  0.612186  1
  P  P24  1  0.750000  0.578791  0.887321  1
  P  P25  1  0.750000  0.921196  0.387374  1
  P  P26  1  0.250000  0.270523  0.868333  1
  P  P27  1  0.250000  0.227520  0.366241  1
  P  P28  1  0.750000  0.728864  0.132690  1
  P  P29  1  0.750000  0.771351  0.632864  1
  P  P30  1  0.250000  0.597913  0.389812  1
  P  P31  1  0.250000  0.904561  0.890585  1
  P  P32  1  0.750000  0.396392  0.611171  1
  P  P33  1  0.750000  0.102484  0.108570  1
  Ru  Ru34  1  0.250000  0.714580  0.992250  1
  Ru  Ru35  1  0.250000  0.786162  0.492089  1
