# generated using pymatgen
data_Zr6V7CoRe4
_symmetry_space_group_name_H-M   'P 1'
_cell_length_a   5.21609437
_cell_length_b   5.22199092
_cell_length_c   12.81419937
_cell_angle_alpha   89.83385265
_cell_angle_beta   90.08067494
_cell_angle_gamma   119.87615727
_symmetry_Int_Tables_number   1
_chemical_formula_structural   Zr6V7CoRe4
_chemical_formula_sum   'Zr6 V7 Co1 Re4'
_cell_volume   302.65123388
_cell_formula_units_Z   1
loop_
 _symmetry_equiv_pos_site_id
 _symmetry_equiv_pos_as_xyz
  1  'x, y, z'
loop_
 _atom_site_type_symbol
 _atom_site_label
 _atom_site_symmetry_multiplicity
 _atom_site_fract_x
 _atom_site_fract_y
 _atom_site_fract_z
 _atom_site_occupancy
  Zr  Zr0  1  0.334036  0.665929  0.914297  1
  Zr  Zr1  1  0.001437  0.000454  0.251145  1
  Zr  Zr2  1  0.666998  0.333280  0.585226  1
  Zr  Zr3  1  0.333002  0.666720  0.664774  1
  Zr  Zr4  1  0.998563  0.999546  0.998854  1
  Zr  Zr5  1  0.665964  0.334071  0.335703  1
  V  V6  1  0.166672  0.330972  0.461713  1
  V  V7  1  0.833328  0.669028  0.788287  1
  V  V8  1  0.334618  0.667011  0.294095  1
  V  V9  1  0.665382  0.332989  0.955905  1
  V  V10  1  0.000000  0.500000  0.125000  1
  V  V11  1  0.669380  0.833649  0.462090  1
  V  V12  1  0.330620  0.166351  0.787910  1
  Co  Co13  1  0.000000  0.000000  0.625000  1
  Re  Re14  1  0.500000  0.500000  0.125000  1
  Re  Re15  1  0.168365  0.831716  0.459371  1
  Re  Re16  1  0.831635  0.168284  0.790629  1
  Re  Re17  1  0.500000  0.000000  0.125000  1
