# generated using pymatgen
data_Cs6TbGdCl12
_symmetry_space_group_name_H-M   'P 1'
_cell_length_a   9.52558800
_cell_length_b   9.53120712
_cell_length_c   7.91133900
_cell_angle_alpha   90.00000000
_cell_angle_beta   90.00000000
_cell_angle_gamma   89.99097090
_symmetry_Int_Tables_number   1
_chemical_formula_structural   Cs6TbGdCl12
_chemical_formula_sum   'Cs6 Tb1 Gd1 Cl12'
_cell_volume   718.27324489
_cell_formula_units_Z   1
loop_
 _symmetry_equiv_pos_site_id
 _symmetry_equiv_pos_as_xyz
  1  'x, y, z'
loop_
 _atom_site_type_symbol
 _atom_site_label
 _atom_site_symmetry_multiplicity
 _atom_site_fract_x
 _atom_site_fract_y
 _atom_site_fract_z
 _atom_site_occupancy
  Cs  Cs0  1  0.000000  0.000000  0.500000  1
  Cs  Cs1  1  0.000000  0.000000  0.000000  1
  Cs  Cs2  1  0.236421  0.583254  0.500000  1
  Cs  Cs3  1  0.763579  0.416746  0.500000  1
  Cs  Cs4  1  0.416413  0.234767  0.000000  1
  Cs  Cs5  1  0.583587  0.765233  0.000000  1
  Tb  Tb6  1  0.500000  0.000000  0.500000  1
  Gd  Gd7  1  0.000000  0.500000  0.000000  1
  Cl  Cl8  1  0.690969  0.057067  0.738956  1
  Cl  Cl9  1  0.309031  0.942933  0.738956  1
  Cl  Cl10  1  0.942816  0.692317  0.240605  1
  Cl  Cl11  1  0.057184  0.307683  0.240605  1
  Cl  Cl12  1  0.309031  0.942933  0.261044  1
  Cl  Cl13  1  0.690969  0.057067  0.261044  1
  Cl  Cl14  1  0.057184  0.307683  0.759395  1
  Cl  Cl15  1  0.942816  0.692317  0.759395  1
  Cl  Cl16  1  0.570305  0.730283  0.500000  1
  Cl  Cl17  1  0.429695  0.269717  0.500000  1
  Cl  Cl18  1  0.272070  0.569405  0.000000  1
  Cl  Cl19  1  0.727930  0.430595  0.000000  1
