# generated using pymatgen
data_Hf3Zr7Al2(SnSb)3
_symmetry_space_group_name_H-M   'P 1'
_cell_length_a   8.68823200
_cell_length_b   8.68823232
_cell_length_c   5.87404600
_cell_angle_alpha   90.00000000
_cell_angle_beta   90.00000000
_cell_angle_gamma   119.99999877
_symmetry_Int_Tables_number   1
_chemical_formula_structural   Hf3Zr7Al2(SnSb)3
_chemical_formula_sum   'Hf3 Zr7 Al2 Sn3 Sb3'
_cell_volume   383.99963805
_cell_formula_units_Z   1
loop_
 _symmetry_equiv_pos_site_id
 _symmetry_equiv_pos_as_xyz
  1  'x, y, z'
loop_
 _atom_site_type_symbol
 _atom_site_label
 _atom_site_symmetry_multiplicity
 _atom_site_fract_x
 _atom_site_fract_y
 _atom_site_fract_z
 _atom_site_occupancy
  Hf  Hf0  1  0.666667  0.333333  0.997783  1
  Hf  Hf1  1  0.333333  0.666667  0.997925  1
  Hf  Hf2  1  0.333333  0.666667  0.502163  1
  Zr  Zr3  1  0.725676  0.725933  0.750258  1
  Zr  Zr4  1  0.274067  0.999743  0.750258  1
  Zr  Zr5  1  0.000257  0.274324  0.750258  1
  Zr  Zr6  1  0.266826  0.267175  0.249865  1
  Zr  Zr7  1  0.732825  0.999650  0.249865  1
  Zr  Zr8  1  0.000350  0.733174  0.249865  1
  Zr  Zr9  1  0.666667  0.333333  0.501743  1
  Al  Al10  1  0.000000  0.000000  0.991946  1
  Al  Al11  1  0.000000  0.000000  0.508059  1
  Sn  Sn12  1  0.383469  0.383837  0.750404  1
  Sn  Sn13  1  0.616163  0.999631  0.750404  1
  Sn  Sn14  1  0.000369  0.616531  0.750404  1
  Sb  Sb15  1  0.609932  0.610303  0.249599  1
  Sb  Sb16  1  0.389697  0.999629  0.249599  1
  Sb  Sb17  1  0.000371  0.390068  0.249599  1
