# generated using pymatgen
data_Th3Be2(AsPd5)4
_symmetry_space_group_name_H-M   'P 1'
_cell_length_a   8.91010160
_cell_length_b   8.75544613
_cell_length_c   8.75544600
_cell_angle_alpha   61.17211433
_cell_angle_beta   59.41393752
_cell_angle_gamma   59.41394688
_symmetry_Int_Tables_number   1
_chemical_formula_structural   Th3Be2(AsPd5)4
_chemical_formula_sum   'Th3 Be2 As4 Pd20'
_cell_volume   482.66767428
_cell_formula_units_Z   1
loop_
 _symmetry_equiv_pos_site_id
 _symmetry_equiv_pos_as_xyz
  1  'x, y, z'
loop_
 _atom_site_type_symbol
 _atom_site_label
 _atom_site_symmetry_multiplicity
 _atom_site_fract_x
 _atom_site_fract_y
 _atom_site_fract_z
 _atom_site_occupancy
  Th  Th0  1  0.250073  0.249928  0.249928  1
  Th  Th1  1  0.749927  0.750072  0.750072  1
  Th  Th2  1  0.000000  0.000000  0.000000  1
  Be  Be3  1  0.730480  0.269521  0.269521  1
  Be  Be4  1  0.269520  0.730479  0.730479  1
  As  As5  1  0.266770  0.733242  0.266758  1
  As  As6  1  0.733230  0.266758  0.733242  1
  As  As7  1  0.266770  0.266758  0.733242  1
  As  As8  1  0.733230  0.733242  0.266758  1
  Pd  Pd9  1  0.392027  0.378422  0.378422  1
  Pd  Pd10  1  0.607973  0.621578  0.621578  1
  Pd  Pd11  1  0.378414  0.392030  0.851143  1
  Pd  Pd12  1  0.378414  0.851143  0.392030  1
  Pd  Pd13  1  0.621586  0.607970  0.148857  1
  Pd  Pd14  1  0.621586  0.148857  0.607970  1
  Pd  Pd15  1  0.851126  0.378423  0.378423  1
  Pd  Pd16  1  0.148874  0.621577  0.621577  1
  Pd  Pd17  1  0.348559  0.000001  0.000001  1
  Pd  Pd18  1  0.651441  0.999999  0.999999  1
  Pd  Pd19  1  0.000000  0.348529  0.651471  1
  Pd  Pd20  1  0.000000  0.651471  0.348529  1
  Pd  Pd21  1  0.986419  0.344929  0.013520  1
  Pd  Pd22  1  0.655132  0.013520  0.344929  1
  Pd  Pd23  1  0.013581  0.655071  0.986480  1
  Pd  Pd24  1  0.344868  0.986480  0.655071  1
  Pd  Pd25  1  0.986419  0.013520  0.344929  1
  Pd  Pd26  1  0.013581  0.986480  0.655071  1
  Pd  Pd27  1  0.655132  0.344929  0.013520  1
  Pd  Pd28  1  0.344868  0.655071  0.986480  1
