# generated using pymatgen
data_Zn2Fe3SbO8
_symmetry_space_group_name_H-M   'P 1'
_cell_length_a   6.06441846
_cell_length_b   10.93645287
_cell_length_c   6.09106783
_cell_angle_alpha   73.13847708
_cell_angle_beta   119.85140582
_cell_angle_gamma   90.00667829
_symmetry_Int_Tables_number   1
_chemical_formula_structural   Zn2Fe3SbO8
_chemical_formula_sum   'Zn4 Fe6 Sb2 O16'
_cell_volume   330.21239801
_cell_formula_units_Z   2
loop_
 _symmetry_equiv_pos_site_id
 _symmetry_equiv_pos_as_xyz
  1  'x, y, z'
loop_
 _atom_site_type_symbol
 _atom_site_label
 _atom_site_symmetry_multiplicity
 _atom_site_fract_x
 _atom_site_fract_y
 _atom_site_fract_z
 _atom_site_occupancy
  Zn  Zn0  1  0.936553  0.205332  0.873062  1
  Zn  Zn1  1  0.436547  0.705311  0.873079  1
  Zn  Zn2  1  0.563444  0.294701  0.126913  1
  Zn  Zn3  1  0.063459  0.794669  0.126913  1
  Fe  Fe4  1  0.500185  0.999899  0.000238  1
  Fe  Fe5  1  0.500033  0.000011  0.499816  1
  Fe  Fe6  1  0.500249  0.499971  0.500128  1
  Fe  Fe7  1  0.999939  0.500084  0.999917  1
  Fe  Fe8  1  0.999966  0.499953  0.500137  1
  Fe  Fe9  1  0.999665  0.999993  0.499866  1
  Sb  Sb10  1  0.750021  0.749963  0.500009  1
  Sb  Sb11  1  0.249967  0.250041  0.499979  1
  O  O12  1  0.874269  0.397354  0.748592  1
  O  O13  1  0.374221  0.897347  0.748498  1
  O  O14  1  0.625765  0.102653  0.251450  1
  O  O15  1  0.125733  0.602658  0.251467  1
  O  O16  1  0.100086  0.629166  0.744335  1
  O  O17  1  0.600069  0.129153  0.744286  1
  O  O18  1  0.644316  0.629125  0.744391  1
  O  O19  1  0.144313  0.129101  0.744410  1
  O  O20  1  0.638281  0.634127  0.276434  1
  O  O21  1  0.138204  0.134114  0.276408  1
  O  O22  1  0.861757  0.865896  0.723574  1
  O  O23  1  0.361728  0.365883  0.723562  1
  O  O24  1  0.855713  0.870893  0.255582  1
  O  O25  1  0.355676  0.370904  0.255604  1
  O  O26  1  0.399932  0.870851  0.255646  1
  O  O27  1  0.899911  0.370851  0.255701  1
