# generated using pymatgen
data_AlZn4B3Ir7
_symmetry_space_group_name_H-M   'P 1'
_cell_length_a   2.86532200
_cell_length_b   11.28998900
_cell_length_c   11.86565600
_cell_angle_alpha   90.00000000
_cell_angle_beta   90.00000000
_cell_angle_gamma   90.00000000
_symmetry_Int_Tables_number   1
_chemical_formula_structural   AlZn4B3Ir7
_chemical_formula_sum   'Al2 Zn8 B6 Ir14'
_cell_volume   383.84749131
_cell_formula_units_Z   2
loop_
 _symmetry_equiv_pos_site_id
 _symmetry_equiv_pos_as_xyz
  1  'x, y, z'
loop_
 _atom_site_type_symbol
 _atom_site_label
 _atom_site_symmetry_multiplicity
 _atom_site_fract_x
 _atom_site_fract_y
 _atom_site_fract_z
 _atom_site_occupancy
  Al  Al0  1  0.500000  0.750000  0.184963  1
  Al  Al1  1  0.500000  0.250000  0.815037  1
  Zn  Zn2  1  0.500000  0.452538  0.139407  1
  Zn  Zn3  1  0.500000  0.547462  0.860593  1
  Zn  Zn4  1  0.500000  0.047462  0.139407  1
  Zn  Zn5  1  0.500000  0.952538  0.860593  1
  Zn  Zn6  1  0.500000  0.367943  0.345558  1
  Zn  Zn7  1  0.500000  0.632057  0.654442  1
  Zn  Zn8  1  0.500000  0.132057  0.345558  1
  Zn  Zn9  1  0.500000  0.867943  0.654442  1
  B  B10  1  0.500000  0.750000  0.960865  1
  B  B11  1  0.500000  0.250000  0.039135  1
  B  B12  1  0.500000  0.880725  0.409849  1
  B  B13  1  0.500000  0.119275  0.590151  1
  B  B14  1  0.500000  0.619275  0.409849  1
  B  B15  1  0.500000  0.380725  0.590151  1
  Ir  Ir16  1  0.000000  0.000000  0.500000  1
  Ir  Ir17  1  0.000000  0.500000  0.500000  1
  Ir  Ir18  1  0.000000  0.750000  0.819791  1
  Ir  Ir19  1  0.000000  0.250000  0.180209  1
  Ir  Ir20  1  0.000000  0.750000  0.478709  1
  Ir  Ir21  1  0.000000  0.250000  0.521291  1
  Ir  Ir22  1  0.000000  0.874701  0.038331  1
  Ir  Ir23  1  0.000000  0.125299  0.961669  1
  Ir  Ir24  1  0.000000  0.625299  0.038331  1
  Ir  Ir25  1  0.000000  0.374701  0.961669  1
  Ir  Ir26  1  0.000000  0.912036  0.278283  1
  Ir  Ir27  1  0.000000  0.087964  0.721717  1
  Ir  Ir28  1  0.000000  0.587964  0.278283  1
  Ir  Ir29  1  0.000000  0.412036  0.721717  1
