# generated using pymatgen
data_Ho2Er2SiI6
_symmetry_space_group_name_H-M   'P 1'
_cell_length_a   4.19749000
_cell_length_b   13.89665000
_cell_length_c   14.67849100
_cell_angle_alpha   90.00000000
_cell_angle_beta   90.00000000
_cell_angle_gamma   90.00000000
_symmetry_Int_Tables_number   1
_chemical_formula_structural   Ho2Er2SiI6
_chemical_formula_sum   'Ho4 Er4 Si2 I12'
_cell_volume   856.21178376
_cell_formula_units_Z   2
loop_
 _symmetry_equiv_pos_site_id
 _symmetry_equiv_pos_as_xyz
  1  'x, y, z'
loop_
 _atom_site_type_symbol
 _atom_site_label
 _atom_site_symmetry_multiplicity
 _atom_site_fract_x
 _atom_site_fract_y
 _atom_site_fract_z
 _atom_site_occupancy
  Ho  Ho0  1  0.000000  0.110597  0.574053  1
  Ho  Ho1  1  0.000000  0.889403  0.425947  1
  Ho  Ho2  1  0.000000  0.610597  0.925947  1
  Ho  Ho3  1  0.000000  0.389403  0.074053  1
  Er  Er4  1  0.500000  0.113559  0.348176  1
  Er  Er5  1  0.500000  0.886441  0.651824  1
  Er  Er6  1  0.500000  0.613559  0.151824  1
  Er  Er7  1  0.500000  0.386441  0.848176  1
  Si  Si8  1  0.500000  0.000000  0.500000  1
  Si  Si9  1  0.500000  0.500000  0.000000  1
  I  I10  1  0.500000  0.245391  0.162038  1
  I  I11  1  0.500000  0.754609  0.837962  1
  I  I12  1  0.500000  0.745391  0.337962  1
  I  I13  1  0.500000  0.254609  0.662038  1
  I  I14  1  0.000000  0.258681  0.413792  1
  I  I15  1  0.000000  0.741319  0.586208  1
  I  I16  1  0.000000  0.758681  0.086208  1
  I  I17  1  0.000000  0.241319  0.913792  1
  I  I18  1  0.000000  0.999848  0.240200  1
  I  I19  1  0.000000  0.000152  0.759800  1
  I  I20  1  0.000000  0.499848  0.259800  1
  I  I21  1  0.000000  0.500152  0.740200  1
