# generated using pymatgen
data_Tb7Sm(HgRh)2
_symmetry_space_group_name_H-M   'P 1'
_cell_length_a   9.65772606
_cell_length_b   9.65652403
_cell_length_c   9.65826326
_cell_angle_alpha   60.00595057
_cell_angle_beta   60.02457882
_cell_angle_gamma   60.00411973
_symmetry_Int_Tables_number   1
_chemical_formula_structural   Tb7Sm(HgRh)2
_chemical_formula_sum   'Tb14 Sm2 Hg4 Rh4'
_cell_volume   637.07918682
_cell_formula_units_Z   2
loop_
 _symmetry_equiv_pos_site_id
 _symmetry_equiv_pos_as_xyz
  1  'x, y, z'
loop_
 _atom_site_type_symbol
 _atom_site_label
 _atom_site_symmetry_multiplicity
 _atom_site_fract_x
 _atom_site_fract_y
 _atom_site_fract_z
 _atom_site_occupancy
  Tb  Tb0  1  0.313155  0.686789  0.313266  1
  Tb  Tb1  1  0.061504  0.439307  0.439840  1
  Tb  Tb2  1  0.688041  0.313064  0.311012  1
  Tb  Tb3  1  0.439419  0.060652  0.439277  1
  Tb  Tb4  1  0.439722  0.059607  0.062064  1
  Tb  Tb5  1  0.898681  0.899607  0.898941  1
  Tb  Tb6  1  0.060245  0.439704  0.060347  1
  Tb  Tb7  1  0.898681  0.302772  0.898941  1
  Tb  Tb8  1  0.311682  0.687538  0.687048  1
  Tb  Tb9  1  0.897939  0.898607  0.304848  1
  Tb  Tb10  1  0.439722  0.438608  0.062064  1
  Tb  Tb11  1  0.311682  0.313732  0.687048  1
  Tb  Tb12  1  0.688041  0.687883  0.311012  1
  Tb  Tb13  1  0.061504  0.059350  0.439840  1
  Sm  Sm14  1  0.304887  0.898623  0.897867  1
  Sm  Sm15  1  0.687160  0.313218  0.686403  1
  Hg  Hg16  1  0.006214  0.664572  0.664642  1
  Hg  Hg17  1  0.666211  0.004060  0.663839  1
  Hg  Hg18  1  0.666106  0.663701  0.006491  1
  Hg  Hg19  1  0.666211  0.665891  0.663839  1
  Rh  Rh20  1  0.105294  0.108847  0.677011  1
  Rh  Rh21  1  0.104802  0.676380  0.108635  1
  Rh  Rh22  1  0.104802  0.110183  0.108635  1
  Rh  Rh23  1  0.678299  0.107305  0.107090  1
