# generated using pymatgen
data_Ho2Lu10Os3Pd
_symmetry_space_group_name_H-M   'P 1'
_cell_length_a   7.27124953
_cell_length_b   8.85217400
_cell_length_c   6.22409000
_cell_angle_alpha   90.00000000
_cell_angle_beta   90.12933867
_cell_angle_gamma   90.00000000
_symmetry_Int_Tables_number   1
_chemical_formula_structural   Ho2Lu10Os3Pd
_chemical_formula_sum   'Ho2 Lu10 Os3 Pd1'
_cell_volume   400.62103424
_cell_formula_units_Z   1
loop_
 _symmetry_equiv_pos_site_id
 _symmetry_equiv_pos_as_xyz
  1  'x, y, z'
loop_
 _atom_site_type_symbol
 _atom_site_label
 _atom_site_symmetry_multiplicity
 _atom_site_fract_x
 _atom_site_fract_y
 _atom_site_fract_z
 _atom_site_occupancy
  Ho  Ho0  1  0.533108  0.250000  0.875115  1
  Ho  Ho1  1  0.037717  0.250000  0.620638  1
  Lu  Lu2  1  0.669602  0.056714  0.338032  1
  Lu  Lu3  1  0.183272  0.443249  0.169770  1
  Lu  Lu4  1  0.323272  0.562850  0.669690  1
  Lu  Lu5  1  0.822074  0.932035  0.825265  1
  Lu  Lu6  1  0.323272  0.937150  0.669690  1
  Lu  Lu7  1  0.822074  0.567965  0.825265  1
  Lu  Lu8  1  0.669602  0.443286  0.338032  1
  Lu  Lu9  1  0.183272  0.056751  0.169770  1
  Lu  Lu10  1  0.463415  0.750000  0.121501  1
  Lu  Lu11  1  0.963934  0.750000  0.373189  1
  Os  Os12  1  0.383774  0.250000  0.458351  1
  Os  Os13  1  0.116090  0.750000  0.963286  1
  Os  Os14  1  0.616387  0.750000  0.533377  1
  Pd  Pd15  1  0.889138  0.250000  0.049030  1
