# generated using pymatgen
data_Yb7Cd(SiO4)4
_symmetry_space_group_name_H-M   'P 1'
_cell_length_a   5.08221602
_cell_length_b   6.67828870
_cell_length_c   11.18668762
_cell_angle_alpha   90.12997404
_cell_angle_beta   90.06677756
_cell_angle_gamma   90.10083422
_symmetry_Int_Tables_number   1
_chemical_formula_structural   Yb7Cd(SiO4)4
_chemical_formula_sum   'Yb7 Cd1 Si4 O16'
_cell_volume   379.68001215
_cell_formula_units_Z   1
loop_
 _symmetry_equiv_pos_site_id
 _symmetry_equiv_pos_as_xyz
  1  'x, y, z'
loop_
 _atom_site_type_symbol
 _atom_site_label
 _atom_site_symmetry_multiplicity
 _atom_site_fract_x
 _atom_site_fract_y
 _atom_site_fract_z
 _atom_site_occupancy
  Yb  Yb0  1  0.490841  0.748490  0.779653  1
  Yb  Yb1  1  0.991384  0.249218  0.720975  1
  Yb  Yb2  1  0.509159  0.251510  0.220347  1
  Yb  Yb3  1  0.008616  0.750782  0.279025  1
  Yb  Yb4  1  0.000000  0.500000  0.000000  1
  Yb  Yb5  1  0.500000  0.000000  0.500000  1
  Yb  Yb6  1  0.000000  0.000000  0.000000  1
  Cd  Cd7  1  0.500000  0.500000  0.500000  1
  Si  Si8  1  0.926222  0.749212  0.597108  1
  Si  Si9  1  0.426709  0.249695  0.904106  1
  Si  Si10  1  0.073778  0.250788  0.402892  1
  Si  Si11  1  0.573291  0.750305  0.095894  1
  O  O12  1  0.202309  0.447827  0.334050  1
  O  O13  1  0.707940  0.552907  0.161845  1
  O  O14  1  0.791278  0.947229  0.662200  1
  O  O15  1  0.292135  0.052010  0.837573  1
  O  O16  1  0.797691  0.552173  0.665950  1
  O  O17  1  0.292060  0.447093  0.838155  1
  O  O18  1  0.208722  0.052771  0.337800  1
  O  O19  1  0.707865  0.947990  0.162427  1
  O  O20  1  0.798112  0.748253  0.459062  1
  O  O21  1  0.296077  0.249886  0.041040  1
  O  O22  1  0.201888  0.251747  0.540938  1
  O  O23  1  0.703923  0.750114  0.958960  1
  O  O24  1  0.250590  0.750353  0.092931  1
  O  O25  1  0.751204  0.244363  0.404733  1
  O  O26  1  0.749410  0.249647  0.907069  1
  O  O27  1  0.248796  0.755637  0.595267  1
