# generated using pymatgen
data_Tb3Ho3Ir2
_symmetry_space_group_name_H-M   'P 1'
_cell_length_a   6.39706597
_cell_length_b   7.23259400
_cell_length_c   9.25592004
_cell_angle_alpha   90.00000000
_cell_angle_beta   90.19213415
_cell_angle_gamma   90.00000000
_symmetry_Int_Tables_number   1
_chemical_formula_structural   Tb3Ho3Ir2
_chemical_formula_sum   'Tb6 Ho6 Ir4'
_cell_volume   428.24477082
_cell_formula_units_Z   2
loop_
 _symmetry_equiv_pos_site_id
 _symmetry_equiv_pos_as_xyz
  1  'x, y, z'
loop_
 _atom_site_type_symbol
 _atom_site_label
 _atom_site_symmetry_multiplicity
 _atom_site_fract_x
 _atom_site_fract_y
 _atom_site_fract_z
 _atom_site_occupancy
  Tb  Tb0  1  0.328381  0.676910  0.062503  1
  Tb  Tb1  1  0.171619  0.176910  0.437497  1
  Tb  Tb2  1  0.868616  0.534314  0.250269  1
  Tb  Tb3  1  0.631384  0.034314  0.249731  1
  Tb  Tb4  1  0.130431  0.465609  0.749890  1
  Tb  Tb5  1  0.369569  0.965609  0.750110  1
  Ho  Ho6  1  0.671278  0.323654  0.563534  1
  Ho  Ho7  1  0.828722  0.823654  0.936466  1
  Ho  Ho8  1  0.671488  0.323181  0.936587  1
  Ho  Ho9  1  0.828512  0.823181  0.563413  1
  Ho  Ho10  1  0.328921  0.676407  0.437251  1
  Ho  Ho11  1  0.171079  0.176407  0.062749  1
  Ir  Ir12  1  0.048349  0.882584  0.249971  1
  Ir  Ir13  1  0.451651  0.382584  0.250029  1
  Ir  Ir14  1  0.950634  0.117340  0.750700  1
  Ir  Ir15  1  0.549366  0.617340  0.749300  1
