# generated using pymatgen
data_Ce3Pu3Ni20P13
_symmetry_space_group_name_H-M   'P 1'
_cell_length_a   12.74476200
_cell_length_b   12.74476280
_cell_length_c   3.79096200
_cell_angle_alpha   90.00000000
_cell_angle_beta   90.00000000
_cell_angle_gamma   120.00000312
_symmetry_Int_Tables_number   1
_chemical_formula_structural   Ce3Pu3Ni20P13
_chemical_formula_sum   'Ce3 Pu3 Ni20 P13'
_cell_volume   533.26555916
_cell_formula_units_Z   1
loop_
 _symmetry_equiv_pos_site_id
 _symmetry_equiv_pos_as_xyz
  1  'x, y, z'
loop_
 _atom_site_type_symbol
 _atom_site_label
 _atom_site_symmetry_multiplicity
 _atom_site_fract_x
 _atom_site_fract_y
 _atom_site_fract_z
 _atom_site_occupancy
  Ce  Ce0  1  0.532335  0.812474  0.500000  1
  Ce  Ce1  1  0.280140  0.467665  0.500000  1
  Ce  Ce2  1  0.187526  0.719860  0.500000  1
  Pu  Pu3  1  0.471451  0.188207  0.000000  1
  Pu  Pu4  1  0.716756  0.528549  0.000000  1
  Pu  Pu5  1  0.811793  0.283244  0.000000  1
  Ni  Ni6  1  0.333333  0.666667  0.000000  1
  Ni  Ni7  1  0.666667  0.333333  0.500000  1
  Ni  Ni8  1  0.194586  0.089404  0.000000  1
  Ni  Ni9  1  0.894819  0.805414  0.000000  1
  Ni  Ni10  1  0.910596  0.105181  0.000000  1
  Ni  Ni11  1  0.850253  0.926596  0.500000  1
  Ni  Ni12  1  0.076343  0.149747  0.500000  1
  Ni  Ni13  1  0.073404  0.923657  0.500000  1
  Ni  Ni14  1  0.436434  0.413568  0.000000  1
  Ni  Ni15  1  0.977133  0.563566  0.000000  1
  Ni  Ni16  1  0.586432  0.022867  0.000000  1
  Ni  Ni17  1  0.564761  0.586930  0.500000  1
  Ni  Ni18  1  0.022169  0.435239  0.500000  1
  Ni  Ni19  1  0.413070  0.977831  0.500000  1
  Ni  Ni20  1  0.076636  0.318719  0.000000  1
  Ni  Ni21  1  0.242083  0.923364  0.000000  1
  Ni  Ni22  1  0.681281  0.757917  0.000000  1
  Ni  Ni23  1  0.931618  0.685609  0.500000  1
  Ni  Ni24  1  0.753991  0.068382  0.500000  1
  Ni  Ni25  1  0.314391  0.246009  0.500000  1
  P  P26  1  0.232352  0.278141  0.000000  1
  P  P27  1  0.045789  0.767648  0.000000  1
  P  P28  1  0.721859  0.954211  0.000000  1
  P  P29  1  0.768303  0.720446  0.500000  1
  P  P30  1  0.952142  0.231697  0.500000  1
  P  P31  1  0.279554  0.047858  0.500000  1
  P  P32  1  0.479964  0.612181  0.000000  1
  P  P33  1  0.132217  0.520036  0.000000  1
  P  P34  1  0.387819  0.867783  0.000000  1
  P  P35  1  0.521046  0.385650  0.500000  1
  P  P36  1  0.864604  0.478954  0.500000  1
  P  P37  1  0.614350  0.135396  0.500000  1
  P  P38  1  0.000000  0.000000  0.000000  1
