# generated using pymatgen
data_NdTh(Fe8P5)2
_symmetry_space_group_name_H-M   'P 1'
_cell_length_a   3.59776100
_cell_length_b   9.10721700
_cell_length_c   10.55517600
_cell_angle_alpha   90.00000000
_cell_angle_beta   90.00000000
_cell_angle_gamma   90.00000000
_symmetry_Int_Tables_number   1
_chemical_formula_structural   NdTh(Fe8P5)2
_chemical_formula_sum   'Nd1 Th1 Fe16 P10'
_cell_volume   345.84657068
_cell_formula_units_Z   1
loop_
 _symmetry_equiv_pos_site_id
 _symmetry_equiv_pos_as_xyz
  1  'x, y, z'
loop_
 _atom_site_type_symbol
 _atom_site_label
 _atom_site_symmetry_multiplicity
 _atom_site_fract_x
 _atom_site_fract_y
 _atom_site_fract_z
 _atom_site_occupancy
  Nd  Nd0  1  0.000000  0.817838  0.000000  1
  Th  Th1  1  0.500000  0.183758  0.500000  1
  Fe  Fe2  1  0.000000  0.519290  0.170656  1
  Fe  Fe3  1  0.000000  0.450379  0.500000  1
  Fe  Fe4  1  0.500000  0.891204  0.258804  1
  Fe  Fe5  1  0.500000  0.481082  0.330174  1
  Fe  Fe6  1  0.500000  0.849503  0.500000  1
  Fe  Fe7  1  0.500000  0.306314  0.144224  1
  Fe  Fe8  1  0.500000  0.544228  0.000000  1
  Fe  Fe9  1  0.000000  0.692606  0.642526  1
  Fe  Fe10  1  0.000000  0.152771  0.000000  1
  Fe  Fe11  1  0.000000  0.692606  0.357474  1
  Fe  Fe12  1  0.500000  0.481082  0.669826  1
  Fe  Fe13  1  0.500000  0.306314  0.855776  1
  Fe  Fe14  1  0.000000  0.109665  0.242141  1
  Fe  Fe15  1  0.500000  0.891204  0.741196  1
  Fe  Fe16  1  0.000000  0.519290  0.829344  1
  Fe  Fe17  1  0.000000  0.109665  0.757859  1
  P  P18  1  0.000000  0.338918  0.690490  1
  P  P19  1  0.000000  0.933798  0.380444  1
  P  P20  1  0.000000  0.390993  0.000000  1
  P  P21  1  0.500000  0.662020  0.188574  1
  P  P22  1  0.500000  0.065526  0.118587  1
  P  P23  1  0.500000  0.662020  0.811426  1
  P  P24  1  0.000000  0.933798  0.619556  1
  P  P25  1  0.000000  0.338918  0.309510  1
  P  P26  1  0.500000  0.609684  0.500000  1
  P  P27  1  0.500000  0.065526  0.881413  1
