# generated using pymatgen
data_Tb3HoAl18NiIr5
_symmetry_space_group_name_H-M   'P 1'
_cell_length_a   7.55330731
_cell_length_b   7.55417763
_cell_length_c   9.45189923
_cell_angle_alpha   90.16062005
_cell_angle_beta   90.16703912
_cell_angle_gamma   119.81408854
_symmetry_Int_Tables_number   1
_chemical_formula_structural   Tb3HoAl18NiIr5
_chemical_formula_sum   'Tb3 Ho1 Al18 Ni1 Ir5'
_cell_volume   467.92639931
_cell_formula_units_Z   1
loop_
 _symmetry_equiv_pos_site_id
 _symmetry_equiv_pos_as_xyz
  1  'x, y, z'
loop_
 _atom_site_type_symbol
 _atom_site_label
 _atom_site_symmetry_multiplicity
 _atom_site_fract_x
 _atom_site_fract_y
 _atom_site_fract_z
 _atom_site_occupancy
  Tb  Tb0  1  0.995102  0.667784  0.250150  1
  Tb  Tb1  1  0.004970  0.332265  0.749821  1
  Tb  Tb2  1  0.667719  0.995051  0.250181  1
  Ho  Ho3  1  0.332290  0.004866  0.749794  1
  Al  Al4  1  0.123486  0.123421  0.246727  1
  Al  Al5  1  0.877005  0.876701  0.753291  1
  Al  Al6  1  0.000398  0.332188  0.074731  1
  Al  Al7  1  0.999959  0.668197  0.925084  1
  Al  Al8  1  0.999585  0.667050  0.575067  1
  Al  Al9  1  0.333344  0.000783  0.425479  1
  Al  Al10  1  0.000787  0.333347  0.425140  1
  Al  Al11  1  0.666308  0.999224  0.575073  1
  Al  Al12  1  0.667439  0.999613  0.925040  1
  Al  Al13  1  0.332163  0.000365  0.074374  1
  Al  Al14  1  0.333701  0.333401  0.552040  1
  Al  Al15  1  0.666299  0.666294  0.448228  1
  Al  Al16  1  0.668727  0.668721  0.051067  1
  Al  Al17  1  0.331271  0.330945  0.948667  1
  Al  Al18  1  0.338668  0.546398  0.249601  1
  Al  Al19  1  0.660991  0.453190  0.750388  1
  Al  Al20  1  0.546334  0.338616  0.249587  1
  Al  Al21  1  0.453573  0.661633  0.750403  1
  Ni  Ni22  1  0.000268  0.000071  0.999805  1
  Ir  Ir23  1  0.671466  0.327923  0.999717  1
  Ir  Ir24  1  0.328162  0.671925  0.999747  1
  Ir  Ir25  1  0.328183  0.671930  0.500262  1
  Ir  Ir26  1  0.671503  0.327997  0.500274  1
  Ir  Ir27  1  0.000300  0.000098  0.500263  1
