# generated using pymatgen
data_Sc(Al3Pt)3
_symmetry_space_group_name_H-M   'P 1'
_cell_length_a   10.35150484
_cell_length_b   10.35150379
_cell_length_c   10.35150411
_cell_angle_alpha   42.26110923
_cell_angle_beta   42.26110596
_cell_angle_gamma   42.26111666
_symmetry_Int_Tables_number   1
_chemical_formula_structural   Sc(Al3Pt)3
_chemical_formula_sum   'Sc2 Al18 Pt6'
_cell_volume   454.02354847
_cell_formula_units_Z   2
loop_
 _symmetry_equiv_pos_site_id
 _symmetry_equiv_pos_as_xyz
  1  'x, y, z'
loop_
 _atom_site_type_symbol
 _atom_site_label
 _atom_site_symmetry_multiplicity
 _atom_site_fract_x
 _atom_site_fract_y
 _atom_site_fract_z
 _atom_site_occupancy
  Sc  Sc0  1  0.166971  0.166971  0.166971  1
  Sc  Sc1  1  0.833029  0.833029  0.833029  1
  Al  Al2  1  0.051381  0.051381  0.051381  1
  Al  Al3  1  0.707749  0.500000  0.292251  1
  Al  Al4  1  0.665873  0.334127  0.000000  1
  Al  Al5  1  0.106800  0.438390  0.770216  1
  Al  Al6  1  0.438390  0.770216  0.106800  1
  Al  Al7  1  0.386275  0.386275  0.386275  1
  Al  Al8  1  0.334127  0.000000  0.665873  1
  Al  Al9  1  0.613725  0.613725  0.613725  1
  Al  Al10  1  0.229784  0.561610  0.893200  1
  Al  Al11  1  0.561610  0.893200  0.229784  1
  Al  Al12  1  0.500000  0.292251  0.707749  1
  Al  Al13  1  0.770216  0.106800  0.438390  1
  Al  Al14  1  0.948619  0.948619  0.948619  1
  Al  Al15  1  0.292251  0.707749  0.500000  1
  Al  Al16  1  0.000000  0.665873  0.334127  1
  Al  Al17  1  0.717563  0.717563  0.717563  1
  Al  Al18  1  0.282437  0.282437  0.282437  1
  Al  Al19  1  0.893200  0.229784  0.561610  1
  Pt  Pt20  1  0.239460  0.922412  0.580869  1
  Pt  Pt21  1  0.922412  0.580869  0.239460  1
  Pt  Pt22  1  0.760540  0.419131  0.077588  1
  Pt  Pt23  1  0.077588  0.760540  0.419131  1
  Pt  Pt24  1  0.419131  0.077588  0.760540  1
  Pt  Pt25  1  0.580869  0.239460  0.922412  1
