# generated using pymatgen
data_Nd4Al15(SiIr2)3
_symmetry_space_group_name_H-M   'P 1'
_cell_length_a   7.57389937
_cell_length_b   7.55040548
_cell_length_c   9.53867833
_cell_angle_alpha   89.97922850
_cell_angle_beta   89.94316599
_cell_angle_gamma   119.71797275
_symmetry_Int_Tables_number   1
_chemical_formula_structural   Nd4Al15(SiIr2)3
_chemical_formula_sum   'Nd4 Al15 Si3 Ir6'
_cell_volume   473.73495879
_cell_formula_units_Z   1
loop_
 _symmetry_equiv_pos_site_id
 _symmetry_equiv_pos_as_xyz
  1  'x, y, z'
loop_
 _atom_site_type_symbol
 _atom_site_label
 _atom_site_symmetry_multiplicity
 _atom_site_fract_x
 _atom_site_fract_y
 _atom_site_fract_z
 _atom_site_occupancy
  Nd  Nd0  1  0.994979  0.665381  0.247936  1
  Nd  Nd1  1  0.005056  0.338693  0.752695  1
  Nd  Nd2  1  0.672773  0.999051  0.248120  1
  Nd  Nd3  1  0.323210  0.995847  0.750147  1
  Al  Al4  1  0.130800  0.128625  0.250142  1
  Al  Al5  1  0.868973  0.869314  0.749593  1
  Al  Al6  1  0.339150  0.005426  0.426229  1
  Al  Al7  1  0.002384  0.329381  0.431160  1
  Al  Al8  1  0.665714  0.999792  0.572929  1
  Al  Al9  1  0.661786  0.995537  0.924703  1
  Al  Al10  1  0.338994  0.005498  0.074623  1
  Al  Al11  1  0.334371  0.333339  0.552239  1
  Al  Al12  1  0.662555  0.666404  0.448267  1
  Al  Al13  1  0.662153  0.665770  0.053045  1
  Al  Al14  1  0.337256  0.333824  0.947465  1
  Al  Al15  1  0.338976  0.546983  0.250383  1
  Al  Al16  1  0.660180  0.453532  0.750572  1
  Al  Al17  1  0.546873  0.342343  0.250222  1
  Al  Al18  1  0.455654  0.658770  0.749832  1
  Si  Si19  1  0.003368  0.328036  0.072154  1
  Si  Si20  1  0.996359  0.671678  0.932518  1
  Si  Si21  1  0.997467  0.666244  0.563531  1
  Ir  Ir22  1  0.688486  0.338318  0.001144  1
  Ir  Ir23  1  0.311726  0.662118  0.998320  1
  Ir  Ir24  1  0.320080  0.669790  0.502008  1
  Ir  Ir25  1  0.679847  0.337789  0.500310  1
  Ir  Ir26  1  0.000273  0.999864  0.999483  1
  Ir  Ir27  1  0.000554  0.992656  0.500226  1
