# generated using pymatgen
data_Dy16MgCd(Ni2Ag)2
_symmetry_space_group_name_H-M   'P 1'
_cell_length_a   9.49828244
_cell_length_b   9.50065231
_cell_length_c   9.48368800
_cell_angle_alpha   60.05904942
_cell_angle_beta   60.05081516
_cell_angle_gamma   60.15345193
_symmetry_Int_Tables_number   1
_chemical_formula_structural   Dy16MgCd(Ni2Ag)2
_chemical_formula_sum   'Dy16 Mg1 Cd1 Ni4 Ag2'
_cell_volume   606.34921632
_cell_formula_units_Z   1
loop_
 _symmetry_equiv_pos_site_id
 _symmetry_equiv_pos_as_xyz
  1  'x, y, z'
loop_
 _atom_site_type_symbol
 _atom_site_label
 _atom_site_symmetry_multiplicity
 _atom_site_fract_x
 _atom_site_fract_y
 _atom_site_fract_z
 _atom_site_occupancy
  Dy  Dy0  1  0.347712  0.346795  0.347092  1
  Dy  Dy1  1  0.347712  0.346795  0.958399  1
  Dy  Dy2  1  0.350964  0.952892  0.348071  1
  Dy  Dy3  1  0.946909  0.352180  0.350455  1
  Dy  Dy4  1  0.810526  0.189323  0.190362  1
  Dy  Dy5  1  0.187354  0.813043  0.811352  1
  Dy  Dy6  1  0.187354  0.813043  0.188250  1
  Dy  Dy7  1  0.810526  0.189323  0.809789  1
  Dy  Dy8  1  0.188722  0.189428  0.810925  1
  Dy  Dy9  1  0.810286  0.810789  0.189463  1
  Dy  Dy10  1  0.932616  0.564101  0.565492  1
  Dy  Dy11  1  0.562512  0.933214  0.938661  1
  Dy  Dy12  1  0.562512  0.933214  0.565612  1
  Dy  Dy13  1  0.932616  0.564101  0.937790  1
  Dy  Dy14  1  0.562111  0.563296  0.937296  1
  Dy  Dy15  1  0.935298  0.935277  0.564712  1
  Mg  Mg16  1  0.278804  0.576563  0.572317  1
  Cd  Cd17  1  0.582975  0.257258  0.579884  1
  Ni  Ni18  1  0.142226  0.142940  0.144046  1
  Ni  Ni19  1  0.142226  0.142940  0.570789  1
  Ni  Ni20  1  0.139868  0.572421  0.143856  1
  Ni  Ni21  1  0.573020  0.141348  0.142817  1
  Ag  Ag22  1  0.582575  0.584856  0.583507  1
  Ag  Ag23  1  0.582575  0.584856  0.249063  1
