# generated using pymatgen
data_Sr8Si15Ni
_symmetry_space_group_name_H-M   'P 1'
_cell_length_a   11.74066603
_cell_length_b   10.19405078
_cell_length_c   8.22065016
_cell_angle_alpha   78.41635300
_cell_angle_beta   58.28918881
_cell_angle_gamma   43.30840645
_symmetry_Int_Tables_number   1
_chemical_formula_structural   Sr8Si15Ni
_chemical_formula_sum   'Sr8 Si15 Ni1'
_cell_volume   545.58343257
_cell_formula_units_Z   1
loop_
 _symmetry_equiv_pos_site_id
 _symmetry_equiv_pos_as_xyz
  1  'x, y, z'
loop_
 _atom_site_type_symbol
 _atom_site_label
 _atom_site_symmetry_multiplicity
 _atom_site_fract_x
 _atom_site_fract_y
 _atom_site_fract_z
 _atom_site_occupancy
  Sr  Sr0  1  0.874918  0.875332  0.124889  1
  Sr  Sr1  1  0.124889  0.124862  0.874918  1
  Sr  Sr2  1  0.374309  0.374953  0.125625  1
  Sr  Sr3  1  0.125625  0.125113  0.374309  1
  Sr  Sr4  1  0.625744  0.624290  0.374246  1
  Sr  Sr5  1  0.374246  0.375720  0.625744  1
  Sr  Sr6  1  0.624613  0.625090  0.875157  1
  Sr  Sr7  1  0.875157  0.875141  0.624613  1
  Si  Si8  1  0.833034  0.166966  0.833034  1
  Si  Si9  1  0.083313  0.416687  0.083313  1
  Si  Si10  1  0.416976  0.083024  0.416976  1
  Si  Si11  1  0.658660  0.337871  0.181973  1
  Si  Si12  1  0.854104  0.148629  0.322255  1
  Si  Si13  1  0.181973  0.821496  0.658660  1
  Si  Si14  1  0.322255  0.675011  0.854104  1
  Si  Si15  1  0.583450  0.916550  0.583450  1
  Si  Si16  1  0.916812  0.583188  0.916812  1
  Si  Si17  1  0.659540  0.340460  0.659540  1
  Si  Si18  1  0.324437  0.675563  0.324437  1
  Si  Si19  1  0.917454  0.584394  0.415410  1
  Si  Si20  1  0.080782  0.414514  0.584955  1
  Si  Si21  1  0.415410  0.082743  0.917454  1
  Si  Si22  1  0.584955  0.919749  0.080782  1
  Ni  Ni23  1  0.167345  0.832655  0.167345  1
