# generated using pymatgen
data_Sr6InSn5Hg12
_symmetry_space_group_name_H-M   'P 1'
_cell_length_a   5.34442730
_cell_length_b   7.71913900
_cell_length_c   16.23049468
_cell_angle_alpha   90.00000000
_cell_angle_beta   89.83969076
_cell_angle_gamma   90.00000000
_symmetry_Int_Tables_number   1
_chemical_formula_structural   Sr6InSn5Hg12
_chemical_formula_sum   'Sr6 In1 Sn5 Hg12'
_cell_volume   669.57632848
_cell_formula_units_Z   1
loop_
 _symmetry_equiv_pos_site_id
 _symmetry_equiv_pos_as_xyz
  1  'x, y, z'
loop_
 _atom_site_type_symbol
 _atom_site_label
 _atom_site_symmetry_multiplicity
 _atom_site_fract_x
 _atom_site_fract_y
 _atom_site_fract_z
 _atom_site_occupancy
  Sr  Sr0  1  0.000019  0.500000  0.000251  1
  Sr  Sr1  1  0.499946  0.000000  0.166763  1
  Sr  Sr2  1  0.999940  0.500000  0.333345  1
  Sr  Sr3  1  0.499919  0.000000  0.499867  1
  Sr  Sr4  1  0.000209  0.500000  0.666397  1
  Sr  Sr5  1  0.499987  0.000000  0.833271  1
  In  In6  1  0.500283  0.500000  0.833296  1
  Sn  Sn7  1  0.000213  0.000000  0.000150  1
  Sn  Sn8  1  0.499911  0.500000  0.166360  1
  Sn  Sn9  1  0.999898  0.000000  0.333436  1
  Sn  Sn10  1  0.500020  0.500000  0.500352  1
  Sn  Sn11  1  0.999780  0.000000  0.666621  1
  Hg  Hg12  1  0.499895  0.250736  0.998848  1
  Hg  Hg13  1  0.499895  0.749263  0.998848  1
  Hg  Hg14  1  0.000073  0.251002  0.166953  1
  Hg  Hg15  1  0.000073  0.748999  0.166953  1
  Hg  Hg16  1  0.499884  0.249579  0.333322  1
  Hg  Hg17  1  0.499884  0.750422  0.333322  1
  Hg  Hg18  1  0.999824  0.250958  0.499734  1
  Hg  Hg19  1  0.999824  0.749043  0.499734  1
  Hg  Hg20  1  0.500139  0.250738  0.667742  1
  Hg  Hg21  1  0.500139  0.749263  0.667742  1
  Hg  Hg22  1  0.000124  0.251241  0.833347  1
  Hg  Hg23  1  0.000124  0.748760  0.833347  1
