# generated using pymatgen
data_LaDy2(AlPt)4
_symmetry_space_group_name_H-M   'P 1'
_cell_length_a   8.27691464
_cell_length_b   8.27691385
_cell_length_c   8.27691446
_cell_angle_alpha   151.28615115
_cell_angle_beta   127.06138379
_cell_angle_gamma   61.33416682
_symmetry_Int_Tables_number   1
_chemical_formula_structural   LaDy2(AlPt)4
_chemical_formula_sum   'La1 Dy2 Al4 Pt4'
_cell_volume   215.61663036
_cell_formula_units_Z   1
loop_
 _symmetry_equiv_pos_site_id
 _symmetry_equiv_pos_as_xyz
  1  'x, y, z'
loop_
 _atom_site_type_symbol
 _atom_site_label
 _atom_site_symmetry_multiplicity
 _atom_site_fract_x
 _atom_site_fract_y
 _atom_site_fract_z
 _atom_site_occupancy
  La  La0  1  0.500000  0.000000  0.500000  1
  Dy  Dy1  1  0.878889  0.878889  0.000000  1
  Dy  Dy2  1  0.121111  0.121111  0.000000  1
  Al  Al3  1  0.480946  0.678805  0.802140  1
  Al  Al4  1  0.876665  0.678805  0.197860  1
  Al  Al5  1  0.123335  0.321195  0.802140  1
  Al  Al6  1  0.519054  0.321195  0.197860  1
  Pt  Pt7  1  0.278455  0.778455  0.500000  1
  Pt  Pt8  1  0.721545  0.221545  0.500000  1
  Pt  Pt9  1  0.798514  0.500000  0.298514  1
  Pt  Pt10  1  0.201486  0.500000  0.701486  1
