# generated using pymatgen
data_Y3Er5(HgRh)2
_symmetry_space_group_name_H-M   'P 1'
_cell_length_a   9.54566218
_cell_length_b   9.54566243
_cell_length_c   9.54566300
_cell_angle_alpha   60.00000148
_cell_angle_beta   60.00000064
_cell_angle_gamma   60.00000326
_symmetry_Int_Tables_number   1
_chemical_formula_structural   Y3Er5(HgRh)2
_chemical_formula_sum   'Y6 Er10 Hg4 Rh4'
_cell_volume   615.03984254
_cell_formula_units_Z   2
loop_
 _symmetry_equiv_pos_site_id
 _symmetry_equiv_pos_as_xyz
  1  'x, y, z'
loop_
 _atom_site_type_symbol
 _atom_site_label
 _atom_site_symmetry_multiplicity
 _atom_site_fract_x
 _atom_site_fract_y
 _atom_site_fract_z
 _atom_site_occupancy
  Y  Y0  1  0.187435  0.812565  0.812565  1
  Y  Y1  1  0.812565  0.187435  0.187435  1
  Y  Y2  1  0.812565  0.187435  0.812565  1
  Y  Y3  1  0.187435  0.812565  0.187435  1
  Y  Y4  1  0.812565  0.812565  0.187435  1
  Y  Y5  1  0.187435  0.187435  0.812565  1
  Er  Er6  1  0.601171  0.601171  0.601171  1
  Er  Er7  1  0.601171  0.601171  0.196487  1
  Er  Er8  1  0.601171  0.196487  0.601171  1
  Er  Er9  1  0.196487  0.601171  0.601171  1
  Er  Er10  1  0.061066  0.438934  0.438934  1
  Er  Er11  1  0.438934  0.061066  0.061066  1
  Er  Er12  1  0.438934  0.061066  0.438934  1
  Er  Er13  1  0.061066  0.438934  0.061066  1
  Er  Er14  1  0.438934  0.438934  0.061066  1
  Er  Er15  1  0.061066  0.061066  0.438934  1
  Hg  Hg16  1  0.834459  0.834459  0.834459  1
  Hg  Hg17  1  0.834459  0.834459  0.496621  1
  Hg  Hg18  1  0.834459  0.496621  0.834459  1
  Hg  Hg19  1  0.496621  0.834459  0.834459  1
  Rh  Rh20  1  0.392885  0.392885  0.392885  1
  Rh  Rh21  1  0.392885  0.392885  0.821347  1
  Rh  Rh22  1  0.392885  0.821347  0.392885  1
  Rh  Rh23  1  0.821347  0.392885  0.392885  1
