# generated using pymatgen
data_Rb2Nb4Fe2O13
_symmetry_space_group_name_H-M   'P 1'
_cell_length_a   8.58643064
_cell_length_b   8.58642948
_cell_length_c   9.63887286
_cell_angle_alpha   79.85346379
_cell_angle_beta   79.85346540
_cell_angle_gamma   26.74460905
_symmetry_Int_Tables_number   1
_chemical_formula_structural   Rb2Nb4Fe2O13
_chemical_formula_sum   'Rb2 Nb4 Fe2 O13'
_cell_volume   314.51307546
_cell_formula_units_Z   1
loop_
 _symmetry_equiv_pos_site_id
 _symmetry_equiv_pos_as_xyz
  1  'x, y, z'
loop_
 _atom_site_type_symbol
 _atom_site_label
 _atom_site_symmetry_multiplicity
 _atom_site_fract_x
 _atom_site_fract_y
 _atom_site_fract_z
 _atom_site_occupancy
  Rb  Rb0  1  0.550204  0.550204  0.751381  1
  Rb  Rb1  1  0.449796  0.449796  0.248619  1
  Nb  Nb2  1  0.833248  0.833248  0.934947  1
  Nb  Nb3  1  0.881763  0.881763  0.584097  1
  Nb  Nb4  1  0.166752  0.166752  0.065053  1
  Nb  Nb5  1  0.118237  0.118237  0.415903  1
  Fe  Fe6  1  0.762725  0.762725  0.277378  1
  Fe  Fe7  1  0.237275  0.237275  0.722622  1
  O  O8  1  0.624169  0.624169  0.386415  1
  O  O9  1  0.375831  0.375831  0.613585  1
  O  O10  1  0.000000  0.000000  0.500000  1
  O  O11  1  0.700611  0.700611  0.062539  1
  O  O12  1  0.299389  0.299389  0.937461  1
  O  O13  1  0.163697  0.163697  0.576240  1
  O  O14  1  0.836303  0.836303  0.423760  1
  O  O15  1  0.071944  0.071944  0.197039  1
  O  O16  1  0.777527  0.777527  0.739750  1
  O  O17  1  0.222473  0.222473  0.260250  1
  O  O18  1  0.928056  0.928056  0.802961  1
  O  O19  1  0.134798  0.134798  0.891265  1
  O  O20  1  0.865202  0.865202  0.108735  1
