# generated using pymatgen
data_Cd(PdCl5)2
_symmetry_space_group_name_H-M   'P 1'
_cell_length_a   9.67671411
_cell_length_b   9.67671357
_cell_length_c   12.90146051
_cell_angle_alpha   86.92229896
_cell_angle_beta   86.92229645
_cell_angle_gamma   140.22095815
_symmetry_Int_Tables_number   1
_chemical_formula_structural   Cd(PdCl5)2
_chemical_formula_sum   'Cd2 Pd4 Cl20'
_cell_volume   763.27599675
_cell_formula_units_Z   2
loop_
 _symmetry_equiv_pos_site_id
 _symmetry_equiv_pos_as_xyz
  1  'x, y, z'
loop_
 _atom_site_type_symbol
 _atom_site_label
 _atom_site_symmetry_multiplicity
 _atom_site_fract_x
 _atom_site_fract_y
 _atom_site_fract_z
 _atom_site_occupancy
  Cd  Cd0  1  0.051008  0.948992  0.750000  1
  Cd  Cd1  1  0.948992  0.051008  0.250000  1
  Pd  Pd2  1  0.448362  0.551638  0.750000  1
  Pd  Pd3  1  0.551638  0.448362  0.250000  1
  Pd  Pd4  1  0.252607  0.747393  0.750000  1
  Pd  Pd5  1  0.747393  0.252607  0.250000  1
  Cl  Cl6  1  0.756614  0.459121  0.353152  1
  Cl  Cl7  1  0.540879  0.243386  0.146848  1
  Cl  Cl8  1  0.243386  0.540879  0.646848  1
  Cl  Cl9  1  0.459121  0.756614  0.853152  1
  Cl  Cl10  1  0.870587  0.775040  0.141332  1
  Cl  Cl11  1  0.224960  0.129413  0.358668  1
  Cl  Cl12  1  0.129413  0.224960  0.858668  1
  Cl  Cl13  1  0.775040  0.870587  0.641332  1
  Cl  Cl14  1  0.074564  0.573324  0.144616  1
  Cl  Cl15  1  0.426676  0.925436  0.355384  1
  Cl  Cl16  1  0.925436  0.426676  0.855384  1
  Cl  Cl17  1  0.573324  0.074564  0.644616  1
  Cl  Cl18  1  0.579709  0.653765  0.357740  1
  Cl  Cl19  1  0.346235  0.420291  0.142260  1
  Cl  Cl20  1  0.420291  0.346235  0.642260  1
  Cl  Cl21  1  0.653765  0.579709  0.857741  1
  Cl  Cl22  1  0.943252  0.271036  0.358568  1
  Cl  Cl23  1  0.728964  0.056748  0.141432  1
  Cl  Cl24  1  0.056748  0.728964  0.641432  1
  Cl  Cl25  1  0.271036  0.943252  0.858568  1
