# generated using pymatgen
data_Th2Pa(GaIr)3
_symmetry_space_group_name_H-M   'P 1'
_cell_length_a   7.21357858
_cell_length_b   7.21357826
_cell_length_c   4.05157600
_cell_angle_alpha   90.00000000
_cell_angle_beta   90.00000000
_cell_angle_gamma   119.42455405
_symmetry_Int_Tables_number   1
_chemical_formula_structural   Th2Pa(GaIr)3
_chemical_formula_sum   'Th2 Pa1 Ga3 Ir3'
_cell_volume   183.63071806
_cell_formula_units_Z   1
loop_
 _symmetry_equiv_pos_site_id
 _symmetry_equiv_pos_as_xyz
  1  'x, y, z'
loop_
 _atom_site_type_symbol
 _atom_site_label
 _atom_site_symmetry_multiplicity
 _atom_site_fract_x
 _atom_site_fract_y
 _atom_site_fract_z
 _atom_site_occupancy
  Th  Th0  1  0.413092  0.000321  0.000000  1
  Th  Th1  1  0.000321  0.413092  0.000000  1
  Pa  Pa2  1  0.586372  0.586372  0.000000  1
  Ga  Ga3  1  0.999828  0.759670  0.500000  1
  Ga  Ga4  1  0.236738  0.236738  0.500000  1
  Ga  Ga5  1  0.759670  0.999828  0.500000  1
  Ir  Ir6  1  0.988410  0.988410  0.000000  1
  Ir  Ir7  1  0.664115  0.351453  0.500000  1
  Ir  Ir8  1  0.351453  0.664115  0.500000  1
