# generated using pymatgen
data_BaLi2BiAs
_symmetry_space_group_name_H-M   'P 1'
_cell_length_a   4.68692500
_cell_length_b   4.72062509
_cell_length_c   11.65986500
_cell_angle_alpha   89.72069468
_cell_angle_beta   90.00000000
_cell_angle_gamma   90.00000000
_symmetry_Int_Tables_number   1
_chemical_formula_structural   BaLi2BiAs
_chemical_formula_sum   'Ba2 Li4 Bi2 As2'
_cell_volume   257.97396348
_cell_formula_units_Z   2
loop_
 _symmetry_equiv_pos_site_id
 _symmetry_equiv_pos_as_xyz
  1  'x, y, z'
loop_
 _atom_site_type_symbol
 _atom_site_label
 _atom_site_symmetry_multiplicity
 _atom_site_fract_x
 _atom_site_fract_y
 _atom_site_fract_z
 _atom_site_occupancy
  Ba  Ba0  1  0.250000  0.749536  0.784648  1
  Ba  Ba1  1  0.750000  0.250464  0.215352  1
  Li  Li2  1  0.750000  0.751066  0.000079  1
  Li  Li3  1  0.750000  0.248952  0.661519  1
  Li  Li4  1  0.250000  0.751048  0.338481  1
  Li  Li5  1  0.250000  0.248934  0.999921  1
  Bi  Bi6  1  0.750000  0.749941  0.500850  1
  Bi  Bi7  1  0.250000  0.250059  0.499150  1
  As  As8  1  0.250000  0.749609  0.122425  1
  As  As9  1  0.750000  0.250391  0.877575  1
