# generated using pymatgen
data_Dy6GaTcNi
_symmetry_space_group_name_H-M   'P 1'
_cell_length_a   8.35349002
_cell_length_b   8.35349155
_cell_length_c   8.35349032
_cell_angle_alpha   104.35065810
_cell_angle_beta   110.90710023
_cell_angle_gamma   113.28409573
_symmetry_Int_Tables_number   1
_chemical_formula_structural   Dy6GaTcNi
_chemical_formula_sum   'Dy12 Ga2 Tc2 Ni2'
_cell_volume   445.85927516
_cell_formula_units_Z   2
loop_
 _symmetry_equiv_pos_site_id
 _symmetry_equiv_pos_as_xyz
  1  'x, y, z'
loop_
 _atom_site_type_symbol
 _atom_site_label
 _atom_site_symmetry_multiplicity
 _atom_site_fract_x
 _atom_site_fract_y
 _atom_site_fract_z
 _atom_site_occupancy
  Dy  Dy0  1  0.690717  0.257573  0.948290  1
  Dy  Dy1  1  0.309283  0.742427  0.051710  1
  Dy  Dy2  1  0.690717  0.742427  0.433145  1
  Dy  Dy3  1  0.309283  0.257573  0.566855  1
  Dy  Dy4  1  0.814505  0.146901  0.332396  1
  Dy  Dy5  1  0.814505  0.482109  0.667604  1
  Dy  Dy6  1  0.185495  0.853099  0.667604  1
  Dy  Dy7  1  0.185495  0.517891  0.332396  1
  Dy  Dy8  1  0.600911  0.780972  0.819938  1
  Dy  Dy9  1  0.961033  0.780972  0.180062  1
  Dy  Dy10  1  0.038967  0.219028  0.819938  1
  Dy  Dy11  1  0.399089  0.219028  0.180062  1
  Ga  Ga12  1  0.500000  0.500000  0.000000  1
  Ga  Ga13  1  0.500000  0.000000  0.500000  1
  Tc  Tc14  1  0.821179  0.500000  0.321179  1
  Tc  Tc15  1  0.178821  0.500000  0.678821  1
  Ni  Ni16  1  0.000000  0.116559  0.116559  1
  Ni  Ni17  1  0.000000  0.883441  0.883441  1
