# generated using pymatgen
data_Dy4Lu4Tc3OsC8
_symmetry_space_group_name_H-M   'P 1'
_cell_length_a   5.03933700
_cell_length_b   6.52938224
_cell_length_c   9.71385200
_cell_angle_alpha   89.83181666
_cell_angle_beta   90.00000000
_cell_angle_gamma   90.00000000
_symmetry_Int_Tables_number   1
_chemical_formula_structural   Dy4Lu4Tc3OsC8
_chemical_formula_sum   'Dy4 Lu4 Tc3 Os1 C8'
_cell_volume   319.62085391
_cell_formula_units_Z   1
loop_
 _symmetry_equiv_pos_site_id
 _symmetry_equiv_pos_as_xyz
  1  'x, y, z'
loop_
 _atom_site_type_symbol
 _atom_site_label
 _atom_site_symmetry_multiplicity
 _atom_site_fract_x
 _atom_site_fract_y
 _atom_site_fract_z
 _atom_site_occupancy
  Dy  Dy0  1  0.250000  0.531685  0.214178  1
  Dy  Dy1  1  0.750000  0.465827  0.786213  1
  Dy  Dy2  1  0.750000  0.968236  0.711874  1
  Dy  Dy3  1  0.250000  0.031572  0.285858  1
  Lu  Lu4  1  0.250000  0.672190  0.558260  1
  Lu  Lu5  1  0.750000  0.326629  0.441389  1
  Lu  Lu6  1  0.750000  0.827399  0.058885  1
  Lu  Lu7  1  0.250000  0.172036  0.941570  1
  Tc  Tc8  1  0.250000  0.720516  0.866972  1
  Tc  Tc9  1  0.750000  0.279759  0.132276  1
  Tc  Tc10  1  0.750000  0.778781  0.367783  1
  Os  Os11  1  0.250000  0.220665  0.633130  1
  C  C12  1  0.250000  0.452271  0.759545  1
  C  C13  1  0.750000  0.548553  0.240000  1
  C  C14  1  0.750000  0.048488  0.260703  1
  C  C15  1  0.250000  0.953144  0.740232  1
  C  C16  1  0.250000  0.829335  0.051520  1
  C  C17  1  0.750000  0.171386  0.947765  1
  C  C18  1  0.750000  0.671271  0.553034  1
  C  C19  1  0.250000  0.330256  0.448816  1
