# generated using pymatgen
data_Zn3Ga5Ni4(Mo3N)4
_symmetry_space_group_name_H-M   'P 1'
_cell_length_a   7.96109995
_cell_length_b   7.98457814
_cell_length_c   7.95014849
_cell_angle_alpha   59.95690632
_cell_angle_beta   59.98408508
_cell_angle_gamma   60.07973187
_symmetry_Int_Tables_number   1
_chemical_formula_structural   Zn3Ga5Ni4(Mo3N)4
_chemical_formula_sum   'Zn3 Ga5 Ni4 Mo12 N4'
_cell_volume   357.39806950
_cell_formula_units_Z   1
loop_
 _symmetry_equiv_pos_site_id
 _symmetry_equiv_pos_as_xyz
  1  'x, y, z'
loop_
 _atom_site_type_symbol
 _atom_site_label
 _atom_site_symmetry_multiplicity
 _atom_site_fract_x
 _atom_site_fract_y
 _atom_site_fract_z
 _atom_site_occupancy
  Zn  Zn0  1  0.915763  0.919506  0.916300  1
  Zn  Zn1  1  0.333696  0.333367  0.997860  1
  Zn  Zn2  1  0.914817  0.917672  0.250287  1
  Ga  Ga3  1  0.000032  0.330318  0.336778  1
  Ga  Ga4  1  0.140616  0.121377  0.629491  1
  Ga  Ga5  1  0.133764  0.116676  0.112612  1
  Ga  Ga6  1  0.615288  0.130992  0.134066  1
  Ga  Ga7  1  0.140333  0.628257  0.121124  1
  Ni  Ni8  1  0.253660  0.912631  0.915794  1
  Ni  Ni9  1  0.326516  0.003275  0.332300  1
  Ni  Ni10  1  0.912548  0.248999  0.918188  1
  Ni  Ni11  1  0.327599  0.336698  0.333498  1
  Mo  Mo12  1  0.308512  0.693699  0.686126  1
  Mo  Mo13  1  0.562828  0.560430  0.938132  1
  Mo  Mo14  1  0.310956  0.688581  0.312458  1
  Mo  Mo15  1  0.309065  0.311810  0.686306  1
  Mo  Mo16  1  0.685642  0.310992  0.309767  1
  Mo  Mo17  1  0.941284  0.942180  0.558144  1
  Mo  Mo18  1  0.939624  0.554486  0.943033  1
  Mo  Mo19  1  0.939220  0.555666  0.562687  1
  Mo  Mo20  1  0.558060  0.938797  0.940331  1
  Mo  Mo21  1  0.684386  0.694672  0.309576  1
  Mo  Mo22  1  0.690667  0.309176  0.691017  1
  Mo  Mo23  1  0.557982  0.938870  0.562537  1
  N  N24  1  0.624739  0.124498  0.625541  1
  N  N25  1  0.625108  0.625322  0.124673  1
  N  N26  1  0.122799  0.625456  0.626299  1
  N  N27  1  0.624494  0.625599  0.625079  1
