# generated using pymatgen
data_Sc2AlZnRh4
_symmetry_space_group_name_H-M   'P 1'
_cell_length_a   4.43294900
_cell_length_b   6.24610500
_cell_length_c   13.24177200
_cell_angle_alpha   90.00000000
_cell_angle_beta   90.00012970
_cell_angle_gamma   90.00000000
_symmetry_Int_Tables_number   1
_chemical_formula_structural   Sc2AlZnRh4
_chemical_formula_sum   'Sc6 Al3 Zn3 Rh12'
_cell_volume   366.64698777
_cell_formula_units_Z   3
loop_
 _symmetry_equiv_pos_site_id
 _symmetry_equiv_pos_as_xyz
  1  'x, y, z'
loop_
 _atom_site_type_symbol
 _atom_site_label
 _atom_site_symmetry_multiplicity
 _atom_site_fract_x
 _atom_site_fract_y
 _atom_site_fract_z
 _atom_site_occupancy
  Sc  Sc0  1  0.999998  0.500000  0.002903  1
  Sc  Sc1  1  0.499974  0.000000  0.166655  1
  Sc  Sc2  1  0.999979  0.500000  0.330445  1
  Sc  Sc3  1  0.499992  0.000000  0.497208  1
  Sc  Sc4  1  0.000023  0.500000  0.666669  1
  Sc  Sc5  1  0.500026  0.000000  0.836134  1
  Al  Al6  1  0.500001  0.500000  0.499571  1
  Al  Al7  1  0.000014  0.000000  0.666629  1
  Al  Al8  1  0.500027  0.500000  0.833808  1
  Zn  Zn9  1  0.000000  0.000000  0.000082  1
  Zn  Zn10  1  0.499977  0.500000  0.166652  1
  Zn  Zn11  1  0.999980  0.000000  0.333246  1
  Rh  Rh12  1  0.500004  0.253294  0.997673  1
  Rh  Rh13  1  0.500004  0.746706  0.997673  1
  Rh  Rh14  1  0.999979  0.248621  0.166678  1
  Rh  Rh15  1  0.999979  0.751379  0.166678  1
  Rh  Rh16  1  0.499981  0.253287  0.335639  1
  Rh  Rh17  1  0.499981  0.746713  0.335639  1
  Rh  Rh18  1  0.999996  0.252130  0.502177  1
  Rh  Rh19  1  0.999996  0.747870  0.502177  1
  Rh  Rh20  1  0.500025  0.249425  0.666679  1
  Rh  Rh21  1  0.500025  0.750575  0.666679  1
  Rh  Rh22  1  0.000015  0.252146  0.831154  1
  Rh  Rh23  1  0.000015  0.747854  0.831154  1
