# generated using pymatgen
data_Tb15Nd(YSn4)4
_symmetry_space_group_name_H-M   'P 1'
_cell_length_a   8.08014096
_cell_length_b   8.23116768
_cell_length_c   15.55335808
_cell_angle_alpha   89.99333130
_cell_angle_beta   89.84571221
_cell_angle_gamma   90.10820678
_symmetry_Int_Tables_number   1
_chemical_formula_structural   Tb15Nd(YSn4)4
_chemical_formula_sum   'Tb15 Nd1 Y4 Sn16'
_cell_volume   1034.43261307
_cell_formula_units_Z   1
loop_
 _symmetry_equiv_pos_site_id
 _symmetry_equiv_pos_as_xyz
  1  'x, y, z'
loop_
 _atom_site_type_symbol
 _atom_site_label
 _atom_site_symmetry_multiplicity
 _atom_site_fract_x
 _atom_site_fract_y
 _atom_site_fract_z
 _atom_site_occupancy
  Tb  Tb0  1  0.019078  0.179244  0.402021  1
  Tb  Tb1  1  0.367404  0.836921  0.121152  1
  Tb  Tb2  1  0.133381  0.336986  0.621792  1
  Tb  Tb3  1  0.480896  0.679942  0.902387  1
  Tb  Tb4  1  0.867575  0.663121  0.121365  1
  Tb  Tb5  1  0.132462  0.337142  0.878694  1
  Tb  Tb6  1  0.481453  0.680708  0.597846  1
  Tb  Tb7  1  0.633527  0.162560  0.621798  1
  Tb  Tb8  1  0.867038  0.663203  0.377931  1
  Tb  Tb9  1  0.019245  0.179543  0.097383  1
  Tb  Tb10  1  0.980854  0.820085  0.902343  1
  Tb  Tb11  1  0.632573  0.162883  0.878685  1
  Tb  Tb12  1  0.519487  0.320088  0.098194  1
  Tb  Tb13  1  0.366915  0.837168  0.378191  1
  Tb  Tb14  1  0.981209  0.819694  0.597750  1
  Nd  Nd15  1  0.517572  0.319599  0.403090  1
  Y  Y16  1  0.198213  0.502806  0.249419  1
  Y  Y17  1  0.698732  0.997354  0.249562  1
  Y  Y18  1  0.301350  0.002579  0.750147  1
  Y  Y19  1  0.801493  0.497501  0.750143  1
  Sn  Sn20  1  0.794878  0.465134  0.543048  1
  Sn  Sn21  1  0.708640  0.961524  0.458319  1
  Sn  Sn22  1  0.672805  0.853513  0.750197  1
  Sn  Sn23  1  0.204100  0.539199  0.458703  1
  Sn  Sn24  1  0.291898  0.036414  0.957962  1
  Sn  Sn25  1  0.829048  0.353478  0.249245  1
  Sn  Sn26  1  0.791908  0.463861  0.958027  1
  Sn  Sn27  1  0.564994  0.620234  0.249483  1
  Sn  Sn28  1  0.208175  0.535838  0.042193  1
  Sn  Sn29  1  0.435019  0.381614  0.750170  1
  Sn  Sn30  1  0.172888  0.646367  0.750127  1
  Sn  Sn31  1  0.934999  0.118107  0.750167  1
  Sn  Sn32  1  0.292108  0.035916  0.542163  1
  Sn  Sn33  1  0.707967  0.963724  0.042118  1
  Sn  Sn34  1  0.325446  0.145025  0.248416  1
  Sn  Sn35  1  0.064672  0.880924  0.249771  1
