# generated using pymatgen
data_LiAlPdO4
_symmetry_space_group_name_H-M   'P 1'
_cell_length_a   5.90994220
_cell_length_b   5.90994139
_cell_length_c   5.90994230
_cell_angle_alpha   121.92022848
_cell_angle_beta   118.48187207
_cell_angle_gamma   89.67806284
_symmetry_Int_Tables_number   1
_chemical_formula_structural   LiAlPdO4
_chemical_formula_sum   'Li2 Al2 Pd2 O8'
_cell_volume   145.34929116
_cell_formula_units_Z   2
loop_
 _symmetry_equiv_pos_site_id
 _symmetry_equiv_pos_as_xyz
  1  'x, y, z'
loop_
 _atom_site_type_symbol
 _atom_site_label
 _atom_site_symmetry_multiplicity
 _atom_site_fract_x
 _atom_site_fract_y
 _atom_site_fract_z
 _atom_site_occupancy
  Li  Li0  1  0.111463  0.861463  0.250000  1
  Li  Li1  1  0.888537  0.138537  0.750000  1
  Al  Al2  1  0.500000  0.500000  0.500000  1
  Al  Al3  1  0.500000  0.000000  0.000000  1
  Pd  Pd4  1  0.500000  0.500000  0.000000  1
  Pd  Pd5  1  0.000000  0.500000  0.500000  1
  O  O6  1  0.731087  0.245732  0.014644  1
  O  O7  1  0.731087  0.716442  0.485356  1
  O  O8  1  0.720744  0.256984  0.463760  1
  O  O9  1  0.293224  0.256984  0.036240  1
  O  O10  1  0.268913  0.754268  0.985356  1
  O  O11  1  0.268913  0.283558  0.514644  1
  O  O12  1  0.279256  0.743016  0.536240  1
  O  O13  1  0.706776  0.743016  0.963760  1
