# generated using pymatgen
data_HoEr2Lu2Si3
_symmetry_space_group_name_H-M   'P 1'
_cell_length_a   8.32611304
_cell_length_b   8.32759540
_cell_length_c   6.21581100
_cell_angle_alpha   90.00000000
_cell_angle_beta   90.00000000
_cell_angle_gamma   120.00589289
_symmetry_Int_Tables_number   1
_chemical_formula_structural   HoEr2Lu2Si3
_chemical_formula_sum   'Ho2 Er4 Lu4 Si6'
_cell_volume   373.21970087
_cell_formula_units_Z   2
loop_
 _symmetry_equiv_pos_site_id
 _symmetry_equiv_pos_as_xyz
  1  'x, y, z'
loop_
 _atom_site_type_symbol
 _atom_site_label
 _atom_site_symmetry_multiplicity
 _atom_site_fract_x
 _atom_site_fract_y
 _atom_site_fract_z
 _atom_site_occupancy
  Ho  Ho0  1  0.757226  0.000132  0.750000  1
  Ho  Ho1  1  0.757226  0.757093  0.250000  1
  Er  Er2  1  0.000114  0.243039  0.250000  1
  Er  Er3  1  0.000114  0.757076  0.750000  1
  Er  Er4  1  0.242860  0.242789  0.750000  1
  Er  Er5  1  0.242860  0.000071  0.250000  1
  Lu  Lu6  1  0.666619  0.333309  0.000000  1
  Lu  Lu7  1  0.333197  0.666599  0.500000  1
  Lu  Lu8  1  0.333197  0.666599  0.000000  1
  Lu  Lu9  1  0.666619  0.333309  0.500000  1
  Si  Si10  1  0.395088  0.000037  0.750000  1
  Si  Si11  1  0.395088  0.395051  0.250000  1
  Si  Si12  1  0.000207  0.604652  0.250000  1
  Si  Si13  1  0.000207  0.395555  0.750000  1
  Si  Si14  1  0.604689  0.604476  0.750000  1
  Si  Si15  1  0.604689  0.000213  0.250000  1
