# generated using pymatgen
data_Sc5Co16(ReP4)3
_symmetry_space_group_name_H-M   'P 1'
_cell_length_a   11.89137100
_cell_length_b   11.89137043
_cell_length_c   3.65714000
_cell_angle_alpha   90.00000000
_cell_angle_beta   90.00000000
_cell_angle_gamma   119.99999881
_symmetry_Int_Tables_number   1
_chemical_formula_structural   Sc5Co16(ReP4)3
_chemical_formula_sum   'Sc5 Co16 Re3 P12'
_cell_volume   447.85358998
_cell_formula_units_Z   1
loop_
 _symmetry_equiv_pos_site_id
 _symmetry_equiv_pos_as_xyz
  1  'x, y, z'
loop_
 _atom_site_type_symbol
 _atom_site_label
 _atom_site_symmetry_multiplicity
 _atom_site_fract_x
 _atom_site_fract_y
 _atom_site_fract_z
 _atom_site_occupancy
  Sc  Sc0  1  0.820130  0.000000  0.500000  1
  Sc  Sc1  1  0.000000  0.820130  0.500000  1
  Sc  Sc2  1  0.179870  0.179870  0.500000  1
  Sc  Sc3  1  0.333333  0.666667  0.000000  1
  Sc  Sc4  1  0.666667  0.333333  0.000000  1
  Co  Co5  1  0.282861  0.000000  0.500000  1
  Co  Co6  1  0.000000  0.282861  0.500000  1
  Co  Co7  1  0.717139  0.717139  0.500000  1
  Co  Co8  1  0.627267  0.804026  0.000000  1
  Co  Co9  1  0.195974  0.823240  0.000000  1
  Co  Co10  1  0.176760  0.372733  0.000000  1
  Co  Co11  1  0.372733  0.176760  0.000000  1
  Co  Co12  1  0.804026  0.627267  0.000000  1
  Co  Co13  1  0.823240  0.195974  0.000000  1
  Co  Co14  1  0.517867  0.871458  0.500000  1
  Co  Co15  1  0.128542  0.646409  0.500000  1
  Co  Co16  1  0.353591  0.482133  0.500000  1
  Co  Co17  1  0.482133  0.353591  0.500000  1
  Co  Co18  1  0.871458  0.517867  0.500000  1
  Co  Co19  1  0.646409  0.128542  0.500000  1
  Co  Co20  1  0.000000  0.000000  0.000000  1
  Re  Re21  1  0.449331  0.000000  0.000000  1
  Re  Re22  1  0.000000  0.449331  0.000000  1
  Re  Re23  1  0.550669  0.550669  0.000000  1
  P  P24  1  0.175175  0.000000  0.000000  1
  P  P25  1  0.000000  0.175175  0.000000  1
  P  P26  1  0.824825  0.824825  0.000000  1
  P  P27  1  0.517004  0.683705  0.500000  1
  P  P28  1  0.316295  0.833300  0.500000  1
  P  P29  1  0.166700  0.482996  0.500000  1
  P  P30  1  0.482996  0.166700  0.500000  1
  P  P31  1  0.683705  0.517004  0.500000  1
  P  P32  1  0.833300  0.316295  0.500000  1
  P  P33  1  0.644540  0.000000  0.000000  1
  P  P34  1  0.000000  0.644540  0.000000  1
  P  P35  1  0.355460  0.355460  0.000000  1
