# generated using pymatgen
data_Tm8Sc11Si16Tc
_symmetry_space_group_name_H-M   'P 1'
_cell_length_a   6.98660909
_cell_length_b   7.31807156
_cell_length_c   13.82905000
_cell_angle_alpha   90.00000000
_cell_angle_beta   90.00000000
_cell_angle_gamma   90.19470981
_symmetry_Int_Tables_number   1
_chemical_formula_structural   Tm8Sc11Si16Tc
_chemical_formula_sum   'Tm8 Sc11 Si16 Tc1'
_cell_volume   707.05457317
_cell_formula_units_Z   1
loop_
 _symmetry_equiv_pos_site_id
 _symmetry_equiv_pos_as_xyz
  1  'x, y, z'
loop_
 _atom_site_type_symbol
 _atom_site_label
 _atom_site_symmetry_multiplicity
 _atom_site_fract_x
 _atom_site_fract_y
 _atom_site_fract_z
 _atom_site_occupancy
  Tm  Tm0  1  0.011793  0.178633  0.093153  1
  Tm  Tm1  1  0.992981  0.817332  0.900905  1
  Tm  Tm2  1  0.487875  0.673223  0.902711  1
  Tm  Tm3  1  0.992981  0.817332  0.599095  1
  Tm  Tm4  1  0.511166  0.322513  0.094989  1
  Tm  Tm5  1  0.011793  0.178633  0.406847  1
  Tm  Tm6  1  0.511166  0.322513  0.405011  1
  Tm  Tm7  1  0.487875  0.673223  0.597289  1
  Sc  Sc8  1  0.841279  0.496008  0.250000  1
  Sc  Sc9  1  0.341759  0.004362  0.250000  1
  Sc  Sc10  1  0.657112  0.994280  0.750000  1
  Sc  Sc11  1  0.326328  0.178397  0.627637  1
  Sc  Sc12  1  0.671966  0.824255  0.374463  1
  Sc  Sc13  1  0.172045  0.674325  0.376660  1
  Sc  Sc14  1  0.671966  0.824255  0.125537  1
  Sc  Sc15  1  0.827790  0.330845  0.628596  1
  Sc  Sc16  1  0.326328  0.178397  0.872363  1
  Sc  Sc17  1  0.827790  0.330845  0.871404  1
  Sc  Sc18  1  0.172045  0.674325  0.123340  1
  Si  Si19  1  0.028819  0.115787  0.750000  1
  Si  Si20  1  0.973013  0.888028  0.250000  1
  Si  Si21  1  0.469315  0.613792  0.250000  1
  Si  Si22  1  0.518335  0.397312  0.750000  1
  Si  Si23  1  0.284586  0.858991  0.750000  1
  Si  Si24  1  0.717166  0.131880  0.250000  1
  Si  Si25  1  0.214670  0.368784  0.250000  1
  Si  Si26  1  0.794422  0.631370  0.750000  1
  Si  Si27  1  0.157135  0.466766  0.547381  1
  Si  Si28  1  0.841378  0.535250  0.463421  1
  Si  Si29  1  0.344254  0.965317  0.463207  1
  Si  Si30  1  0.841378  0.535250  0.036579  1
  Si  Si31  1  0.659327  0.034262  0.539749  1
  Si  Si32  1  0.157135  0.466766  0.952619  1
  Si  Si33  1  0.659327  0.034262  0.960251  1
  Si  Si34  1  0.344254  0.965317  0.036793  1
  Tc  Tc35  1  0.151445  0.497167  0.750000  1
