# generated using pymatgen
data_CaSiSnRh3
_symmetry_space_group_name_H-M   'P 1'
_cell_length_a   5.82034211
_cell_length_b   6.93248240
_cell_length_c   6.93248194
_cell_angle_alpha   65.57048408
_cell_angle_beta   65.36326543
_cell_angle_gamma   65.36327612
_symmetry_Int_Tables_number   1
_chemical_formula_structural   CaSiSnRh3
_chemical_formula_sum   'Ca2 Si2 Sn2 Rh6'
_cell_volume   221.16485738
_cell_formula_units_Z   2
loop_
 _symmetry_equiv_pos_site_id
 _symmetry_equiv_pos_as_xyz
  1  'x, y, z'
loop_
 _atom_site_type_symbol
 _atom_site_label
 _atom_site_symmetry_multiplicity
 _atom_site_fract_x
 _atom_site_fract_y
 _atom_site_fract_z
 _atom_site_occupancy
  Ca  Ca0  1  0.482421  0.768952  0.768952  1
  Ca  Ca1  1  0.517579  0.231048  0.231048  1
  Si  Si2  1  0.146256  0.104618  0.104618  1
  Si  Si3  1  0.853744  0.895382  0.895382  1
  Sn  Sn4  1  0.187639  0.564321  0.564321  1
  Sn  Sn5  1  0.812361  0.435679  0.435679  1
  Rh  Rh6  1  0.500000  0.205743  0.794257  1
  Rh  Rh7  1  0.000000  0.793654  0.206346  1
  Rh  Rh8  1  0.500000  0.794257  0.205743  1
  Rh  Rh9  1  0.000000  0.206346  0.793654  1
  Rh  Rh10  1  0.000000  0.500000  0.000000  1
  Rh  Rh11  1  0.000000  0.000000  0.500000  1
