# generated using pymatgen
data_LuSc3(AlRh)4
_symmetry_space_group_name_H-M   'P 1'
_cell_length_a   4.18690600
_cell_length_b   6.52448682
_cell_length_c   7.71214939
_cell_angle_alpha   89.85028776
_cell_angle_beta   90.00000000
_cell_angle_gamma   90.00000000
_symmetry_Int_Tables_number   1
_chemical_formula_structural   LuSc3(AlRh)4
_chemical_formula_sum   'Lu1 Sc3 Al4 Rh4'
_cell_volume   210.67525082
_cell_formula_units_Z   1
loop_
 _symmetry_equiv_pos_site_id
 _symmetry_equiv_pos_as_xyz
  1  'x, y, z'
loop_
 _atom_site_type_symbol
 _atom_site_label
 _atom_site_symmetry_multiplicity
 _atom_site_fract_x
 _atom_site_fract_y
 _atom_site_fract_z
 _atom_site_occupancy
  Lu  Lu0  1  0.750000  0.031891  0.679992  1
  Sc  Sc1  1  0.250000  0.965154  0.318850  1
  Sc  Sc2  1  0.750000  0.534458  0.822786  1
  Sc  Sc3  1  0.250000  0.467571  0.179476  1
  Al  Al4  1  0.750000  0.640049  0.438587  1
  Al  Al5  1  0.750000  0.143506  0.062104  1
  Al  Al6  1  0.250000  0.359366  0.556945  1
  Al  Al7  1  0.250000  0.855905  0.942568  1
  Rh  Rh8  1  0.750000  0.757536  0.119396  1
  Rh  Rh9  1  0.750000  0.258445  0.376517  1
  Rh  Rh10  1  0.250000  0.247584  0.882753  1
  Rh  Rh11  1  0.250000  0.738535  0.620025  1
