# generated using pymatgen
data_Dy3Ho(MnAl3)2
_symmetry_space_group_name_H-M   'P 1'
_cell_length_a   9.39840456
_cell_length_b   9.39840429
_cell_length_c   9.39840424
_cell_angle_alpha   34.42579347
_cell_angle_beta   34.42579539
_cell_angle_gamma   34.42578978
_symmetry_Int_Tables_number   1
_chemical_formula_structural   Dy3Ho(MnAl3)2
_chemical_formula_sum   'Dy3 Ho1 Mn2 Al6'
_cell_volume   236.67361258
_cell_formula_units_Z   1
loop_
 _symmetry_equiv_pos_site_id
 _symmetry_equiv_pos_as_xyz
  1  'x, y, z'
loop_
 _atom_site_type_symbol
 _atom_site_label
 _atom_site_symmetry_multiplicity
 _atom_site_fract_x
 _atom_site_fract_y
 _atom_site_fract_z
 _atom_site_occupancy
  Dy  Dy0  1  0.313289  0.313289  0.313289  1
  Dy  Dy1  1  0.686733  0.686733  0.686733  1
  Dy  Dy2  1  0.186681  0.186681  0.186681  1
  Ho  Ho3  1  0.813311  0.813311  0.813311  1
  Mn  Mn4  1  0.500009  0.500009  0.500009  1
  Mn  Mn5  1  0.000003  0.000003  0.000003  1
  Al  Al6  1  0.249968  0.249968  0.750005  1
  Al  Al7  1  0.750045  0.750045  0.249943  1
  Al  Al8  1  0.249968  0.750005  0.249968  1
  Al  Al9  1  0.750045  0.249943  0.750045  1
  Al  Al10  1  0.750005  0.249968  0.249968  1
  Al  Al11  1  0.249943  0.750045  0.750045  1
