# generated using pymatgen
data_PaFe2P3Rh2W
_symmetry_space_group_name_H-M   'P 1'
_cell_length_a   3.82579000
_cell_length_b   10.61735900
_cell_length_c   12.30146400
_cell_angle_alpha   90.00000000
_cell_angle_beta   90.00000000
_cell_angle_gamma   90.00000000
_symmetry_Int_Tables_number   1
_chemical_formula_structural   PaFe2P3Rh2W
_chemical_formula_sum   'Pa4 Fe8 P12 Rh8 W4'
_cell_volume   499.68283380
_cell_formula_units_Z   4
loop_
 _symmetry_equiv_pos_site_id
 _symmetry_equiv_pos_as_xyz
  1  'x, y, z'
loop_
 _atom_site_type_symbol
 _atom_site_label
 _atom_site_symmetry_multiplicity
 _atom_site_fract_x
 _atom_site_fract_y
 _atom_site_fract_z
 _atom_site_occupancy
  Pa  Pa0  1  0.250000  0.577009  0.710367  1
  Pa  Pa1  1  0.250000  0.922991  0.210367  1
  Pa  Pa2  1  0.750000  0.422991  0.289633  1
  Pa  Pa3  1  0.750000  0.077009  0.789633  1
  Fe  Fe4  1  0.250000  0.884826  0.698164  1
  Fe  Fe5  1  0.250000  0.615174  0.198164  1
  Fe  Fe6  1  0.750000  0.115174  0.301836  1
  Fe  Fe7  1  0.750000  0.384826  0.801836  1
  Fe  Fe8  1  0.250000  0.465004  0.934289  1
  Fe  Fe9  1  0.250000  0.034996  0.434289  1
  Fe  Fe10  1  0.750000  0.534996  0.065711  1
  Fe  Fe11  1  0.750000  0.965004  0.565711  1
  P  P12  1  0.250000  0.433288  0.109222  1
  P  P13  1  0.250000  0.066712  0.609222  1
  P  P14  1  0.750000  0.566712  0.890778  1
  P  P15  1  0.750000  0.933288  0.390778  1
  P  P16  1  0.250000  0.277103  0.866459  1
  P  P17  1  0.250000  0.222897  0.366459  1
  P  P18  1  0.750000  0.722897  0.133541  1
  P  P19  1  0.750000  0.777103  0.633541  1
  P  P20  1  0.250000  0.605001  0.384306  1
  P  P21  1  0.250000  0.894999  0.884306  1
  P  P22  1  0.750000  0.394999  0.615694  1
  P  P23  1  0.750000  0.105001  0.115694  1
  Rh  Rh24  1  0.250000  0.404810  0.478881  1
  Rh  Rh25  1  0.250000  0.095190  0.978881  1
  Rh  Rh26  1  0.750000  0.595190  0.521119  1
  Rh  Rh27  1  0.750000  0.904810  0.021119  1
  Rh  Rh28  1  0.250000  0.230598  0.177581  1
  Rh  Rh29  1  0.250000  0.269402  0.677581  1
  Rh  Rh30  1  0.750000  0.769402  0.822419  1
  Rh  Rh31  1  0.750000  0.730598  0.322419  1
  W  W32  1  0.250000  0.705289  0.988655  1
  W  W33  1  0.250000  0.794711  0.488655  1
  W  W34  1  0.750000  0.294711  0.011345  1
  W  W35  1  0.750000  0.205289  0.511345  1
