# generated using pymatgen
data_Ho2ErSnPd3Pb2
_symmetry_space_group_name_H-M   'P 1'
_cell_length_a   7.79624808
_cell_length_b   7.76393810
_cell_length_c   3.86179900
_cell_angle_alpha   90.00000000
_cell_angle_beta   90.00000000
_cell_angle_gamma   119.86298782
_symmetry_Int_Tables_number   1
_chemical_formula_structural   Ho2ErSnPd3Pb2
_chemical_formula_sum   'Ho2 Er1 Sn1 Pd3 Pb2'
_cell_volume   202.71503262
_cell_formula_units_Z   1
loop_
 _symmetry_equiv_pos_site_id
 _symmetry_equiv_pos_as_xyz
  1  'x, y, z'
loop_
 _atom_site_type_symbol
 _atom_site_label
 _atom_site_symmetry_multiplicity
 _atom_site_fract_x
 _atom_site_fract_y
 _atom_site_fract_z
 _atom_site_occupancy
  Ho  Ho0  1  0.397708  0.401479  0.500000  1
  Ho  Ho1  1  0.602292  0.003771  0.500000  1
  Er  Er2  1  0.000000  0.595748  0.500000  1
  Sn  Sn3  1  0.000000  0.265151  0.000000  1
  Pd  Pd4  1  0.673967  0.331578  0.000000  1
  Pd  Pd5  1  0.326033  0.657613  0.000000  1
  Pd  Pd6  1  0.000000  0.010183  0.500000  1
  Pb  Pb7  1  0.734663  0.734570  0.000000  1
  Pb  Pb8  1  0.265337  0.999907  0.000000  1
