# generated using pymatgen
data_Y10InBi5
_symmetry_space_group_name_H-M   'P 1'
_cell_length_a   9.15445907
_cell_length_b   9.15637995
_cell_length_c   6.49025000
_cell_angle_alpha   90.00000000
_cell_angle_beta   90.00000000
_cell_angle_gamma   120.00693695
_symmetry_Int_Tables_number   1
_chemical_formula_structural   Y10InBi5
_chemical_formula_sum   'Y10 In1 Bi5'
_cell_volume   471.10551472
_cell_formula_units_Z   1
loop_
 _symmetry_equiv_pos_site_id
 _symmetry_equiv_pos_as_xyz
  1  'x, y, z'
loop_
 _atom_site_type_symbol
 _atom_site_label
 _atom_site_symmetry_multiplicity
 _atom_site_fract_x
 _atom_site_fract_y
 _atom_site_fract_z
 _atom_site_occupancy
  Y  Y0  1  0.671204  0.334278  0.000582  1
  Y  Y1  1  0.328796  0.663075  0.000582  1
  Y  Y2  1  0.328796  0.663075  0.499418  1
  Y  Y3  1  0.671204  0.334278  0.499418  1
  Y  Y4  1  0.758591  0.756987  0.750000  1
  Y  Y5  1  0.241409  0.998396  0.750000  1
  Y  Y6  1  0.000000  0.240668  0.750000  1
  Y  Y7  1  0.235921  0.243563  0.250000  1
  Y  Y8  1  0.764079  0.007642  0.250000  1
  Y  Y9  1  0.000000  0.755173  0.250000  1
  In  In10  1  0.000000  0.393962  0.250000  1
  Bi  Bi11  1  0.391045  0.388855  0.750000  1
  Bi  Bi12  1  0.608955  0.997810  0.750000  1
  Bi  Bi13  1  0.000000  0.608817  0.750000  1
  Bi  Bi14  1  0.610639  0.612029  0.250000  1
  Bi  Bi15  1  0.389361  0.001390  0.250000  1
