# generated using pymatgen
data_Tb4YIn4CoNi
_symmetry_space_group_name_H-M   'P 1'
_cell_length_a   3.56790100
_cell_length_b   8.06157600
_cell_length_c   18.03011200
_cell_angle_alpha   90.00170226
_cell_angle_beta   90.00000000
_cell_angle_gamma   90.00000000
_symmetry_Int_Tables_number   1
_chemical_formula_structural   Tb4YIn4CoNi
_chemical_formula_sum   'Tb8 Y2 In8 Co2 Ni2'
_cell_volume   518.59839978
_cell_formula_units_Z   2
loop_
 _symmetry_equiv_pos_site_id
 _symmetry_equiv_pos_as_xyz
  1  'x, y, z'
loop_
 _atom_site_type_symbol
 _atom_site_label
 _atom_site_symmetry_multiplicity
 _atom_site_fract_x
 _atom_site_fract_y
 _atom_site_fract_z
 _atom_site_occupancy
  Tb  Tb0  1  0.000000  0.739948  0.277583  1
  Tb  Tb1  1  0.000000  0.260052  0.722417  1
  Tb  Tb2  1  0.000000  0.745098  0.778580  1
  Tb  Tb3  1  0.000000  0.254902  0.221420  1
  Tb  Tb4  1  0.000000  0.615814  0.090084  1
  Tb  Tb5  1  0.000000  0.384186  0.909916  1
  Tb  Tb6  1  0.000000  0.882480  0.588774  1
  Tb  Tb7  1  0.000000  0.117520  0.411226  1
  Y  Y8  1  0.000000  0.500000  0.500000  1
  Y  Y9  1  0.000000  0.000000  0.000000  1
  In  In10  1  0.500000  0.705026  0.930105  1
  In  In11  1  0.500000  0.294974  0.069895  1
  In  In12  1  0.500000  0.794521  0.431039  1
  In  In13  1  0.500000  0.205479  0.568961  1
  In  In14  1  0.500000  0.569092  0.651809  1
  In  In15  1  0.500000  0.430908  0.348191  1
  In  In16  1  0.500000  0.929397  0.152053  1
  In  In17  1  0.500000  0.070603  0.847947  1
  Co  Co18  1  0.500000  0.519480  0.195355  1
  Co  Co19  1  0.500000  0.480520  0.804645  1
  Ni  Ni20  1  0.500000  0.979512  0.696116  1
  Ni  Ni21  1  0.500000  0.020488  0.303884  1
