# generated using pymatgen
data_Hf18Cr2GaRe6As
_symmetry_space_group_name_H-M   'P 1'
_cell_length_a   8.59446600
_cell_length_b   8.59446545
_cell_length_c   8.55783000
_cell_angle_alpha   90.00000000
_cell_angle_beta   90.00000000
_cell_angle_gamma   120.00291198
_symmetry_Int_Tables_number   1
_chemical_formula_structural   Hf18Cr2GaRe6As
_chemical_formula_sum   'Hf18 Cr2 Ga1 Re6 As1'
_cell_volume   547.41829832
_cell_formula_units_Z   1
loop_
 _symmetry_equiv_pos_site_id
 _symmetry_equiv_pos_as_xyz
  1  'x, y, z'
loop_
 _atom_site_type_symbol
 _atom_site_label
 _atom_site_symmetry_multiplicity
 _atom_site_fract_x
 _atom_site_fract_y
 _atom_site_fract_z
 _atom_site_occupancy
  Hf  Hf0  1  0.807529  0.615041  0.548521  1
  Hf  Hf1  1  0.807525  0.192475  0.548543  1
  Hf  Hf2  1  0.384959  0.192471  0.548521  1
  Hf  Hf3  1  0.191938  0.383907  0.452575  1
  Hf  Hf4  1  0.191932  0.808068  0.452553  1
  Hf  Hf5  1  0.616093  0.808062  0.452575  1
  Hf  Hf6  1  0.191938  0.383907  0.047425  1
  Hf  Hf7  1  0.191932  0.808068  0.047447  1
  Hf  Hf8  1  0.616093  0.808062  0.047425  1
  Hf  Hf9  1  0.807529  0.615041  0.951479  1
  Hf  Hf10  1  0.807525  0.192475  0.951457  1
  Hf  Hf11  1  0.384959  0.192471  0.951479  1
  Hf  Hf12  1  0.459773  0.919503  0.750000  1
  Hf  Hf13  1  0.459774  0.540226  0.750000  1
  Hf  Hf14  1  0.080497  0.540227  0.750000  1
  Hf  Hf15  1  0.541819  0.083704  0.250000  1
  Hf  Hf16  1  0.541812  0.458188  0.250000  1
  Hf  Hf17  1  0.916296  0.458181  0.250000  1
  Cr  Cr18  1  0.000030  0.999970  0.500351  1
  Cr  Cr19  1  0.000030  0.999970  0.999649  1
  Ga  Ga20  1  0.666738  0.333262  0.750000  1
  Re  Re21  1  0.107482  0.214924  0.750000  1
  Re  Re22  1  0.107509  0.892491  0.750000  1
  Re  Re23  1  0.785076  0.892518  0.750000  1
  Re  Re24  1  0.892562  0.785212  0.250000  1
  Re  Re25  1  0.892535  0.107465  0.250000  1
  Re  Re26  1  0.214788  0.107438  0.250000  1
  As  As27  1  0.333328  0.666672  0.250000  1
