# generated using pymatgen
data_Tb3CeZn2Ir3
_symmetry_space_group_name_H-M   'P 1'
_cell_length_a   7.48406596
_cell_length_b   7.41668536
_cell_length_c   3.92576800
_cell_angle_alpha   90.00000000
_cell_angle_beta   90.00000000
_cell_angle_gamma   119.70261558
_symmetry_Int_Tables_number   1
_chemical_formula_structural   Tb3CeZn2Ir3
_chemical_formula_sum   'Tb3 Ce1 Zn2 Ir3'
_cell_volume   189.27635540
_cell_formula_units_Z   1
loop_
 _symmetry_equiv_pos_site_id
 _symmetry_equiv_pos_as_xyz
  1  'x, y, z'
loop_
 _atom_site_type_symbol
 _atom_site_label
 _atom_site_symmetry_multiplicity
 _atom_site_fract_x
 _atom_site_fract_y
 _atom_site_fract_z
 _atom_site_occupancy
  Tb  Tb0  1  0.447704  0.415934  0.000000  1
  Tb  Tb1  1  0.552296  0.968228  0.000000  1
  Tb  Tb2  1  0.000000  0.627638  0.000000  1
  Ce  Ce3  1  0.000000  0.249832  0.500000  1
  Zn  Zn4  1  0.741373  0.748705  0.500000  1
  Zn  Zn5  1  0.258627  0.007332  0.500000  1
  Ir  Ir6  1  0.000000  0.998957  0.000000  1
  Ir  Ir7  1  0.322858  0.653116  0.500000  1
  Ir  Ir8  1  0.677142  0.330257  0.500000  1
