# generated using pymatgen
data_Th2InNiRh4
_symmetry_space_group_name_H-M   'P 1'
_cell_length_a   5.75709900
_cell_length_b   5.75709870
_cell_length_c   8.50335400
_cell_angle_alpha   90.00000000
_cell_angle_beta   90.00000000
_cell_angle_gamma   97.21683487
_symmetry_Int_Tables_number   1
_chemical_formula_structural   Th2InNiRh4
_chemical_formula_sum   'Th4 In2 Ni2 Rh8'
_cell_volume   279.60399856
_cell_formula_units_Z   2
loop_
 _symmetry_equiv_pos_site_id
 _symmetry_equiv_pos_as_xyz
  1  'x, y, z'
loop_
 _atom_site_type_symbol
 _atom_site_label
 _atom_site_symmetry_multiplicity
 _atom_site_fract_x
 _atom_site_fract_y
 _atom_site_fract_z
 _atom_site_occupancy
  Th  Th0  1  0.781450  0.218550  0.500000  1
  Th  Th1  1  0.218550  0.781450  0.000000  1
  Th  Th2  1  0.218550  0.781450  0.500000  1
  Th  Th3  1  0.781450  0.218550  0.000000  1
  In  In4  1  0.500888  0.500888  0.750000  1
  In  In5  1  0.499112  0.499112  0.250000  1
  Ni  Ni6  1  0.000279  0.000279  0.250000  1
  Ni  Ni7  1  0.999721  0.999721  0.750000  1
  Rh  Rh8  1  0.732251  0.732251  0.000423  1
  Rh  Rh9  1  0.732251  0.732251  0.499577  1
  Rh  Rh10  1  0.267749  0.267749  0.999577  1
  Rh  Rh11  1  0.267749  0.267749  0.500423  1
  Rh  Rh12  1  0.499957  0.000366  0.750000  1
  Rh  Rh13  1  0.500043  0.999634  0.250000  1
  Rh  Rh14  1  0.000366  0.499957  0.750000  1
  Rh  Rh15  1  0.999634  0.500043  0.250000  1
