# generated using pymatgen
data_Li2PrNdSi2Sn
_symmetry_space_group_name_H-M   'P 1'
_cell_length_a   9.82137642
_cell_length_b   9.82137490
_cell_length_c   6.90941800
_cell_angle_alpha   90.00000000
_cell_angle_beta   90.00000000
_cell_angle_gamma   153.21462094
_symmetry_Int_Tables_number   1
_chemical_formula_structural   Li2PrNdSi2Sn
_chemical_formula_sum   'Li4 Pr2 Nd2 Si4 Sn2'
_cell_volume   300.34834947
_cell_formula_units_Z   2
loop_
 _symmetry_equiv_pos_site_id
 _symmetry_equiv_pos_as_xyz
  1  'x, y, z'
loop_
 _atom_site_type_symbol
 _atom_site_label
 _atom_site_symmetry_multiplicity
 _atom_site_fract_x
 _atom_site_fract_y
 _atom_site_fract_z
 _atom_site_occupancy
  Li  Li0  1  0.815725  0.184275  0.554967  1
  Li  Li1  1  0.184275  0.815725  0.445033  1
  Li  Li2  1  0.184275  0.815725  0.054967  1
  Li  Li3  1  0.815725  0.184275  0.945033  1
  Pr  Pr4  1  0.549067  0.450933  0.250000  1
  Pr  Pr5  1  0.450933  0.549067  0.750000  1
  Nd  Nd6  1  0.350387  0.649613  0.250000  1
  Nd  Nd7  1  0.649613  0.350387  0.750000  1
  Si  Si8  1  0.943214  0.056786  0.075466  1
  Si  Si9  1  0.056786  0.943214  0.924534  1
  Si  Si10  1  0.056786  0.943214  0.575466  1
  Si  Si11  1  0.943214  0.056786  0.424534  1
  Sn  Sn12  1  0.720124  0.279876  0.250000  1
  Sn  Sn13  1  0.279876  0.720124  0.750000  1
