# generated using pymatgen
data_Dy20IrRh11
_symmetry_space_group_name_H-M   'P 1'
_cell_length_a   10.90445657
_cell_length_b   10.90445657
_cell_length_c   6.35988901
_cell_angle_alpha   89.99518890
_cell_angle_beta   89.99518890
_cell_angle_gamma   90.03662269
_symmetry_Int_Tables_number   1
_chemical_formula_structural   Dy20IrRh11
_chemical_formula_sum   'Dy20 Ir1 Rh11'
_cell_volume   756.23626317
_cell_formula_units_Z   1
loop_
 _symmetry_equiv_pos_site_id
 _symmetry_equiv_pos_as_xyz
  1  'x, y, z'
loop_
 _atom_site_type_symbol
 _atom_site_label
 _atom_site_symmetry_multiplicity
 _atom_site_fract_x
 _atom_site_fract_y
 _atom_site_fract_z
 _atom_site_occupancy
  Dy  Dy0  1  0.290835  0.088995  0.378607  1
  Dy  Dy1  1  0.291121  0.909859  0.878313  1
  Dy  Dy2  1  0.709104  0.088876  0.878517  1
  Dy  Dy3  1  0.709076  0.911033  0.378512  1
  Dy  Dy4  1  0.587808  0.790422  0.878271  1
  Dy  Dy5  1  0.588945  0.209019  0.378825  1
  Dy  Dy6  1  0.410714  0.790240  0.379479  1
  Dy  Dy7  1  0.411068  0.208972  0.878509  1
  Dy  Dy8  1  0.209578  0.412192  0.621729  1
  Dy  Dy9  1  0.209760  0.589286  0.120521  1
  Dy  Dy10  1  0.790981  0.411055  0.121175  1
  Dy  Dy11  1  0.791028  0.588932  0.621491  1
  Dy  Dy12  1  0.911005  0.709165  0.121393  1
  Dy  Dy13  1  0.911124  0.290896  0.621483  1
  Dy  Dy14  1  0.090141  0.708879  0.621687  1
  Dy  Dy15  1  0.088967  0.290924  0.121488  1
  Dy  Dy16  1  0.999899  0.999965  0.499983  1
  Dy  Dy17  1  0.000035  0.000101  0.000017  1
  Dy  Dy18  1  0.499711  0.500151  0.999973  1
  Dy  Dy19  1  0.499849  0.500289  0.500027  1
  Ir  Ir20  1  0.346034  0.653966  0.750000  1
  Rh  Rh21  1  0.846171  0.153829  0.250000  1
  Rh  Rh22  1  0.846141  0.846292  0.750103  1
  Rh  Rh23  1  0.153708  0.153859  0.749897  1
  Rh  Rh24  1  0.153337  0.846663  0.250000  1
  Rh  Rh25  1  0.653912  0.346088  0.750000  1
  Rh  Rh26  1  0.654369  0.653945  0.250074  1
  Rh  Rh27  1  0.346055  0.345631  0.249926  1
  Rh  Rh28  1  0.500206  0.000382  0.124338  1
  Rh  Rh29  1  0.500243  0.000540  0.623980  1
  Rh  Rh30  1  0.999460  0.499757  0.876020  1
  Rh  Rh31  1  0.999618  0.499794  0.375662  1
