# generated using pymatgen
data_Hf6GaNiTe
_symmetry_space_group_name_H-M   'P 1'
_cell_length_a   3.50568100
_cell_length_b   7.71396145
_cell_length_c   7.71396200
_cell_angle_alpha   119.99999377
_cell_angle_beta   90.00000000
_cell_angle_gamma   90.00000000
_symmetry_Int_Tables_number   1
_chemical_formula_structural   Hf6GaNiTe
_chemical_formula_sum   'Hf6 Ga1 Ni1 Te1'
_cell_volume   180.65833911
_cell_formula_units_Z   1
loop_
 _symmetry_equiv_pos_site_id
 _symmetry_equiv_pos_as_xyz
  1  'x, y, z'
loop_
 _atom_site_type_symbol
 _atom_site_label
 _atom_site_symmetry_multiplicity
 _atom_site_fract_x
 _atom_site_fract_y
 _atom_site_fract_z
 _atom_site_occupancy
  Hf  Hf0  1  0.500000  0.749723  0.758128  1
  Hf  Hf1  1  0.500000  0.008405  0.250277  1
  Hf  Hf2  1  0.500000  0.241872  0.991595  1
  Hf  Hf3  1  0.000000  0.397481  0.405679  1
  Hf  Hf4  1  0.000000  0.008198  0.602519  1
  Hf  Hf5  1  0.000000  0.594321  0.991802  1
  Ga  Ga6  1  0.500000  0.333333  0.666667  1
  Ni  Ni7  1  0.000000  0.000000  0.000000  1
  Te  Te8  1  0.500000  0.666667  0.333333  1
