# generated using pymatgen
data_Y4Al3ZnPd4
_symmetry_space_group_name_H-M   'P 1'
_cell_length_a   4.44177900
_cell_length_b   6.89060211
_cell_length_c   7.82818609
_cell_angle_alpha   90.01899718
_cell_angle_beta   90.00000000
_cell_angle_gamma   90.00000000
_symmetry_Int_Tables_number   1
_chemical_formula_structural   Y4Al3ZnPd4
_chemical_formula_sum   'Y4 Al3 Zn1 Pd4'
_cell_volume   239.59361299
_cell_formula_units_Z   1
loop_
 _symmetry_equiv_pos_site_id
 _symmetry_equiv_pos_as_xyz
  1  'x, y, z'
loop_
 _atom_site_type_symbol
 _atom_site_label
 _atom_site_symmetry_multiplicity
 _atom_site_fract_x
 _atom_site_fract_y
 _atom_site_fract_z
 _atom_site_occupancy
  Y  Y0  1  0.250000  0.031848  0.317298  1
  Y  Y1  1  0.250000  0.535817  0.179098  1
  Y  Y2  1  0.750000  0.969297  0.686254  1
  Y  Y3  1  0.750000  0.468813  0.818433  1
  Al  Al4  1  0.250000  0.642225  0.560328  1
  Al  Al5  1  0.250000  0.144992  0.937330  1
  Al  Al6  1  0.750000  0.353125  0.437207  1
  Zn  Zn7  1  0.750000  0.851176  0.064880  1
  Pd  Pd8  1  0.250000  0.271412  0.618236  1
  Pd  Pd9  1  0.250000  0.771570  0.873763  1
  Pd  Pd10  1  0.750000  0.725929  0.389130  1
  Pd  Pd11  1  0.750000  0.233795  0.118043  1
