# generated using pymatgen
data_Ce5TmAl24(IrRu)4
_symmetry_space_group_name_H-M   'P 1'
_cell_length_a   8.89815173
_cell_length_b   8.87140878
_cell_length_c   9.53647500
_cell_angle_alpha   90.00000000
_cell_angle_beta   90.00000000
_cell_angle_gamma   119.93510840
_symmetry_Int_Tables_number   1
_chemical_formula_structural   Ce5TmAl24(IrRu)4
_chemical_formula_sum   'Ce5 Tm1 Al24 Ir4 Ru4'
_cell_volume   652.37080078
_cell_formula_units_Z   1
loop_
 _symmetry_equiv_pos_site_id
 _symmetry_equiv_pos_as_xyz
  1  'x, y, z'
loop_
 _atom_site_type_symbol
 _atom_site_label
 _atom_site_symmetry_multiplicity
 _atom_site_fract_x
 _atom_site_fract_y
 _atom_site_fract_z
 _atom_site_occupancy
  Ce  Ce0  1  0.190482  0.805039  0.250000  1
  Ce  Ce1  1  0.615502  0.807964  0.250000  1
  Ce  Ce2  1  0.384551  0.191653  0.750000  1
  Ce  Ce3  1  0.809550  0.193760  0.750000  1
  Ce  Ce4  1  0.190858  0.386300  0.250000  1
  Tm  Tm5  1  0.806213  0.609773  0.750000  1
  Al  Al6  1  0.332149  0.666921  0.477186  1
  Al  Al7  1  0.670263  0.337275  0.973427  1
  Al  Al8  1  0.670263  0.337275  0.526573  1
  Al  Al9  1  0.332149  0.666921  0.022814  1
  Al  Al10  1  0.162481  0.326357  0.578328  1
  Al  Al11  1  0.675629  0.836337  0.576396  1
  Al  Al12  1  0.160134  0.834783  0.577694  1
  Al  Al13  1  0.837377  0.163977  0.077160  1
  Al  Al14  1  0.837377  0.163977  0.422840  1
  Al  Al15  1  0.837805  0.673731  0.075395  1
  Al  Al16  1  0.325209  0.162496  0.075921  1
  Al  Al17  1  0.675629  0.836337  0.923604  1
  Al  Al18  1  0.162481  0.326357  0.921672  1
  Al  Al19  1  0.837805  0.673731  0.424605  1
  Al  Al20  1  0.998248  0.998845  0.250000  1
  Al  Al21  1  0.000254  0.996952  0.750000  1
  Al  Al22  1  0.562175  0.125652  0.250000  1
  Al  Al23  1  0.440043  0.563178  0.750000  1
  Al  Al24  1  0.123144  0.563082  0.750000  1
  Al  Al25  1  0.872818  0.437178  0.250000  1
  Al  Al26  1  0.563198  0.437062  0.250000  1
  Al  Al27  1  0.437404  0.873597  0.750000  1
  Al  Al28  1  0.160134  0.834783  0.922306  1
  Al  Al29  1  0.325209  0.162496  0.424079  1
  Ir  Ir30  1  0.500700  0.001556  0.500294  1
  Ir  Ir31  1  0.500245  0.500953  0.000704  1
  Ir  Ir32  1  0.500245  0.500953  0.499296  1
  Ir  Ir33  1  0.500700  0.001556  0.999706  1
  Ru  Ru34  1  0.999707  0.999785  0.500190  1
  Ru  Ru35  1  0.999707  0.999785  0.999810  1
  Ru  Ru36  1  0.001081  0.500811  0.001096  1
  Ru  Ru37  1  0.001081  0.500811  0.498904  1
