# generated using pymatgen
data_Dy5Y2(ErBi2)3
_symmetry_space_group_name_H-M   'P 1'
_cell_length_a   8.24283500
_cell_length_b   9.49863104
_cell_length_c   12.04851305
_cell_angle_alpha   89.99003388
_cell_angle_beta   90.00000000
_cell_angle_gamma   90.00000000
_symmetry_Int_Tables_number   1
_chemical_formula_structural   Dy5Y2(ErBi2)3
_chemical_formula_sum   'Dy10 Y4 Er6 Bi12'
_cell_volume   943.34612635
_cell_formula_units_Z   2
loop_
 _symmetry_equiv_pos_site_id
 _symmetry_equiv_pos_as_xyz
  1  'x, y, z'
loop_
 _atom_site_type_symbol
 _atom_site_label
 _atom_site_symmetry_multiplicity
 _atom_site_fract_x
 _atom_site_fract_y
 _atom_site_fract_z
 _atom_site_occupancy
  Dy  Dy0  1  0.186852  0.750019  0.718632  1
  Dy  Dy1  1  0.686852  0.749981  0.781368  1
  Dy  Dy2  1  0.813264  0.249828  0.281368  1
  Dy  Dy3  1  0.313264  0.250172  0.218632  1
  Dy  Dy4  1  0.693481  0.936169  0.059247  1
  Dy  Dy5  1  0.193481  0.563831  0.440753  1
  Dy  Dy6  1  0.693841  0.563781  0.059439  1
  Dy  Dy7  1  0.193841  0.936219  0.440561  1
  Dy  Dy8  1  0.306339  0.064088  0.940682  1
  Dy  Dy9  1  0.806339  0.435912  0.559318  1
  Y  Y10  1  0.354520  0.750172  0.215499  1
  Y  Y11  1  0.854520  0.749828  0.284501  1
  Y  Y12  1  0.645871  0.249940  0.784673  1
  Y  Y13  1  0.145871  0.250060  0.715327  1
  Er  Er14  1  0.025828  0.749836  0.988247  1
  Er  Er15  1  0.525828  0.750164  0.511753  1
  Er  Er16  1  0.974589  0.250252  0.011775  1
  Er  Er17  1  0.474589  0.249748  0.488225  1
  Er  Er18  1  0.306446  0.435212  0.940650  1
  Er  Er19  1  0.806446  0.064788  0.559350  1
  Bi  Bi20  1  0.433900  0.003762  0.673121  1
  Bi  Bi21  1  0.933900  0.496238  0.826879  1
  Bi  Bi22  1  0.566228  0.503662  0.326707  1
  Bi  Bi23  1  0.066228  0.996338  0.173293  1
  Bi  Bi24  1  0.566249  0.996263  0.326914  1
  Bi  Bi25  1  0.066249  0.503737  0.173086  1
  Bi  Bi26  1  0.433485  0.496193  0.673309  1
  Bi  Bi27  1  0.933485  0.003807  0.826691  1
  Bi  Bi28  1  0.407526  0.748610  0.957242  1
  Bi  Bi29  1  0.907526  0.751390  0.542758  1
  Bi  Bi30  1  0.591581  0.250451  0.042267  1
  Bi  Bi31  1  0.091581  0.249549  0.457733  1
