# generated using pymatgen
data_Tm2Al2IrPt
_symmetry_space_group_name_H-M   'P 1'
_cell_length_a   4.33642700
_cell_length_b   6.76840200
_cell_length_c   7.79298000
_cell_angle_alpha   90.00000000
_cell_angle_beta   90.00000000
_cell_angle_gamma   90.00000000
_symmetry_Int_Tables_number   1
_chemical_formula_structural   Tm2Al2IrPt
_chemical_formula_sum   'Tm4 Al4 Ir2 Pt2'
_cell_volume   228.72927142
_cell_formula_units_Z   2
loop_
 _symmetry_equiv_pos_site_id
 _symmetry_equiv_pos_as_xyz
  1  'x, y, z'
loop_
 _atom_site_type_symbol
 _atom_site_label
 _atom_site_symmetry_multiplicity
 _atom_site_fract_x
 _atom_site_fract_y
 _atom_site_fract_z
 _atom_site_occupancy
  Tm  Tm0  1  0.250000  0.031275  0.678174  1
  Tm  Tm1  1  0.250000  0.531275  0.821826  1
  Tm  Tm2  1  0.750000  0.974494  0.318016  1
  Tm  Tm3  1  0.750000  0.474494  0.181984  1
  Al  Al4  1  0.250000  0.141362  0.064258  1
  Al  Al5  1  0.250000  0.641362  0.435742  1
  Al  Al6  1  0.750000  0.855347  0.939296  1
  Al  Al7  1  0.750000  0.355347  0.560704  1
  Ir  Ir8  1  0.250000  0.266658  0.381906  1
  Ir  Ir9  1  0.250000  0.766658  0.118094  1
  Pt  Pt10  1  0.750000  0.730864  0.619747  1
  Pt  Pt11  1  0.750000  0.230864  0.880253  1
