# generated using pymatgen
data_Pm8Pd3PtO16
_symmetry_space_group_name_H-M   'P 1'
_cell_length_a   5.67704926
_cell_length_b   5.70190017
_cell_length_c   12.60694473
_cell_angle_alpha   89.97581975
_cell_angle_beta   90.03103133
_cell_angle_gamma   90.01345753
_symmetry_Int_Tables_number   1
_chemical_formula_structural   Pm8Pd3PtO16
_chemical_formula_sum   'Pm8 Pd3 Pt1 O16'
_cell_volume   408.08629107
_cell_formula_units_Z   1
loop_
 _symmetry_equiv_pos_site_id
 _symmetry_equiv_pos_as_xyz
  1  'x, y, z'
loop_
 _atom_site_type_symbol
 _atom_site_label
 _atom_site_symmetry_multiplicity
 _atom_site_fract_x
 _atom_site_fract_y
 _atom_site_fract_z
 _atom_site_occupancy
  Pm  Pm0  1  0.491396  0.038309  0.157627  1
  Pm  Pm1  1  0.008533  0.538956  0.157618  1
  Pm  Pm2  1  0.991157  0.038355  0.343470  1
  Pm  Pm3  1  0.508809  0.538146  0.343972  1
  Pm  Pm4  1  0.491190  0.461854  0.656028  1
  Pm  Pm5  1  0.008845  0.961646  0.656530  1
  Pm  Pm6  1  0.991469  0.461044  0.842382  1
  Pm  Pm7  1  0.508603  0.961692  0.842373  1
  Pd  Pd8  1  0.500001  0.500001  0.000000  1
  Pd  Pd9  1  0.500001  0.000000  0.500000  1
  Pd  Pd10  1  0.000000  0.500001  0.500000  1
  Pt  Pt11  1  0.000000  0.000000  0.000000  1
  O  O12  1  0.181903  0.313665  0.011034  1
  O  O13  1  0.314549  0.817091  0.010717  1
  O  O14  1  0.758039  0.289299  0.245410  1
  O  O15  1  0.741070  0.788465  0.245660  1
  O  O16  1  0.258451  0.289192  0.255670  1
  O  O17  1  0.241894  0.788810  0.256024  1
  O  O18  1  0.686221  0.312916  0.489148  1
  O  O19  1  0.813957  0.813120  0.489160  1
  O  O20  1  0.186042  0.186879  0.510840  1
  O  O21  1  0.313780  0.687086  0.510852  1
  O  O22  1  0.758105  0.211189  0.743976  1
  O  O23  1  0.741550  0.710807  0.744330  1
  O  O24  1  0.258931  0.211534  0.754340  1
  O  O25  1  0.241960  0.710700  0.754590  1
  O  O26  1  0.685452  0.182908  0.989283  1
  O  O27  1  0.818096  0.686337  0.988966  1
