# generated using pymatgen
data_YHo5TcOs
_symmetry_space_group_name_H-M   'P 1'
_cell_length_a   6.27066000
_cell_length_b   7.44322300
_cell_length_c   9.06703700
_cell_angle_alpha   90.00000000
_cell_angle_beta   90.00000000
_cell_angle_gamma   90.00000000
_symmetry_Int_Tables_number   1
_chemical_formula_structural   YHo5TcOs
_chemical_formula_sum   'Y2 Ho10 Tc2 Os2'
_cell_volume   423.19416626
_cell_formula_units_Z   2
loop_
 _symmetry_equiv_pos_site_id
 _symmetry_equiv_pos_as_xyz
  1  'x, y, z'
loop_
 _atom_site_type_symbol
 _atom_site_label
 _atom_site_symmetry_multiplicity
 _atom_site_fract_x
 _atom_site_fract_y
 _atom_site_fract_z
 _atom_site_occupancy
  Y  Y0  1  0.877426  0.539221  0.250000  1
  Y  Y1  1  0.622574  0.039221  0.250000  1
  Ho  Ho2  1  0.338222  0.675371  0.061680  1
  Ho  Ho3  1  0.161778  0.175371  0.438320  1
  Ho  Ho4  1  0.664518  0.324293  0.563251  1
  Ho  Ho5  1  0.835482  0.824293  0.936749  1
  Ho  Ho6  1  0.664518  0.324293  0.936749  1
  Ho  Ho7  1  0.835482  0.824293  0.563251  1
  Ho  Ho8  1  0.338222  0.675371  0.438320  1
  Ho  Ho9  1  0.161778  0.175371  0.061680  1
  Ho  Ho10  1  0.130939  0.458913  0.750000  1
  Ho  Ho11  1  0.369061  0.958913  0.750000  1
  Tc  Tc12  1  0.043090  0.885016  0.250000  1
  Tc  Tc13  1  0.456910  0.385016  0.250000  1
  Os  Os14  1  0.960374  0.117520  0.750000  1
  Os  Os15  1  0.539626  0.617520  0.750000  1
