# generated using pymatgen
data_Sr6Ti2MnO12
_symmetry_space_group_name_H-M   'P 1'
_cell_length_a   8.70864802
_cell_length_b   8.70864721
_cell_length_c   6.90529734
_cell_angle_alpha   67.77168967
_cell_angle_beta   67.77169085
_cell_angle_gamma   36.87524127
_symmetry_Int_Tables_number   1
_chemical_formula_structural   Sr6Ti2MnO12
_chemical_formula_sum   'Sr6 Ti2 Mn1 O12'
_cell_volume   288.19275259
_cell_formula_units_Z   1
loop_
 _symmetry_equiv_pos_site_id
 _symmetry_equiv_pos_as_xyz
  1  'x, y, z'
loop_
 _atom_site_type_symbol
 _atom_site_label
 _atom_site_symmetry_multiplicity
 _atom_site_fract_x
 _atom_site_fract_y
 _atom_site_fract_z
 _atom_site_occupancy
  Sr  Sr0  1  0.882373  0.882373  0.708829  1
  Sr  Sr1  1  0.214515  0.214515  0.709790  1
  Sr  Sr2  1  0.548168  0.548168  0.710851  1
  Sr  Sr3  1  0.451832  0.451832  0.289149  1
  Sr  Sr4  1  0.785485  0.785485  0.290210  1
  Sr  Sr5  1  0.117627  0.117627  0.291171  1
  Ti  Ti6  1  0.665848  0.665848  0.999932  1
  Ti  Ti7  1  0.334152  0.334152  0.000068  1
  Mn  Mn8  1  0.000000  0.000000  0.000000  1
  O  O9  1  0.947994  0.947994  0.313078  1
  O  O10  1  0.280107  0.280107  0.315778  1
  O  O11  1  0.614409  0.614409  0.316170  1
  O  O12  1  0.385591  0.385591  0.683830  1
  O  O13  1  0.719893  0.719893  0.684222  1
  O  O14  1  0.052006  0.052006  0.686922  1
  O  O15  1  0.500000  0.000000  0.000000  1
  O  O16  1  0.835959  0.328089  0.000006  1
  O  O17  1  0.164041  0.671911  0.999994  1
  O  O18  1  0.000000  0.500000  0.000000  1
  O  O19  1  0.328089  0.835959  0.000006  1
  O  O20  1  0.671911  0.164041  0.999994  1
