# generated using pymatgen
data_YbBiIrO6
_symmetry_space_group_name_H-M   'P 1'
_cell_length_a   5.35912500
_cell_length_b   5.35921013
_cell_length_c   10.13698900
_cell_angle_alpha   90.00259793
_cell_angle_beta   89.99766931
_cell_angle_gamma   119.99970304
_symmetry_Int_Tables_number   1
_chemical_formula_structural   YbBiIrO6
_chemical_formula_sum   'Yb2 Bi2 Ir2 O12'
_cell_volume   252.13641798
_cell_formula_units_Z   2
loop_
 _symmetry_equiv_pos_site_id
 _symmetry_equiv_pos_as_xyz
  1  'x, y, z'
loop_
 _atom_site_type_symbol
 _atom_site_label
 _atom_site_symmetry_multiplicity
 _atom_site_fract_x
 _atom_site_fract_y
 _atom_site_fract_z
 _atom_site_occupancy
  Yb  Yb0  1  0.999999  0.999999  0.999998  1
  Yb  Yb1  1  0.999998  0.000000  0.500002  1
  Bi  Bi2  1  0.333336  0.666661  0.249986  1
  Bi  Bi3  1  0.666663  0.333336  0.750011  1
  Ir  Ir4  1  0.666611  0.333292  0.250011  1
  Ir  Ir5  1  0.333397  0.666712  0.749990  1
  O  O6  1  0.368801  0.033850  0.139612  1
  O  O7  1  0.665041  0.631170  0.139611  1
  O  O8  1  0.966131  0.334930  0.139601  1
  O  O9  1  0.966116  0.631197  0.360398  1
  O  O10  1  0.665039  0.033866  0.360389  1
  O  O11  1  0.368776  0.334937  0.360393  1
  O  O12  1  0.631223  0.665065  0.639608  1
  O  O13  1  0.334960  0.966131  0.639611  1
  O  O14  1  0.033885  0.368803  0.639602  1
  O  O15  1  0.033870  0.665071  0.860398  1
  O  O16  1  0.334957  0.368831  0.860390  1
  O  O17  1  0.631194  0.966146  0.860387  1
