# generated using pymatgen
data_Cr3Fe9(W6C)2
_symmetry_space_group_name_H-M   'P 1'
_cell_length_a   7.78293410
_cell_length_b   7.74519529
_cell_length_c   7.74519400
_cell_angle_alpha   59.99999695
_cell_angle_beta   60.16026869
_cell_angle_gamma   60.16026273
_symmetry_Int_Tables_number   1
_chemical_formula_structural   Cr3Fe9(W6C)2
_chemical_formula_sum   'Cr3 Fe9 W12 C2'
_cell_volume   330.93356904
_cell_formula_units_Z   1
loop_
 _symmetry_equiv_pos_site_id
 _symmetry_equiv_pos_as_xyz
  1  'x, y, z'
loop_
 _atom_site_type_symbol
 _atom_site_label
 _atom_site_symmetry_multiplicity
 _atom_site_fract_x
 _atom_site_fract_y
 _atom_site_fract_z
 _atom_site_occupancy
  Cr  Cr0  1  0.125000  0.125000  0.625000  1
  Cr  Cr1  1  0.125000  0.625000  0.125000  1
  Cr  Cr2  1  0.125000  0.125000  0.125000  1
  Fe  Fe3  1  0.921266  0.235005  0.921865  1
  Fe  Fe4  1  0.328734  0.014995  0.328135  1
  Fe  Fe5  1  0.328734  0.328135  0.328135  1
  Fe  Fe6  1  0.013084  0.328972  0.328972  1
  Fe  Fe7  1  0.921266  0.921865  0.235005  1
  Fe  Fe8  1  0.236916  0.921028  0.921028  1
  Fe  Fe9  1  0.328734  0.328135  0.014995  1
  Fe  Fe10  1  0.921266  0.921865  0.921865  1
  Fe  Fe11  1  0.625000  0.125000  0.125000  1
  W  W12  1  0.303192  0.696978  0.696978  1
  W  W13  1  0.303192  0.302853  0.696978  1
  W  W14  1  0.555099  0.947282  0.550336  1
  W  W15  1  0.946808  0.553022  0.553022  1
  W  W16  1  0.555099  0.947282  0.947282  1
  W  W17  1  0.694901  0.302718  0.302718  1
  W  W18  1  0.946808  0.553022  0.947147  1
  W  W19  1  0.303192  0.696978  0.302853  1
  W  W20  1  0.555099  0.550336  0.947282  1
  W  W21  1  0.694901  0.302718  0.699664  1
  W  W22  1  0.694901  0.699664  0.302718  1
  W  W23  1  0.946808  0.947147  0.553022  1
  C  C24  1  0.749206  0.750265  0.750265  1
  C  C25  1  0.500794  0.499735  0.499735  1
