# generated using pymatgen
data_CeHo(Rh2O5)2
_symmetry_space_group_name_H-M   'P 1'
_cell_length_a   5.19511100
_cell_length_b   7.21593200
_cell_length_c   9.89050500
_cell_angle_alpha   90.00000000
_cell_angle_beta   90.00000000
_cell_angle_gamma   90.00000000
_symmetry_Int_Tables_number   1
_chemical_formula_structural   CeHo(Rh2O5)2
_chemical_formula_sum   'Ce2 Ho2 Rh8 O20'
_cell_volume   370.77097586
_cell_formula_units_Z   2
loop_
 _symmetry_equiv_pos_site_id
 _symmetry_equiv_pos_as_xyz
  1  'x, y, z'
loop_
 _atom_site_type_symbol
 _atom_site_label
 _atom_site_symmetry_multiplicity
 _atom_site_fract_x
 _atom_site_fract_y
 _atom_site_fract_z
 _atom_site_occupancy
  Ce  Ce0  1  0.701370  0.236107  0.750000  1
  Ce  Ce1  1  0.798630  0.736107  0.750000  1
  Ho  Ho2  1  0.296728  0.763506  0.250000  1
  Ho  Ho3  1  0.203272  0.263506  0.250000  1
  Rh  Rh4  1  0.250407  0.917503  0.557974  1
  Rh  Rh5  1  0.249593  0.417503  0.942026  1
  Rh  Rh6  1  0.751661  0.081435  0.063032  1
  Rh  Rh7  1  0.748339  0.581435  0.436968  1
  Rh  Rh8  1  0.751661  0.081435  0.436968  1
  Rh  Rh9  1  0.748339  0.581435  0.063032  1
  Rh  Rh10  1  0.250407  0.917503  0.942026  1
  Rh  Rh11  1  0.249593  0.417503  0.557974  1
  O  O12  1  0.562254  0.832550  0.439335  1
  O  O13  1  0.937746  0.332550  0.060665  1
  O  O14  1  0.434877  0.167212  0.945399  1
  O  O15  1  0.065123  0.667212  0.554601  1
  O  O16  1  0.434877  0.167212  0.554601  1
  O  O17  1  0.065123  0.667212  0.945399  1
  O  O18  1  0.562254  0.832550  0.060665  1
  O  O19  1  0.937746  0.332550  0.439335  1
  O  O20  1  0.399918  0.485078  0.376834  1
  O  O21  1  0.100082  0.985078  0.123166  1
  O  O22  1  0.596407  0.516087  0.878867  1
  O  O23  1  0.903593  0.016087  0.621133  1
  O  O24  1  0.596407  0.516087  0.621133  1
  O  O25  1  0.903593  0.016087  0.878867  1
  O  O26  1  0.399918  0.485078  0.123166  1
  O  O27  1  0.100082  0.985078  0.376834  1
  O  O28  1  0.589559  0.123366  0.250000  1
  O  O29  1  0.910441  0.623366  0.250000  1
  O  O30  1  0.419458  0.877292  0.750000  1
  O  O31  1  0.080542  0.377292  0.750000  1
