# generated using pymatgen
data_La4(PrRh)3
_symmetry_space_group_name_H-M   'P 1'
_cell_length_a   6.48153800
_cell_length_b   10.25500649
_cell_length_c   10.25500700
_cell_angle_alpha   120.01310660
_cell_angle_beta   90.00000000
_cell_angle_gamma   90.00000000
_symmetry_Int_Tables_number   1
_chemical_formula_structural   La4(PrRh)3
_chemical_formula_sum   'La8 Pr6 Rh6'
_cell_volume   590.23265211
_cell_formula_units_Z   2
loop_
 _symmetry_equiv_pos_site_id
 _symmetry_equiv_pos_as_xyz
  1  'x, y, z'
loop_
 _atom_site_type_symbol
 _atom_site_label
 _atom_site_symmetry_multiplicity
 _atom_site_fract_x
 _atom_site_fract_y
 _atom_site_fract_z
 _atom_site_occupancy
  La  La0  1  0.468620  0.333314  0.666686  1
  La  La1  1  0.968620  0.666686  0.333314  1
  La  La2  1  0.252017  0.125719  0.874281  1
  La  La3  1  0.252034  0.748573  0.874306  1
  La  La4  1  0.252034  0.125694  0.251427  1
  La  La5  1  0.752017  0.874281  0.125719  1
  La  La6  1  0.752034  0.251427  0.125694  1
  La  La7  1  0.752034  0.874306  0.748573  1
  Pr  Pr8  1  0.440669  0.541085  0.458915  1
  Pr  Pr9  1  0.440686  0.917818  0.458892  1
  Pr  Pr10  1  0.440686  0.541108  0.082182  1
  Pr  Pr11  1  0.940669  0.458915  0.541085  1
  Pr  Pr12  1  0.940686  0.082182  0.541108  1
  Pr  Pr13  1  0.940686  0.458892  0.917818  1
  Rh  Rh14  1  0.182147  0.811729  0.188271  1
  Rh  Rh15  1  0.182054  0.376678  0.188306  1
  Rh  Rh16  1  0.182054  0.811694  0.623322  1
  Rh  Rh17  1  0.682147  0.188271  0.811729  1
  Rh  Rh18  1  0.682054  0.623322  0.811694  1
  Rh  Rh19  1  0.682054  0.188306  0.376678  1
