# generated using pymatgen
data_Dy16Co3Ag4Rh
_symmetry_space_group_name_H-M   'P 1'
_cell_length_a   9.41209753
_cell_length_b   9.41209692
_cell_length_c   9.45366559
_cell_angle_alpha   60.14534683
_cell_angle_beta   60.14535165
_cell_angle_gamma   59.99999940
_symmetry_Int_Tables_number   1
_chemical_formula_structural   Dy16Co3Ag4Rh
_chemical_formula_sum   'Dy16 Co3 Ag4 Rh1'
_cell_volume   593.48354767
_cell_formula_units_Z   1
loop_
 _symmetry_equiv_pos_site_id
 _symmetry_equiv_pos_as_xyz
  1  'x, y, z'
loop_
 _atom_site_type_symbol
 _atom_site_label
 _atom_site_symmetry_multiplicity
 _atom_site_fract_x
 _atom_site_fract_y
 _atom_site_fract_z
 _atom_site_occupancy
  Dy  Dy0  1  0.145522  0.552514  0.156441  1
  Dy  Dy1  1  0.694169  0.312280  0.681271  1
  Dy  Dy2  1  0.687398  0.312759  0.312444  1
  Dy  Dy3  1  0.935723  0.564604  0.563949  1
  Dy  Dy4  1  0.552514  0.145522  0.156441  1
  Dy  Dy5  1  0.151448  0.151448  0.545654  1
  Dy  Dy6  1  0.935723  0.935723  0.563949  1
  Dy  Dy7  1  0.312759  0.687398  0.312444  1
  Dy  Dy8  1  0.562547  0.938076  0.936830  1
  Dy  Dy9  1  0.564604  0.935723  0.563949  1
  Dy  Dy10  1  0.687398  0.687398  0.312444  1
  Dy  Dy11  1  0.562547  0.562547  0.936830  1
  Dy  Dy12  1  0.938076  0.562547  0.936830  1
  Dy  Dy13  1  0.312280  0.694169  0.681271  1
  Dy  Dy14  1  0.145522  0.145522  0.156441  1
  Dy  Dy15  1  0.312280  0.312280  0.681271  1
  Co  Co16  1  0.357815  0.926169  0.358201  1
  Co  Co17  1  0.926169  0.357815  0.358201  1
  Co  Co18  1  0.357815  0.357815  0.358201  1
  Ag  Ag19  1  0.917941  0.246295  0.917823  1
  Ag  Ag20  1  0.917941  0.917941  0.917823  1
  Ag  Ag21  1  0.917946  0.917946  0.246164  1
  Ag  Ag22  1  0.246295  0.917941  0.917823  1
  Rh  Rh23  1  0.357566  0.357566  0.927303  1
