# generated using pymatgen
data_Hf18MnRe6SiW2
_symmetry_space_group_name_H-M   'P 1'
_cell_length_a   8.61189000
_cell_length_b   8.61188955
_cell_length_c   8.54942100
_cell_angle_alpha   90.00000000
_cell_angle_beta   90.00000000
_cell_angle_gamma   120.00000171
_symmetry_Int_Tables_number   1
_chemical_formula_structural   Hf18MnRe6SiW2
_chemical_formula_sum   'Hf18 Mn1 Re6 Si1 W2'
_cell_volume   549.11619591
_cell_formula_units_Z   1
loop_
 _symmetry_equiv_pos_site_id
 _symmetry_equiv_pos_as_xyz
  1  'x, y, z'
loop_
 _atom_site_type_symbol
 _atom_site_label
 _atom_site_symmetry_multiplicity
 _atom_site_fract_x
 _atom_site_fract_y
 _atom_site_fract_z
 _atom_site_occupancy
  Hf  Hf0  1  0.202542  0.797458  0.443465  1
  Hf  Hf1  1  0.202542  0.405085  0.443465  1
  Hf  Hf2  1  0.594915  0.797458  0.443465  1
  Hf  Hf3  1  0.805733  0.194267  0.547672  1
  Hf  Hf4  1  0.805733  0.611465  0.547672  1
  Hf  Hf5  1  0.388535  0.194267  0.547672  1
  Hf  Hf6  1  0.805733  0.194267  0.952328  1
  Hf  Hf7  1  0.805733  0.611465  0.952328  1
  Hf  Hf8  1  0.388535  0.194267  0.952328  1
  Hf  Hf9  1  0.202542  0.797458  0.056535  1
  Hf  Hf10  1  0.202542  0.405085  0.056535  1
  Hf  Hf11  1  0.594915  0.797458  0.056535  1
  Hf  Hf12  1  0.538705  0.461295  0.250000  1
  Hf  Hf13  1  0.538705  0.077408  0.250000  1
  Hf  Hf14  1  0.922592  0.461295  0.250000  1
  Hf  Hf15  1  0.461441  0.538559  0.750000  1
  Hf  Hf16  1  0.461441  0.922883  0.750000  1
  Hf  Hf17  1  0.077117  0.538559  0.750000  1
  Mn  Mn18  1  0.333333  0.666667  0.250000  1
  Re  Re19  1  0.888507  0.111493  0.250000  1
  Re  Re20  1  0.888507  0.777012  0.250000  1
  Re  Re21  1  0.222988  0.111493  0.250000  1
  Re  Re22  1  0.111771  0.888229  0.750000  1
  Re  Re23  1  0.111771  0.223543  0.750000  1
  Re  Re24  1  0.776457  0.888229  0.750000  1
  Si  Si25  1  0.666667  0.333333  0.750000  1
  W  W26  1  0.000000  0.000000  0.499932  1
  W  W27  1  0.000000  0.000000  0.000068  1
