# generated using pymatgen
data_Sc12Co6Ir5Os
_symmetry_space_group_name_H-M   'P 1'
_cell_length_a   4.51165200
_cell_length_b   6.39438100
_cell_length_c   13.51369300
_cell_angle_alpha   90.00000000
_cell_angle_beta   89.99992798
_cell_angle_gamma   90.00000000
_symmetry_Int_Tables_number   1
_chemical_formula_structural   Sc12Co6Ir5Os
_chemical_formula_sum   'Sc12 Co6 Ir5 Os1'
_cell_volume   389.85952706
_cell_formula_units_Z   1
loop_
 _symmetry_equiv_pos_site_id
 _symmetry_equiv_pos_as_xyz
  1  'x, y, z'
loop_
 _atom_site_type_symbol
 _atom_site_label
 _atom_site_symmetry_multiplicity
 _atom_site_fract_x
 _atom_site_fract_y
 _atom_site_fract_z
 _atom_site_occupancy
  Sc  Sc0  1  0.500006  0.248573  0.999194  1
  Sc  Sc1  1  0.500006  0.751428  0.999194  1
  Sc  Sc2  1  0.999714  0.249939  0.166564  1
  Sc  Sc3  1  0.999714  0.750062  0.166564  1
  Sc  Sc4  1  0.499717  0.249880  0.333312  1
  Sc  Sc5  1  0.499717  0.750120  0.333312  1
  Sc  Sc6  1  0.000000  0.249853  0.500101  1
  Sc  Sc7  1  0.000000  0.750146  0.500101  1
  Sc  Sc8  1  0.500280  0.248532  0.667493  1
  Sc  Sc9  1  0.500280  0.751468  0.667493  1
  Sc  Sc10  1  0.000285  0.247842  0.833333  1
  Sc  Sc11  1  0.000285  0.752159  0.833333  1
  Co  Co12  1  0.000012  0.000000  0.000203  1
  Co  Co13  1  0.499650  0.499999  0.167015  1
  Co  Co14  1  0.999653  0.000000  0.333318  1
  Co  Co15  1  0.499994  0.499999  0.499662  1
  Co  Co16  1  0.000345  0.000000  0.666479  1
  Co  Co17  1  0.500350  0.499999  0.833327  1
  Ir  Ir18  1  0.000003  0.499999  0.000619  1
  Ir  Ir19  1  0.499685  0.000000  0.166909  1
  Ir  Ir20  1  0.999680  0.499999  0.333332  1
  Ir  Ir21  1  0.500002  0.000000  0.499754  1
  Ir  Ir22  1  0.000309  0.499999  0.666055  1
  Os  Os23  1  0.500314  0.000000  0.833332  1
