# generated using pymatgen
data_Y4Co7Ni(PRu)12
_symmetry_space_group_name_H-M   'P 1'
_cell_length_a   3.79375800
_cell_length_b   10.64060825
_cell_length_c   12.09931431
_cell_angle_alpha   90.13403952
_cell_angle_beta   90.00000000
_cell_angle_gamma   90.00000000
_symmetry_Int_Tables_number   1
_chemical_formula_structural   Y4Co7Ni(PRu)12
_chemical_formula_sum   'Y4 Co7 Ni1 P12 Ru12'
_cell_volume   488.42248497
_cell_formula_units_Z   1
loop_
 _symmetry_equiv_pos_site_id
 _symmetry_equiv_pos_as_xyz
  1  'x, y, z'
loop_
 _atom_site_type_symbol
 _atom_site_label
 _atom_site_symmetry_multiplicity
 _atom_site_fract_x
 _atom_site_fract_y
 _atom_site_fract_z
 _atom_site_occupancy
  Y  Y0  1  0.250000  0.916504  0.206456  1
  Y  Y1  1  0.750000  0.084750  0.793058  1
  Y  Y2  1  0.750000  0.413571  0.293792  1
  Y  Y3  1  0.250000  0.584444  0.707372  1
  Co  Co4  1  0.750000  0.387367  0.803951  1
  Co  Co5  1  0.750000  0.112268  0.304342  1
  Co  Co6  1  0.250000  0.887354  0.695627  1
  Co  Co7  1  0.250000  0.036673  0.434771  1
  Co  Co8  1  0.750000  0.962662  0.565030  1
  Co  Co9  1  0.750000  0.538585  0.067435  1
  Co  Co10  1  0.250000  0.462980  0.933974  1
  Ni  Ni11  1  0.250000  0.611918  0.197307  1
  P  P12  1  0.250000  0.073787  0.612431  1
  P  P13  1  0.750000  0.925692  0.387266  1
  P  P14  1  0.750000  0.573851  0.888489  1
  P  P15  1  0.250000  0.422676  0.110065  1
  P  P16  1  0.250000  0.227305  0.372032  1
  P  P17  1  0.750000  0.772036  0.628606  1
  P  P18  1  0.750000  0.731813  0.125807  1
  P  P19  1  0.250000  0.271855  0.871224  1
  P  P20  1  0.250000  0.898914  0.886201  1
  P  P21  1  0.750000  0.101893  0.112998  1
  P  P22  1  0.750000  0.398219  0.613666  1
  P  P23  1  0.250000  0.601304  0.390667  1
  Ru  Ru24  1  0.250000  0.793646  0.486188  1
  Ru  Ru25  1  0.750000  0.206203  0.513558  1
  Ru  Ru26  1  0.750000  0.294519  0.014175  1
  Ru  Ru27  1  0.250000  0.707305  0.986677  1
  Ru  Ru28  1  0.250000  0.095202  0.985491  1
  Ru  Ru29  1  0.750000  0.907016  0.012793  1
  Ru  Ru30  1  0.750000  0.594636  0.513887  1
  Ru  Ru31  1  0.250000  0.404975  0.485787  1
  Ru  Ru32  1  0.250000  0.275964  0.680334  1
  Ru  Ru33  1  0.750000  0.722990  0.318182  1
  Ru  Ru34  1  0.750000  0.775848  0.819312  1
  Ru  Ru35  1  0.250000  0.223274  0.181048  1
