# generated using pymatgen
data_Th10Sn3Bi3As2
_symmetry_space_group_name_H-M   'P 1'
_cell_length_a   9.55892400
_cell_length_b   9.55892262
_cell_length_c   6.69326100
_cell_angle_alpha   90.00000000
_cell_angle_beta   90.00000000
_cell_angle_gamma   119.99999786
_symmetry_Int_Tables_number   1
_chemical_formula_structural   Th10Sn3Bi3As2
_chemical_formula_sum   'Th10 Sn3 Bi3 As2'
_cell_volume   529.64680414
_cell_formula_units_Z   1
loop_
 _symmetry_equiv_pos_site_id
 _symmetry_equiv_pos_as_xyz
  1  'x, y, z'
loop_
 _atom_site_type_symbol
 _atom_site_label
 _atom_site_symmetry_multiplicity
 _atom_site_fract_x
 _atom_site_fract_y
 _atom_site_fract_z
 _atom_site_occupancy
  Th  Th0  1  0.000000  0.742346  0.750000  1
  Th  Th1  1  0.257654  0.257654  0.750000  1
  Th  Th2  1  0.333333  0.666667  0.493332  1
  Th  Th3  1  0.666667  0.333333  0.493332  1
  Th  Th4  1  0.742968  0.742968  0.250000  1
  Th  Th5  1  0.742346  0.000000  0.750000  1
  Th  Th6  1  0.000000  0.257032  0.250000  1
  Th  Th7  1  0.257032  0.000000  0.250000  1
  Th  Th8  1  0.333333  0.666667  0.006668  1
  Th  Th9  1  0.666667  0.333333  0.006668  1
  Sn  Sn10  1  0.610949  0.000000  0.250000  1
  Sn  Sn11  1  0.389051  0.389051  0.250000  1
  Sn  Sn12  1  0.000000  0.610949  0.250000  1
  Bi  Bi13  1  0.608402  0.608402  0.750000  1
  Bi  Bi14  1  0.000000  0.391598  0.750000  1
  Bi  Bi15  1  0.391598  0.000000  0.750000  1
  As  As16  1  0.000000  0.000000  0.999170  1
  As  As17  1  0.000000  0.000000  0.500830  1
