# generated using pymatgen
data_TcBr3O
_symmetry_space_group_name_H-M   'P 1'
_cell_length_a   3.73359009
_cell_length_b   11.93969200
_cell_length_c   11.93882885
_cell_angle_alpha   90.00000000
_cell_angle_beta   89.56155662
_cell_angle_gamma   90.00000000
_symmetry_Int_Tables_number   1
_chemical_formula_structural   TcBr3O
_chemical_formula_sum   'Tc4 Br12 O4'
_cell_volume   532.19252422
_cell_formula_units_Z   4
loop_
 _symmetry_equiv_pos_site_id
 _symmetry_equiv_pos_as_xyz
  1  'x, y, z'
loop_
 _atom_site_type_symbol
 _atom_site_label
 _atom_site_symmetry_multiplicity
 _atom_site_fract_x
 _atom_site_fract_y
 _atom_site_fract_z
 _atom_site_occupancy
  Tc  Tc0  1  0.493042  0.382685  0.617290  1
  Tc  Tc1  1  0.993042  0.117315  0.117290  1
  Tc  Tc2  1  0.506958  0.617315  0.382710  1
  Tc  Tc3  1  0.006958  0.882685  0.882710  1
  Br  Br4  1  0.489518  0.394870  0.822663  1
  Br  Br5  1  0.510482  0.605130  0.177337  1
  Br  Br6  1  0.989518  0.105130  0.322663  1
  Br  Br7  1  0.010482  0.894870  0.677337  1
  Br  Br8  1  0.511016  0.822647  0.394936  1
  Br  Br9  1  0.488984  0.177353  0.605064  1
  Br  Br10  1  0.988984  0.322647  0.105064  1
  Br  Br11  1  0.011016  0.677353  0.894936  1
  Br  Br12  1  0.500245  0.602687  0.602714  1
  Br  Br13  1  0.499755  0.397313  0.397286  1
  Br  Br14  1  0.000245  0.897313  0.102714  1
  Br  Br15  1  0.999755  0.102687  0.897286  1
  O  O16  1  0.993163  0.384789  0.615187  1
  O  O17  1  0.006837  0.615211  0.384813  1
  O  O18  1  0.493163  0.115211  0.115187  1
  O  O19  1  0.506837  0.884789  0.884813  1
