# generated using pymatgen
data_Er8Re3B24Ir
_symmetry_space_group_name_H-M   'P 1'
_cell_length_a   3.65221500
_cell_length_b   9.12657207
_cell_length_c   11.49942467
_cell_angle_alpha   90.13225505
_cell_angle_beta   90.00000000
_cell_angle_gamma   90.00000000
_symmetry_Int_Tables_number   1
_chemical_formula_structural   Er8Re3B24Ir
_chemical_formula_sum   'Er8 Re3 B24 Ir1'
_cell_volume   383.30014107
_cell_formula_units_Z   1
loop_
 _symmetry_equiv_pos_site_id
 _symmetry_equiv_pos_as_xyz
  1  'x, y, z'
loop_
 _atom_site_type_symbol
 _atom_site_label
 _atom_site_symmetry_multiplicity
 _atom_site_fract_x
 _atom_site_fract_y
 _atom_site_fract_z
 _atom_site_occupancy
  Er  Er0  1  0.000000  0.318182  0.415633  1
  Er  Er1  1  0.000000  0.678618  0.591219  1
  Er  Er2  1  0.000000  0.826743  0.081445  1
  Er  Er3  1  0.000000  0.176979  0.912648  1
  Er  Er4  1  0.000000  0.944654  0.370551  1
  Er  Er5  1  0.000000  0.055715  0.628890  1
  Er  Er6  1  0.000000  0.441039  0.128129  1
  Er  Er7  1  0.000000  0.556491  0.871559  1
  Re  Re8  1  0.000000  0.362607  0.677432  1
  Re  Re9  1  0.000000  0.138484  0.179958  1
  Re  Re10  1  0.000000  0.861473  0.821017  1
  B  B11  1  0.500000  0.553917  0.433911  1
  B  B12  1  0.500000  0.446785  0.566331  1
  B  B13  1  0.500000  0.053195  0.066416  1
  B  B14  1  0.500000  0.946824  0.933186  1
  B  B15  1  0.500000  0.749786  0.420398  1
  B  B16  1  0.500000  0.250145  0.580694  1
  B  B17  1  0.500000  0.249452  0.080810  1
  B  B18  1  0.500000  0.751005  0.919286  1
  B  B19  1  0.500000  0.791765  0.265110  1
  B  B20  1  0.500000  0.207871  0.734341  1
  B  B21  1  0.500000  0.292254  0.235097  1
  B  B22  1  0.500000  0.707616  0.765664  1
  B  B23  1  0.500000  0.631757  0.184127  1
  B  B24  1  0.500000  0.369250  0.814432  1
  B  B25  1  0.500000  0.131200  0.315107  1
  B  B26  1  0.500000  0.868373  0.685210  1
  B  B27  1  0.500000  0.982680  0.212150  1
  B  B28  1  0.500000  0.017529  0.787208  1
  B  B29  1  0.500000  0.482672  0.287831  1
  B  B30  1  0.500000  0.518399  0.712271  1
  B  B31  1  0.500000  0.603236  0.029234  1
  B  B32  1  0.500000  0.397551  0.971909  1
  B  B33  1  0.500000  0.102280  0.471164  1
  B  B34  1  0.500000  0.895533  0.528292  1
  Ir  Ir35  1  0.000000  0.637943  0.321338  1
