# generated using pymatgen
data_Tm3LuAl5Ga13Ir6
_symmetry_space_group_name_H-M   'P 1'
_cell_length_a   7.55306154
_cell_length_b   7.54857033
_cell_length_c   9.46658051
_cell_angle_alpha   90.15578959
_cell_angle_beta   89.87798057
_cell_angle_gamma   119.85366673
_symmetry_Int_Tables_number   1
_chemical_formula_structural   Tm3LuAl5Ga13Ir6
_chemical_formula_sum   'Tm3 Lu1 Al5 Ga13 Ir6'
_cell_volume   468.11032067
_cell_formula_units_Z   1
loop_
 _symmetry_equiv_pos_site_id
 _symmetry_equiv_pos_as_xyz
  1  'x, y, z'
loop_
 _atom_site_type_symbol
 _atom_site_label
 _atom_site_symmetry_multiplicity
 _atom_site_fract_x
 _atom_site_fract_y
 _atom_site_fract_z
 _atom_site_occupancy
  Tm  Tm0  1  0.998120  0.329857  0.750335  1
  Tm  Tm1  1  0.672823  0.001487  0.251186  1
  Tm  Tm2  1  0.330134  0.999268  0.745538  1
  Lu  Lu3  1  0.998510  0.667436  0.251164  1
  Al  Al4  1  0.334842  0.001752  0.073460  1
  Al  Al5  1  0.331383  0.331391  0.553841  1
  Al  Al6  1  0.668294  0.667886  0.445295  1
  Al  Al7  1  0.668719  0.668506  0.055101  1
  Al  Al8  1  0.331455  0.331970  0.944805  1
  Ga  Ga9  1  0.128245  0.125405  0.250195  1
  Ga  Ga10  1  0.872866  0.873770  0.750929  1
  Ga  Ga11  1  0.000242  0.335778  0.080919  1
  Ga  Ga12  1  0.001824  0.666367  0.921065  1
  Ga  Ga13  1  0.999215  0.664098  0.580349  1
  Ga  Ga14  1  0.335125  0.998755  0.416365  1
  Ga  Ga15  1  0.000903  0.335907  0.419093  1
  Ga  Ga16  1  0.664848  0.999642  0.580573  1
  Ga  Ga17  1  0.663086  0.999965  0.920807  1
  Ga  Ga18  1  0.347478  0.552465  0.250816  1
  Ga  Ga19  1  0.654015  0.450292  0.750712  1
  Ga  Ga20  1  0.548840  0.344620  0.250042  1
  Ga  Ga21  1  0.448774  0.652249  0.751145  1
  Ir  Ir22  1  0.668347  0.328941  0.000923  1
  Ir  Ir23  1  0.330230  0.672603  0.002146  1
  Ir  Ir24  1  0.330121  0.669958  0.501407  1
  Ir  Ir25  1  0.669683  0.329760  0.500248  1
  Ir  Ir26  1  0.002020  0.000313  0.001152  1
  Ir  Ir27  1  0.999858  0.999562  0.500387  1
