# generated using pymatgen
data_Ba2PaMnSe6
_symmetry_space_group_name_H-M   'P 1'
_cell_length_a   7.16666100
_cell_length_b   7.16666083
_cell_length_c   6.45609900
_cell_angle_alpha   90.00000000
_cell_angle_beta   90.00000000
_cell_angle_gamma   120.00000541
_symmetry_Int_Tables_number   1
_chemical_formula_structural   Ba2PaMnSe6
_chemical_formula_sum   'Ba2 Pa1 Mn1 Se6'
_cell_volume   287.16698114
_cell_formula_units_Z   1
loop_
 _symmetry_equiv_pos_site_id
 _symmetry_equiv_pos_as_xyz
  1  'x, y, z'
loop_
 _atom_site_type_symbol
 _atom_site_label
 _atom_site_symmetry_multiplicity
 _atom_site_fract_x
 _atom_site_fract_y
 _atom_site_fract_z
 _atom_site_occupancy
  Ba  Ba0  1  0.333333  0.666667  0.692707  1
  Ba  Ba1  1  0.666667  0.333333  0.307293  1
  Pa  Pa2  1  0.000000  0.000000  0.000000  1
  Mn  Mn3  1  0.000000  0.000000  0.500000  1
  Se  Se4  1  0.168167  0.831833  0.279900  1
  Se  Se5  1  0.168167  0.336332  0.279900  1
  Se  Se6  1  0.663668  0.831833  0.279900  1
  Se  Se7  1  0.831833  0.168167  0.720100  1
  Se  Se8  1  0.831833  0.663668  0.720100  1
  Se  Se9  1  0.336332  0.168167  0.720100  1
