# generated using pymatgen
data_Na4YbMoO6
_symmetry_space_group_name_H-M   'P 1'
_cell_length_a   5.68998892
_cell_length_b   5.69008593
_cell_length_c   5.74359384
_cell_angle_alpha   99.88029240
_cell_angle_beta   99.88181281
_cell_angle_gamma   119.83520066
_symmetry_Int_Tables_number   1
_chemical_formula_structural   Na4YbMoO6
_chemical_formula_sum   'Na4 Yb1 Mo1 O6'
_cell_volume   151.56293034
_cell_formula_units_Z   1
loop_
 _symmetry_equiv_pos_site_id
 _symmetry_equiv_pos_as_xyz
  1  'x, y, z'
loop_
 _atom_site_type_symbol
 _atom_site_label
 _atom_site_symmetry_multiplicity
 _atom_site_fract_x
 _atom_site_fract_y
 _atom_site_fract_z
 _atom_site_occupancy
  Na  Na0  1  0.500008  0.499990  0.000009  1
  Na  Na1  1  0.997375  0.002643  0.500011  1
  Na  Na2  1  0.662076  0.337882  0.499980  1
  Na  Na3  1  0.339089  0.660892  0.500006  1
  Yb  Yb4  1  0.166780  0.833232  0.000012  1
  Mo  Mo5  1  0.832687  0.167289  0.000004  1
  O  O6  1  0.614609  0.958937  0.204591  1
  O  O7  1  0.184552  0.225819  0.212801  1
  O  O8  1  0.916120  0.528547  0.212463  1
  O  O9  1  0.471431  0.083872  0.787525  1
  O  O10  1  0.774193  0.815479  0.787202  1
  O  O11  1  0.041077  0.385417  0.795399  1
