# generated using pymatgen
data_YEr4Bi3C
_symmetry_space_group_name_H-M   'P 1'
_cell_length_a   9.10795600
_cell_length_b   9.10795683
_cell_length_c   6.45674400
_cell_angle_alpha   90.00116052
_cell_angle_beta   90.00115781
_cell_angle_gamma   119.99467760
_symmetry_Int_Tables_number   1
_chemical_formula_structural   YEr4Bi3C
_chemical_formula_sum   'Y2 Er8 Bi6 C2'
_cell_volume   463.88398154
_cell_formula_units_Z   2
loop_
 _symmetry_equiv_pos_site_id
 _symmetry_equiv_pos_as_xyz
  1  'x, y, z'
loop_
 _atom_site_type_symbol
 _atom_site_label
 _atom_site_symmetry_multiplicity
 _atom_site_fract_x
 _atom_site_fract_y
 _atom_site_fract_z
 _atom_site_occupancy
  Y  Y0  1  0.333348  0.666647  0.000004  1
  Y  Y1  1  0.666647  0.333348  0.000004  1
  Er  Er2  1  0.666661  0.333372  0.500011  1
  Er  Er3  1  0.333372  0.666661  0.500011  1
  Er  Er4  1  0.794146  0.794146  0.250242  1
  Er  Er5  1  0.205750  0.999848  0.250172  1
  Er  Er6  1  0.999848  0.205750  0.250172  1
  Er  Er7  1  0.205850  0.205850  0.749820  1
  Er  Er8  1  0.794254  0.000130  0.749776  1
  Er  Er9  1  0.000130  0.794254  0.749776  1
  Bi  Bi10  1  0.401321  0.401321  0.252029  1
  Bi  Bi11  1  0.598531  0.000003  0.252030  1
  Bi  Bi12  1  0.000003  0.598531  0.252030  1
  Bi  Bi13  1  0.598698  0.598698  0.747970  1
  Bi  Bi14  1  0.401465  0.999990  0.747973  1
  Bi  Bi15  1  0.999990  0.401465  0.747973  1
  C  C16  1  0.999993  0.999993  0.499994  1
  C  C17  1  0.999996  0.999996  0.000009  1
