# generated using pymatgen
data_K3SiSe3
_symmetry_space_group_name_H-M   'P 1'
_cell_length_a   7.93340237
_cell_length_b   7.93340367
_cell_length_c   8.48675074
_cell_angle_alpha   74.96402508
_cell_angle_beta   74.96401906
_cell_angle_gamma   109.81384119
_symmetry_Int_Tables_number   1
_chemical_formula_structural   K3SiSe3
_chemical_formula_sum   'K6 Si2 Se6'
_cell_volume   448.45213514
_cell_formula_units_Z   2
loop_
 _symmetry_equiv_pos_site_id
 _symmetry_equiv_pos_as_xyz
  1  'x, y, z'
loop_
 _atom_site_type_symbol
 _atom_site_label
 _atom_site_symmetry_multiplicity
 _atom_site_fract_x
 _atom_site_fract_y
 _atom_site_fract_z
 _atom_site_occupancy
  K  K0  1  0.210219  0.210219  0.319993  1
  K  K1  1  0.000000  0.500000  0.000000  1
  K  K2  1  0.661792  0.338208  0.500000  1
  K  K3  1  0.338208  0.661792  0.500000  1
  K  K4  1  0.500000  0.000000  0.000000  1
  K  K5  1  0.789781  0.789781  0.680007  1
  Si  Si6  1  0.112547  0.112547  0.853920  1
  Si  Si7  1  0.887453  0.887453  0.146080  1
  Se  Se8  1  0.641854  0.641854  0.128027  1
  Se  Se9  1  0.358146  0.358146  0.871973  1
  Se  Se10  1  0.756873  0.047575  0.294831  1
  Se  Se11  1  0.952425  0.243127  0.705169  1
  Se  Se12  1  0.243127  0.952425  0.705169  1
  Se  Se13  1  0.047575  0.756873  0.294831  1
