# generated using pymatgen
data_Tl3Ga13S21
_symmetry_space_group_name_H-M   'P 1'
_cell_length_a   14.86421485
_cell_length_b   14.86421535
_cell_length_c   9.38658400
_cell_angle_alpha   78.22679307
_cell_angle_beta   78.22679267
_cell_angle_gamma   61.26299966
_symmetry_Int_Tables_number   1
_chemical_formula_structural   Tl3Ga13S21
_chemical_formula_sum   'Tl6 Ga26 S42'
_cell_volume   1766.62009318
_cell_formula_units_Z   2
loop_
 _symmetry_equiv_pos_site_id
 _symmetry_equiv_pos_as_xyz
  1  'x, y, z'
loop_
 _atom_site_type_symbol
 _atom_site_label
 _atom_site_symmetry_multiplicity
 _atom_site_fract_x
 _atom_site_fract_y
 _atom_site_fract_z
 _atom_site_occupancy
  Tl  Tl0  1  0.182546  0.182546  0.405521  1
  Tl  Tl1  1  0.111288  0.111288  0.959648  1
  Tl  Tl2  1  0.549251  0.549251  0.720751  1
  Tl  Tl3  1  0.418693  0.418693  0.379659  1
  Tl  Tl4  1  0.820776  0.820776  0.613182  1
  Tl  Tl5  1  0.889369  0.889369  0.040358  1
  Ga  Ga6  1  0.819726  0.356478  0.302244  1
  Ga  Ga7  1  0.356478  0.819726  0.302244  1
  Ga  Ga8  1  0.775883  0.283350  0.967248  1
  Ga  Ga9  1  0.283350  0.775883  0.967248  1
  Ga  Ga10  1  0.792091  0.532369  0.947433  1
  Ga  Ga11  1  0.532369  0.792091  0.947433  1
  Ga  Ga12  1  0.139066  0.897317  0.632523  1
  Ga  Ga13  1  0.897317  0.139066  0.632523  1
  Ga  Ga14  1  0.848797  0.593794  0.284615  1
  Ga  Ga15  1  0.593794  0.848797  0.284615  1
  Ga  Ga16  1  0.594633  0.594633  0.284926  1
  Ga  Ga17  1  0.400006  0.901596  0.634190  1
  Ga  Ga18  1  0.901596  0.400006  0.634190  1
  Ga  Ga19  1  0.516375  0.053163  0.963840  1
  Ga  Ga20  1  0.053163  0.516375  0.963840  1
  Ga  Ga21  1  0.286347  0.286347  0.956657  1
  Ga  Ga22  1  0.094651  0.845661  0.287132  1
  Ga  Ga23  1  0.845661  0.094651  0.287132  1
  Ga  Ga24  1  0.585275  0.092697  0.297666  1
  Ga  Ga25  1  0.092697  0.585275  0.297666  1
  Ga  Ga26  1  0.652997  0.151660  0.631383  1
  Ga  Ga27  1  0.151660  0.652997  0.631383  1
  Ga  Ga28  1  0.401364  0.146677  0.621374  1
  Ga  Ga29  1  0.146677  0.401364  0.621374  1
  Ga  Ga30  1  0.539691  0.290414  0.935900  1
  Ga  Ga31  1  0.290414  0.539691  0.935900  1
  S  S32  1  0.047316  0.808458  0.709559  1
  S  S33  1  0.808458  0.047316  0.709559  1
  S  S34  1  0.349016  0.117559  0.045824  1
  S  S35  1  0.117559  0.349016  0.045824  1
  S  S36  1  0.615625  0.615625  0.031822  1
  S  S37  1  0.919823  0.419303  0.371950  1
  S  S38  1  0.419303  0.919823  0.371950  1
  S  S39  1  0.861767  0.361097  0.046806  1
  S  S40  1  0.361097  0.861767  0.046806  1
  S  S41  1  0.554609  0.312494  0.688994  1
  S  S42  1  0.312494  0.554609  0.688994  1
  S  S43  1  0.303971  0.809662  0.709097  1
  S  S44  1  0.809662  0.303971  0.709097  1
  S  S45  1  0.796144  0.557892  0.703825  1
  S  S46  1  0.557892  0.796144  0.703825  1
  S  S47  1  0.673679  0.673679  0.371187  1
  S  S48  1  0.301935  0.064128  0.690455  1
  S  S49  1  0.064128  0.301935  0.690455  1
  S  S50  1  0.062293  0.062293  0.682604  1
  S  S51  1  0.613938  0.115027  0.037918  1
  S  S52  1  0.115027  0.613938  0.037918  1
  S  S53  1  0.872745  0.610658  0.029078  1
  S  S54  1  0.610658  0.872745  0.029078  1
  S  S55  1  0.114556  0.874649  0.039712  1
  S  S56  1  0.874649  0.114556  0.039712  1
  S  S57  1  0.311201  0.311201  0.700708  1
  S  S58  1  0.052347  0.561515  0.710351  1
  S  S59  1  0.561515  0.052347  0.710351  1
  S  S60  1  0.170977  0.669846  0.371939  1
  S  S61  1  0.669846  0.170977  0.371939  1
  S  S62  1  0.605112  0.372604  0.028284  1
  S  S63  1  0.372604  0.605112  0.028284  1
  S  S64  1  0.365820  0.365820  0.040193  1
  S  S65  1  0.653552  0.429974  0.388218  1
  S  S66  1  0.429974  0.653552  0.388218  1
  S  S67  1  0.919998  0.678882  0.351491  1
  S  S68  1  0.678882  0.919998  0.351491  1
  S  S69  1  0.180737  0.916326  0.373222  1
  S  S70  1  0.916326  0.180737  0.373222  1
  S  S71  1  0.418812  0.189824  0.375411  1
  S  S72  1  0.189824  0.418812  0.375411  1
  S  S73  1  0.921542  0.921542  0.357023  1
