# generated using pymatgen
data_CoSi3(NiMo)4
_symmetry_space_group_name_H-M   'P 1'
_cell_length_a   4.75220099
_cell_length_b   4.75290031
_cell_length_c   7.61185800
_cell_angle_alpha   90.00000000
_cell_angle_beta   90.00000000
_cell_angle_gamma   120.18418927
_symmetry_Int_Tables_number   1
_chemical_formula_structural   CoSi3(NiMo)4
_chemical_formula_sum   'Co1 Si3 Ni4 Mo4'
_cell_volume   148.61606661
_cell_formula_units_Z   1
loop_
 _symmetry_equiv_pos_site_id
 _symmetry_equiv_pos_as_xyz
  1  'x, y, z'
loop_
 _atom_site_type_symbol
 _atom_site_label
 _atom_site_symmetry_multiplicity
 _atom_site_fract_x
 _atom_site_fract_y
 _atom_site_fract_z
 _atom_site_occupancy
  Co  Co0  1  0.144627  0.320188  0.500000  1
  Si  Si1  1  0.628312  0.811380  0.500000  1
  Si  Si2  1  0.015395  0.009719  0.243467  1
  Si  Si3  1  0.015395  0.009719  0.756533  1
  Ni  Ni4  1  0.839921  0.176365  0.000000  1
  Ni  Ni5  1  0.840543  0.666223  0.000000  1
  Ni  Ni6  1  0.350626  0.176921  0.000000  1
  Ni  Ni7  1  0.150143  0.822964  0.500000  1
  Mo  Mo8  1  0.662946  0.329493  0.685114  1
  Mo  Mo9  1  0.344499  0.673841  0.814188  1
  Mo  Mo10  1  0.344499  0.673841  0.185812  1
  Mo  Mo11  1  0.662946  0.329493  0.314886  1
