# generated using pymatgen
data_PrY2Th(Al3Ir)6
_symmetry_space_group_name_H-M   'P 1'
_cell_length_a   7.60555700
_cell_length_b   7.60785936
_cell_length_c   9.53037200
_cell_angle_alpha   90.00000000
_cell_angle_beta   90.00000000
_cell_angle_gamma   119.45949731
_symmetry_Int_Tables_number   1
_chemical_formula_structural   PrY2Th(Al3Ir)6
_chemical_formula_sum   'Pr1 Y2 Th1 Al18 Ir6'
_cell_volume   480.14640534
_cell_formula_units_Z   1
loop_
 _symmetry_equiv_pos_site_id
 _symmetry_equiv_pos_as_xyz
  1  'x, y, z'
loop_
 _atom_site_type_symbol
 _atom_site_label
 _atom_site_symmetry_multiplicity
 _atom_site_fract_x
 _atom_site_fract_y
 _atom_site_fract_z
 _atom_site_occupancy
  Pr  Pr0  1  0.671495  0.994297  0.250000  1
  Y  Y1  1  0.004246  0.328503  0.750000  1
  Y  Y2  1  0.327669  0.004536  0.750000  1
  Th  Th3  1  0.995055  0.671242  0.250000  1
  Al  Al4  1  0.134439  0.133936  0.250000  1
  Al  Al5  1  0.871885  0.873133  0.750000  1
  Al  Al6  1  0.003676  0.333397  0.070226  1
  Al  Al7  1  0.999079  0.664281  0.919535  1
  Al  Al8  1  0.999079  0.664281  0.580465  1
  Al  Al9  1  0.337751  0.005228  0.429837  1
  Al  Al10  1  0.003676  0.333397  0.429774  1
  Al  Al11  1  0.664513  0.999992  0.577825  1
  Al  Al12  1  0.664513  0.999992  0.922175  1
  Al  Al13  1  0.337751  0.005228  0.070163  1
  Al  Al14  1  0.332389  0.332338  0.554200  1
  Al  Al15  1  0.663345  0.664869  0.457318  1
  Al  Al16  1  0.663345  0.664869  0.042682  1
  Al  Al17  1  0.332389  0.332338  0.945800  1
  Al  Al18  1  0.341056  0.545444  0.250000  1
  Al  Al19  1  0.658020  0.449327  0.750000  1
  Al  Al20  1  0.544681  0.340119  0.250000  1
  Al  Al21  1  0.449186  0.659790  0.750000  1
  Ir  Ir22  1  0.672859  0.329890  0.999616  1
  Ir  Ir23  1  0.326435  0.670932  0.999538  1
  Ir  Ir24  1  0.326435  0.670932  0.500462  1
  Ir  Ir25  1  0.672859  0.329890  0.500384  1
  Ir  Ir26  1  0.001086  0.998909  0.999657  1
  Ir  Ir27  1  0.001086  0.998909  0.500343  1
