# generated using pymatgen
data_Zn10CuPd2
_symmetry_space_group_name_H-M   'P 1'
_cell_length_a   7.88797288
_cell_length_b   7.88797222
_cell_length_c   7.87338692
_cell_angle_alpha   70.62583056
_cell_angle_beta   70.62583460
_cell_angle_gamma   109.44821158
_symmetry_Int_Tables_number   1
_chemical_formula_structural   Zn10CuPd2
_chemical_formula_sum   'Zn20 Cu2 Pd4'
_cell_volume   378.11905248
_cell_formula_units_Z   2
loop_
 _symmetry_equiv_pos_site_id
 _symmetry_equiv_pos_as_xyz
  1  'x, y, z'
loop_
 _atom_site_type_symbol
 _atom_site_label
 _atom_site_symmetry_multiplicity
 _atom_site_fract_x
 _atom_site_fract_y
 _atom_site_fract_z
 _atom_site_occupancy
  Zn  Zn0  1  0.005759  0.005759  0.783781  1
  Zn  Zn1  1  0.772506  0.772506  0.227753  1
  Zn  Zn2  1  0.221225  0.999419  0.994117  1
  Zn  Zn3  1  0.999419  0.221225  0.994117  1
  Zn  Zn4  1  0.266958  0.266958  0.388889  1
  Zn  Zn5  1  0.008694  0.734413  0.647230  1
  Zn  Zn6  1  0.734413  0.008694  0.647230  1
  Zn  Zn7  1  0.650588  0.650588  0.630702  1
  Zn  Zn8  1  0.365769  0.642189  0.352488  1
  Zn  Zn9  1  0.642189  0.365769  0.352488  1
  Zn  Zn10  1  0.354621  0.733762  0.983941  1
  Zn  Zn11  1  0.624377  0.267311  0.722965  1
  Zn  Zn12  1  0.353696  0.005596  0.276814  1
  Zn  Zn13  1  0.733762  0.354621  0.983941  1
  Zn  Zn14  1  0.005596  0.353696  0.276814  1
  Zn  Zn15  1  0.267311  0.624377  0.722965  1
  Zn  Zn16  1  0.645468  0.645468  0.995562  1
  Zn  Zn17  1  0.001567  0.643973  0.359558  1
  Zn  Zn18  1  0.643973  0.001567  0.359558  1
  Zn  Zn19  1  0.354139  0.354139  0.006336  1
  Cu  Cu20  1  0.996912  0.358549  0.639358  1
  Cu  Cu21  1  0.358549  0.996912  0.639358  1
  Pd  Pd22  1  0.999809  0.999809  0.343245  1
  Pd  Pd23  1  0.352202  0.352202  0.655088  1
  Pd  Pd24  1  0.647640  0.992858  0.007850  1
  Pd  Pd25  1  0.992858  0.647640  0.007850  1
