# generated using pymatgen
data_Ho2TmCoSn6
_symmetry_space_group_name_H-M   'P 1'
_cell_length_a   8.41968911
_cell_length_b   8.41968968
_cell_length_c   13.14370900
_cell_angle_alpha   90.00000000
_cell_angle_beta   90.00000000
_cell_angle_gamma   148.64720845
_symmetry_Int_Tables_number   1
_chemical_formula_structural   Ho2TmCoSn6
_chemical_formula_sum   'Ho4 Tm2 Co2 Sn12'
_cell_volume   484.80719775
_cell_formula_units_Z   2
loop_
 _symmetry_equiv_pos_site_id
 _symmetry_equiv_pos_as_xyz
  1  'x, y, z'
loop_
 _atom_site_type_symbol
 _atom_site_label
 _atom_site_symmetry_multiplicity
 _atom_site_fract_x
 _atom_site_fract_y
 _atom_site_fract_z
 _atom_site_occupancy
  Ho  Ho0  1  0.899763  0.100237  0.093671  1
  Ho  Ho1  1  0.100237  0.899763  0.593671  1
  Ho  Ho2  1  0.100237  0.899763  0.906329  1
  Ho  Ho3  1  0.899763  0.100237  0.406329  1
  Tm  Tm4  1  0.900645  0.099355  0.750000  1
  Tm  Tm5  1  0.099355  0.900645  0.250000  1
  Co  Co6  1  0.298253  0.701747  0.250000  1
  Co  Co7  1  0.701747  0.298253  0.750000  1
  Sn  Sn8  1  0.755438  0.244562  0.571241  1
  Sn  Sn9  1  0.427053  0.572947  0.576360  1
  Sn  Sn10  1  0.572947  0.427053  0.423640  1
  Sn  Sn11  1  0.732013  0.267987  0.250000  1
  Sn  Sn12  1  0.267987  0.732013  0.750000  1
  Sn  Sn13  1  0.244562  0.755438  0.071241  1
  Sn  Sn14  1  0.244562  0.755438  0.428759  1
  Sn  Sn15  1  0.572947  0.427053  0.076360  1
  Sn  Sn16  1  0.453352  0.546648  0.250000  1
  Sn  Sn17  1  0.546648  0.453352  0.750000  1
  Sn  Sn18  1  0.755438  0.244562  0.928759  1
  Sn  Sn19  1  0.427053  0.572947  0.923640  1
