# generated using pymatgen
data_Ho6ThSn23Os6
_symmetry_space_group_name_H-M   'P 1'
_cell_length_a   9.86670600
_cell_length_b   9.86670496
_cell_length_c   10.11089000
_cell_angle_alpha   90.00000000
_cell_angle_beta   90.00000000
_cell_angle_gamma   119.99999008
_symmetry_Int_Tables_number   1
_chemical_formula_structural   Ho6ThSn23Os6
_chemical_formula_sum   'Ho6 Th1 Sn23 Os6'
_cell_volume   852.44111826
_cell_formula_units_Z   1
loop_
 _symmetry_equiv_pos_site_id
 _symmetry_equiv_pos_as_xyz
  1  'x, y, z'
loop_
 _atom_site_type_symbol
 _atom_site_label
 _atom_site_symmetry_multiplicity
 _atom_site_fract_x
 _atom_site_fract_y
 _atom_site_fract_z
 _atom_site_occupancy
  Ho  Ho0  1  0.514485  0.485515  0.697731  1
  Ho  Ho1  1  0.514485  0.028969  0.697731  1
  Ho  Ho2  1  0.971031  0.485515  0.697731  1
  Ho  Ho3  1  0.028969  0.514485  0.302269  1
  Ho  Ho4  1  0.485515  0.971031  0.302269  1
  Ho  Ho5  1  0.485515  0.514485  0.302269  1
  Th  Th6  1  0.000000  0.000000  0.000000  1
  Sn  Sn7  1  0.666667  0.333333  0.173782  1
  Sn  Sn8  1  0.666667  0.333333  0.871474  1
  Sn  Sn9  1  0.333333  0.666667  0.128526  1
  Sn  Sn10  1  0.351677  0.351677  0.000000  1
  Sn  Sn11  1  0.000000  0.648323  0.000000  1
  Sn  Sn12  1  0.648323  0.000000  0.000000  1
  Sn  Sn13  1  0.648323  0.648323  0.000000  1
  Sn  Sn14  1  0.333333  0.666667  0.826218  1
  Sn  Sn15  1  0.440343  0.220172  0.462544  1
  Sn  Sn16  1  0.220172  0.779828  0.537456  1
  Sn  Sn17  1  0.220172  0.440343  0.537456  1
  Sn  Sn18  1  0.559657  0.779828  0.537456  1
  Sn  Sn19  1  0.118462  0.881538  0.278323  1
  Sn  Sn20  1  0.779828  0.559657  0.462544  1
  Sn  Sn21  1  0.779828  0.220172  0.462544  1
  Sn  Sn22  1  0.351677  0.000000  0.000000  1
  Sn  Sn23  1  0.118462  0.236925  0.278323  1
  Sn  Sn24  1  0.763075  0.881538  0.278323  1
  Sn  Sn25  1  0.236925  0.118462  0.721677  1
  Sn  Sn26  1  0.881538  0.763075  0.721677  1
  Sn  Sn27  1  0.881538  0.118462  0.721677  1
  Sn  Sn28  1  0.000000  0.000000  0.500000  1
  Sn  Sn29  1  0.000000  0.351677  0.000000  1
  Os  Os30  1  0.169756  0.830244  0.799031  1
  Os  Os31  1  0.169756  0.339512  0.799031  1
  Os  Os32  1  0.660488  0.830244  0.799031  1
  Os  Os33  1  0.339512  0.169756  0.200969  1
  Os  Os34  1  0.830244  0.660488  0.200969  1
  Os  Os35  1  0.830244  0.169756  0.200969  1
