# generated using pymatgen
data_Pr2ZnGaPd2
_symmetry_space_group_name_H-M   'P 1'
_cell_length_a   4.58150400
_cell_length_b   7.19814600
_cell_length_c   7.81786600
_cell_angle_alpha   90.00000000
_cell_angle_beta   90.00000000
_cell_angle_gamma   90.00000000
_symmetry_Int_Tables_number   1
_chemical_formula_structural   Pr2ZnGaPd2
_chemical_formula_sum   'Pr4 Zn2 Ga2 Pd4'
_cell_volume   257.82020152
_cell_formula_units_Z   2
loop_
 _symmetry_equiv_pos_site_id
 _symmetry_equiv_pos_as_xyz
  1  'x, y, z'
loop_
 _atom_site_type_symbol
 _atom_site_label
 _atom_site_symmetry_multiplicity
 _atom_site_fract_x
 _atom_site_fract_y
 _atom_site_fract_z
 _atom_site_occupancy
  Pr  Pr0  1  0.250000  0.024115  0.696551  1
  Pr  Pr1  1  0.250000  0.524115  0.803449  1
  Pr  Pr2  1  0.750000  0.974923  0.309165  1
  Pr  Pr3  1  0.750000  0.474923  0.190835  1
  Zn  Zn4  1  0.250000  0.169245  0.079495  1
  Zn  Zn5  1  0.250000  0.669245  0.420505  1
  Ga  Ga6  1  0.750000  0.835496  0.927219  1
  Ga  Ga7  1  0.750000  0.335496  0.572781  1
  Pd  Pd8  1  0.250000  0.284326  0.405334  1
  Pd  Pd9  1  0.250000  0.784326  0.094666  1
  Pd  Pd10  1  0.750000  0.711896  0.603334  1
  Pd  Pd11  1  0.750000  0.211896  0.896666  1
