# generated using pymatgen
data_Yb2CuGe2
_symmetry_space_group_name_H-M   'P 1'
_cell_length_a   5.64940962
_cell_length_b   5.64941056
_cell_length_c   10.47238177
_cell_angle_alpha   64.12512130
_cell_angle_beta   64.12511433
_cell_angle_gamma   45.07997481
_symmetry_Int_Tables_number   1
_chemical_formula_structural   Yb2CuGe2
_chemical_formula_sum   'Yb4 Cu2 Ge4'
_cell_volume   208.58387525
_cell_formula_units_Z   2
loop_
 _symmetry_equiv_pos_site_id
 _symmetry_equiv_pos_as_xyz
  1  'x, y, z'
loop_
 _atom_site_type_symbol
 _atom_site_label
 _atom_site_symmetry_multiplicity
 _atom_site_fract_x
 _atom_site_fract_y
 _atom_site_fract_z
 _atom_site_occupancy
  Yb  Yb0  1  0.812553  0.812553  0.109338  1
  Yb  Yb1  1  0.981046  0.981046  0.334816  1
  Yb  Yb2  1  0.187447  0.187447  0.890662  1
  Yb  Yb3  1  0.018954  0.018954  0.665184  1
  Cu  Cu4  1  0.725875  0.725875  0.649838  1
  Cu  Cu5  1  0.274125  0.274125  0.350162  1
  Ge  Ge6  1  0.483968  0.483968  0.884429  1
  Ge  Ge7  1  0.358462  0.358462  0.561976  1
  Ge  Ge8  1  0.516032  0.516032  0.115571  1
  Ge  Ge9  1  0.641538  0.641538  0.438024  1
