# generated using pymatgen
data_HoEr5(RuI3)2
_symmetry_space_group_name_H-M   'P 1'
_cell_length_a   4.19921600
_cell_length_b   8.85866792
_cell_length_c   12.31114657
_cell_angle_alpha   93.83745585
_cell_angle_beta   90.00000000
_cell_angle_gamma   90.00000000
_symmetry_Int_Tables_number   1
_chemical_formula_structural   HoEr5(RuI3)2
_chemical_formula_sum   'Ho1 Er5 Ru2 I6'
_cell_volume   456.94120889
_cell_formula_units_Z   1
loop_
 _symmetry_equiv_pos_site_id
 _symmetry_equiv_pos_as_xyz
  1  'x, y, z'
loop_
 _atom_site_type_symbol
 _atom_site_label
 _atom_site_symmetry_multiplicity
 _atom_site_fract_x
 _atom_site_fract_y
 _atom_site_fract_z
 _atom_site_occupancy
  Ho  Ho0  1  0.750000  0.259841  0.602616  1
  Er  Er1  1  0.250000  0.743438  0.398087  1
  Er  Er2  1  0.750000  0.869403  0.626017  1
  Er  Er3  1  0.250000  0.132057  0.373170  1
  Er  Er4  1  0.750000  0.898882  0.187928  1
  Er  Er5  1  0.250000  0.099240  0.812536  1
  Ru  Ru6  1  0.750000  0.947839  0.408279  1
  Ru  Ru7  1  0.250000  0.053188  0.590861  1
  I  I8  1  0.750000  0.426899  0.367155  1
  I  I9  1  0.250000  0.575075  0.633283  1
  I  I10  1  0.750000  0.859039  0.890687  1
  I  I11  1  0.250000  0.137237  0.107700  1
  I  I12  1  0.750000  0.352014  0.864256  1
  I  I13  1  0.250000  0.645850  0.137426  1
