# generated using pymatgen
data_Tb5CeTcRu
_symmetry_space_group_name_H-M   'P 1'
_cell_length_a   6.36192300
_cell_length_b   7.23416500
_cell_length_c   9.40202700
_cell_angle_alpha   90.00000000
_cell_angle_beta   90.00000000
_cell_angle_gamma   90.00000000
_symmetry_Int_Tables_number   1
_chemical_formula_structural   Tb5CeTcRu
_chemical_formula_sum   'Tb10 Ce2 Tc2 Ru2'
_cell_volume   432.71137560
_cell_formula_units_Z   2
loop_
 _symmetry_equiv_pos_site_id
 _symmetry_equiv_pos_as_xyz
  1  'x, y, z'
loop_
 _atom_site_type_symbol
 _atom_site_label
 _atom_site_symmetry_multiplicity
 _atom_site_fract_x
 _atom_site_fract_y
 _atom_site_fract_z
 _atom_site_occupancy
  Tb  Tb0  1  0.333426  0.678379  0.063146  1
  Tb  Tb1  1  0.166574  0.178379  0.436854  1
  Tb  Tb2  1  0.671156  0.323760  0.567516  1
  Tb  Tb3  1  0.828844  0.823760  0.932484  1
  Tb  Tb4  1  0.671156  0.323760  0.932484  1
  Tb  Tb5  1  0.828844  0.823760  0.567516  1
  Tb  Tb6  1  0.333426  0.678379  0.436854  1
  Tb  Tb7  1  0.166574  0.178379  0.063146  1
  Tb  Tb8  1  0.138682  0.458838  0.750000  1
  Tb  Tb9  1  0.361318  0.958838  0.750000  1
  Ce  Ce10  1  0.863430  0.558206  0.250000  1
  Ce  Ce11  1  0.636570  0.058206  0.250000  1
  Tc  Tc12  1  0.000661  0.864337  0.250000  1
  Tc  Tc13  1  0.499339  0.364337  0.250000  1
  Ru  Ru14  1  0.959122  0.114340  0.750000  1
  Ru  Ru15  1  0.540878  0.614340  0.750000  1
