# generated using pymatgen
data_Tb2Dy7Tm(CoSb2)2
_symmetry_space_group_name_H-M   'P 1'
_cell_length_a   7.89883200
_cell_length_b   8.75864501
_cell_length_c   12.20228035
_cell_angle_alpha   89.94553729
_cell_angle_beta   90.00000000
_cell_angle_gamma   90.00000000
_symmetry_Int_Tables_number   1
_chemical_formula_structural   Tb2Dy7Tm(CoSb2)2
_chemical_formula_sum   'Tb4 Dy14 Tm2 Co4 Sb8'
_cell_volume   844.19077906
_cell_formula_units_Z   2
loop_
 _symmetry_equiv_pos_site_id
 _symmetry_equiv_pos_as_xyz
  1  'x, y, z'
loop_
 _atom_site_type_symbol
 _atom_site_label
 _atom_site_symmetry_multiplicity
 _atom_site_fract_x
 _atom_site_fract_y
 _atom_site_fract_z
 _atom_site_occupancy
  Tb  Tb0  1  0.621588  0.749735  0.306665  1
  Tb  Tb1  1  0.121588  0.250265  0.193335  1
  Tb  Tb2  1  0.377196  0.250600  0.693023  1
  Tb  Tb3  1  0.877196  0.749400  0.806977  1
  Dy  Dy4  1  0.154413  0.749574  0.203162  1
  Dy  Dy5  1  0.654413  0.250426  0.296838  1
  Dy  Dy6  1  0.845257  0.250204  0.796972  1
  Dy  Dy7  1  0.345257  0.749796  0.703028  1
  Dy  Dy8  1  0.454152  0.749557  0.998010  1
  Dy  Dy9  1  0.954152  0.250443  0.501990  1
  Dy  Dy10  1  0.548332  0.250746  0.002240  1
  Dy  Dy11  1  0.048332  0.749254  0.497760  1
  Dy  Dy12  1  0.821677  0.964081  0.065477  1
  Dy  Dy13  1  0.321677  0.035919  0.434523  1
  Dy  Dy14  1  0.177806  0.464860  0.935030  1
  Dy  Dy15  1  0.677806  0.535140  0.564970  1
  Dy  Dy16  1  0.178170  0.034941  0.935110  1
  Dy  Dy17  1  0.678170  0.965059  0.564890  1
  Tm  Tm18  1  0.824556  0.536268  0.065471  1
  Tm  Tm19  1  0.324556  0.463732  0.434529  1
  Co  Co20  1  0.433246  0.749440  0.490692  1
  Co  Co21  1  0.933246  0.250560  0.009308  1
  Co  Co22  1  0.564090  0.250874  0.508693  1
  Co  Co23  1  0.064090  0.749126  0.991307  1
  Sb  Sb24  1  0.928358  0.991629  0.327568  1
  Sb  Sb25  1  0.428358  0.008371  0.172432  1
  Sb  Sb26  1  0.070785  0.491817  0.672834  1
  Sb  Sb27  1  0.570785  0.508183  0.827166  1
  Sb  Sb28  1  0.070997  0.008107  0.672794  1
  Sb  Sb29  1  0.570997  0.991893  0.827206  1
  Sb  Sb30  1  0.929376  0.508104  0.327342  1
  Sb  Sb31  1  0.429376  0.491896  0.172658  1
