# generated using pymatgen
data_Li4Ca2DyErSi8
_symmetry_space_group_name_H-M   'P 1'
_cell_length_a   3.78498000
_cell_length_b   7.78332941
_cell_length_c   10.40197764
_cell_angle_alpha   89.33219121
_cell_angle_beta   90.00000000
_cell_angle_gamma   90.00000000
_symmetry_Int_Tables_number   1
_chemical_formula_structural   Li4Ca2DyErSi8
_chemical_formula_sum   'Li4 Ca2 Dy1 Er1 Si8'
_cell_volume   306.41880619
_cell_formula_units_Z   1
loop_
 _symmetry_equiv_pos_site_id
 _symmetry_equiv_pos_as_xyz
  1  'x, y, z'
loop_
 _atom_site_type_symbol
 _atom_site_label
 _atom_site_symmetry_multiplicity
 _atom_site_fract_x
 _atom_site_fract_y
 _atom_site_fract_z
 _atom_site_occupancy
  Li  Li0  1  0.250000  0.997781  0.389214  1
  Li  Li1  1  0.750000  0.000908  0.609682  1
  Li  Li2  1  0.250000  0.493459  0.109048  1
  Li  Li3  1  0.750000  0.510870  0.889658  1
  Ca  Ca4  1  0.250000  0.635398  0.635609  1
  Ca  Ca5  1  0.750000  0.361367  0.365653  1
  Dy  Dy6  1  0.750000  0.869882  0.135339  1
  Er  Er7  1  0.250000  0.130064  0.865034  1
  Si  Si8  1  0.750000  0.263096  0.060504  1
  Si  Si9  1  0.250000  0.740097  0.937329  1
  Si  Si10  1  0.750000  0.771473  0.427699  1
  Si  Si11  1  0.250000  0.225866  0.574614  1
  Si  Si12  1  0.750000  0.845468  0.826206  1
  Si  Si13  1  0.250000  0.157474  0.171912  1
  Si  Si14  1  0.750000  0.330213  0.685144  1
  Si  Si15  1  0.250000  0.666586  0.317356  1
