# generated using pymatgen
data_Ti2Tl(PO4)3
_symmetry_space_group_name_H-M   'P 1'
_cell_length_a   9.92241800
_cell_length_b   9.92241800
_cell_length_c   9.92241800
_cell_angle_alpha   90.00000000
_cell_angle_beta   90.00000000
_cell_angle_gamma   90.00000000
_symmetry_Int_Tables_number   1
_chemical_formula_structural   Ti2Tl(PO4)3
_chemical_formula_sum   'Ti8 Tl4 P12 O48'
_cell_volume   976.90550204
_cell_formula_units_Z   4
loop_
 _symmetry_equiv_pos_site_id
 _symmetry_equiv_pos_as_xyz
  1  'x, y, z'
loop_
 _atom_site_type_symbol
 _atom_site_label
 _atom_site_symmetry_multiplicity
 _atom_site_fract_x
 _atom_site_fract_y
 _atom_site_fract_z
 _atom_site_occupancy
  Ti  Ti0  1  0.913657  0.413657  0.086343  1
  Ti  Ti1  1  0.413657  0.086343  0.913657  1
  Ti  Ti2  1  0.086343  0.913657  0.413657  1
  Ti  Ti3  1  0.586343  0.586343  0.586343  1
  Ti  Ti4  1  0.639937  0.139937  0.360063  1
  Ti  Ti5  1  0.139937  0.360063  0.639937  1
  Ti  Ti6  1  0.360063  0.639937  0.139937  1
  Ti  Ti7  1  0.860063  0.860063  0.860063  1
  Tl  Tl8  1  0.425572  0.925572  0.574428  1
  Tl  Tl9  1  0.925572  0.574428  0.425572  1
  Tl  Tl10  1  0.574428  0.425572  0.925572  1
  Tl  Tl11  1  0.074428  0.074428  0.074428  1
  P  P12  1  0.227584  0.374878  0.954531  1
  P  P13  1  0.045469  0.727584  0.125122  1
  P  P14  1  0.874878  0.545469  0.772416  1
  P  P15  1  0.727584  0.125122  0.045469  1
  P  P16  1  0.545469  0.772416  0.874878  1
  P  P17  1  0.374878  0.954531  0.227584  1
  P  P18  1  0.772416  0.874878  0.545469  1
  P  P19  1  0.954531  0.227584  0.374878  1
  P  P20  1  0.125122  0.045469  0.727584  1
  P  P21  1  0.272416  0.625122  0.454531  1
  P  P22  1  0.454531  0.272416  0.625122  1
  P  P23  1  0.625122  0.454531  0.272416  1
  O  O24  1  0.303934  0.240186  0.976047  1
  O  O25  1  0.023953  0.803934  0.259814  1
  O  O26  1  0.740186  0.523953  0.696066  1
  O  O27  1  0.803934  0.259814  0.023953  1
  O  O28  1  0.523953  0.696066  0.740186  1
  O  O29  1  0.240186  0.976047  0.303934  1
  O  O30  1  0.696066  0.740186  0.523953  1
  O  O31  1  0.976047  0.303934  0.240186  1
  O  O32  1  0.259814  0.023953  0.803934  1
  O  O33  1  0.196066  0.759814  0.476047  1
  O  O34  1  0.476047  0.196066  0.759814  1
  O  O35  1  0.759814  0.476047  0.196066  1
  O  O36  1  0.079391  0.355229  0.999262  1
  O  O37  1  0.000738  0.579391  0.144771  1
  O  O38  1  0.855229  0.500738  0.920609  1
  O  O39  1  0.579391  0.144771  0.000738  1
  O  O40  1  0.500738  0.920609  0.855229  1
  O  O41  1  0.355229  0.999262  0.079391  1
  O  O42  1  0.920609  0.855229  0.500738  1
  O  O43  1  0.999262  0.079391  0.355229  1
  O  O44  1  0.144771  0.000738  0.579391  1
  O  O45  1  0.420609  0.644771  0.499262  1
  O  O46  1  0.499262  0.420609  0.644771  1
  O  O47  1  0.644771  0.499262  0.420609  1
  O  O48  1  0.297701  0.482289  0.041437  1
  O  O49  1  0.958563  0.797701  0.017711  1
  O  O50  1  0.982289  0.458563  0.702299  1
  O  O51  1  0.797701  0.017711  0.958563  1
  O  O52  1  0.458563  0.702299  0.982289  1
  O  O53  1  0.482289  0.041437  0.297701  1
  O  O54  1  0.702299  0.982289  0.458563  1
  O  O55  1  0.041437  0.297701  0.482289  1
  O  O56  1  0.017711  0.958563  0.797701  1
  O  O57  1  0.202299  0.517711  0.541437  1
  O  O58  1  0.541437  0.202299  0.517711  1
  O  O59  1  0.517711  0.541437  0.202299  1
  O  O60  1  0.233421  0.416777  0.805210  1
  O  O61  1  0.194790  0.733421  0.083223  1
  O  O62  1  0.916777  0.694790  0.766579  1
  O  O63  1  0.733421  0.083223  0.194790  1
  O  O64  1  0.694790  0.766579  0.916777  1
  O  O65  1  0.416777  0.805210  0.233421  1
  O  O66  1  0.766579  0.916777  0.694790  1
  O  O67  1  0.805210  0.233421  0.416777  1
  O  O68  1  0.083223  0.194790  0.733421  1
  O  O69  1  0.266579  0.583223  0.305210  1
  O  O70  1  0.305210  0.266579  0.583223  1
  O  O71  1  0.583223  0.305210  0.266579  1
