# generated using pymatgen
data_Tb9Th(In2Pt)4
_symmetry_space_group_name_H-M   'P 1'
_cell_length_a   3.64449400
_cell_length_b   8.19059279
_cell_length_c   18.35091200
_cell_angle_alpha   90.12909166
_cell_angle_beta   90.00000000
_cell_angle_gamma   90.00000000
_symmetry_Int_Tables_number   1
_chemical_formula_structural   Tb9Th(In2Pt)4
_chemical_formula_sum   'Tb9 Th1 In8 Pt4'
_cell_volume   547.78372452
_cell_formula_units_Z   1
loop_
 _symmetry_equiv_pos_site_id
 _symmetry_equiv_pos_as_xyz
  1  'x, y, z'
loop_
 _atom_site_type_symbol
 _atom_site_label
 _atom_site_symmetry_multiplicity
 _atom_site_fract_x
 _atom_site_fract_y
 _atom_site_fract_z
 _atom_site_occupancy
  Tb  Tb0  1  0.000000  0.119597  0.417103  1
  Tb  Tb1  1  0.000000  0.883491  0.585408  1
  Tb  Tb2  1  0.000000  0.383602  0.914662  1
  Tb  Tb3  1  0.000000  0.616146  0.082810  1
  Tb  Tb4  1  0.000000  0.240350  0.219701  1
  Tb  Tb5  1  0.000000  0.757505  0.780118  1
  Tb  Tb6  1  0.000000  0.257334  0.719737  1
  Tb  Tb7  1  0.000000  0.998988  0.999159  1
  Tb  Tb8  1  0.000000  0.500697  0.499795  1
  Th  Th9  1  0.000000  0.740281  0.280635  1
  In  In10  1  0.500000  0.418132  0.351914  1
  In  In11  1  0.500000  0.575678  0.648818  1
  In  In12  1  0.500000  0.076050  0.851039  1
  In  In13  1  0.500000  0.928628  0.146064  1
  In  In14  1  0.500000  0.290827  0.066913  1
  In  In15  1  0.500000  0.708384  0.932584  1
  In  In16  1  0.500000  0.208734  0.567336  1
  In  In17  1  0.500000  0.793831  0.436243  1
  Pt  Pt18  1  0.500000  0.024264  0.303514  1
  Pt  Pt19  1  0.500000  0.975699  0.696809  1
  Pt  Pt20  1  0.500000  0.475775  0.803162  1
  Pt  Pt21  1  0.500000  0.526005  0.196477  1
