# generated using pymatgen
data_Tb4Tc3PtF28
_symmetry_space_group_name_H-M   'P 1'
_cell_length_a   5.59438916
_cell_length_b   8.95089390
_cell_length_c   12.05201430
_cell_angle_alpha   62.45837705
_cell_angle_beta   90.02636396
_cell_angle_gamma   90.02030878
_symmetry_Int_Tables_number   1
_chemical_formula_structural   Tb4Tc3PtF28
_chemical_formula_sum   'Tb4 Tc3 Pt1 F28'
_cell_volume   535.11017733
_cell_formula_units_Z   1
loop_
 _symmetry_equiv_pos_site_id
 _symmetry_equiv_pos_as_xyz
  1  'x, y, z'
loop_
 _atom_site_type_symbol
 _atom_site_label
 _atom_site_symmetry_multiplicity
 _atom_site_fract_x
 _atom_site_fract_y
 _atom_site_fract_z
 _atom_site_occupancy
  Tb  Tb0  1  0.258945  0.813895  0.264843  1
  Tb  Tb1  1  0.741482  0.187194  0.734987  1
  Tb  Tb2  1  0.758937  0.186189  0.235486  1
  Tb  Tb3  1  0.240476  0.814236  0.763082  1
  Tc  Tc4  1  0.757799  0.726878  0.042600  1
  Tc  Tc5  1  0.242415  0.273921  0.956769  1
  Tc  Tc6  1  0.257780  0.273917  0.456733  1
  Pt  Pt7  1  0.741000  0.727205  0.542808  1
  F  F8  1  0.935327  0.704068  0.415579  1
  F  F9  1  0.055451  0.291832  0.582132  1
  F  F10  1  0.445332  0.292175  0.082290  1
  F  F11  1  0.553758  0.708272  0.917742  1
  F  F12  1  0.476260  0.730089  0.138591  1
  F  F13  1  0.524532  0.270201  0.861619  1
  F  F14  1  0.975457  0.270544  0.361254  1
  F  F15  1  0.031303  0.726887  0.635084  1
  F  F16  1  0.956695  0.745055  0.170855  1
  F  F17  1  0.045370  0.255043  0.828449  1
  F  F18  1  0.455582  0.255784  0.328324  1
  F  F19  1  0.551539  0.743258  0.674746  1
  F  F20  1  0.771279  0.480253  0.140125  1
  F  F21  1  0.228716  0.520596  0.859170  1
  F  F22  1  0.270111  0.520681  0.359548  1
  F  F23  1  0.729663  0.479794  0.641447  1
  F  F24  1  0.949626  0.279100  0.045964  1
  F  F25  1  0.050040  0.721575  0.953091  1
  F  F26  1  0.443637  0.719719  0.457366  1
  F  F27  1  0.550511  0.279611  0.545469  1
  F  F28  1  0.741362  0.974851  0.449514  1
  F  F29  1  0.259095  0.028018  0.552821  1
  F  F30  1  0.241465  0.027845  0.053648  1
  F  F31  1  0.759061  0.972803  0.946466  1
  F  F32  1  0.584329  0.969166  0.232444  1
  F  F33  1  0.415882  0.029705  0.768484  1
  F  F34  1  0.083941  0.029327  0.269591  1
  F  F35  1  0.915844  0.970313  0.730876  1
