# generated using pymatgen
data_Y3Ni2As6Rh7
_symmetry_space_group_name_H-M   'P 1'
_cell_length_a   4.01340800
_cell_length_b   11.23755300
_cell_length_c   13.24273900
_cell_angle_alpha   90.00000000
_cell_angle_beta   90.00000000
_cell_angle_gamma   90.00000000
_symmetry_Int_Tables_number   1
_chemical_formula_structural   Y3Ni2As6Rh7
_chemical_formula_sum   'Y6 Ni4 As12 Rh14'
_cell_volume   597.25925019
_cell_formula_units_Z   2
loop_
 _symmetry_equiv_pos_site_id
 _symmetry_equiv_pos_as_xyz
  1  'x, y, z'
loop_
 _atom_site_type_symbol
 _atom_site_label
 _atom_site_symmetry_multiplicity
 _atom_site_fract_x
 _atom_site_fract_y
 _atom_site_fract_z
 _atom_site_occupancy
  Y  Y0  1  0.000000  0.500000  0.524191  1
  Y  Y1  1  0.500000  0.000000  0.475809  1
  Y  Y2  1  0.500000  0.813321  0.203909  1
  Y  Y3  1  0.500000  0.186679  0.203909  1
  Y  Y4  1  0.000000  0.686679  0.796091  1
  Y  Y5  1  0.000000  0.313321  0.796091  1
  Ni  Ni6  1  0.500000  0.500000  0.699389  1
  Ni  Ni7  1  0.000000  0.000000  0.300611  1
  Ni  Ni8  1  0.000000  0.500000  0.972069  1
  Ni  Ni9  1  0.500000  0.000000  0.027931  1
  As  As10  1  0.500000  0.500000  0.867003  1
  As  As11  1  0.000000  0.000000  0.132997  1
  As  As12  1  0.500000  0.500000  0.351998  1
  As  As13  1  0.000000  0.000000  0.648002  1
  As  As14  1  0.500000  0.322811  0.620592  1
  As  As15  1  0.500000  0.677189  0.620592  1
  As  As16  1  0.000000  0.177189  0.379408  1
  As  As17  1  0.000000  0.822811  0.379408  1
  As  As18  1  0.500000  0.855932  0.894606  1
  As  As19  1  0.500000  0.144068  0.894606  1
  As  As20  1  0.000000  0.644068  0.105394  1
  As  As21  1  0.000000  0.355932  0.105394  1
  Rh  Rh22  1  0.500000  0.500000  0.168633  1
  Rh  Rh23  1  0.000000  0.000000  0.831367  1
  Rh  Rh24  1  0.500000  0.337309  0.991056  1
  Rh  Rh25  1  0.500000  0.662691  0.991056  1
  Rh  Rh26  1  0.000000  0.162691  0.008944  1
  Rh  Rh27  1  0.000000  0.837309  0.008944  1
  Rh  Rh28  1  0.500000  0.299601  0.434537  1
  Rh  Rh29  1  0.500000  0.700399  0.434537  1
  Rh  Rh30  1  0.000000  0.200399  0.565463  1
  Rh  Rh31  1  0.000000  0.799601  0.565463  1
  Rh  Rh32  1  0.500000  0.872055  0.708864  1
  Rh  Rh33  1  0.500000  0.127945  0.708864  1
  Rh  Rh34  1  0.000000  0.627945  0.291136  1
  Rh  Rh35  1  0.000000  0.372055  0.291136  1
