# generated using pymatgen
data_Y2ErGa6Co2Ni7
_symmetry_space_group_name_H-M   'P 1'
_cell_length_a   8.75551387
_cell_length_b   8.79893522
_cell_length_c   4.10670100
_cell_angle_alpha   90.00000000
_cell_angle_beta   90.00000000
_cell_angle_gamma   120.46664683
_symmetry_Int_Tables_number   1
_chemical_formula_structural   Y2ErGa6Co2Ni7
_chemical_formula_sum   'Y2 Er1 Ga6 Co2 Ni7'
_cell_volume   272.69303890
_cell_formula_units_Z   1
loop_
 _symmetry_equiv_pos_site_id
 _symmetry_equiv_pos_as_xyz
  1  'x, y, z'
loop_
 _atom_site_type_symbol
 _atom_site_label
 _atom_site_symmetry_multiplicity
 _atom_site_fract_x
 _atom_site_fract_y
 _atom_site_fract_z
 _atom_site_occupancy
  Y  Y0  1  0.670959  0.335703  0.500000  1
  Y  Y1  1  0.332681  0.667746  0.500000  1
  Er  Er2  1  0.000212  0.002480  0.000000  1
  Ga  Ga3  1  0.487325  0.483142  0.000000  1
  Ga  Ga4  1  0.515335  0.999181  0.000000  1
  Ga  Ga5  1  0.995331  0.511989  0.000000  1
  Ga  Ga6  1  0.726321  0.727108  0.500000  1
  Ga  Ga7  1  0.268029  0.999904  0.500000  1
  Ga  Ga8  1  0.000164  0.269317  0.500000  1
  Co  Co9  1  0.826111  0.192036  0.000000  1
  Co  Co10  1  0.812088  0.639012  0.000000  1
  Ni  Ni11  1  0.372295  0.173792  0.000000  1
  Ni  Ni12  1  0.191663  0.823111  0.000000  1
  Ni  Ni13  1  0.630372  0.806200  0.000000  1
  Ni  Ni14  1  0.176591  0.374414  0.000000  1
  Ni  Ni15  1  0.291485  0.290415  0.500000  1
  Ni  Ni16  1  0.705703  0.999011  0.500000  1
  Ni  Ni17  1  0.997334  0.705438  0.500000  1
