# generated using pymatgen
data_Sm7Ho13Si15Os
_symmetry_space_group_name_H-M   'P 1'
_cell_length_a   7.37169121
_cell_length_b   7.73910835
_cell_length_c   14.54710700
_cell_angle_alpha   89.98322388
_cell_angle_beta   89.98637497
_cell_angle_gamma   90.00393462
_symmetry_Int_Tables_number   1
_chemical_formula_structural   Sm7Ho13Si15Os
_chemical_formula_sum   'Sm7 Ho13 Si15 Os1'
_cell_volume   829.91700456
_cell_formula_units_Z   1
loop_
 _symmetry_equiv_pos_site_id
 _symmetry_equiv_pos_as_xyz
  1  'x, y, z'
loop_
 _atom_site_type_symbol
 _atom_site_label
 _atom_site_symmetry_multiplicity
 _atom_site_fract_x
 _atom_site_fract_y
 _atom_site_fract_z
 _atom_site_occupancy
  Sm  Sm0  1  0.022912  0.820560  0.903608  1
  Sm  Sm1  1  0.475849  0.317191  0.096998  1
  Sm  Sm2  1  0.975972  0.180549  0.403837  1
  Sm  Sm3  1  0.476303  0.317348  0.404007  1
  Sm  Sm4  1  0.976834  0.180360  0.096521  1
  Sm  Sm5  1  0.520468  0.672723  0.904115  1
  Sm  Sm6  1  0.023285  0.820086  0.595878  1
  Ho  Ho7  1  0.671357  0.185770  0.625446  1
  Ho  Ho8  1  0.191083  0.325382  0.872771  1
  Ho  Ho9  1  0.319155  0.819722  0.123971  1
  Ho  Ho10  1  0.817243  0.676333  0.376489  1
  Ho  Ho11  1  0.319439  0.819446  0.376371  1
  Ho  Ho12  1  0.817371  0.676731  0.123660  1
  Ho  Ho13  1  0.671139  0.185532  0.873953  1
  Ho  Ho14  1  0.192005  0.326043  0.626296  1
  Ho  Ho15  1  0.521318  0.673065  0.597343  1
  Ho  Ho16  1  0.840195  0.511105  0.749679  1
  Ho  Ho17  1  0.354399  0.989000  0.749559  1
  Ho  Ho18  1  0.151293  0.485956  0.250137  1
  Ho  Ho19  1  0.650689  0.012245  0.250129  1
  Si  Si20  1  0.646871  0.965520  0.462457  1
  Si  Si21  1  0.148712  0.531018  0.038852  1
  Si  Si22  1  0.348837  0.027294  0.961463  1
  Si  Si23  1  0.853299  0.471807  0.539279  1
  Si  Si24  1  0.350492  0.023329  0.539740  1
  Si  Si25  1  0.856343  0.469493  0.961038  1
  Si  Si26  1  0.646974  0.968095  0.038310  1
  Si  Si27  1  0.147769  0.530843  0.460953  1
  Si  Si28  1  0.978457  0.105855  0.749383  1
  Si  Si29  1  0.523978  0.608359  0.250267  1
  Si  Si30  1  0.021971  0.889103  0.250226  1
  Si  Si31  1  0.737981  0.878598  0.749160  1
  Si  Si32  1  0.231259  0.632897  0.748683  1
  Si  Si33  1  0.268405  0.125160  0.250403  1
  Si  Si34  1  0.770336  0.373752  0.250213  1
  Os  Os35  1  0.480006  0.403725  0.748804  1
