# generated using pymatgen
data_Li2CeNd(PO3)8
_symmetry_space_group_name_H-M   'P 1'
_cell_length_a   7.18583615
_cell_length_b   9.09144013
_cell_length_c   9.09725689
_cell_angle_alpha   95.30228695
_cell_angle_beta   113.26254786
_cell_angle_gamma   113.27832298
_symmetry_Int_Tables_number   1
_chemical_formula_structural   Li2CeNd(PO3)8
_chemical_formula_sum   'Li2 Ce1 Nd1 P8 O24'
_cell_volume   479.32212201
_cell_formula_units_Z   1
loop_
 _symmetry_equiv_pos_site_id
 _symmetry_equiv_pos_as_xyz
  1  'x, y, z'
loop_
 _atom_site_type_symbol
 _atom_site_label
 _atom_site_symmetry_multiplicity
 _atom_site_fract_x
 _atom_site_fract_y
 _atom_site_fract_z
 _atom_site_occupancy
  Li  Li0  1  0.452191  0.750001  0.250000  1
  Li  Li1  1  0.547790  0.250000  0.750000  1
  Ce  Ce2  1  0.949943  0.750001  0.250000  1
  Nd  Nd3  1  0.049371  0.250000  0.750000  1
  P  P4  1  0.606917  0.300369  0.096847  1
  P  P5  1  0.080929  0.385882  0.162590  1
  P  P6  1  0.532459  0.114118  0.337411  1
  P  P7  1  0.209702  0.199631  0.403152  1
  P  P8  1  0.790603  0.801269  0.597461  1
  P  P9  1  0.469571  0.886872  0.664172  1
  P  P10  1  0.918526  0.613127  0.835828  1
  P  P11  1  0.391874  0.698732  0.902539  1
  O  O12  1  0.147683  0.318650  0.045694  1
  O  O13  1  0.808952  0.268711  0.087815  1
  O  O14  1  0.557667  0.732060  0.082097  1
  O  O15  1  0.489408  0.146154  0.157969  1
  O  O16  1  0.145189  0.569628  0.203780  1
  O  O17  1  0.709775  0.465500  0.222673  1
  O  O18  1  0.021601  0.034500  0.277328  1
  O  O19  1  0.371782  0.930371  0.296219  1
  O  O20  1  0.185286  0.353845  0.342031  1
  O  O21  1  0.743511  0.767940  0.417902  1
  O  O22  1  0.452424  0.231289  0.412184  1
  O  O23  1  0.783338  0.181350  0.454307  1
  O  O24  1  0.218603  0.820677  0.548360  1
  O  O25  1  0.548017  0.768966  0.589043  1
  O  O26  1  0.254798  0.232473  0.582362  1
  O  O27  1  0.814977  0.646363  0.657110  1
  O  O28  1  0.631578  0.070478  0.704953  1
  O  O29  1  0.978757  0.966622  0.722542  1
  O  O30  1  0.289590  0.533377  0.777458  1
  O  O31  1  0.856149  0.429523  0.795048  1
  O  O32  1  0.511506  0.853637  0.842890  1
  O  O33  1  0.439963  0.267528  0.917638  1
  O  O34  1  0.190006  0.731033  0.910956  1
  O  O35  1  0.849565  0.679323  0.951639  1
