# generated using pymatgen
data_Dy2LuGaSi
_symmetry_space_group_name_H-M   'P 1'
_cell_length_a   7.48959100
_cell_length_b   7.50583900
_cell_length_c   4.29746400
_cell_angle_alpha   90.00000000
_cell_angle_beta   90.00000000
_cell_angle_gamma   90.00000000
_symmetry_Int_Tables_number   1
_chemical_formula_structural   Dy2LuGaSi
_chemical_formula_sum   'Dy4 Lu2 Ga2 Si2'
_cell_volume   241.58479323
_cell_formula_units_Z   2
loop_
 _symmetry_equiv_pos_site_id
 _symmetry_equiv_pos_as_xyz
  1  'x, y, z'
loop_
 _atom_site_type_symbol
 _atom_site_label
 _atom_site_symmetry_multiplicity
 _atom_site_fract_x
 _atom_site_fract_y
 _atom_site_fract_z
 _atom_site_occupancy
  Dy  Dy0  1  0.324646  0.178192  0.500000  1
  Dy  Dy1  1  0.824646  0.321807  0.500000  1
  Dy  Dy2  1  0.175094  0.672991  0.500000  1
  Dy  Dy3  1  0.675095  0.827009  0.500000  1
  Lu  Lu4  1  0.997055  0.002456  0.000000  1
  Lu  Lu5  1  0.497055  0.497544  0.000000  1
  Ga  Ga6  1  0.881395  0.619264  0.000000  1
  Ga  Ga7  1  0.381394  0.880736  0.000000  1
  Si  Si8  1  0.621807  0.122097  0.000000  1
  Si  Si9  1  0.121808  0.377903  0.000000  1
