# generated using pymatgen
data_Dy2Ho(In2Pt)2
_symmetry_space_group_name_H-M   'P 1'
_cell_length_a   7.82707600
_cell_length_b   7.82729533
_cell_length_c   3.91009400
_cell_angle_alpha   90.00000000
_cell_angle_beta   90.00000000
_cell_angle_gamma   119.99838363
_symmetry_Int_Tables_number   1
_chemical_formula_structural   Dy2Ho(In2Pt)2
_chemical_formula_sum   'Dy2 Ho1 In4 Pt2'
_cell_volume   207.46086012
_cell_formula_units_Z   1
loop_
 _symmetry_equiv_pos_site_id
 _symmetry_equiv_pos_as_xyz
  1  'x, y, z'
loop_
 _atom_site_type_symbol
 _atom_site_label
 _atom_site_symmetry_multiplicity
 _atom_site_fract_x
 _atom_site_fract_y
 _atom_site_fract_z
 _atom_site_occupancy
  Dy  Dy0  1  0.695835  0.743695  0.500000  1
  Dy  Dy1  1  0.256291  0.952271  0.500000  1
  Ho  Ho2  1  0.047480  0.303700  0.500000  1
  In  In3  1  0.664231  0.075562  0.000000  1
  In  In4  1  0.924554  0.588564  0.000000  1
  In  In5  1  0.411319  0.335996  0.000000  1
  In  In6  1  0.333208  0.666392  0.000000  1
  Pt  Pt7  1  0.666914  0.333328  0.500000  1
  Pt  Pt8  1  0.000171  0.000488  0.000000  1
