# generated using pymatgen
data_PrTm7Sc12Ga5Si11
_symmetry_space_group_name_H-M   'P 1'
_cell_length_a   7.13165413
_cell_length_b   7.39520061
_cell_length_c   14.15821202
_cell_angle_alpha   90.25498471
_cell_angle_beta   90.21452585
_cell_angle_gamma   90.08697108
_symmetry_Int_Tables_number   1
_chemical_formula_structural   PrTm7Sc12Ga5Si11
_chemical_formula_sum   'Pr1 Tm7 Sc12 Ga5 Si11'
_cell_volume   746.69077893
_cell_formula_units_Z   1
loop_
 _symmetry_equiv_pos_site_id
 _symmetry_equiv_pos_as_xyz
  1  'x, y, z'
loop_
 _atom_site_type_symbol
 _atom_site_label
 _atom_site_symmetry_multiplicity
 _atom_site_fract_x
 _atom_site_fract_y
 _atom_site_fract_z
 _atom_site_occupancy
  Pr  Pr0  1  0.010301  0.172605  0.097451  1
  Tm  Tm1  1  0.012227  0.175274  0.400116  1
  Tm  Tm2  1  0.512563  0.324979  0.402290  1
  Tm  Tm3  1  0.491116  0.676797  0.898581  1
  Tm  Tm4  1  0.488032  0.678036  0.598617  1
  Tm  Tm5  1  0.988312  0.822730  0.598518  1
  Tm  Tm6  1  0.987737  0.826752  0.898180  1
  Tm  Tm7  1  0.510955  0.325337  0.099682  1
  Sc  Sc8  1  0.329279  0.172553  0.625594  1
  Sc  Sc9  1  0.669895  0.823174  0.375601  1
  Sc  Sc10  1  0.663881  0.997712  0.751019  1
  Sc  Sc11  1  0.171321  0.675594  0.375593  1
  Sc  Sc12  1  0.826684  0.326173  0.873061  1
  Sc  Sc13  1  0.829112  0.326979  0.625518  1
  Sc  Sc14  1  0.835806  0.498736  0.252566  1
  Sc  Sc15  1  0.336923  0.000218  0.253170  1
  Sc  Sc16  1  0.332121  0.174547  0.871916  1
  Sc  Sc17  1  0.170487  0.671760  0.127473  1
  Sc  Sc18  1  0.667808  0.826133  0.127598  1
  Sc  Sc19  1  0.163481  0.501796  0.750158  1
  Ga  Ga20  1  0.160664  0.461477  0.538705  1
  Ga  Ga21  1  0.837064  0.543823  0.037191  1
  Ga  Ga22  1  0.343797  0.957462  0.036710  1
  Ga  Ga23  1  0.162962  0.466483  0.958425  1
  Ga  Ga24  1  0.660727  0.038177  0.538732  1
  Si  Si25  1  0.285693  0.871031  0.748927  1
  Si  Si26  1  0.467954  0.614642  0.251982  1
  Si  Si27  1  0.031650  0.114978  0.748961  1
  Si  Si28  1  0.531693  0.387176  0.748483  1
  Si  Si29  1  0.966743  0.880883  0.252697  1
  Si  Si30  1  0.709232  0.128362  0.253542  1
  Si  Si31  1  0.341580  0.964567  0.460765  1
  Si  Si32  1  0.842285  0.535272  0.460782  1
  Si  Si33  1  0.786503  0.629803  0.748716  1
  Si  Si34  1  0.216854  0.372946  0.253218  1
  Si  Si35  1  0.656559  0.035035  0.959464  1
