# generated using pymatgen
data_Li2HfS3
_symmetry_space_group_name_H-M   'P 1'
_cell_length_a   6.37584531
_cell_length_b   6.37584504
_cell_length_c   12.28927612
_cell_angle_alpha   85.04382667
_cell_angle_beta   85.04382902
_cell_angle_gamma   120.01315494
_symmetry_Int_Tables_number   1
_chemical_formula_structural   Li2HfS3
_chemical_formula_sum   'Li8 Hf4 S12'
_cell_volume   426.07929924
_cell_formula_units_Z   4
loop_
 _symmetry_equiv_pos_site_id
 _symmetry_equiv_pos_as_xyz
  1  'x, y, z'
loop_
 _atom_site_type_symbol
 _atom_site_label
 _atom_site_symmetry_multiplicity
 _atom_site_fract_x
 _atom_site_fract_y
 _atom_site_fract_z
 _atom_site_occupancy
  Li  Li0  1  0.838079  0.669599  0.499595  1
  Li  Li1  1  0.330401  0.161921  0.000405  1
  Li  Li2  1  0.161921  0.330401  0.500405  1
  Li  Li3  1  0.669599  0.838079  0.999595  1
  Li  Li4  1  0.416961  0.583039  0.750000  1
  Li  Li5  1  0.583039  0.416961  0.250000  1
  Li  Li6  1  0.000000  0.500000  0.000000  1
  Li  Li7  1  0.500000  0.000000  0.500000  1
  Hf  Hf8  1  0.083272  0.916728  0.750000  1
  Hf  Hf9  1  0.916728  0.083272  0.250000  1
  Hf  Hf10  1  0.749850  0.250150  0.750000  1
  Hf  Hf11  1  0.250150  0.749850  0.250000  1
  S  S12  1  0.968992  0.802833  0.129512  1
  S  S13  1  0.197167  0.031008  0.370488  1
  S  S14  1  0.031008  0.197167  0.870488  1
  S  S15  1  0.802833  0.968992  0.629512  1
  S  S16  1  0.109852  0.623164  0.629346  1
  S  S17  1  0.376836  0.890148  0.870654  1
  S  S18  1  0.890148  0.376836  0.370654  1
  S  S19  1  0.623164  0.109852  0.129346  1
  S  S20  1  0.723284  0.542405  0.872348  1
  S  S21  1  0.457595  0.276716  0.627652  1
  S  S22  1  0.276716  0.457595  0.127652  1
  S  S23  1  0.542405  0.723284  0.372348  1
