# generated using pymatgen
data_TbY2Al12Ir3Ru
_symmetry_space_group_name_H-M   'P 1'
_cell_length_a   8.83076807
_cell_length_b   8.82880885
_cell_length_c   9.49568600
_cell_angle_alpha   90.00000000
_cell_angle_beta   90.00000000
_cell_angle_gamma   119.99265864
_symmetry_Int_Tables_number   1
_chemical_formula_structural   TbY2Al12Ir3Ru
_chemical_formula_sum   'Tb2 Y4 Al24 Ir6 Ru2'
_cell_volume   641.19435867
_cell_formula_units_Z   2
loop_
 _symmetry_equiv_pos_site_id
 _symmetry_equiv_pos_as_xyz
  1  'x, y, z'
loop_
 _atom_site_type_symbol
 _atom_site_label
 _atom_site_symmetry_multiplicity
 _atom_site_fract_x
 _atom_site_fract_y
 _atom_site_fract_z
 _atom_site_occupancy
  Tb  Tb0  1  0.191948  0.807956  0.750000  1
  Tb  Tb1  1  0.191948  0.383993  0.750000  1
  Y  Y2  1  0.384183  0.192091  0.250000  1
  Y  Y3  1  0.807912  0.192093  0.250000  1
  Y  Y4  1  0.807912  0.615818  0.250000  1
  Y  Y5  1  0.615800  0.807901  0.750000  1
  Al  Al6  1  0.437706  0.875412  0.250000  1
  Al  Al7  1  0.124542  0.562271  0.250000  1
  Al  Al8  1  0.437706  0.562293  0.250000  1
  Al  Al9  1  0.562377  0.124664  0.750000  1
  Al  Al10  1  0.875299  0.437650  0.750000  1
  Al  Al11  1  0.562377  0.437714  0.750000  1
  Al  Al12  1  0.163082  0.836895  0.423933  1
  Al  Al13  1  0.163082  0.326188  0.423933  1
  Al  Al14  1  0.673837  0.836919  0.423941  1
  Al  Al15  1  0.836899  0.163104  0.576017  1
  Al  Al16  1  0.836899  0.673794  0.576017  1
  Al  Al17  1  0.326169  0.163084  0.576058  1
  Al  Al18  1  0.836899  0.163104  0.923983  1
  Al  Al19  1  0.836899  0.673794  0.923983  1
  Al  Al20  1  0.326169  0.163084  0.923942  1
  Al  Al21  1  0.163082  0.836895  0.076067  1
  Al  Al22  1  0.163082  0.326188  0.076067  1
  Al  Al23  1  0.673837  0.836919  0.076059  1
  Al  Al24  1  0.333384  0.666693  0.528797  1
  Al  Al25  1  0.666717  0.333358  0.471248  1
  Al  Al26  1  0.666717  0.333358  0.028752  1
  Al  Al27  1  0.333384  0.666693  0.971203  1
  Al  Al28  1  0.000023  0.000011  0.250000  1
  Al  Al29  1  0.000125  0.000062  0.750000  1
  Ir  Ir30  1  0.500090  0.000120  0.499909  1
  Ir  Ir31  1  0.999909  0.499955  0.499932  1
  Ir  Ir32  1  0.500090  0.499970  0.499909  1
  Ir  Ir33  1  0.500090  0.000120  0.000091  1
  Ir  Ir34  1  0.999909  0.499955  0.000068  1
  Ir  Ir35  1  0.500090  0.499970  0.000091  1
  Ru  Ru36  1  0.999913  0.999957  0.499757  1
  Ru  Ru37  1  0.999913  0.999957  0.000243  1
