# generated using pymatgen
data_Nd2Y18Si15Hg
_symmetry_space_group_name_H-M   'P 1'
_cell_length_a   7.49985740
_cell_length_b   7.77971269
_cell_length_c   14.76841937
_cell_angle_alpha   89.71913248
_cell_angle_beta   90.00672873
_cell_angle_gamma   89.88897074
_symmetry_Int_Tables_number   1
_chemical_formula_structural   Nd2Y18Si15Hg
_chemical_formula_sum   'Nd2 Y18 Si15 Hg1'
_cell_volume   861.67708539
_cell_formula_units_Z   1
loop_
 _symmetry_equiv_pos_site_id
 _symmetry_equiv_pos_as_xyz
  1  'x, y, z'
loop_
 _atom_site_type_symbol
 _atom_site_label
 _atom_site_symmetry_multiplicity
 _atom_site_fract_x
 _atom_site_fract_y
 _atom_site_fract_z
 _atom_site_occupancy
  Nd  Nd0  1  0.525817  0.570678  0.344163  1
  Nd  Nd1  1  0.026174  0.432013  0.653360  1
  Y  Y2  1  0.822778  0.569392  0.869781  1
  Y  Y3  1  0.306586  0.418634  0.130614  1
  Y  Y4  1  0.182889  0.928882  0.373829  1
  Y  Y5  1  0.682885  0.071226  0.626160  1
  Y  Y6  1  0.183053  0.929031  0.627317  1
  Y  Y7  1  0.682976  0.071809  0.372349  1
  Y  Y8  1  0.825549  0.565626  0.131587  1
  Y  Y9  1  0.309603  0.422029  0.868445  1
  Y  Y10  1  0.643407  0.231190  0.999761  1
  Y  Y11  1  0.145045  0.760677  0.000741  1
  Y  Y12  1  0.351904  0.263912  0.499821  1
  Y  Y13  1  0.851606  0.736797  0.499894  1
  Y  Y14  1  0.470318  0.939649  0.842967  1
  Y  Y15  1  0.970531  0.067707  0.153540  1
  Y  Y16  1  0.468686  0.939550  0.156602  1
  Y  Y17  1  0.969515  0.068103  0.847282  1
  Y  Y18  1  0.530425  0.567572  0.651802  1
  Y  Y19  1  0.029956  0.434391  0.349646  1
  Si  Si20  1  0.019373  0.351721  0.999721  1
  Si  Si21  1  0.479159  0.855535  0.500614  1
  Si  Si22  1  0.977600  0.142996  0.499407  1
  Si  Si23  1  0.647088  0.278512  0.790162  1
  Si  Si24  1  0.151461  0.722711  0.210044  1
  Si  Si25  1  0.353326  0.219773  0.291952  1
  Si  Si26  1  0.854854  0.782908  0.710704  1
  Si  Si27  1  0.359758  0.221883  0.707014  1
  Si  Si28  1  0.860176  0.780538  0.290471  1
  Si  Si29  1  0.642601  0.273363  0.207150  1
  Si  Si30  1  0.147485  0.727849  0.792535  1
  Si  Si31  1  0.777163  0.882186  0.000643  1
  Si  Si32  1  0.260199  0.123632  0.999306  1
  Si  Si33  1  0.235566  0.626527  0.501066  1
  Si  Si34  1  0.734280  0.375407  0.498784  1
  Hg  Hg35  1  0.520209  0.645589  0.000762  1
