# generated using pymatgen
data_K2Ni3N2
_symmetry_space_group_name_H-M   'P 1'
_cell_length_a   6.37439445
_cell_length_b   6.37439517
_cell_length_c   7.40009700
_cell_angle_alpha   90.00000000
_cell_angle_beta   90.00000000
_cell_angle_gamma   114.15622089
_symmetry_Int_Tables_number   1
_chemical_formula_structural   K2Ni3N2
_chemical_formula_sum   'K4 Ni6 N4'
_cell_volume   274.35719030
_cell_formula_units_Z   2
loop_
 _symmetry_equiv_pos_site_id
 _symmetry_equiv_pos_as_xyz
  1  'x, y, z'
loop_
 _atom_site_type_symbol
 _atom_site_label
 _atom_site_symmetry_multiplicity
 _atom_site_fract_x
 _atom_site_fract_y
 _atom_site_fract_z
 _atom_site_occupancy
  K  K0  1  0.672106  0.329563  0.405408  1
  K  K1  1  0.329563  0.672106  0.594592  1
  K  K2  1  0.829563  0.172106  0.905408  1
  K  K3  1  0.172106  0.829563  0.094592  1
  Ni  Ni4  1  0.179250  0.315992  0.260344  1
  Ni  Ni5  1  0.315992  0.179250  0.739656  1
  Ni  Ni6  1  0.815992  0.679250  0.760344  1
  Ni  Ni7  1  0.679250  0.815992  0.239656  1
  Ni  Ni8  1  0.034316  0.034316  0.500000  1
  Ni  Ni9  1  0.534316  0.534316  0.000000  1
  N  N10  1  0.927130  0.062143  0.279979  1
  N  N11  1  0.062143  0.927130  0.720021  1
  N  N12  1  0.562143  0.427130  0.779979  1
  N  N13  1  0.427130  0.562143  0.220021  1
