# generated using pymatgen
data_Rb8Ba4HfSnP8
_symmetry_space_group_name_H-M   'P 1'
_cell_length_a   10.67359727
_cell_length_b   10.65312003
_cell_length_c   8.00683853
_cell_angle_alpha   88.30549505
_cell_angle_beta   88.35059044
_cell_angle_gamma   119.52917166
_symmetry_Int_Tables_number   1
_chemical_formula_structural   Rb8Ba4HfSnP8
_chemical_formula_sum   'Rb8 Ba4 Hf1 Sn1 P8'
_cell_volume   790.84250484
_cell_formula_units_Z   1
loop_
 _symmetry_equiv_pos_site_id
 _symmetry_equiv_pos_as_xyz
  1  'x, y, z'
loop_
 _atom_site_type_symbol
 _atom_site_label
 _atom_site_symmetry_multiplicity
 _atom_site_fract_x
 _atom_site_fract_y
 _atom_site_fract_z
 _atom_site_occupancy
  Rb  Rb0  1  0.056543  0.525936  0.613069  1
  Rb  Rb1  1  0.525873  0.057667  0.114175  1
  Rb  Rb2  1  0.277813  0.133539  0.827455  1
  Rb  Rb3  1  0.872200  0.732619  0.764677  1
  Rb  Rb4  1  0.859141  0.144062  0.799717  1
  Rb  Rb5  1  0.731946  0.872244  0.263081  1
  Rb  Rb6  1  0.134460  0.278120  0.325844  1
  Rb  Rb7  1  0.144412  0.860348  0.298376  1
  Ba  Ba8  1  0.466876  0.933780  0.602484  1
  Ba  Ba9  1  0.468640  0.524000  0.620087  1
  Ba  Ba10  1  0.930449  0.465418  0.108721  1
  Ba  Ba11  1  0.524491  0.464963  0.122627  1
  Hf  Hf12  1  0.335734  0.665834  0.010985  1
  Sn  Sn13  1  0.666255  0.335577  0.506244  1
  P  P14  1  0.670032  0.356644  0.829686  1
  P  P15  1  0.357838  0.670913  0.328624  1
  P  P16  1  0.587653  0.786445  0.873205  1
  P  P17  1  0.208551  0.405484  0.925898  1
  P  P18  1  0.201000  0.788272  0.905574  1
  P  P19  1  0.398524  0.204285  0.423323  1
  P  P20  1  0.790094  0.596548  0.370888  1
  P  P21  1  0.791476  0.197302  0.402758  1
