# generated using pymatgen
data_SrYb(Te3O8)2
_symmetry_space_group_name_H-M   'P 1'
_cell_length_a   6.99236508
_cell_length_b   6.99236519
_cell_length_c   10.23135344
_cell_angle_alpha   66.34509323
_cell_angle_beta   66.34509062
_cell_angle_gamma   49.67792380
_symmetry_Int_Tables_number   1
_chemical_formula_structural   SrYb(Te3O8)2
_chemical_formula_sum   'Sr1 Yb1 Te6 O16'
_cell_volume   342.09315216
_cell_formula_units_Z   1
loop_
 _symmetry_equiv_pos_site_id
 _symmetry_equiv_pos_as_xyz
  1  'x, y, z'
loop_
 _atom_site_type_symbol
 _atom_site_label
 _atom_site_symmetry_multiplicity
 _atom_site_fract_x
 _atom_site_fract_y
 _atom_site_fract_z
 _atom_site_occupancy
  Sr  Sr0  1  0.436568  0.563432  0.250000  1
  Yb  Yb1  1  0.573586  0.426414  0.750000  1
  Te  Te2  1  0.998861  0.007569  0.499487  1
  Te  Te3  1  0.992431  0.001139  0.000513  1
  Te  Te4  1  0.307356  0.113930  0.648840  1
  Te  Te5  1  0.886070  0.692644  0.851160  1
  Te  Te6  1  0.687381  0.870215  0.364828  1
  Te  Te7  1  0.129785  0.312619  0.135172  1
  O  O8  1  0.799375  0.576103  0.083078  1
  O  O9  1  0.423897  0.200625  0.416922  1
  O  O10  1  0.219823  0.426207  0.903815  1
  O  O11  1  0.573793  0.780177  0.596185  1
  O  O12  1  0.183429  0.023863  0.089643  1
  O  O13  1  0.976137  0.816571  0.410357  1
  O  O14  1  0.802888  0.988270  0.902421  1
  O  O15  1  0.011730  0.197112  0.597579  1
  O  O16  1  0.869980  0.308155  0.339500  1
  O  O17  1  0.691845  0.130020  0.160500  1
  O  O18  1  0.145529  0.701471  0.656983  1
  O  O19  1  0.298529  0.854471  0.843017  1
  O  O20  1  0.860366  0.335033  0.877493  1
  O  O21  1  0.664967  0.139634  0.622507  1
  O  O22  1  0.126925  0.661251  0.119491  1
  O  O23  1  0.338749  0.873075  0.380509  1
