# generated using pymatgen
data_Dy4YTmRh18
_symmetry_space_group_name_H-M   'P 1'
_cell_length_a   5.25957800
_cell_length_b   5.25957823
_cell_length_c   17.56238600
_cell_angle_alpha   90.00000000
_cell_angle_beta   90.00000000
_cell_angle_gamma   119.99998600
_symmetry_Int_Tables_number   1
_chemical_formula_structural   Dy4YTmRh18
_chemical_formula_sum   'Dy4 Y1 Tm1 Rh18'
_cell_volume   420.74215797
_cell_formula_units_Z   1
loop_
 _symmetry_equiv_pos_site_id
 _symmetry_equiv_pos_as_xyz
  1  'x, y, z'
loop_
 _atom_site_type_symbol
 _atom_site_label
 _atom_site_symmetry_multiplicity
 _atom_site_fract_x
 _atom_site_fract_y
 _atom_site_fract_z
 _atom_site_occupancy
  Dy  Dy0  1  0.333333  0.666667  0.957818  1
  Dy  Dy1  1  0.666667  0.333333  0.041953  1
  Dy  Dy2  1  0.666667  0.333333  0.458821  1
  Dy  Dy3  1  0.333333  0.666667  0.749561  1
  Y  Y4  1  0.666667  0.333333  0.250314  1
  Tm  Tm5  1  0.333333  0.666667  0.542335  1
  Rh  Rh6  1  0.167635  0.832365  0.375050  1
  Rh  Rh7  1  0.167635  0.335270  0.375050  1
  Rh  Rh8  1  0.664730  0.832365  0.375050  1
  Rh  Rh9  1  0.832496  0.167504  0.625124  1
  Rh  Rh10  1  0.832496  0.664990  0.625124  1
  Rh  Rh11  1  0.335010  0.167504  0.625124  1
  Rh  Rh12  1  0.832782  0.167218  0.873784  1
  Rh  Rh13  1  0.832782  0.665562  0.873784  1
  Rh  Rh14  1  0.334438  0.167218  0.873784  1
  Rh  Rh15  1  0.167091  0.832909  0.125789  1
  Rh  Rh16  1  0.167091  0.334183  0.125789  1
  Rh  Rh17  1  0.665817  0.832909  0.125789  1
  Rh  Rh18  1  0.333333  0.666667  0.250416  1
  Rh  Rh19  1  0.666667  0.333333  0.749496  1
  Rh  Rh20  1  0.000000  0.000000  0.250449  1
  Rh  Rh21  1  0.000000  0.000000  0.749546  1
  Rh  Rh22  1  0.000000  0.000000  0.500154  1
  Rh  Rh23  1  0.000000  0.000000  0.999897  1
