# generated using pymatgen
data_Y2Co3B8Os5
_symmetry_space_group_name_H-M   'P 1'
_cell_length_a   3.97509481
_cell_length_b   7.33577244
_cell_length_c   7.27497975
_cell_angle_alpha   89.06582647
_cell_angle_beta   90.00549792
_cell_angle_gamma   89.77484558
_symmetry_Int_Tables_number   1
_chemical_formula_structural   Y2Co3B8Os5
_chemical_formula_sum   'Y2 Co3 B8 Os5'
_cell_volume   212.11141659
_cell_formula_units_Z   1
loop_
 _symmetry_equiv_pos_site_id
 _symmetry_equiv_pos_as_xyz
  1  'x, y, z'
loop_
 _atom_site_type_symbol
 _atom_site_label
 _atom_site_symmetry_multiplicity
 _atom_site_fract_x
 _atom_site_fract_y
 _atom_site_fract_z
 _atom_site_occupancy
  Y  Y0  1  0.331096  0.248609  0.250830  1
  Y  Y1  1  0.859913  0.756686  0.750059  1
  Co  Co2  1  0.127104  0.363063  0.622421  1
  Co  Co3  1  0.123298  0.119344  0.863333  1
  Co  Co4  1  0.623724  0.126284  0.623839  1
  B  B5  1  0.347825  0.924330  0.020732  1
  B  B6  1  0.347519  0.572028  0.476323  1
  B  B7  1  0.850504  0.527945  0.081738  1
  B  B8  1  0.847275  0.978917  0.424228  1
  B  B9  1  0.627814  0.088944  0.934476  1
  B  B10  1  0.629152  0.404776  0.563988  1
  B  B11  1  0.126529  0.445745  0.914056  1
  B  B12  1  0.128992  0.066118  0.589292  1
  Os  Os13  1  0.623266  0.369116  0.868510  1
  Os  Os14  1  0.851136  0.593973  0.364386  1
  Os  Os15  1  0.851804  0.909352  0.142973  1
  Os  Os16  1  0.351754  0.858732  0.410642  1
  Os  Os17  1  0.351298  0.646036  0.098175  1
