# generated using pymatgen
data_Li2AcSc2Al7
_symmetry_space_group_name_H-M   'P 1'
_cell_length_a   9.30314583
_cell_length_b   9.30314558
_cell_length_c   9.30314500
_cell_angle_alpha   34.71534528
_cell_angle_beta   34.71534748
_cell_angle_gamma   34.71534864
_symmetry_Int_Tables_number   1
_chemical_formula_structural   Li2AcSc2Al7
_chemical_formula_sum   'Li2 Ac1 Sc2 Al7'
_cell_volume   233.05554894
_cell_formula_units_Z   1
loop_
 _symmetry_equiv_pos_site_id
 _symmetry_equiv_pos_as_xyz
  1  'x, y, z'
loop_
 _atom_site_type_symbol
 _atom_site_label
 _atom_site_symmetry_multiplicity
 _atom_site_fract_x
 _atom_site_fract_y
 _atom_site_fract_z
 _atom_site_occupancy
  Li  Li0  1  0.335502  0.335502  0.335502  1
  Li  Li1  1  0.664498  0.664498  0.664498  1
  Ac  Ac2  1  0.000000  0.000000  0.000000  1
  Sc  Sc3  1  0.143356  0.143356  0.143356  1
  Sc  Sc4  1  0.856644  0.856644  0.856644  1
  Al  Al5  1  0.590826  0.590826  0.078229  1
  Al  Al6  1  0.409174  0.921771  0.409174  1
  Al  Al7  1  0.590826  0.078229  0.590826  1
  Al  Al8  1  0.078229  0.590826  0.590826  1
  Al  Al9  1  0.409174  0.409174  0.921771  1
  Al  Al10  1  0.500000  0.500000  0.500000  1
  Al  Al11  1  0.921771  0.409174  0.409174  1
