# generated using pymatgen
data_Np2ReB6
_symmetry_space_group_name_H-M   'P 1'
_cell_length_a   3.62956700
_cell_length_b   9.28008800
_cell_length_c   11.32479800
_cell_angle_alpha   90.00000000
_cell_angle_beta   90.00000000
_cell_angle_gamma   90.00000000
_symmetry_Int_Tables_number   1
_chemical_formula_structural   Np2ReB6
_chemical_formula_sum   'Np8 Re4 B24'
_cell_volume   381.44978675
_cell_formula_units_Z   4
loop_
 _symmetry_equiv_pos_site_id
 _symmetry_equiv_pos_as_xyz
  1  'x, y, z'
loop_
 _atom_site_type_symbol
 _atom_site_label
 _atom_site_symmetry_multiplicity
 _atom_site_fract_x
 _atom_site_fract_y
 _atom_site_fract_z
 _atom_site_occupancy
  Np  Np0  1  0.000000  0.336894  0.406869  1
  Np  Np1  1  0.000000  0.663106  0.593131  1
  Np  Np2  1  0.000000  0.836894  0.093131  1
  Np  Np3  1  0.000000  0.163106  0.906869  1
  Np  Np4  1  0.000000  0.958625  0.400390  1
  Np  Np5  1  0.000000  0.041375  0.599610  1
  Np  Np6  1  0.000000  0.458625  0.099610  1
  Np  Np7  1  0.000000  0.541375  0.900390  1
  Re  Re8  1  0.000000  0.644480  0.319516  1
  Re  Re9  1  0.000000  0.355520  0.680484  1
  Re  Re10  1  0.000000  0.144480  0.180484  1
  Re  Re11  1  0.000000  0.855520  0.819516  1
  B  B12  1  0.500000  0.551412  0.432146  1
  B  B13  1  0.500000  0.448588  0.567854  1
  B  B14  1  0.500000  0.051412  0.067854  1
  B  B15  1  0.500000  0.948588  0.932146  1
  B  B16  1  0.500000  0.743326  0.423792  1
  B  B17  1  0.500000  0.256674  0.576208  1
  B  B18  1  0.500000  0.243326  0.076208  1
  B  B19  1  0.500000  0.756674  0.923792  1
  B  B20  1  0.500000  0.804761  0.274252  1
  B  B21  1  0.500000  0.195239  0.725748  1
  B  B22  1  0.500000  0.304761  0.225748  1
  B  B23  1  0.500000  0.695239  0.774252  1
  B  B24  1  0.500000  0.645531  0.187963  1
  B  B25  1  0.500000  0.354469  0.812037  1
  B  B26  1  0.500000  0.145531  0.312037  1
  B  B27  1  0.500000  0.854469  0.687963  1
  B  B28  1  0.500000  0.987451  0.220268  1
  B  B29  1  0.500000  0.012549  0.779732  1
  B  B30  1  0.500000  0.487451  0.279732  1
  B  B31  1  0.500000  0.512549  0.720268  1
  B  B32  1  0.500000  0.642559  0.039405  1
  B  B33  1  0.500000  0.357441  0.960595  1
  B  B34  1  0.500000  0.142559  0.460595  1
  B  B35  1  0.500000  0.857441  0.539405  1
