# generated using pymatgen
data_YLu3(AlRh)4
_symmetry_space_group_name_H-M   'P 1'
_cell_length_a   4.16874800
_cell_length_b   6.81548425
_cell_length_c   7.91749954
_cell_angle_alpha   90.45304632
_cell_angle_beta   90.00000000
_cell_angle_gamma   90.00000000
_symmetry_Int_Tables_number   1
_chemical_formula_structural   YLu3(AlRh)4
_chemical_formula_sum   'Y1 Lu3 Al4 Rh4'
_cell_volume   224.94525238
_cell_formula_units_Z   1
loop_
 _symmetry_equiv_pos_site_id
 _symmetry_equiv_pos_as_xyz
  1  'x, y, z'
loop_
 _atom_site_type_symbol
 _atom_site_label
 _atom_site_symmetry_multiplicity
 _atom_site_fract_x
 _atom_site_fract_y
 _atom_site_fract_z
 _atom_site_occupancy
  Y  Y0  1  0.250000  0.034296  0.321311  1
  Lu  Lu1  1  0.250000  0.535486  0.177720  1
  Lu  Lu2  1  0.750000  0.464996  0.821217  1
  Lu  Lu3  1  0.750000  0.964258  0.679595  1
  Al  Al4  1  0.250000  0.636158  0.560919  1
  Al  Al5  1  0.750000  0.363456  0.440378  1
  Al  Al6  1  0.750000  0.862302  0.059571  1
  Al  Al7  1  0.250000  0.137933  0.938274  1
  Rh  Rh8  1  0.250000  0.763873  0.878617  1
  Rh  Rh9  1  0.750000  0.240398  0.118830  1
  Rh  Rh10  1  0.750000  0.732000  0.378442  1
  Rh  Rh11  1  0.250000  0.264848  0.625125  1
