# generated using pymatgen
data_Pr2Ho3Er(SbO7)2
_symmetry_space_group_name_H-M   'P 1'
_cell_length_a   6.50662872
_cell_length_b   6.50859712
_cell_length_c   7.60498400
_cell_angle_alpha   90.00000000
_cell_angle_beta   90.00000000
_cell_angle_gamma   109.05264386
_symmetry_Int_Tables_number   1
_chemical_formula_structural   Pr2Ho3Er(SbO7)2
_chemical_formula_sum   'Pr2 Ho3 Er1 Sb2 O14'
_cell_volume   304.42070123
_cell_formula_units_Z   1
loop_
 _symmetry_equiv_pos_site_id
 _symmetry_equiv_pos_as_xyz
  1  'x, y, z'
loop_
 _atom_site_type_symbol
 _atom_site_label
 _atom_site_symmetry_multiplicity
 _atom_site_fract_x
 _atom_site_fract_y
 _atom_site_fract_z
 _atom_site_occupancy
  Pr  Pr0  1  0.500274  0.500391  0.500203  1
  Pr  Pr1  1  0.500274  0.500391  0.999797  1
  Ho  Ho2  1  0.001166  0.530601  0.250000  1
  Ho  Ho3  1  0.469315  0.999037  0.250000  1
  Ho  Ho4  1  0.999013  0.469100  0.750000  1
  Er  Er5  1  0.530511  0.001260  0.750000  1
  Sb  Sb6  1  0.999928  0.999936  0.500282  1
  Sb  Sb7  1  0.999928  0.999936  0.999718  1
  O  O8  1  0.679434  0.932799  0.470547  1
  O  O9  1  0.931514  0.679197  0.529946  1
  O  O10  1  0.679434  0.932799  0.029453  1
  O  O11  1  0.931514  0.679197  0.970054  1
  O  O12  1  0.320380  0.066902  0.530922  1
  O  O13  1  0.068343  0.320488  0.470133  1
  O  O14  1  0.320380  0.066902  0.969078  1
  O  O15  1  0.068343  0.320488  0.029867  1
  O  O16  1  0.930195  0.068842  0.750000  1
  O  O17  1  0.069350  0.931206  0.250000  1
  O  O18  1  0.361735  0.640478  0.750000  1
  O  O19  1  0.638843  0.361131  0.250000  1
  O  O20  1  0.643987  0.354703  0.750000  1
  O  O21  1  0.356138  0.644212  0.250000  1
