# generated using pymatgen
data_TbTh(GaPd2)2
_symmetry_space_group_name_H-M   'P 1'
_cell_length_a   5.78268400
_cell_length_b   7.14618800
_cell_length_c   7.48690600
_cell_angle_alpha   90.00000000
_cell_angle_beta   90.00000000
_cell_angle_gamma   90.00000000
_symmetry_Int_Tables_number   1
_chemical_formula_structural   TbTh(GaPd2)2
_chemical_formula_sum   'Tb2 Th2 Ga4 Pd8'
_cell_volume   309.39000418
_cell_formula_units_Z   2
loop_
 _symmetry_equiv_pos_site_id
 _symmetry_equiv_pos_as_xyz
  1  'x, y, z'
loop_
 _atom_site_type_symbol
 _atom_site_label
 _atom_site_symmetry_multiplicity
 _atom_site_fract_x
 _atom_site_fract_y
 _atom_site_fract_z
 _atom_site_occupancy
  Tb  Tb0  1  0.655230  0.250000  0.966461  1
  Tb  Tb1  1  0.844770  0.250000  0.466461  1
  Th  Th2  1  0.348503  0.750000  0.032939  1
  Th  Th3  1  0.151497  0.750000  0.532939  1
  Ga  Ga4  1  0.652470  0.750000  0.386641  1
  Ga  Ga5  1  0.847530  0.750000  0.886641  1
  Ga  Ga6  1  0.351263  0.250000  0.616569  1
  Ga  Ga7  1  0.148737  0.250000  0.116569  1
  Pd  Pd8  1  0.914449  0.551465  0.184325  1
  Pd  Pd9  1  0.585551  0.948535  0.684325  1
  Pd  Pd10  1  0.086267  0.050539  0.814370  1
  Pd  Pd11  1  0.413733  0.449461  0.314370  1
  Pd  Pd12  1  0.086267  0.449461  0.814370  1
  Pd  Pd13  1  0.413733  0.050539  0.314370  1
  Pd  Pd14  1  0.914449  0.948535  0.184325  1
  Pd  Pd15  1  0.585551  0.551465  0.684325  1
