# generated using pymatgen
data_YbPu2IrCl12
_symmetry_space_group_name_H-M   'P 1'
_cell_length_a   12.95382272
_cell_length_b   12.35674648
_cell_length_c   6.45536655
_cell_angle_alpha   80.41674974
_cell_angle_beta   70.15176917
_cell_angle_gamma   32.29765941
_symmetry_Int_Tables_number   1
_chemical_formula_structural   YbPu2IrCl12
_chemical_formula_sum   'Yb1 Pu2 Ir1 Cl12'
_cell_volume   504.15614979
_cell_formula_units_Z   1
loop_
 _symmetry_equiv_pos_site_id
 _symmetry_equiv_pos_as_xyz
  1  'x, y, z'
loop_
 _atom_site_type_symbol
 _atom_site_label
 _atom_site_symmetry_multiplicity
 _atom_site_fract_x
 _atom_site_fract_y
 _atom_site_fract_z
 _atom_site_occupancy
  Yb  Yb0  1  0.422691  0.422691  0.577309  1
  Pu  Pu1  1  0.837057  0.837057  0.662943  1
  Pu  Pu2  1  0.657336  0.657336  0.842664  1
  Ir  Ir3  1  0.583972  0.583972  0.416028  1
  Cl  Cl4  1  0.714761  0.312660  0.254641  1
  Cl  Cl5  1  0.869018  0.441786  0.117301  1
  Cl  Cl6  1  0.360314  0.801062  0.210225  1
  Cl  Cl7  1  0.441786  0.869018  0.571893  1
  Cl  Cl8  1  0.162409  0.661733  0.345555  1
  Cl  Cl9  1  0.312660  0.714761  0.717937  1
  Cl  Cl10  1  0.527985  0.963759  0.971392  1
  Cl  Cl11  1  0.963759  0.527985  0.536864  1
  Cl  Cl12  1  0.078401  0.605057  0.896644  1
  Cl  Cl13  1  0.801062  0.360314  0.628402  1
  Cl  Cl14  1  0.661733  0.162409  0.830304  1
  Cl  Cl15  1  0.605057  0.078401  0.419897  1
