# generated using pymatgen
data_MoIr4Os2W
_symmetry_space_group_name_H-M   'P 1'
_cell_length_a   5.55628078
_cell_length_b   5.55628197
_cell_length_c   4.41973600
_cell_angle_alpha   90.00000000
_cell_angle_beta   90.00000000
_cell_angle_gamma   120.41695165
_symmetry_Int_Tables_number   1
_chemical_formula_structural   MoIr4Os2W
_chemical_formula_sum   'Mo1 Ir4 Os2 W1'
_cell_volume   117.66718554
_cell_formula_units_Z   1
loop_
 _symmetry_equiv_pos_site_id
 _symmetry_equiv_pos_as_xyz
  1  'x, y, z'
loop_
 _atom_site_type_symbol
 _atom_site_label
 _atom_site_symmetry_multiplicity
 _atom_site_fract_x
 _atom_site_fract_y
 _atom_site_fract_z
 _atom_site_occupancy
  Mo  Mo0  1  0.331799  0.668201  0.750000  1
  Ir  Ir1  1  0.165576  0.332691  0.250000  1
  Ir  Ir2  1  0.667309  0.834424  0.250000  1
  Ir  Ir3  1  0.835087  0.668853  0.750000  1
  Ir  Ir4  1  0.331147  0.164913  0.750000  1
  Os  Os5  1  0.167078  0.832922  0.250000  1
  Os  Os6  1  0.833702  0.166298  0.750000  1
  W  W7  1  0.668301  0.331699  0.250000  1
