# generated using pymatgen
data_Nd10Sn5BiBr2
_symmetry_space_group_name_H-M   'P 1'
_cell_length_a   9.55248003
_cell_length_b   9.55248056
_cell_length_c   6.80921500
_cell_angle_alpha   90.00000000
_cell_angle_beta   90.00000000
_cell_angle_gamma   120.24889159
_symmetry_Int_Tables_number   1
_chemical_formula_structural   Nd10Sn5BiBr2
_chemical_formula_sum   'Nd10 Sn5 Bi1 Br2'
_cell_volume   536.74165165
_cell_formula_units_Z   1
loop_
 _symmetry_equiv_pos_site_id
 _symmetry_equiv_pos_as_xyz
  1  'x, y, z'
loop_
 _atom_site_type_symbol
 _atom_site_label
 _atom_site_symmetry_multiplicity
 _atom_site_fract_x
 _atom_site_fract_y
 _atom_site_fract_z
 _atom_site_occupancy
  Nd  Nd0  1  0.668176  0.330644  0.001316  1
  Nd  Nd1  1  0.330644  0.668176  0.498684  1
  Nd  Nd2  1  0.668176  0.330644  0.498684  1
  Nd  Nd3  1  0.330644  0.668176  0.001316  1
  Nd  Nd4  1  0.733529  0.005053  0.750000  1
  Nd  Nd5  1  0.732060  0.732060  0.250000  1
  Nd  Nd6  1  0.000961  0.268357  0.250000  1
  Nd  Nd7  1  0.005053  0.733529  0.750000  1
  Nd  Nd8  1  0.264114  0.264114  0.750000  1
  Nd  Nd9  1  0.268357  0.000961  0.250000  1
  Sn  Sn10  1  0.999199  0.612586  0.250000  1
  Sn  Sn11  1  0.612586  0.999199  0.250000  1
  Sn  Sn12  1  0.388333  0.001023  0.750000  1
  Sn  Sn13  1  0.001023  0.388333  0.750000  1
  Sn  Sn14  1  0.387360  0.387360  0.250000  1
  Bi  Bi15  1  0.612972  0.612972  0.750000  1
  Br  Br16  1  0.998405  0.998405  0.500387  1
  Br  Br17  1  0.998405  0.998405  0.999613  1
