# generated using pymatgen
data_Er2Zn3Pt4
_symmetry_space_group_name_H-M   'P 1'
_cell_length_a   7.99517797
_cell_length_b   7.99517704
_cell_length_c   7.68871400
_cell_angle_alpha   90.00000000
_cell_angle_beta   90.00000000
_cell_angle_gamma   139.25616566
_symmetry_Int_Tables_number   1
_chemical_formula_structural   Er2Zn3Pt4
_chemical_formula_sum   'Er4 Zn6 Pt8'
_cell_volume   320.78130654
_cell_formula_units_Z   2
loop_
 _symmetry_equiv_pos_site_id
 _symmetry_equiv_pos_as_xyz
  1  'x, y, z'
loop_
 _atom_site_type_symbol
 _atom_site_label
 _atom_site_symmetry_multiplicity
 _atom_site_fract_x
 _atom_site_fract_y
 _atom_site_fract_z
 _atom_site_occupancy
  Er  Er0  1  0.110253  0.889747  0.411177  1
  Er  Er1  1  0.889747  0.110253  0.588823  1
  Er  Er2  1  0.389747  0.610253  0.911177  1
  Er  Er3  1  0.610253  0.389747  0.088823  1
  Zn  Zn4  1  0.000000  0.000000  0.000000  1
  Zn  Zn5  1  0.500000  0.500000  0.500000  1
  Zn  Zn6  1  0.022533  0.477467  0.250000  1
  Zn  Zn7  1  0.477467  0.022533  0.750000  1
  Zn  Zn8  1  0.977467  0.522533  0.750000  1
  Zn  Zn9  1  0.522533  0.977467  0.250000  1
  Pt  Pt10  1  0.194340  0.305660  0.250000  1
  Pt  Pt11  1  0.305660  0.194340  0.750000  1
  Pt  Pt12  1  0.805660  0.694340  0.750000  1
  Pt  Pt13  1  0.694340  0.805660  0.250000  1
  Pt  Pt14  1  0.178919  0.821081  0.027880  1
  Pt  Pt15  1  0.821081  0.178919  0.972120  1
  Pt  Pt16  1  0.321081  0.678919  0.527880  1
  Pt  Pt17  1  0.678919  0.321081  0.472120  1
