# generated using pymatgen
data_YTm2Ta3(B2Ru5)2
_symmetry_space_group_name_H-M   'P 1'
_cell_length_a   9.58581994
_cell_length_b   9.58520864
_cell_length_c   3.11557200
_cell_angle_alpha   90.00000000
_cell_angle_beta   90.00000000
_cell_angle_gamma   90.41087118
_symmetry_Int_Tables_number   1
_chemical_formula_structural   YTm2Ta3(B2Ru5)2
_chemical_formula_sum   'Y1 Tm2 Ta3 B4 Ru10'
_cell_volume   286.25788824
_cell_formula_units_Z   1
loop_
 _symmetry_equiv_pos_site_id
 _symmetry_equiv_pos_as_xyz
  1  'x, y, z'
loop_
 _atom_site_type_symbol
 _atom_site_label
 _atom_site_symmetry_multiplicity
 _atom_site_fract_x
 _atom_site_fract_y
 _atom_site_fract_z
 _atom_site_occupancy
  Y  Y0  1  0.824310  0.674935  0.000000  1
  Tm  Tm1  1  0.175690  0.323878  0.000000  1
  Tm  Tm2  1  0.325532  0.825782  0.000000  1
  Ta  Ta3  1  0.675650  0.175678  0.000000  1
  Ta  Ta4  1  0.497581  0.502579  0.000000  1
  Ta  Ta5  1  0.003042  0.998588  0.000000  1
  B  B6  1  0.622199  0.881138  0.000000  1
  B  B7  1  0.380265  0.123006  0.000000  1
  B  B8  1  0.120293  0.619272  0.000000  1
  B  B9  1  0.876922  0.376051  0.000000  1
  Ru  Ru10  1  0.569282  0.722411  0.500000  1
  Ru  Ru11  1  0.439707  0.280409  0.500000  1
  Ru  Ru12  1  0.071455  0.780976  0.500000  1
  Ru  Ru13  1  0.916611  0.213400  0.500000  1
  Ru  Ru14  1  0.280896  0.569507  0.500000  1
  Ru  Ru15  1  0.713239  0.415172  0.500000  1
  Ru  Ru16  1  0.221407  0.071750  0.500000  1
  Ru  Ru17  1  0.779774  0.941635  0.500000  1
  Ru  Ru18  1  0.508222  0.009183  0.500000  1
  Ru  Ru19  1  0.997926  0.494650  0.500000  1
