# generated using pymatgen
data_Dy4Ga18Ir5Au
_symmetry_space_group_name_H-M   'P 1'
_cell_length_a   7.63440604
_cell_length_b   7.63440554
_cell_length_c   9.49400925
_cell_angle_alpha   89.98697475
_cell_angle_beta   89.98697903
_cell_angle_gamma   119.88321243
_symmetry_Int_Tables_number   1
_chemical_formula_structural   Dy4Ga18Ir5Au
_chemical_formula_sum   'Dy4 Ga18 Ir5 Au1'
_cell_volume   479.77830550
_cell_formula_units_Z   1
loop_
 _symmetry_equiv_pos_site_id
 _symmetry_equiv_pos_as_xyz
  1  'x, y, z'
loop_
 _atom_site_type_symbol
 _atom_site_label
 _atom_site_symmetry_multiplicity
 _atom_site_fract_x
 _atom_site_fract_y
 _atom_site_fract_z
 _atom_site_occupancy
  Dy  Dy0  1  0.994168  0.666418  0.251001  1
  Dy  Dy1  1  0.000422  0.329757  0.749062  1
  Dy  Dy2  1  0.670243  0.999578  0.250938  1
  Dy  Dy3  1  0.333582  0.005832  0.748999  1
  Ga  Ga4  1  0.127007  0.123802  0.251104  1
  Ga  Ga5  1  0.876198  0.872993  0.748896  1
  Ga  Ga6  1  0.009789  0.334496  0.085149  1
  Ga  Ga7  1  0.010918  0.674516  0.915891  1
  Ga  Ga8  1  0.003123  0.665848  0.578901  1
  Ga  Ga9  1  0.334152  0.996877  0.421099  1
  Ga  Ga10  1  0.998588  0.334504  0.419972  1
  Ga  Ga11  1  0.665496  0.001412  0.580028  1
  Ga  Ga12  1  0.665504  0.990211  0.914851  1
  Ga  Ga13  1  0.325484  0.989082  0.084109  1
  Ga  Ga14  1  0.329359  0.330279  0.564254  1
  Ga  Ga15  1  0.669721  0.670641  0.435746  1
  Ga  Ga16  1  0.668330  0.676221  0.072105  1
  Ga  Ga17  1  0.323779  0.331670  0.927895  1
  Ga  Ga18  1  0.341188  0.550138  0.251621  1
  Ga  Ga19  1  0.660145  0.460590  0.742910  1
  Ga  Ga20  1  0.539410  0.339855  0.257090  1
  Ga  Ga21  1  0.449862  0.658812  0.748379  1
  Ir  Ir22  1  0.330135  0.669865  0.000000  1
  Ir  Ir23  1  0.328652  0.671348  0.500000  1
  Ir  Ir24  1  0.672127  0.327873  0.500000  1
  Ir  Ir25  1  0.000409  0.999591  0.000000  1
  Ir  Ir26  1  0.999694  0.000306  0.500000  1
  Au  Au27  1  0.672514  0.327486  0.000000  1
