# generated using pymatgen
data_CaSm2Ti2Hg(SbO7)2
_symmetry_space_group_name_H-M   'P 1'
_cell_length_a   7.34614400
_cell_length_b   7.34614400
_cell_length_c   10.39909200
_cell_angle_alpha   90.00000000
_cell_angle_beta   90.00000000
_cell_angle_gamma   90.00000000
_symmetry_Int_Tables_number   1
_chemical_formula_structural   CaSm2Ti2Hg(SbO7)2
_chemical_formula_sum   'Ca2 Sm4 Ti4 Hg2 Sb4 O28'
_cell_volume   561.19564838
_cell_formula_units_Z   2
loop_
 _symmetry_equiv_pos_site_id
 _symmetry_equiv_pos_as_xyz
  1  'x, y, z'
loop_
 _atom_site_type_symbol
 _atom_site_label
 _atom_site_symmetry_multiplicity
 _atom_site_fract_x
 _atom_site_fract_y
 _atom_site_fract_z
 _atom_site_occupancy
  Ca  Ca0  1  0.741703  0.500000  0.750000  1
  Ca  Ca1  1  0.258297  0.500000  0.250000  1
  Sm  Sm2  1  0.000000  0.742685  0.000000  1
  Sm  Sm3  1  0.266148  0.000000  0.250000  1
  Sm  Sm4  1  0.000000  0.257315  0.500000  1
  Sm  Sm5  1  0.733852  0.000000  0.750000  1
  Ti  Ti6  1  0.760847  0.000000  0.250000  1
  Ti  Ti7  1  0.000000  0.762271  0.500000  1
  Ti  Ti8  1  0.239153  0.000000  0.750000  1
  Ti  Ti9  1  0.000000  0.237729  0.000000  1
  Hg  Hg10  1  0.500000  0.747855  0.000000  1
  Hg  Hg11  1  0.500000  0.252145  0.500000  1
  Sb  Sb12  1  0.240707  0.500000  0.750000  1
  Sb  Sb13  1  0.500000  0.752673  0.500000  1
  Sb  Sb14  1  0.500000  0.247327  0.000000  1
  Sb  Sb15  1  0.759293  0.500000  0.250000  1
  O  O16  1  0.261091  0.750805  0.119935  1
  O  O17  1  0.555583  0.938152  0.365721  1
  O  O18  1  0.738909  0.249195  0.619935  1
  O  O19  1  0.954321  0.951370  0.376049  1
  O  O20  1  0.047300  0.450244  0.880201  1
  O  O21  1  0.045679  0.048630  0.876049  1
  O  O22  1  0.045679  0.951370  0.623951  1
  O  O23  1  0.250241  0.241573  0.075824  1
  O  O24  1  0.223752  0.248349  0.680564  1
  O  O25  1  0.250241  0.758427  0.424176  1
  O  O26  1  0.449693  0.443823  0.869712  1
  O  O27  1  0.444417  0.061848  0.865721  1
  O  O28  1  0.444417  0.938152  0.634279  1
  O  O29  1  0.550307  0.556177  0.369712  1
  O  O30  1  0.555583  0.061848  0.134279  1
  O  O31  1  0.550307  0.443823  0.130288  1
  O  O32  1  0.749759  0.758427  0.575824  1
  O  O33  1  0.738909  0.750805  0.880065  1
  O  O34  1  0.776248  0.248349  0.319436  1
  O  O35  1  0.776248  0.751651  0.180564  1
  O  O36  1  0.749759  0.241573  0.924176  1
  O  O37  1  0.952700  0.549756  0.380201  1
  O  O38  1  0.952700  0.450244  0.119799  1
  O  O39  1  0.954321  0.048630  0.123951  1
  O  O40  1  0.047300  0.549756  0.619799  1
  O  O41  1  0.261091  0.249195  0.380065  1
  O  O42  1  0.223752  0.751651  0.819436  1
  O  O43  1  0.449693  0.556177  0.630288  1
