# generated using pymatgen
data_Sr3UN4
_symmetry_space_group_name_H-M   'P 1'
_cell_length_a   7.25083610
_cell_length_b   9.70858210
_cell_length_c   6.45615470
_cell_angle_alpha   28.99182935
_cell_angle_beta   55.83733945
_cell_angle_gamma   41.68192119
_symmetry_Int_Tables_number   1
_chemical_formula_structural   Sr3UN4
_chemical_formula_sum   'Sr3 U1 N4'
_cell_volume   140.43007715
_cell_formula_units_Z   1
loop_
 _symmetry_equiv_pos_site_id
 _symmetry_equiv_pos_as_xyz
  1  'x, y, z'
loop_
 _atom_site_type_symbol
 _atom_site_label
 _atom_site_symmetry_multiplicity
 _atom_site_fract_x
 _atom_site_fract_y
 _atom_site_fract_z
 _atom_site_occupancy
  Sr  Sr0  1  0.250000  0.500000  0.000000  1
  Sr  Sr1  1  0.750000  0.500000  0.000000  1
  Sr  Sr2  1  0.500000  0.000000  0.000000  1
  U  U3  1  0.000000  0.000000  0.000000  1
  N  N4  1  0.500000  0.500000  0.500000  1
  N  N5  1  0.186773  0.000000  0.626453  1
  N  N6  1  0.000000  0.500000  0.500000  1
  N  N7  1  0.813227  0.000000  0.373547  1
