# generated using pymatgen
data_CeMn9Si4
_symmetry_space_group_name_H-M   'P 1'
_cell_length_a   8.04861804
_cell_length_b   8.04870009
_cell_length_c   8.04700421
_cell_angle_alpha   121.65372767
_cell_angle_beta   121.65169789
_cell_angle_gamma   87.17140210
_symmetry_Int_Tables_number   1
_chemical_formula_structural   CeMn9Si4
_chemical_formula_sum   'Ce2 Mn18 Si8'
_cell_volume   358.88938016
_cell_formula_units_Z   2
loop_
 _symmetry_equiv_pos_site_id
 _symmetry_equiv_pos_as_xyz
  1  'x, y, z'
loop_
 _atom_site_type_symbol
 _atom_site_label
 _atom_site_symmetry_multiplicity
 _atom_site_fract_x
 _atom_site_fract_y
 _atom_site_fract_z
 _atom_site_occupancy
  Ce  Ce0  1  0.750042  0.750002  0.000034  1
  Ce  Ce1  1  0.249958  0.249998  0.999966  1
  Mn  Mn2  1  0.058374  0.190228  0.248613  1
  Mn  Mn3  1  0.941626  0.809772  0.751387  1
  Mn  Mn4  1  0.558430  0.309606  0.868018  1
  Mn  Mn5  1  0.441570  0.690394  0.131982  1
  Mn  Mn6  1  0.809678  0.058439  0.868102  1
  Mn  Mn7  1  0.190322  0.941561  0.131898  1
  Mn  Mn8  1  0.690179  0.558392  0.248560  1
  Mn  Mn9  1  0.309821  0.441608  0.751440  1
  Mn  Mn10  1  0.443118  0.943143  0.740917  1
  Mn  Mn11  1  0.202199  0.702193  0.259054  1
  Mn  Mn12  1  0.942946  0.202146  0.499995  1
  Mn  Mn13  1  0.702167  0.442952  0.500029  1
  Mn  Mn14  1  0.556882  0.056857  0.259083  1
  Mn  Mn15  1  0.797801  0.297807  0.740946  1
  Mn  Mn16  1  0.057054  0.797854  0.500005  1
  Mn  Mn17  1  0.297833  0.557048  0.499971  1
  Mn  Mn18  1  0.000000  0.500000  0.500000  1
  Mn  Mn19  1  0.500000  0.000000  0.500000  1
  Si  Si20  1  0.053797  0.553793  0.852165  1
  Si  Si21  1  0.701668  0.201652  0.147863  1
  Si  Si22  1  0.553613  0.701963  0.499982  1
  Si  Si23  1  0.201946  0.053612  0.499991  1
  Si  Si24  1  0.946203  0.446207  0.147835  1
  Si  Si25  1  0.298332  0.798348  0.852137  1
  Si  Si26  1  0.446387  0.298037  0.500018  1
  Si  Si27  1  0.798054  0.946388  0.500009  1
