# generated using pymatgen
data_Ho3ErGa16FeCo2
_symmetry_space_group_name_H-M   'P 1'
_cell_length_a   6.01705000
_cell_length_b   6.01471700
_cell_length_c   11.10141400
_cell_angle_alpha   90.00000000
_cell_angle_beta   90.00000000
_cell_angle_gamma   90.00000000
_symmetry_Int_Tables_number   1
_chemical_formula_structural   Ho3ErGa16FeCo2
_chemical_formula_sum   'Ho3 Er1 Ga16 Fe1 Co2'
_cell_volume   401.76964133
_cell_formula_units_Z   1
loop_
 _symmetry_equiv_pos_site_id
 _symmetry_equiv_pos_as_xyz
  1  'x, y, z'
loop_
 _atom_site_type_symbol
 _atom_site_label
 _atom_site_symmetry_multiplicity
 _atom_site_fract_x
 _atom_site_fract_y
 _atom_site_fract_z
 _atom_site_occupancy
  Ho  Ho0  1  0.000000  0.500000  0.193761  1
  Ho  Ho1  1  0.000000  0.500000  0.806289  1
  Ho  Ho2  1  0.500000  0.000000  0.806274  1
  Er  Er3  1  0.500000  0.000000  0.193742  1
  Ga  Ga4  1  0.000000  0.000000  0.217953  1
  Ga  Ga5  1  0.000000  0.000000  0.782018  1
  Ga  Ga6  1  0.500000  0.500000  0.196573  1
  Ga  Ga7  1  0.500000  0.500000  0.803426  1
  Ga  Ga8  1  0.281051  0.280792  0.000115  1
  Ga  Ga9  1  0.718949  0.719208  0.000115  1
  Ga  Ga10  1  0.281051  0.719208  0.000115  1
  Ga  Ga11  1  0.718949  0.280792  0.000115  1
  Ga  Ga12  1  0.249893  0.249588  0.384063  1
  Ga  Ga13  1  0.750107  0.750412  0.384063  1
  Ga  Ga14  1  0.249787  0.750296  0.615828  1
  Ga  Ga15  1  0.750213  0.249704  0.615828  1
  Ga  Ga16  1  0.750213  0.750296  0.615828  1
  Ga  Ga17  1  0.249787  0.249704  0.615828  1
  Ga  Ga18  1  0.249893  0.750412  0.384063  1
  Ga  Ga19  1  0.750107  0.249588  0.384063  1
  Fe  Fe20  1  0.000000  0.000000  0.000012  1
  Co  Co21  1  0.000000  0.500000  0.499978  1
  Co  Co22  1  0.500000  0.000000  0.499951  1
