# generated using pymatgen
data_Y2Th2Ga4RuRh3
_symmetry_space_group_name_H-M   'P 1'
_cell_length_a   4.30048000
_cell_length_b   6.96917298
_cell_length_c   7.97048247
_cell_angle_alpha   89.59691407
_cell_angle_beta   90.00000000
_cell_angle_gamma   90.00000000
_symmetry_Int_Tables_number   1
_chemical_formula_structural   Y2Th2Ga4RuRh3
_chemical_formula_sum   'Y2 Th2 Ga4 Ru1 Rh3'
_cell_volume   238.87573684
_cell_formula_units_Z   1
loop_
 _symmetry_equiv_pos_site_id
 _symmetry_equiv_pos_as_xyz
  1  'x, y, z'
loop_
 _atom_site_type_symbol
 _atom_site_label
 _atom_site_symmetry_multiplicity
 _atom_site_fract_x
 _atom_site_fract_y
 _atom_site_fract_z
 _atom_site_occupancy
  Y  Y0  1  0.750000  0.034599  0.692628  1
  Y  Y1  1  0.750000  0.534523  0.808442  1
  Th  Th2  1  0.250000  0.965987  0.316285  1
  Th  Th3  1  0.250000  0.471237  0.180118  1
  Ga  Ga4  1  0.250000  0.354221  0.573293  1
  Ga  Ga5  1  0.250000  0.852205  0.926101  1
  Ga  Ga6  1  0.750000  0.643440  0.441096  1
  Ga  Ga7  1  0.750000  0.142690  0.059251  1
  Ru  Ru8  1  0.750000  0.759162  0.122705  1
  Rh  Rh9  1  0.250000  0.239969  0.890282  1
  Rh  Rh10  1  0.250000  0.740864  0.609107  1
  Rh  Rh11  1  0.750000  0.261102  0.380692  1
