# generated using pymatgen
data_Fe3Sb11TePt
_symmetry_space_group_name_H-M   'P 1'
_cell_length_a   8.00427067
_cell_length_b   7.99653076
_cell_length_c   7.99509771
_cell_angle_alpha   109.29349674
_cell_angle_beta   109.43018724
_cell_angle_gamma   109.69912696
_symmetry_Int_Tables_number   1
_chemical_formula_structural   Fe3Sb11TePt
_chemical_formula_sum   'Fe3 Sb11 Te1 Pt1'
_cell_volume   393.88730970
_cell_formula_units_Z   1
loop_
 _symmetry_equiv_pos_site_id
 _symmetry_equiv_pos_as_xyz
  1  'x, y, z'
loop_
 _atom_site_type_symbol
 _atom_site_label
 _atom_site_symmetry_multiplicity
 _atom_site_fract_x
 _atom_site_fract_y
 _atom_site_fract_z
 _atom_site_occupancy
  Fe  Fe0  1  0.500220  0.998261  0.999568  1
  Fe  Fe1  1  0.998561  0.998992  0.500890  1
  Fe  Fe2  1  0.002295  0.500294  0.000220  1
  Sb  Sb3  1  0.854929  0.502324  0.668642  1
  Sb  Sb4  1  0.504632  0.668544  0.855565  1
  Sb  Sb5  1  0.672083  0.167906  0.838406  1
  Sb  Sb6  1  0.839783  0.168985  0.327461  1
  Sb  Sb7  1  0.161760  0.829290  0.670374  1
  Sb  Sb8  1  0.173144  0.331448  0.840303  1
  Sb  Sb9  1  0.145502  0.494662  0.329926  1
  Sb  Sb10  1  0.330687  0.145204  0.496486  1
  Sb  Sb11  1  0.495460  0.328222  0.145304  1
  Sb  Sb12  1  0.319406  0.840145  0.158952  1
  Sb  Sb13  1  0.830887  0.669405  0.160203  1
  Te  Te14  1  0.670083  0.857185  0.506730  1
  Pt  Pt15  1  0.500569  0.499132  0.500969  1
