# generated using pymatgen
data_Y7Er3Si5Ge
_symmetry_space_group_name_H-M   'P 1'
_cell_length_a   8.44292000
_cell_length_b   8.44459170
_cell_length_c   6.34406200
_cell_angle_alpha   89.99814944
_cell_angle_beta   90.00014012
_cell_angle_gamma   119.99466572
_symmetry_Int_Tables_number   1
_chemical_formula_structural   Y7Er3Si5Ge
_chemical_formula_sum   'Y7 Er3 Si5 Ge1'
_cell_volume   391.73531204
_cell_formula_units_Z   1
loop_
 _symmetry_equiv_pos_site_id
 _symmetry_equiv_pos_as_xyz
  1  'x, y, z'
loop_
 _atom_site_type_symbol
 _atom_site_label
 _atom_site_symmetry_multiplicity
 _atom_site_fract_x
 _atom_site_fract_y
 _atom_site_fract_z
 _atom_site_occupancy
  Y  Y0  1  0.998696  0.755505  0.750298  1
  Y  Y1  1  0.999821  0.243430  0.249683  1
  Y  Y2  1  0.756474  0.756466  0.249679  1
  Y  Y3  1  0.757448  0.000076  0.750306  1
  Y  Y4  1  0.243264  0.244397  0.750319  1
  Y  Y5  1  0.243179  0.000081  0.249695  1
  Y  Y6  1  0.333173  0.665724  0.499302  1
  Er  Er7  1  0.667491  0.334303  0.000701  1
  Er  Er8  1  0.667467  0.334300  0.499284  1
  Er  Er9  1  0.333159  0.665695  0.000698  1
  Si  Si10  1  0.395182  0.394380  0.249022  1
  Si  Si11  1  0.999328  0.604871  0.249036  1
  Si  Si12  1  0.999204  0.394449  0.750949  1
  Si  Si13  1  0.605482  0.604806  0.750958  1
  Si  Si14  1  0.605690  0.000729  0.249047  1
  Ge  Ge15  1  0.394939  0.000791  0.751023  1
