# generated using pymatgen
data_Pr4LuZnSn3
_symmetry_space_group_name_H-M   'P 1'
_cell_length_a   7.90787800
_cell_length_b   8.68269700
_cell_length_c   15.96396600
_cell_angle_alpha   90.00000000
_cell_angle_beta   90.00000000
_cell_angle_gamma   90.00000000
_symmetry_Int_Tables_number   1
_chemical_formula_structural   Pr4LuZnSn3
_chemical_formula_sum   'Pr16 Lu4 Zn4 Sn12'
_cell_volume   1096.11318138
_cell_formula_units_Z   4
loop_
 _symmetry_equiv_pos_site_id
 _symmetry_equiv_pos_as_xyz
  1  'x, y, z'
loop_
 _atom_site_type_symbol
 _atom_site_label
 _atom_site_symmetry_multiplicity
 _atom_site_fract_x
 _atom_site_fract_y
 _atom_site_fract_z
 _atom_site_occupancy
  Pr  Pr0  1  0.666329  0.173868  0.630057  1
  Pr  Pr1  1  0.166329  0.326132  0.869943  1
  Pr  Pr2  1  0.333671  0.826132  0.130057  1
  Pr  Pr3  1  0.833671  0.673868  0.369943  1
  Pr  Pr4  1  0.333671  0.826132  0.369943  1
  Pr  Pr5  1  0.833671  0.673868  0.130057  1
  Pr  Pr6  1  0.666329  0.173868  0.869943  1
  Pr  Pr7  1  0.166329  0.326132  0.630057  1
  Pr  Pr8  1  0.503838  0.688451  0.592596  1
  Pr  Pr9  1  0.003838  0.811549  0.907404  1
  Pr  Pr10  1  0.496162  0.311549  0.092596  1
  Pr  Pr11  1  0.996162  0.188451  0.407404  1
  Pr  Pr12  1  0.496162  0.311549  0.407404  1
  Pr  Pr13  1  0.996162  0.188451  0.092596  1
  Pr  Pr14  1  0.503838  0.688451  0.907404  1
  Pr  Pr15  1  0.003838  0.811549  0.592596  1
  Lu  Lu16  1  0.818825  0.514245  0.750000  1
  Lu  Lu17  1  0.318825  0.985755  0.750000  1
  Lu  Lu18  1  0.181175  0.485755  0.250000  1
  Lu  Lu19  1  0.681175  0.014245  0.250000  1
  Zn  Zn20  1  0.466725  0.400941  0.750000  1
  Zn  Zn21  1  0.966725  0.099059  0.750000  1
  Zn  Zn22  1  0.533275  0.599059  0.250000  1
  Zn  Zn23  1  0.033275  0.900941  0.250000  1
  Sn  Sn24  1  0.680161  0.967996  0.459906  1
  Sn  Sn25  1  0.180161  0.532004  0.040094  1
  Sn  Sn26  1  0.319839  0.032004  0.959906  1
  Sn  Sn27  1  0.819839  0.467996  0.540094  1
  Sn  Sn28  1  0.319839  0.032004  0.540094  1
  Sn  Sn29  1  0.819839  0.467996  0.959906  1
  Sn  Sn30  1  0.680161  0.967996  0.040094  1
  Sn  Sn31  1  0.180161  0.532004  0.459906  1
  Sn  Sn32  1  0.708882  0.864518  0.750000  1
  Sn  Sn33  1  0.208882  0.635482  0.750000  1
  Sn  Sn34  1  0.291118  0.135482  0.250000  1
  Sn  Sn35  1  0.791118  0.364518  0.250000  1
