# generated using pymatgen
data_Dy6Al24ZnFe2Ru4Rh
_symmetry_space_group_name_H-M   'P 1'
_cell_length_a   8.74268800
_cell_length_b   8.74268784
_cell_length_c   9.51149300
_cell_angle_alpha   90.00000000
_cell_angle_beta   90.00000000
_cell_angle_gamma   119.77000548
_symmetry_Int_Tables_number   1
_chemical_formula_structural   Dy6Al24ZnFe2Ru4Rh
_chemical_formula_sum   'Dy6 Al24 Zn1 Fe2 Ru4 Rh1'
_cell_volume   631.06069190
_cell_formula_units_Z   1
loop_
 _symmetry_equiv_pos_site_id
 _symmetry_equiv_pos_as_xyz
  1  'x, y, z'
loop_
 _atom_site_type_symbol
 _atom_site_label
 _atom_site_symmetry_multiplicity
 _atom_site_fract_x
 _atom_site_fract_y
 _atom_site_fract_z
 _atom_site_occupancy
  Dy  Dy0  1  0.195241  0.804759  0.248672  1
  Dy  Dy1  1  0.189935  0.385517  0.252523  1
  Dy  Dy2  1  0.614483  0.810065  0.252523  1
  Dy  Dy3  1  0.804759  0.195241  0.751328  1
  Dy  Dy4  1  0.810065  0.614483  0.747477  1
  Dy  Dy5  1  0.385517  0.189935  0.747477  1
  Al  Al6  1  0.562837  0.437163  0.245662  1
  Al  Al7  1  0.561812  0.123618  0.251065  1
  Al  Al8  1  0.876382  0.438188  0.251065  1
  Al  Al9  1  0.437163  0.562837  0.754338  1
  Al  Al10  1  0.438188  0.876382  0.748935  1
  Al  Al11  1  0.123618  0.561812  0.748935  1
  Al  Al12  1  0.316288  0.149423  0.421537  1
  Al  Al13  1  0.839508  0.160492  0.422427  1
  Al  Al14  1  0.850577  0.683712  0.421537  1
  Al  Al15  1  0.683712  0.850577  0.578463  1
  Al  Al16  1  0.160492  0.839508  0.577573  1
  Al  Al17  1  0.149423  0.316288  0.578463  1
  Al  Al18  1  0.682065  0.842591  0.924811  1
  Al  Al19  1  0.159969  0.840031  0.923280  1
  Al  Al20  1  0.157409  0.317935  0.924811  1
  Al  Al21  1  0.317935  0.157409  0.075189  1
  Al  Al22  1  0.840031  0.159969  0.076720  1
  Al  Al23  1  0.842591  0.682065  0.075189  1
  Al  Al24  1  0.670684  0.329316  0.519514  1
  Al  Al25  1  0.329316  0.670684  0.480486  1
  Al  Al26  1  0.332540  0.667460  0.018296  1
  Al  Al27  1  0.667460  0.332540  0.981704  1
  Al  Al28  1  0.998786  0.001214  0.249559  1
  Al  Al29  1  0.001214  0.998786  0.750441  1
  Zn  Zn30  1  0.500000  0.500000  0.500000  1
  Fe  Fe31  1  0.000000  0.000000  0.500000  1
  Fe  Fe32  1  0.000000  0.000000  0.000000  1
  Ru  Ru33  1  0.500000  0.000000  0.500000  1
  Ru  Ru34  1  0.000000  0.500000  0.500000  1
  Ru  Ru35  1  0.500000  0.000000  0.000000  1
  Ru  Ru36  1  0.000000  0.500000  0.000000  1
  Rh  Rh37  1  0.500000  0.500000  0.000000  1
