# generated using pymatgen
data_Ta2Mn3As
_symmetry_space_group_name_H-M   'P 1'
_cell_length_a   4.91546700
_cell_length_b   4.91546700
_cell_length_c   7.94211100
_cell_angle_alpha   90.00000000
_cell_angle_beta   90.00000000
_cell_angle_gamma   120.00000676
_symmetry_Int_Tables_number   1
_chemical_formula_structural   Ta2Mn3As
_chemical_formula_sum   'Ta4 Mn6 As2'
_cell_volume   166.18664637
_cell_formula_units_Z   2
loop_
 _symmetry_equiv_pos_site_id
 _symmetry_equiv_pos_as_xyz
  1  'x, y, z'
loop_
 _atom_site_type_symbol
 _atom_site_label
 _atom_site_symmetry_multiplicity
 _atom_site_fract_x
 _atom_site_fract_y
 _atom_site_fract_z
 _atom_site_occupancy
  Ta  Ta0  1  0.333333  0.666667  0.934591  1
  Ta  Ta1  1  0.666667  0.333333  0.065409  1
  Ta  Ta2  1  0.666667  0.333333  0.434591  1
  Ta  Ta3  1  0.333333  0.666667  0.565409  1
  Mn  Mn4  1  0.827351  0.172649  0.750000  1
  Mn  Mn5  1  0.827351  0.654703  0.750000  1
  Mn  Mn6  1  0.345297  0.172649  0.750000  1
  Mn  Mn7  1  0.172649  0.827351  0.250000  1
  Mn  Mn8  1  0.172649  0.345297  0.250000  1
  Mn  Mn9  1  0.654703  0.827351  0.250000  1
  As  As10  1  0.000000  0.000000  0.000000  1
  As  As11  1  0.000000  0.000000  0.500000  1
