# generated using pymatgen
data_Tb5Sn2Os
_symmetry_space_group_name_H-M   'P 1'
_cell_length_a   7.84053700
_cell_length_b   9.09454800
_cell_length_c   12.28775200
_cell_angle_alpha   90.00000000
_cell_angle_beta   90.00000000
_cell_angle_gamma   90.00000000
_symmetry_Int_Tables_number   1
_chemical_formula_structural   Tb5Sn2Os
_chemical_formula_sum   'Tb20 Sn8 Os4'
_cell_volume   876.19216553
_cell_formula_units_Z   4
loop_
 _symmetry_equiv_pos_site_id
 _symmetry_equiv_pos_as_xyz
  1  'x, y, z'
loop_
 _atom_site_type_symbol
 _atom_site_label
 _atom_site_symmetry_multiplicity
 _atom_site_fract_x
 _atom_site_fract_y
 _atom_site_fract_z
 _atom_site_occupancy
  Tb  Tb0  1  0.845255  0.750000  0.785806  1
  Tb  Tb1  1  0.154745  0.250000  0.214194  1
  Tb  Tb2  1  0.345255  0.250000  0.714194  1
  Tb  Tb3  1  0.654745  0.750000  0.285806  1
  Tb  Tb4  1  0.376149  0.750000  0.697955  1
  Tb  Tb5  1  0.623851  0.250000  0.302045  1
  Tb  Tb6  1  0.876149  0.250000  0.802045  1
  Tb  Tb7  1  0.123851  0.750000  0.197955  1
  Tb  Tb8  1  0.955427  0.750000  0.502874  1
  Tb  Tb9  1  0.044573  0.250000  0.497126  1
  Tb  Tb10  1  0.455427  0.250000  0.997126  1
  Tb  Tb11  1  0.544573  0.750000  0.002874  1
  Tb  Tb12  1  0.677388  0.035444  0.569576  1
  Tb  Tb13  1  0.322612  0.964556  0.430424  1
  Tb  Tb14  1  0.177388  0.964556  0.930424  1
  Tb  Tb15  1  0.322612  0.535444  0.430424  1
  Tb  Tb16  1  0.822612  0.035444  0.069576  1
  Tb  Tb17  1  0.677388  0.464556  0.569576  1
  Tb  Tb18  1  0.822612  0.464556  0.069576  1
  Tb  Tb19  1  0.177388  0.535444  0.930424  1
  Sn  Sn20  1  0.575054  0.494979  0.830864  1
  Sn  Sn21  1  0.424946  0.505021  0.169136  1
  Sn  Sn22  1  0.075054  0.505021  0.669136  1
  Sn  Sn23  1  0.424946  0.994979  0.169136  1
  Sn  Sn24  1  0.924946  0.494979  0.330864  1
  Sn  Sn25  1  0.575054  0.005021  0.830864  1
  Sn  Sn26  1  0.924946  0.005021  0.330864  1
  Sn  Sn27  1  0.075054  0.994979  0.669136  1
  Os  Os28  1  0.575760  0.750000  0.508941  1
  Os  Os29  1  0.424240  0.250000  0.491059  1
  Os  Os30  1  0.075760  0.250000  0.991059  1
  Os  Os31  1  0.924240  0.750000  0.008941  1
