# generated using pymatgen
data_Rb6Tm3RhBr18
_symmetry_space_group_name_H-M   'P 1'
_cell_length_a   7.78985200
_cell_length_b   7.78985137
_cell_length_c   19.90345400
_cell_angle_alpha   90.00000000
_cell_angle_beta   90.00000000
_cell_angle_gamma   120.00000266
_symmetry_Int_Tables_number   1
_chemical_formula_structural   Rb6Tm3RhBr18
_chemical_formula_sum   'Rb6 Tm3 Rh1 Br18'
_cell_volume   1045.96571096
_cell_formula_units_Z   1
loop_
 _symmetry_equiv_pos_site_id
 _symmetry_equiv_pos_as_xyz
  1  'x, y, z'
loop_
 _atom_site_type_symbol
 _atom_site_label
 _atom_site_symmetry_multiplicity
 _atom_site_fract_x
 _atom_site_fract_y
 _atom_site_fract_z
 _atom_site_occupancy
  Rb  Rb0  1  0.333333  0.666667  0.061320  1
  Rb  Rb1  1  0.666667  0.333333  0.937958  1
  Rb  Rb2  1  0.666667  0.333333  0.570784  1
  Rb  Rb3  1  0.333333  0.666667  0.444199  1
  Rb  Rb4  1  0.000000  0.000000  0.251287  1
  Rb  Rb5  1  0.000000  0.000000  0.742597  1
  Tm  Tm6  1  0.666667  0.333333  0.347038  1
  Tm  Tm7  1  0.666667  0.333333  0.155473  1
  Tm  Tm8  1  0.333333  0.666667  0.837006  1
  Rh  Rh9  1  0.333333  0.666667  0.665989  1
  Br  Br10  1  0.181645  0.363290  0.594424  1
  Br  Br11  1  0.835320  0.670638  0.416985  1
  Br  Br12  1  0.636710  0.818355  0.594424  1
  Br  Br13  1  0.834970  0.669939  0.084770  1
  Br  Br14  1  0.329362  0.164680  0.416985  1
  Br  Br15  1  0.165515  0.331030  0.908564  1
  Br  Br16  1  0.181645  0.818355  0.594424  1
  Br  Br17  1  0.330061  0.165030  0.084770  1
  Br  Br18  1  0.835320  0.164680  0.416985  1
  Br  Br19  1  0.668970  0.834485  0.908564  1
  Br  Br20  1  0.834970  0.165030  0.084770  1
  Br  Br21  1  0.165515  0.834485  0.908564  1
  Br  Br22  1  0.506674  0.013349  0.250855  1
  Br  Br23  1  0.489615  0.979230  0.739853  1
  Br  Br24  1  0.986651  0.493326  0.250855  1
  Br  Br25  1  0.020770  0.510385  0.739853  1
  Br  Br26  1  0.506674  0.493326  0.250855  1
  Br  Br27  1  0.489615  0.510385  0.739853  1
