# generated using pymatgen
data_MnNb12Al8Fe3N4
_symmetry_space_group_name_H-M   'P 1'
_cell_length_a   8.19569142
_cell_length_b   8.19569220
_cell_length_c   8.19865752
_cell_angle_alpha   60.01196590
_cell_angle_beta   60.01196476
_cell_angle_gamma   60.00000012
_symmetry_Int_Tables_number   1
_chemical_formula_structural   MnNb12Al8Fe3N4
_chemical_formula_sum   'Mn1 Nb12 Al8 Fe3 N4'
_cell_volume   389.47313520
_cell_formula_units_Z   1
loop_
 _symmetry_equiv_pos_site_id
 _symmetry_equiv_pos_as_xyz
  1  'x, y, z'
loop_
 _atom_site_type_symbol
 _atom_site_label
 _atom_site_symmetry_multiplicity
 _atom_site_fract_x
 _atom_site_fract_y
 _atom_site_fract_z
 _atom_site_occupancy
  Mn  Mn0  1  0.625000  0.625000  0.125000  1
  Nb  Nb1  1  0.804583  0.804583  0.192715  1
  Nb  Nb2  1  0.192684  0.192684  0.807923  1
  Nb  Nb3  1  0.806708  0.192684  0.807923  1
  Nb  Nb4  1  0.198119  0.804583  0.192715  1
  Nb  Nb5  1  0.192684  0.806708  0.807923  1
  Nb  Nb6  1  0.804583  0.198119  0.192715  1
  Nb  Nb7  1  0.445417  0.445417  0.057285  1
  Nb  Nb8  1  0.057316  0.057316  0.442077  1
  Nb  Nb9  1  0.443292  0.057316  0.442077  1
  Nb  Nb10  1  0.051881  0.445417  0.057285  1
  Nb  Nb11  1  0.057316  0.443292  0.442077  1
  Nb  Nb12  1  0.445417  0.051881  0.057285  1
  Al  Al13  1  0.745537  0.415916  0.422632  1
  Al  Al14  1  0.415916  0.745537  0.422632  1
  Al  Al15  1  0.416788  0.416788  0.749636  1
  Al  Al16  1  0.415916  0.415916  0.422632  1
  Al  Al17  1  0.504463  0.834084  0.827368  1
  Al  Al18  1  0.834084  0.504463  0.827368  1
  Al  Al19  1  0.833212  0.833212  0.500364  1
  Al  Al20  1  0.834084  0.834084  0.827368  1
  Fe  Fe21  1  0.125000  0.625000  0.625000  1
  Fe  Fe22  1  0.625000  0.125000  0.625000  1
  Fe  Fe23  1  0.625000  0.625000  0.625000  1
  N  N24  1  0.625000  0.125000  0.125000  1
  N  N25  1  0.125000  0.625000  0.125000  1
  N  N26  1  0.125000  0.125000  0.625000  1
  N  N27  1  0.125000  0.125000  0.125000  1
