# generated using pymatgen
data_K6Cr2S7
_symmetry_space_group_name_H-M   'P 1'
_cell_length_a   7.51309636
_cell_length_b   7.51290390
_cell_length_c   16.59871952
_cell_angle_alpha   99.73781589
_cell_angle_beta   99.73585704
_cell_angle_gamma   96.51226125
_symmetry_Int_Tables_number   1
_chemical_formula_structural   K6Cr2S7
_chemical_formula_sum   'K12 Cr4 S14'
_cell_volume   900.34006529
_cell_formula_units_Z   2
loop_
 _symmetry_equiv_pos_site_id
 _symmetry_equiv_pos_as_xyz
  1  'x, y, z'
loop_
 _atom_site_type_symbol
 _atom_site_label
 _atom_site_symmetry_multiplicity
 _atom_site_fract_x
 _atom_site_fract_y
 _atom_site_fract_z
 _atom_site_occupancy
  K  K0  1  0.500000  0.500000  0.000000  1
  K  K1  1  0.982298  0.266033  0.079775  1
  K  K2  1  0.480166  0.051307  0.138724  1
  K  K3  1  0.410353  0.589608  0.249988  1
  K  K4  1  0.948629  0.519806  0.361269  1
  K  K5  1  0.733957  0.017731  0.420248  1
  K  K6  1  0.500000  0.500000  0.500000  1
  K  K7  1  0.266043  0.982269  0.579752  1
  K  K8  1  0.051371  0.480194  0.638731  1
  K  K9  1  0.589647  0.410392  0.750012  1
  K  K10  1  0.519834  0.948693  0.861276  1
  K  K11  1  0.017702  0.733966  0.920225  1
  Cr  Cr12  1  0.923104  0.777613  0.145410  1
  Cr  Cr13  1  0.222338  0.076815  0.354525  1
  Cr  Cr14  1  0.777662  0.923184  0.645475  1
  Cr  Cr15  1  0.076897  0.222388  0.854590  1
  S  S16  1  0.756139  0.868391  0.042042  1
  S  S17  1  0.171556  0.702843  0.106155  1
  S  S18  1  0.766743  0.545357  0.178268  1
  S  S19  1  0.976992  0.022995  0.249999  1
  S  S20  1  0.454667  0.233206  0.321711  1
  S  S21  1  0.297154  0.828379  0.393825  1
  S  S22  1  0.131629  0.243769  0.457888  1
  S  S23  1  0.868371  0.756231  0.542113  1
  S  S24  1  0.702847  0.171622  0.606175  1
  S  S25  1  0.545333  0.766794  0.678289  1
  S  S26  1  0.023007  0.977004  0.750001  1
  S  S27  1  0.233257  0.454643  0.821732  1
  S  S28  1  0.828444  0.297157  0.893845  1
  S  S29  1  0.243862  0.131610  0.957957  1
