# generated using pymatgen
data_TbDyGa7Ni2Ag
_symmetry_space_group_name_H-M   'P 1'
_cell_length_a   4.16597405
_cell_length_b   6.44981875
_cell_length_c   8.01541583
_cell_angle_alpha   90.86220777
_cell_angle_beta   105.06249959
_cell_angle_gamma   90.00000473
_symmetry_Int_Tables_number   1
_chemical_formula_structural   TbDyGa7Ni2Ag
_chemical_formula_sum   'Tb1 Dy1 Ga7 Ni2 Ag1'
_cell_volume   207.94762025
_cell_formula_units_Z   1
loop_
 _symmetry_equiv_pos_site_id
 _symmetry_equiv_pos_as_xyz
  1  'x, y, z'
loop_
 _atom_site_type_symbol
 _atom_site_label
 _atom_site_symmetry_multiplicity
 _atom_site_fract_x
 _atom_site_fract_y
 _atom_site_fract_z
 _atom_site_occupancy
  Tb  Tb0  1  0.376965  0.762154  0.753932  1
  Dy  Dy1  1  0.623101  0.237934  0.246201  1
  Ga  Ga2  1  0.000169  0.000418  0.000338  1
  Ga  Ga3  1  0.568797  0.739667  0.137595  1
  Ga  Ga4  1  0.431330  0.260218  0.862658  1
  Ga  Ga5  1  0.184949  0.544104  0.369897  1
  Ga  Ga6  1  0.814859  0.455630  0.629719  1
  Ga  Ga7  1  0.185598  0.945909  0.371195  1
  Ga  Ga8  1  0.814024  0.054571  0.628048  1
  Ni  Ni9  1  0.720914  0.750773  0.441829  1
  Ni  Ni10  1  0.279016  0.249477  0.558031  1
  Ag  Ag11  1  0.000279  0.499146  0.000557  1
