# generated using pymatgen
data_Tm13Th3Mg4(FeNi)2
_symmetry_space_group_name_H-M   'P 1'
_cell_length_a   9.53529446
_cell_length_b   9.53660691
_cell_length_c   9.62500800
_cell_angle_alpha   59.69288547
_cell_angle_beta   59.68827571
_cell_angle_gamma   59.73921649
_symmetry_Int_Tables_number   1
_chemical_formula_structural   Tm13Th3Mg4(FeNi)2
_chemical_formula_sum   'Tm13 Th3 Mg4 Fe2 Ni2'
_cell_volume   614.76884311
_cell_formula_units_Z   1
loop_
 _symmetry_equiv_pos_site_id
 _symmetry_equiv_pos_as_xyz
  1  'x, y, z'
loop_
 _atom_site_type_symbol
 _atom_site_label
 _atom_site_symmetry_multiplicity
 _atom_site_fract_x
 _atom_site_fract_y
 _atom_site_fract_z
 _atom_site_occupancy
  Tm  Tm0  1  0.210803  0.597215  0.595992  1
  Tm  Tm1  1  0.068579  0.435414  0.436688  1
  Tm  Tm2  1  0.435692  0.067020  0.061245  1
  Tm  Tm3  1  0.435692  0.067020  0.436042  1
  Tm  Tm4  1  0.068579  0.435414  0.059319  1
  Tm  Tm5  1  0.436606  0.433338  0.065028  1
  Tm  Tm6  1  0.063356  0.066050  0.435297  1
  Tm  Tm7  1  0.183200  0.813331  0.818320  1
  Tm  Tm8  1  0.813062  0.182816  0.185259  1
  Tm  Tm9  1  0.813062  0.182816  0.818862  1
  Tm  Tm10  1  0.183200  0.813331  0.185149  1
  Tm  Tm11  1  0.814429  0.811965  0.186802  1
  Tm  Tm12  1  0.184077  0.187269  0.814327  1
  Th  Th13  1  0.588356  0.591721  0.605832  1
  Th  Th14  1  0.588356  0.591721  0.214091  1
  Th  Th15  1  0.587914  0.218545  0.596771  1
  Mg  Mg16  1  0.829387  0.827506  0.831071  1
  Mg  Mg17  1  0.829387  0.827506  0.512035  1
  Mg  Mg18  1  0.829392  0.508563  0.831022  1
  Mg  Mg19  1  0.507015  0.828966  0.832009  1
  Fe  Fe20  1  0.405670  0.394131  0.386659  1
  Fe  Fe21  1  0.405670  0.394131  0.813542  1
  Ni  Ni22  1  0.393155  0.827750  0.389548  1
  Ni  Ni23  1  0.825358  0.396463  0.389090  1
