# generated using pymatgen
data_Er2Mg2IrRh
_symmetry_space_group_name_H-M   'P 1'
_cell_length_a   4.09878700
_cell_length_b   7.04197607
_cell_length_c   8.47523287
_cell_angle_alpha   89.03397112
_cell_angle_beta   90.00000000
_cell_angle_gamma   90.00000000
_symmetry_Int_Tables_number   1
_chemical_formula_structural   Er2Mg2IrRh
_chemical_formula_sum   'Er4 Mg4 Ir2 Rh2'
_cell_volume   244.59062282
_cell_formula_units_Z   2
loop_
 _symmetry_equiv_pos_site_id
 _symmetry_equiv_pos_as_xyz
  1  'x, y, z'
loop_
 _atom_site_type_symbol
 _atom_site_label
 _atom_site_symmetry_multiplicity
 _atom_site_fract_x
 _atom_site_fract_y
 _atom_site_fract_z
 _atom_site_occupancy
  Er  Er0  1  0.250000  0.533717  0.174285  1
  Er  Er1  1  0.750000  0.466283  0.825715  1
  Er  Er2  1  0.750000  0.960706  0.677776  1
  Er  Er3  1  0.250000  0.039294  0.322224  1
  Mg  Mg4  1  0.250000  0.638240  0.561868  1
  Mg  Mg5  1  0.750000  0.361760  0.438132  1
  Mg  Mg6  1  0.750000  0.862270  0.061982  1
  Mg  Mg7  1  0.250000  0.137730  0.938018  1
  Ir  Ir8  1  0.250000  0.752120  0.871693  1
  Ir  Ir9  1  0.750000  0.247880  0.128307  1
  Rh  Rh10  1  0.750000  0.750117  0.374744  1
  Rh  Rh11  1  0.250000  0.249883  0.625256  1
