# generated using pymatgen
data_Tb3Dy17CoBi8Os3
_symmetry_space_group_name_H-M   'P 1'
_cell_length_a   7.98282895
_cell_length_b   9.01146400
_cell_length_c   12.46610041
_cell_angle_alpha   90.00000000
_cell_angle_beta   90.23188286
_cell_angle_gamma   90.00000000
_symmetry_Int_Tables_number   1
_chemical_formula_structural   Tb3Dy17CoBi8Os3
_chemical_formula_sum   'Tb3 Dy17 Co1 Bi8 Os3'
_cell_volume   896.76621843
_cell_formula_units_Z   1
loop_
 _symmetry_equiv_pos_site_id
 _symmetry_equiv_pos_as_xyz
  1  'x, y, z'
loop_
 _atom_site_type_symbol
 _atom_site_label
 _atom_site_symmetry_multiplicity
 _atom_site_fract_x
 _atom_site_fract_y
 _atom_site_fract_z
 _atom_site_occupancy
  Tb  Tb0  1  0.843780  0.750000  0.798658  1
  Tb  Tb1  1  0.656986  0.750000  0.293474  1
  Tb  Tb2  1  0.375756  0.750000  0.694659  1
  Dy  Dy3  1  0.158641  0.250000  0.207011  1
  Dy  Dy4  1  0.341555  0.250000  0.708485  1
  Dy  Dy5  1  0.622536  0.250000  0.306134  1
  Dy  Dy6  1  0.875737  0.250000  0.807102  1
  Dy  Dy7  1  0.120623  0.750000  0.187758  1
  Dy  Dy8  1  0.942363  0.750000  0.504903  1
  Dy  Dy9  1  0.057971  0.250000  0.495836  1
  Dy  Dy10  1  0.445466  0.250000  0.996676  1
  Dy  Dy11  1  0.553642  0.750000  0.003744  1
  Dy  Dy12  1  0.674449  0.042241  0.564030  1
  Dy  Dy13  1  0.324303  0.957346  0.435570  1
  Dy  Dy14  1  0.175819  0.958592  0.935900  1
  Dy  Dy15  1  0.324303  0.542654  0.435570  1
  Dy  Dy16  1  0.825614  0.038838  0.063168  1
  Dy  Dy17  1  0.674449  0.457759  0.564030  1
  Dy  Dy18  1  0.825614  0.461162  0.063168  1
  Dy  Dy19  1  0.175819  0.541408  0.935900  1
  Co  Co20  1  0.930920  0.750000  0.009449  1
  Bi  Bi21  1  0.570316  0.492271  0.828164  1
  Bi  Bi22  1  0.430512  0.507798  0.171648  1
  Bi  Bi23  1  0.068425  0.507319  0.672813  1
  Bi  Bi24  1  0.430512  0.992202  0.171648  1
  Bi  Bi25  1  0.931376  0.492879  0.326679  1
  Bi  Bi26  1  0.570316  0.007729  0.828164  1
  Bi  Bi27  1  0.931376  0.007121  0.326679  1
  Bi  Bi28  1  0.068425  0.992681  0.672813  1
  Os  Os29  1  0.575153  0.750000  0.511497  1
  Os  Os30  1  0.423748  0.250000  0.489244  1
  Os  Os31  1  0.073492  0.250000  0.989424  1
