# generated using pymatgen
data_U2Be25Ni
_symmetry_space_group_name_H-M   'P 1'
_cell_length_a   7.23307791
_cell_length_b   7.26137191
_cell_length_c   7.24840989
_cell_angle_alpha   59.80110114
_cell_angle_beta   59.88295896
_cell_angle_gamma   60.01044164
_symmetry_Int_Tables_number   1
_chemical_formula_structural   U2Be25Ni
_chemical_formula_sum   'U2 Be25 Ni1'
_cell_volume   268.57285370
_cell_formula_units_Z   1
loop_
 _symmetry_equiv_pos_site_id
 _symmetry_equiv_pos_as_xyz
  1  'x, y, z'
loop_
 _atom_site_type_symbol
 _atom_site_label
 _atom_site_symmetry_multiplicity
 _atom_site_fract_x
 _atom_site_fract_y
 _atom_site_fract_z
 _atom_site_occupancy
  U  U0  1  0.750000  0.752749  0.746831  1
  U  U1  1  0.253169  0.249580  0.250000  1
  Be  Be2  1  0.061689  0.705952  0.938311  1
  Be  Be3  1  0.997599  0.999894  0.002401  1
  Be  Be4  1  0.499860  0.501531  0.500140  1
  Be  Be5  1  0.936573  0.291289  0.063427  1
  Be  Be6  1  0.791297  0.437215  0.561143  1
  Be  Be7  1  0.438857  0.789656  0.208703  1
  Be  Be8  1  0.208374  0.438436  0.791626  1
  Be  Be9  1  0.793156  0.560832  0.206844  1
  Be  Be10  1  0.438732  0.560977  0.790656  1
  Be  Be11  1  0.209344  0.790365  0.561268  1
  Be  Be12  1  0.063126  0.938046  0.293131  1
  Be  Be13  1  0.292713  0.060706  0.940865  1
  Be  Be14  1  0.941932  0.704516  0.291437  1
  Be  Be15  1  0.941577  0.059642  0.705885  1
  Be  Be16  1  0.294115  0.707104  0.058423  1
  Be  Be17  1  0.708563  0.937886  0.058068  1
  Be  Be18  1  0.706869  0.294302  0.936874  1
  Be  Be19  1  0.059135  0.294284  0.707287  1
  Be  Be20  1  0.561500  0.788154  0.438500  1
  Be  Be21  1  0.559844  0.210323  0.791440  1
  Be  Be22  1  0.791944  0.210231  0.438046  1
  Be  Be23  1  0.561954  0.440221  0.208056  1
  Be  Be24  1  0.208560  0.561606  0.440156  1
  Be  Be25  1  0.433911  0.213905  0.566089  1
  Be  Be26  1  0.296035  0.941867  0.703965  1
  Ni  Ni27  1  0.699571  0.058732  0.300429  1
