# generated using pymatgen
data_GdBi3F15
_symmetry_space_group_name_H-M   'P 1'
_cell_length_a   8.65668093
_cell_length_b   8.65668064
_cell_length_c   8.60794964
_cell_angle_alpha   79.75665600
_cell_angle_beta   79.75665557
_cell_angle_gamma   101.10626054
_symmetry_Int_Tables_number   1
_chemical_formula_structural   GdBi3F15
_chemical_formula_sum   'Gd2 Bi6 F30'
_cell_volume   607.68427154
_cell_formula_units_Z   2
loop_
 _symmetry_equiv_pos_site_id
 _symmetry_equiv_pos_as_xyz
  1  'x, y, z'
loop_
 _atom_site_type_symbol
 _atom_site_label
 _atom_site_symmetry_multiplicity
 _atom_site_fract_x
 _atom_site_fract_y
 _atom_site_fract_z
 _atom_site_occupancy
  Gd  Gd0  1  0.674100  0.325900  0.750000  1
  Gd  Gd1  1  0.325900  0.674100  0.250000  1
  Bi  Bi2  1  0.251916  0.748084  0.750000  1
  Bi  Bi3  1  0.748084  0.251916  0.250000  1
  Bi  Bi4  1  0.826911  0.746575  0.329264  1
  Bi  Bi5  1  0.253425  0.173089  0.170736  1
  Bi  Bi6  1  0.173089  0.253425  0.670736  1
  Bi  Bi7  1  0.746575  0.826911  0.829264  1
  F  F8  1  0.160810  0.197610  0.944639  1
  F  F9  1  0.691539  0.559142  0.842701  1
  F  F10  1  0.052292  0.655603  0.310143  1
  F  F11  1  0.655603  0.052292  0.810143  1
  F  F12  1  0.559142  0.691539  0.342701  1
  F  F13  1  0.197610  0.160810  0.444639  1
  F  F14  1  0.839190  0.802390  0.055361  1
  F  F15  1  0.308461  0.440858  0.157299  1
  F  F16  1  0.947708  0.344397  0.689857  1
  F  F17  1  0.344397  0.947708  0.189857  1
  F  F18  1  0.440858  0.308461  0.657299  1
  F  F19  1  0.802390  0.839190  0.555361  1
  F  F20  1  0.209993  0.725879  0.997368  1
  F  F21  1  0.231562  0.502787  0.792450  1
  F  F22  1  0.007731  0.706446  0.768264  1
  F  F23  1  0.706446  0.007731  0.268264  1
  F  F24  1  0.502787  0.231562  0.292450  1
  F  F25  1  0.725879  0.209993  0.497368  1
  F  F26  1  0.790007  0.274121  0.002632  1
  F  F27  1  0.768438  0.497213  0.207550  1
  F  F28  1  0.992269  0.293554  0.231736  1
  F  F29  1  0.293554  0.992269  0.731736  1
  F  F30  1  0.497213  0.768438  0.707550  1
  F  F31  1  0.274121  0.790007  0.502632  1
  F  F32  1  0.975460  0.024540  0.750000  1
  F  F33  1  0.524785  0.751944  0.020966  1
  F  F34  1  0.248056  0.475215  0.479034  1
  F  F35  1  0.475215  0.248056  0.979034  1
  F  F36  1  0.751944  0.524785  0.520966  1
  F  F37  1  0.024540  0.975460  0.250000  1
