# generated using pymatgen
data_Sc2Fe6Co2Ni4P7
_symmetry_space_group_name_H-M   'P 1'
_cell_length_a   8.90869120
_cell_length_b   8.95400249
_cell_length_c   3.57400100
_cell_angle_alpha   90.00000000
_cell_angle_beta   90.00000000
_cell_angle_gamma   119.91275362
_symmetry_Int_Tables_number   1
_chemical_formula_structural   Sc2Fe6Co2Ni4P7
_chemical_formula_sum   'Sc2 Fe6 Co2 Ni4 P7'
_cell_volume   247.11411771
_cell_formula_units_Z   1
loop_
 _symmetry_equiv_pos_site_id
 _symmetry_equiv_pos_as_xyz
  1  'x, y, z'
loop_
 _atom_site_type_symbol
 _atom_site_label
 _atom_site_symmetry_multiplicity
 _atom_site_fract_x
 _atom_site_fract_y
 _atom_site_fract_z
 _atom_site_occupancy
  Sc  Sc0  1  0.664163  0.330669  0.000000  1
  Sc  Sc1  1  0.000934  0.003099  0.500000  1
  Fe  Fe2  1  0.495227  0.548627  0.000000  1
  Fe  Fe3  1  0.379672  0.101955  0.500000  1
  Fe  Fe4  1  0.895329  0.278242  0.500000  1
  Fe  Fe5  1  0.556087  0.795024  0.500000  1
  Fe  Fe6  1  0.210258  0.757988  0.500000  1
  Fe  Fe7  1  0.240048  0.448933  0.500000  1
  Co  Co8  1  0.450239  0.941460  0.000000  1
  Co  Co9  1  0.057341  0.509829  0.000000  1
  Ni  Ni10  1  0.765082  0.036521  0.000000  1
  Ni  Ni11  1  0.963538  0.731444  0.000000  1
  Ni  Ni12  1  0.266716  0.234082  0.000000  1
  Ni  Ni13  1  0.724445  0.616033  0.500000  1
  P  P14  1  0.744923  0.784312  0.000000  1
  P  P15  1  0.219576  0.966277  0.000000  1
  P  P16  1  0.032955  0.255501  0.000000  1
  P  P17  1  0.451865  0.377148  0.500000  1
  P  P18  1  0.617828  0.076431  0.500000  1
  P  P19  1  0.927883  0.541249  0.500000  1
  P  P20  1  0.335886  0.665178  0.000000  1
