# generated using pymatgen
data_Hf6Mn5Si12Pd
_symmetry_space_group_name_H-M   'P 1'
_cell_length_a   9.84663681
_cell_length_b   9.84663672
_cell_length_c   9.84663645
_cell_angle_alpha   149.57219724
_cell_angle_beta   132.84106982
_cell_angle_gamma   57.16408458
_symmetry_Int_Tables_number   1
_chemical_formula_structural   Hf6Mn5Si12Pd
_chemical_formula_sum   'Hf6 Mn5 Si12 Pd1'
_cell_volume   352.02114574
_cell_formula_units_Z   1
loop_
 _symmetry_equiv_pos_site_id
 _symmetry_equiv_pos_as_xyz
  1  'x, y, z'
loop_
 _atom_site_type_symbol
 _atom_site_label
 _atom_site_symmetry_multiplicity
 _atom_site_fract_x
 _atom_site_fract_y
 _atom_site_fract_z
 _atom_site_occupancy
  Hf  Hf0  1  0.355178  0.095401  0.259778  1
  Hf  Hf1  1  0.645480  0.904580  0.740899  1
  Hf  Hf2  1  0.164379  0.904599  0.259778  1
  Hf  Hf3  1  0.836319  0.095420  0.740899  1
  Hf  Hf4  1  0.643083  0.641088  0.001995  1
  Hf  Hf5  1  0.360907  0.358912  0.001995  1
  Mn  Mn6  1  0.502405  0.004481  0.003313  1
  Mn  Mn7  1  0.502405  0.499092  0.497923  1
  Mn  Mn8  1  0.998830  0.995519  0.497923  1
  Mn  Mn9  1  0.998830  0.500908  0.003313  1
  Mn  Mn10  1  0.753066  0.500000  0.253066  1
  Si  Si11  1  0.989881  0.770830  0.760711  1
  Si  Si12  1  0.989881  0.229170  0.219051  1
  Si  Si13  1  0.505991  0.235133  0.741124  1
  Si  Si14  1  0.505991  0.764867  0.270857  1
  Si  Si15  1  0.202923  0.202919  0.000005  1
  Si  Si16  1  0.797086  0.797081  0.000005  1
  Si  Si17  1  0.289169  0.788754  0.500415  1
  Si  Si18  1  0.711661  0.211246  0.500415  1
  Si  Si19  1  0.716216  0.364484  0.351731  1
  Si  Si20  1  0.293506  0.643854  0.649653  1
  Si  Si21  1  0.987248  0.635516  0.351731  1
  Si  Si22  1  0.005799  0.356146  0.649653  1
  Pd  Pd23  1  0.243764  0.500000  0.743764  1
