# generated using pymatgen
data_NdY5Al19Si5Os8
_symmetry_space_group_name_H-M   'P 1'
_cell_length_a   8.73021260
_cell_length_b   8.71030954
_cell_length_c   9.62436400
_cell_angle_alpha   90.00000000
_cell_angle_beta   90.00000000
_cell_angle_gamma   120.03313473
_symmetry_Int_Tables_number   1
_chemical_formula_structural   NdY5Al19Si5Os8
_chemical_formula_sum   'Nd1 Y5 Al19 Si5 Os8'
_cell_volume   633.60118102
_cell_formula_units_Z   1
loop_
 _symmetry_equiv_pos_site_id
 _symmetry_equiv_pos_as_xyz
  1  'x, y, z'
loop_
 _atom_site_type_symbol
 _atom_site_label
 _atom_site_symmetry_multiplicity
 _atom_site_fract_x
 _atom_site_fract_y
 _atom_site_fract_z
 _atom_site_occupancy
  Nd  Nd0  1  0.807779  0.192629  0.750000  1
  Y  Y1  1  0.194635  0.389327  0.250000  1
  Y  Y2  1  0.805960  0.612728  0.750000  1
  Y  Y3  1  0.608004  0.806062  0.250000  1
  Y  Y4  1  0.389044  0.195354  0.750000  1
  Y  Y5  1  0.197764  0.806280  0.250000  1
  Al  Al6  1  0.165926  0.330309  0.576294  1
  Al  Al7  1  0.834503  0.669178  0.422638  1
  Al  Al8  1  0.669109  0.834267  0.574873  1
  Al  Al9  1  0.834503  0.669178  0.077362  1
  Al  Al10  1  0.328904  0.165340  0.422965  1
  Al  Al11  1  0.165926  0.330309  0.923706  1
  Al  Al12  1  0.165682  0.835538  0.575327  1
  Al  Al13  1  0.328904  0.165340  0.077035  1
  Al  Al14  1  0.836297  0.165373  0.421889  1
  Al  Al15  1  0.669109  0.834267  0.925127  1
  Al  Al16  1  0.836297  0.165373  0.078111  1
  Al  Al17  1  0.165682  0.835538  0.924673  1
  Al  Al18  1  0.435243  0.872502  0.750000  1
  Al  Al19  1  0.872083  0.433087  0.250000  1
  Al  Al20  1  0.129665  0.566650  0.750000  1
  Al  Al21  1  0.560586  0.432825  0.250000  1
  Al  Al22  1  0.436744  0.564982  0.750000  1
  Al  Al23  1  0.999536  0.999338  0.250000  1
  Al  Al24  1  0.002500  0.999519  0.750000  1
  Si  Si25  1  0.332304  0.665318  0.037180  1
  Si  Si26  1  0.666668  0.335643  0.963704  1
  Si  Si27  1  0.666668  0.335643  0.536296  1
  Si  Si28  1  0.332304  0.665318  0.462820  1
  Si  Si29  1  0.563857  0.128173  0.250000  1
  Os  Os30  1  0.499982  0.001187  0.007317  1
  Os  Os31  1  0.999570  0.499967  0.001412  1
  Os  Os32  1  0.499982  0.001187  0.492683  1
  Os  Os33  1  0.499712  0.499249  0.000867  1
  Os  Os34  1  0.999570  0.499967  0.498588  1
  Os  Os35  1  0.499712  0.499249  0.499133  1
  Os  Os36  1  0.999641  0.998903  0.000177  1
  Os  Os37  1  0.999641  0.998903  0.499823  1
