# generated using pymatgen
data_Dy12CdCo4Pd
_symmetry_space_group_name_H-M   'P 1'
_cell_length_a   8.28485566
_cell_length_b   8.28485504
_cell_length_c   8.28485600
_cell_angle_alpha   110.93454829
_cell_angle_beta   110.33647619
_cell_angle_gamma   107.16749327
_symmetry_Int_Tables_number   1
_chemical_formula_structural   Dy12CdCo4Pd
_chemical_formula_sum   'Dy12 Cd1 Co4 Pd1'
_cell_volume   437.21630888
_cell_formula_units_Z   1
loop_
 _symmetry_equiv_pos_site_id
 _symmetry_equiv_pos_as_xyz
  1  'x, y, z'
loop_
 _atom_site_type_symbol
 _atom_site_label
 _atom_site_symmetry_multiplicity
 _atom_site_fract_x
 _atom_site_fract_y
 _atom_site_fract_z
 _atom_site_occupancy
  Dy  Dy0  1  0.314885  0.618697  0.303812  1
  Dy  Dy1  1  0.685115  0.381303  0.696188  1
  Dy  Dy2  1  0.314886  0.011072  0.696187  1
  Dy  Dy3  1  0.685114  0.988928  0.303813  1
  Dy  Dy4  1  0.186999  0.293854  0.480852  1
  Dy  Dy5  1  0.813001  0.706146  0.519148  1
  Dy  Dy6  1  0.186998  0.706146  0.893145  1
  Dy  Dy7  1  0.813002  0.293854  0.106855  1
  Dy  Dy8  1  0.413313  0.214232  0.199082  1
  Dy  Dy9  1  0.586687  0.785768  0.800918  1
  Dy  Dy10  1  0.015151  0.214232  0.800919  1
  Dy  Dy11  1  0.984849  0.785768  0.199081  1
  Cd  Cd12  1  0.500000  0.500000  0.000000  1
  Co  Co13  1  0.113188  0.613188  0.500000  1
  Co  Co14  1  0.886812  0.386812  0.500000  1
  Co  Co15  1  0.378904  0.000000  0.378904  1
  Co  Co16  1  0.621096  0.000000  0.621096  1
  Pd  Pd17  1  0.000000  0.000000  0.000000  1
