# generated using pymatgen
data_Ac5Sn2Rh
_symmetry_space_group_name_H-M   'P 1'
_cell_length_a   8.65412500
_cell_length_b   9.78063100
_cell_length_c   13.48840300
_cell_angle_alpha   90.00000000
_cell_angle_beta   90.00000000
_cell_angle_gamma   90.00000000
_symmetry_Int_Tables_number   1
_chemical_formula_structural   Ac5Sn2Rh
_chemical_formula_sum   'Ac20 Sn8 Rh4'
_cell_volume   1141.69624132
_cell_formula_units_Z   4
loop_
 _symmetry_equiv_pos_site_id
 _symmetry_equiv_pos_as_xyz
  1  'x, y, z'
loop_
 _atom_site_type_symbol
 _atom_site_label
 _atom_site_symmetry_multiplicity
 _atom_site_fract_x
 _atom_site_fract_y
 _atom_site_fract_z
 _atom_site_occupancy
  Ac  Ac0  1  0.837490  0.750000  0.789439  1
  Ac  Ac1  1  0.162510  0.250000  0.210561  1
  Ac  Ac2  1  0.337490  0.250000  0.710561  1
  Ac  Ac3  1  0.662510  0.750000  0.289439  1
  Ac  Ac4  1  0.364816  0.750000  0.694150  1
  Ac  Ac5  1  0.635184  0.250000  0.305850  1
  Ac  Ac6  1  0.864816  0.250000  0.805850  1
  Ac  Ac7  1  0.135184  0.750000  0.194150  1
  Ac  Ac8  1  0.946510  0.750000  0.501581  1
  Ac  Ac9  1  0.053490  0.250000  0.498419  1
  Ac  Ac10  1  0.446510  0.250000  0.998419  1
  Ac  Ac11  1  0.553490  0.750000  0.001581  1
  Ac  Ac12  1  0.677492  0.035294  0.574918  1
  Ac  Ac13  1  0.322508  0.964706  0.425082  1
  Ac  Ac14  1  0.177492  0.964706  0.925082  1
  Ac  Ac15  1  0.322508  0.535294  0.425082  1
  Ac  Ac16  1  0.822508  0.035294  0.074918  1
  Ac  Ac17  1  0.677492  0.464706  0.574918  1
  Ac  Ac18  1  0.822508  0.464706  0.074918  1
  Ac  Ac19  1  0.177492  0.535294  0.925082  1
  Sn  Sn20  1  0.562252  0.495714  0.828421  1
  Sn  Sn21  1  0.437748  0.504286  0.171579  1
  Sn  Sn22  1  0.062252  0.504286  0.671579  1
  Sn  Sn23  1  0.437748  0.995714  0.171579  1
  Sn  Sn24  1  0.937748  0.495714  0.328421  1
  Sn  Sn25  1  0.562252  0.004286  0.828421  1
  Sn  Sn26  1  0.937748  0.004286  0.328421  1
  Sn  Sn27  1  0.062252  0.995714  0.671579  1
  Rh  Rh28  1  0.578035  0.750000  0.508734  1
  Rh  Rh29  1  0.421965  0.250000  0.491266  1
  Rh  Rh30  1  0.078035  0.250000  0.991266  1
  Rh  Rh31  1  0.921965  0.750000  0.008734  1
