# generated using pymatgen
data_Cs4PaSe4
_symmetry_space_group_name_H-M   'P 1'
_cell_length_a   8.90378660
_cell_length_b   8.77209892
_cell_length_c   13.20605553
_cell_angle_alpha   78.64381166
_cell_angle_beta   71.62525213
_cell_angle_gamma   67.26449135
_symmetry_Int_Tables_number   1
_chemical_formula_structural   Cs4PaSe4
_chemical_formula_sum   'Cs8 Pa2 Se8'
_cell_volume   899.48206060
_cell_formula_units_Z   2
loop_
 _symmetry_equiv_pos_site_id
 _symmetry_equiv_pos_as_xyz
  1  'x, y, z'
loop_
 _atom_site_type_symbol
 _atom_site_label
 _atom_site_symmetry_multiplicity
 _atom_site_fract_x
 _atom_site_fract_y
 _atom_site_fract_z
 _atom_site_occupancy
  Cs  Cs0  1  0.769737  0.252269  0.034894  1
  Cs  Cs1  1  0.576375  0.758592  0.162342  1
  Cs  Cs2  1  0.037626  0.782453  0.379839  1
  Cs  Cs3  1  0.499947  0.290644  0.433332  1
  Cs  Cs4  1  0.500048  0.709351  0.566675  1
  Cs  Cs5  1  0.962341  0.217565  0.620160  1
  Cs  Cs6  1  0.423642  0.241423  0.837644  1
  Cs  Cs7  1  0.230285  0.747724  0.965106  1
  Pa  Pa8  1  0.155642  0.273676  0.247343  1
  Pa  Pa9  1  0.844331  0.726334  0.752653  1
  Se  Se10  1  0.174445  0.102114  0.090629  1
  Se  Se11  1  0.347166  0.471178  0.188877  1
  Se  Se12  1  0.840356  0.461208  0.354537  1
  Se  Se13  1  0.302161  0.027063  0.382657  1
  Se  Se14  1  0.697772  0.972948  0.617356  1
  Se  Se15  1  0.159622  0.538797  0.645479  1
  Se  Se16  1  0.652831  0.528818  0.811129  1
  Se  Se17  1  0.825676  0.897845  0.909346  1
