# generated using pymatgen
data_Ti13Be(GaCo)8
_symmetry_space_group_name_H-M   'P 1'
_cell_length_a   8.42980342
_cell_length_b   8.42980261
_cell_length_c   8.42980345
_cell_angle_alpha   59.77027045
_cell_angle_beta   59.77026388
_cell_angle_gamma   59.77028562
_symmetry_Int_Tables_number   1
_chemical_formula_structural   Ti13Be(GaCo)8
_chemical_formula_sum   'Ti13 Be1 Ga8 Co8'
_cell_volume   421.37242862
_cell_formula_units_Z   1
loop_
 _symmetry_equiv_pos_site_id
 _symmetry_equiv_pos_as_xyz
  1  'x, y, z'
loop_
 _atom_site_type_symbol
 _atom_site_label
 _atom_site_symmetry_multiplicity
 _atom_site_fract_x
 _atom_site_fract_y
 _atom_site_fract_z
 _atom_site_occupancy
  Ti  Ti0  1  0.207239  0.207239  0.793176  1
  Ti  Ti1  1  0.793176  0.207239  0.207239  1
  Ti  Ti2  1  0.207239  0.793176  0.207239  1
  Ti  Ti3  1  0.802444  0.802444  0.170765  1
  Ti  Ti4  1  0.170765  0.802444  0.802444  1
  Ti  Ti5  1  0.802444  0.170765  0.802444  1
  Ti  Ti6  1  0.379816  0.379816  0.379816  1
  Ti  Ti7  1  0.380052  0.863878  0.380052  1
  Ti  Ti8  1  0.863878  0.380052  0.380052  1
  Ti  Ti9  1  0.380052  0.380052  0.863878  1
  Ti  Ti10  1  0.841164  0.481563  0.841164  1
  Ti  Ti11  1  0.481563  0.841164  0.841164  1
  Ti  Ti12  1  0.841164  0.841164  0.481563  1
  Be  Be13  1  0.825883  0.825883  0.825883  1
  Ga  Ga14  1  0.155849  0.155849  0.155849  1
  Ga  Ga15  1  0.160560  0.524881  0.160560  1
  Ga  Ga16  1  0.524881  0.160560  0.160560  1
  Ga  Ga17  1  0.160560  0.160560  0.524881  1
  Ga  Ga18  1  0.618619  0.618619  0.618619  1
  Ga  Ga19  1  0.622763  0.140702  0.622763  1
  Ga  Ga20  1  0.140702  0.622763  0.622763  1
  Ga  Ga21  1  0.622763  0.622763  0.140702  1
  Co  Co22  1  0.001377  0.001377  0.504690  1
  Co  Co23  1  0.504690  0.001377  0.001377  1
  Co  Co24  1  0.001377  0.504690  0.001377  1
  Co  Co25  1  0.501068  0.501068  0.002222  1
  Co  Co26  1  0.002222  0.501068  0.501068  1
  Co  Co27  1  0.501068  0.002222  0.501068  1
  Co  Co28  1  0.500868  0.500868  0.500868  1
  Co  Co29  1  0.003754  0.003754  0.003754  1
