# generated using pymatgen
data_Ho16MgNi4Hg3
_symmetry_space_group_name_H-M   'P 1'
_cell_length_a   9.51552947
_cell_length_b   9.44745115
_cell_length_c   9.44745200
_cell_angle_alpha   60.00000404
_cell_angle_beta   60.23639023
_cell_angle_gamma   60.23638915
_symmetry_Int_Tables_number   1
_chemical_formula_structural   Ho16MgNi4Hg3
_chemical_formula_sum   'Ho16 Mg1 Ni4 Hg3'
_cell_volume   602.68428095
_cell_formula_units_Z   1
loop_
 _symmetry_equiv_pos_site_id
 _symmetry_equiv_pos_as_xyz
  1  'x, y, z'
loop_
 _atom_site_type_symbol
 _atom_site_label
 _atom_site_symmetry_multiplicity
 _atom_site_fract_x
 _atom_site_fract_y
 _atom_site_fract_z
 _atom_site_occupancy
  Ho  Ho0  1  0.349034  0.347103  0.347103  1
  Ho  Ho1  1  0.349034  0.347103  0.956759  1
  Ho  Ho2  1  0.349034  0.956759  0.347103  1
  Ho  Ho3  1  0.950620  0.349793  0.349793  1
  Ho  Ho4  1  0.808889  0.190000  0.190000  1
  Ho  Ho5  1  0.184707  0.813501  0.813501  1
  Ho  Ho6  1  0.184707  0.813501  0.188290  1
  Ho  Ho7  1  0.808889  0.190000  0.811112  1
  Ho  Ho8  1  0.184707  0.188290  0.813501  1
  Ho  Ho9  1  0.808889  0.811112  0.190000  1
  Ho  Ho10  1  0.932523  0.565454  0.565453  1
  Ho  Ho11  1  0.562077  0.936662  0.936661  1
  Ho  Ho12  1  0.562078  0.936662  0.564599  1
  Ho  Ho13  1  0.932523  0.565454  0.936569  1
  Ho  Ho14  1  0.562077  0.564600  0.936661  1
  Ho  Ho15  1  0.932523  0.936570  0.565453  1
  Mg  Mg16  1  0.283329  0.572224  0.572224  1
  Ni  Ni17  1  0.141419  0.142597  0.142597  1
  Ni  Ni18  1  0.141419  0.142597  0.573386  1
  Ni  Ni19  1  0.141419  0.573386  0.142597  1
  Ni  Ni20  1  0.575568  0.141477  0.141477  1
  Hg  Hg21  1  0.584844  0.585862  0.585862  1
  Hg  Hg22  1  0.584844  0.585862  0.243432  1
  Hg  Hg23  1  0.584844  0.243432  0.585862  1
