# generated using pymatgen
data_Tb12Sm8Si15Sn
_symmetry_space_group_name_H-M   'P 1'
_cell_length_a   7.51333131
_cell_length_b   7.82076825
_cell_length_c   14.86618055
_cell_angle_alpha   90.11832426
_cell_angle_beta   89.23091712
_cell_angle_gamma   90.07795649
_symmetry_Int_Tables_number   1
_chemical_formula_structural   Tb12Sm8Si15Sn
_chemical_formula_sum   'Tb12 Sm8 Si15 Sn1'
_cell_volume   873.45577718
_cell_formula_units_Z   1
loop_
 _symmetry_equiv_pos_site_id
 _symmetry_equiv_pos_as_xyz
  1  'x, y, z'
loop_
 _atom_site_type_symbol
 _atom_site_label
 _atom_site_symmetry_multiplicity
 _atom_site_fract_x
 _atom_site_fract_y
 _atom_site_fract_z
 _atom_site_occupancy
  Tb  Tb0  1  0.159506  0.511275  0.753591  1
  Tb  Tb1  1  0.839657  0.487453  0.249835  1
  Tb  Tb2  1  0.341263  0.013182  0.249329  1
  Tb  Tb3  1  0.661460  0.987264  0.752008  1
  Tb  Tb4  1  0.336915  0.166198  0.628607  1
  Tb  Tb5  1  0.668713  0.821718  0.375004  1
  Tb  Tb6  1  0.166137  0.687823  0.371247  1
  Tb  Tb7  1  0.674215  0.819179  0.121963  1
  Tb  Tb8  1  0.821535  0.321001  0.623575  1
  Tb  Tb9  1  0.324105  0.179637  0.878394  1
  Tb  Tb10  1  0.824200  0.320019  0.878109  1
  Tb  Tb11  1  0.175527  0.679850  0.122603  1
  Sm  Sm12  1  0.021363  0.183190  0.098178  1
  Sm  Sm13  1  0.978188  0.817680  0.903019  1
  Sm  Sm14  1  0.478775  0.683189  0.902732  1
  Sm  Sm15  1  0.980247  0.822623  0.599351  1
  Sm  Sm16  1  0.521064  0.316975  0.098529  1
  Sm  Sm17  1  0.014688  0.176156  0.398422  1
  Sm  Sm18  1  0.519561  0.316537  0.399751  1
  Sm  Sm19  1  0.491260  0.688781  0.600913  1
  Si  Si20  1  0.033143  0.107766  0.751566  1
  Si  Si21  1  0.964946  0.896481  0.246668  1
  Si  Si22  1  0.465889  0.605632  0.248238  1
  Si  Si23  1  0.532751  0.395011  0.752647  1
  Si  Si24  1  0.274890  0.873710  0.752518  1
  Si  Si25  1  0.724057  0.123452  0.247862  1
  Si  Si26  1  0.224023  0.376816  0.248994  1
  Si  Si27  1  0.777173  0.623906  0.751381  1
  Si  Si28  1  0.835446  0.533523  0.458594  1
  Si  Si29  1  0.344089  0.969370  0.460603  1
  Si  Si30  1  0.852119  0.529778  0.039429  1
  Si  Si31  1  0.656712  0.032090  0.537362  1
  Si  Si32  1  0.147046  0.469597  0.961743  1
  Si  Si33  1  0.647580  0.030683  0.961555  1
  Si  Si34  1  0.351331  0.970100  0.039606  1
  Sn  Sn35  1  0.170425  0.462356  0.536079  1
