# generated using pymatgen
data_Ac19Si16Hg
_symmetry_space_group_name_H-M   'P 1'
_cell_length_a   8.29736602
_cell_length_b   8.29736460
_cell_length_c   16.25730779
_cell_angle_alpha   90.01920562
_cell_angle_beta   89.98079379
_cell_angle_gamma   90.24034381
_symmetry_Int_Tables_number   1
_chemical_formula_structural   Ac19Si16Hg
_chemical_formula_sum   'Ac19 Si16 Hg1'
_cell_volume   1119.24504661
_cell_formula_units_Z   1
loop_
 _symmetry_equiv_pos_site_id
 _symmetry_equiv_pos_as_xyz
  1  'x, y, z'
loop_
 _atom_site_type_symbol
 _atom_site_label
 _atom_site_symmetry_multiplicity
 _atom_site_fract_x
 _atom_site_fract_y
 _atom_site_fract_z
 _atom_site_occupancy
  Ac  Ac0  1  0.190779  0.810607  0.249919  1
  Ac  Ac1  1  0.810607  0.190779  0.750081  1
  Ac  Ac2  1  0.694111  0.694111  0.500000  1
  Ac  Ac3  1  0.382231  0.014731  0.445909  1
  Ac  Ac4  1  0.487405  0.876358  0.698832  1
  Ac  Ac5  1  0.506690  0.119405  0.187189  1
  Ac  Ac6  1  0.876358  0.487405  0.301168  1
  Ac  Ac7  1  0.119405  0.506690  0.812811  1
  Ac  Ac8  1  0.608067  0.998434  0.947158  1
  Ac  Ac9  1  0.014731  0.382231  0.554091  1
  Ac  Ac10  1  0.998434  0.608067  0.052842  1
  Ac  Ac11  1  0.129788  0.990683  0.882089  1
  Ac  Ac12  1  0.517633  0.614451  0.125231  1
  Ac  Ac13  1  0.473460  0.379101  0.626852  1
  Ac  Ac14  1  0.614451  0.517633  0.874769  1
  Ac  Ac15  1  0.379101  0.473460  0.373148  1
  Ac  Ac16  1  0.873687  0.026925  0.375032  1
  Ac  Ac17  1  0.990683  0.129788  0.117911  1
  Ac  Ac18  1  0.026925  0.873687  0.624968  1
  Si  Si19  1  0.195443  0.173051  0.710440  1
  Si  Si20  1  0.334621  0.707864  0.954842  1
  Si  Si21  1  0.673077  0.304080  0.460500  1
  Si  Si22  1  0.707864  0.334621  0.045158  1
  Si  Si23  1  0.304080  0.673077  0.539500  1
  Si  Si24  1  0.803813  0.830135  0.203556  1
  Si  Si25  1  0.173051  0.195443  0.289560  1
  Si  Si26  1  0.830135  0.803813  0.796444  1
  Si  Si27  1  0.283715  0.895495  0.064171  1
  Si  Si28  1  0.583315  0.790737  0.305421  1
  Si  Si29  1  0.423741  0.206378  0.804252  1
  Si  Si30  1  0.790737  0.583315  0.694579  1
  Si  Si31  1  0.206378  0.423741  0.195748  1
  Si  Si32  1  0.708731  0.081053  0.560522  1
  Si  Si33  1  0.895495  0.283715  0.935829  1
  Si  Si34  1  0.081053  0.708731  0.439478  1
  Hg  Hg35  1  0.310205  0.310205  0.000000  1
