# generated using pymatgen
data_Tm2Mg3Pa2ZnRh4
_symmetry_space_group_name_H-M   'P 1'
_cell_length_a   3.83026200
_cell_length_b   7.20448936
_cell_length_c   8.81492856
_cell_angle_alpha   91.35824765
_cell_angle_beta   90.00000000
_cell_angle_gamma   90.00000000
_symmetry_Int_Tables_number   1
_chemical_formula_structural   Tm2Mg3Pa2ZnRh4
_chemical_formula_sum   'Tm2 Mg3 Pa2 Zn1 Rh4'
_cell_volume   243.18032903
_cell_formula_units_Z   1
loop_
 _symmetry_equiv_pos_site_id
 _symmetry_equiv_pos_as_xyz
  1  'x, y, z'
loop_
 _atom_site_type_symbol
 _atom_site_label
 _atom_site_symmetry_multiplicity
 _atom_site_fract_x
 _atom_site_fract_y
 _atom_site_fract_z
 _atom_site_occupancy
  Tm  Tm0  1  0.750000  0.963241  0.687993  1
  Tm  Tm1  1  0.250000  0.039437  0.320177  1
  Mg  Mg2  1  0.250000  0.645186  0.553754  1
  Mg  Mg3  1  0.750000  0.355937  0.447287  1
  Mg  Mg4  1  0.750000  0.883044  0.053040  1
  Pa  Pa5  1  0.250000  0.537530  0.183820  1
  Pa  Pa6  1  0.750000  0.454139  0.817944  1
  Zn  Zn7  1  0.250000  0.128970  0.939694  1
  Rh  Rh8  1  0.250000  0.714596  0.871462  1
  Rh  Rh9  1  0.750000  0.279409  0.126716  1
  Rh  Rh10  1  0.750000  0.740457  0.340301  1
  Rh  Rh11  1  0.250000  0.258055  0.657812  1
