# generated using pymatgen
data_ErLu9(GePb3)2
_symmetry_space_group_name_H-M   'P 1'
_cell_length_a   9.19686700
_cell_length_b   9.18533554
_cell_length_c   6.41515700
_cell_angle_alpha   90.00008391
_cell_angle_beta   89.99983863
_cell_angle_gamma   120.04154127
_symmetry_Int_Tables_number   1
_chemical_formula_structural   ErLu9(GePb3)2
_chemical_formula_sum   'Er1 Lu9 Ge2 Pb6'
_cell_volume   469.12751550
_cell_formula_units_Z   1
loop_
 _symmetry_equiv_pos_site_id
 _symmetry_equiv_pos_as_xyz
  1  'x, y, z'
loop_
 _atom_site_type_symbol
 _atom_site_label
 _atom_site_symmetry_multiplicity
 _atom_site_fract_x
 _atom_site_fract_y
 _atom_site_fract_z
 _atom_site_occupancy
  Er  Er0  1  0.252311  0.000000  0.750033  1
  Lu  Lu1  1  0.748126  0.000000  0.249996  1
  Lu  Lu2  1  0.999933  0.251612  0.749994  1
  Lu  Lu3  1  0.999921  0.748238  0.250006  1
  Lu  Lu4  1  0.748322  0.748388  0.749994  1
  Lu  Lu5  1  0.251683  0.251762  0.250006  1
  Lu  Lu6  1  0.333402  0.666609  0.499975  1
  Lu  Lu7  1  0.666794  0.333391  0.499975  1
  Lu  Lu8  1  0.666807  0.333388  0.000028  1
  Lu  Lu9  1  0.333418  0.666612  0.000028  1
  Ge  Ge10  1  0.999365  0.000000  0.499161  1
  Ge  Ge11  1  0.999370  0.000000  0.000833  1
  Pb  Pb12  1  0.607265  0.000000  0.750015  1
  Pb  Pb13  1  0.393341  0.000000  0.249995  1
  Pb  Pb14  1  0.999609  0.605907  0.749999  1
  Pb  Pb15  1  0.000061  0.393490  0.249981  1
  Pb  Pb16  1  0.393702  0.394093  0.749999  1
  Pb  Pb17  1  0.606571  0.606510  0.249981  1
