# generated using pymatgen
data_Tm5(TlSb)2
_symmetry_space_group_name_H-M   'P 1'
_cell_length_a   8.74060200
_cell_length_b   8.74060234
_cell_length_c   8.02916100
_cell_angle_alpha   90.00000000
_cell_angle_beta   90.00000000
_cell_angle_gamma   125.32865723
_symmetry_Int_Tables_number   1
_chemical_formula_structural   Tm5(TlSb)2
_chemical_formula_sum   'Tm10 Tl4 Sb4'
_cell_volume   500.45193691
_cell_formula_units_Z   2
loop_
 _symmetry_equiv_pos_site_id
 _symmetry_equiv_pos_as_xyz
  1  'x, y, z'
loop_
 _atom_site_type_symbol
 _atom_site_label
 _atom_site_symmetry_multiplicity
 _atom_site_fract_x
 _atom_site_fract_y
 _atom_site_fract_z
 _atom_site_occupancy
  Tm  Tm0  1  0.530445  0.805195  0.165217  1
  Tm  Tm1  1  0.305195  0.030445  0.334783  1
  Tm  Tm2  1  0.194805  0.469555  0.834783  1
  Tm  Tm3  1  0.969555  0.694805  0.665217  1
  Tm  Tm4  1  0.694805  0.969555  0.665217  1
  Tm  Tm5  1  0.469555  0.194805  0.834783  1
  Tm  Tm6  1  0.805195  0.530445  0.165217  1
  Tm  Tm7  1  0.030445  0.305195  0.334783  1
  Tm  Tm8  1  0.500000  0.500000  0.500000  1
  Tm  Tm9  1  0.000000  0.000000  0.000000  1
  Tl  Tl10  1  0.634150  0.634150  0.867054  1
  Tl  Tl11  1  0.134150  0.134150  0.632946  1
  Tl  Tl12  1  0.865850  0.865850  0.367054  1
  Tl  Tl13  1  0.365850  0.365850  0.132946  1
  Sb  Sb14  1  0.296674  0.703326  0.500000  1
  Sb  Sb15  1  0.203326  0.796674  0.000000  1
  Sb  Sb16  1  0.703326  0.296674  0.500000  1
  Sb  Sb17  1  0.796674  0.203326  0.000000  1
