# generated using pymatgen
data_Tb(Al3Pt)3
_symmetry_space_group_name_H-M   'P 1'
_cell_length_a   10.41469971
_cell_length_b   10.41469932
_cell_length_c   10.41470068
_cell_angle_alpha   42.31192918
_cell_angle_beta   42.31193097
_cell_angle_gamma   42.31192527
_symmetry_Int_Tables_number   1
_chemical_formula_structural   Tb(Al3Pt)3
_chemical_formula_sum   'Tb2 Al18 Pt6'
_cell_volume   463.33995671
_cell_formula_units_Z   2
loop_
 _symmetry_equiv_pos_site_id
 _symmetry_equiv_pos_as_xyz
  1  'x, y, z'
loop_
 _atom_site_type_symbol
 _atom_site_label
 _atom_site_symmetry_multiplicity
 _atom_site_fract_x
 _atom_site_fract_y
 _atom_site_fract_z
 _atom_site_occupancy
  Tb  Tb0  1  0.166870  0.166870  0.166870  1
  Tb  Tb1  1  0.833130  0.833130  0.833130  1
  Al  Al2  1  0.107577  0.435825  0.764400  1
  Al  Al3  1  0.435825  0.764400  0.107577  1
  Al  Al4  1  0.564175  0.892423  0.235600  1
  Al  Al5  1  0.949376  0.949376  0.949376  1
  Al  Al6  1  0.050624  0.050624  0.050624  1
  Al  Al7  1  0.296300  0.703700  0.500000  1
  Al  Al8  1  0.892423  0.235600  0.564175  1
  Al  Al9  1  0.385387  0.385387  0.385387  1
  Al  Al10  1  0.500000  0.296300  0.703700  1
  Al  Al11  1  0.235600  0.564175  0.892423  1
  Al  Al12  1  0.716862  0.716862  0.716862  1
  Al  Al13  1  0.614613  0.614613  0.614613  1
  Al  Al14  1  0.334012  0.000000  0.665988  1
  Al  Al15  1  0.703700  0.500000  0.296300  1
  Al  Al16  1  0.665988  0.334012  0.000000  1
  Al  Al17  1  0.283138  0.283138  0.283138  1
  Al  Al18  1  0.000000  0.665988  0.334012  1
  Al  Al19  1  0.764400  0.107577  0.435825  1
  Pt  Pt20  1  0.418798  0.077000  0.760414  1
  Pt  Pt21  1  0.581202  0.239586  0.923000  1
  Pt  Pt22  1  0.077000  0.760414  0.418798  1
  Pt  Pt23  1  0.760414  0.418798  0.077000  1
  Pt  Pt24  1  0.923000  0.581202  0.239586  1
  Pt  Pt25  1  0.239586  0.923000  0.581202  1
