# generated using pymatgen
data_Y2HoAl3Cu2Pd
_symmetry_space_group_name_H-M   'P 1'
_cell_length_a   7.09876655
_cell_length_b   7.10742905
_cell_length_c   4.00970500
_cell_angle_alpha   90.00000000
_cell_angle_beta   90.00000000
_cell_angle_gamma   120.05670744
_symmetry_Int_Tables_number   1
_chemical_formula_structural   Y2HoAl3Cu2Pd
_chemical_formula_sum   'Y2 Ho1 Al3 Cu2 Pd1'
_cell_volume   175.10156677
_cell_formula_units_Z   1
loop_
 _symmetry_equiv_pos_site_id
 _symmetry_equiv_pos_as_xyz
  1  'x, y, z'
loop_
 _atom_site_type_symbol
 _atom_site_label
 _atom_site_symmetry_multiplicity
 _atom_site_fract_x
 _atom_site_fract_y
 _atom_site_fract_z
 _atom_site_occupancy
  Y  Y0  1  0.587171  0.586379  0.500000  1
  Y  Y1  1  0.413594  0.000677  0.500000  1
  Ho  Ho2  1  0.999717  0.412993  0.500000  1
  Al  Al3  1  0.000574  0.765827  0.000000  1
  Al  Al4  1  0.233798  0.234612  0.000000  1
  Al  Al5  1  0.765593  0.999661  0.000000  1
  Cu  Cu6  1  0.667632  0.333611  0.000000  1
  Cu  Cu7  1  0.999987  0.000605  0.500000  1
  Pd  Pd8  1  0.331933  0.665634  0.000000  1
