# generated using pymatgen
data_Y5Mg(P2Rh3)6
_symmetry_space_group_name_H-M   'P 1'
_cell_length_a   12.74621781
_cell_length_b   12.77560120
_cell_length_c   3.91864400
_cell_angle_alpha   90.00000000
_cell_angle_beta   90.00000000
_cell_angle_gamma   120.07628784
_symmetry_Int_Tables_number   1
_chemical_formula_structural   Y5Mg(P2Rh3)6
_chemical_formula_sum   'Y5 Mg1 P12 Rh18'
_cell_volume   552.19790805
_cell_formula_units_Z   1
loop_
 _symmetry_equiv_pos_site_id
 _symmetry_equiv_pos_as_xyz
  1  'x, y, z'
loop_
 _atom_site_type_symbol
 _atom_site_label
 _atom_site_symmetry_multiplicity
 _atom_site_fract_x
 _atom_site_fract_y
 _atom_site_fract_z
 _atom_site_occupancy
  Y  Y0  1  0.000000  0.188959  0.500000  1
  Y  Y1  1  0.810379  0.810283  0.500000  1
  Y  Y2  1  0.189621  0.999905  0.500000  1
  Y  Y3  1  0.665946  0.332813  0.000000  1
  Y  Y4  1  0.334054  0.666868  0.000000  1
  Mg  Mg5  1  0.000000  0.556898  0.000000  1
  P  P6  1  0.000000  0.821999  0.000000  1
  P  P7  1  0.179274  0.177177  0.000000  1
  P  P8  1  0.820726  0.997903  0.000000  1
  P  P9  1  0.687746  0.167735  0.500000  1
  P  P10  1  0.826158  0.514477  0.500000  1
  P  P11  1  0.482352  0.314458  0.500000  1
  P  P12  1  0.173842  0.688319  0.500000  1
  P  P13  1  0.517648  0.832105  0.500000  1
  P  P14  1  0.312254  0.479989  0.500000  1
  P  P15  1  0.000000  0.359737  0.000000  1
  P  P16  1  0.633386  0.636214  0.000000  1
  P  P17  1  0.366614  0.002829  0.000000  1
  Rh  Rh18  1  0.452455  0.455614  0.000000  1
  Rh  Rh19  1  0.547545  0.003159  0.000000  1
  Rh  Rh20  1  0.000000  0.718880  0.500000  1
  Rh  Rh21  1  0.281953  0.280549  0.500000  1
  Rh  Rh22  1  0.718047  0.998596  0.500000  1
  Rh  Rh23  1  0.802711  0.176206  0.000000  1
  Rh  Rh24  1  0.818332  0.623200  0.000000  1
  Rh  Rh25  1  0.377352  0.196927  0.000000  1
  Rh  Rh26  1  0.181668  0.804867  0.000000  1
  Rh  Rh27  1  0.622648  0.819574  0.000000  1
  Rh  Rh28  1  0.197289  0.373494  0.000000  1
  Rh  Rh29  1  0.870297  0.358084  0.500000  1
  Rh  Rh30  1  0.639867  0.510527  0.500000  1
  Rh  Rh31  1  0.492024  0.132933  0.500000  1
  Rh  Rh32  1  0.360133  0.870659  0.500000  1
  Rh  Rh33  1  0.507976  0.640909  0.500000  1
  Rh  Rh34  1  0.129703  0.487787  0.500000  1
  Rh  Rh35  1  0.000000  0.999365  0.000000  1
