# generated using pymatgen
data_Ca2Al4Ge2Ir
_symmetry_space_group_name_H-M   'P 1'
_cell_length_a   4.22800095
_cell_length_b   4.22800007
_cell_length_c   10.28535300
_cell_angle_alpha   101.92456520
_cell_angle_beta   101.92454881
_cell_angle_gamma   89.93100760
_symmetry_Int_Tables_number   1
_chemical_formula_structural   Ca2Al4Ge2Ir
_chemical_formula_sum   'Ca2 Al4 Ge2 Ir1'
_cell_volume   175.84584543
_cell_formula_units_Z   1
loop_
 _symmetry_equiv_pos_site_id
 _symmetry_equiv_pos_as_xyz
  1  'x, y, z'
loop_
 _atom_site_type_symbol
 _atom_site_label
 _atom_site_symmetry_multiplicity
 _atom_site_fract_x
 _atom_site_fract_y
 _atom_site_fract_z
 _atom_site_occupancy
  Ca  Ca0  1  0.187289  0.187289  0.374167  1
  Ca  Ca1  1  0.812712  0.812712  0.625833  1
  Al  Al2  1  0.569106  0.069373  0.138288  1
  Al  Al3  1  0.069373  0.569106  0.138288  1
  Al  Al4  1  0.930627  0.430894  0.861712  1
  Al  Al5  1  0.430894  0.930627  0.861712  1
  Ge  Ge6  1  0.657541  0.657541  0.314714  1
  Ge  Ge7  1  0.342462  0.342462  0.685288  1
  Ir  Ir8  1  0.000000  0.000000  0.000000  1
