# generated using pymatgen
data_Sm2Cr2(Tc5C)3
_symmetry_space_group_name_H-M   'P 1'
_cell_length_a   6.95463304
_cell_length_b   6.95463490
_cell_length_c   6.95618455
_cell_angle_alpha   82.60523912
_cell_angle_beta   82.60523596
_cell_angle_gamma   82.96944883
_symmetry_Int_Tables_number   1
_chemical_formula_structural   Sm2Cr2(Tc5C)3
_chemical_formula_sum   'Sm2 Cr2 Tc15 C3'
_cell_volume   328.95448563
_cell_formula_units_Z   1
loop_
 _symmetry_equiv_pos_site_id
 _symmetry_equiv_pos_as_xyz
  1  'x, y, z'
loop_
 _atom_site_type_symbol
 _atom_site_label
 _atom_site_symmetry_multiplicity
 _atom_site_fract_x
 _atom_site_fract_y
 _atom_site_fract_z
 _atom_site_occupancy
  Sm  Sm0  1  0.650104  0.650104  0.649401  1
  Sm  Sm1  1  0.349896  0.349896  0.350599  1
  Cr  Cr2  1  0.500000  0.000000  0.000000  1
  Cr  Cr3  1  0.000000  0.500000  0.000000  1
  Tc  Tc4  1  0.000000  0.000000  0.500000  1
  Tc  Tc5  1  0.721921  0.278079  0.000000  1
  Tc  Tc6  1  0.000932  0.719610  0.274517  1
  Tc  Tc7  1  0.280390  0.999068  0.725483  1
  Tc  Tc8  1  0.999068  0.280390  0.725483  1
  Tc  Tc9  1  0.719610  0.000932  0.274517  1
  Tc  Tc10  1  0.278079  0.721921  0.000000  1
  Tc  Tc11  1  0.349747  0.865249  0.343239  1
  Tc  Tc12  1  0.343179  0.343179  0.869739  1
  Tc  Tc13  1  0.865249  0.349747  0.343239  1
  Tc  Tc14  1  0.650253  0.134751  0.656761  1
  Tc  Tc15  1  0.656821  0.656821  0.130261  1
  Tc  Tc16  1  0.134751  0.650253  0.656761  1
  Tc  Tc17  1  0.901356  0.901356  0.902172  1
  Tc  Tc18  1  0.098644  0.098644  0.097828  1
  C  C19  1  0.500000  0.500000  0.000000  1
  C  C20  1  0.000000  0.500000  0.500000  1
  C  C21  1  0.500000  0.000000  0.500000  1
