# generated using pymatgen
data_Cr12Si3Ge
_symmetry_space_group_name_H-M   'P 1'
_cell_length_a   4.53790300
_cell_length_b   4.53520200
_cell_length_c   9.07349100
_cell_angle_alpha   90.00000000
_cell_angle_beta   90.00000000
_cell_angle_gamma   90.00000000
_symmetry_Int_Tables_number   1
_chemical_formula_structural   Cr12Si3Ge
_chemical_formula_sum   'Cr12 Si3 Ge1'
_cell_volume   186.73522818
_cell_formula_units_Z   1
loop_
 _symmetry_equiv_pos_site_id
 _symmetry_equiv_pos_as_xyz
  1  'x, y, z'
loop_
 _atom_site_type_symbol
 _atom_site_label
 _atom_site_symmetry_multiplicity
 _atom_site_fract_x
 _atom_site_fract_y
 _atom_site_fract_z
 _atom_site_occupancy
  Cr  Cr0  1  0.000000  0.500000  0.128545  1
  Cr  Cr1  1  0.000000  0.500000  0.625896  1
  Cr  Cr2  1  0.500000  0.247452  0.747313  1
  Cr  Cr3  1  0.500000  0.247452  0.252687  1
  Cr  Cr4  1  0.753569  0.000000  0.000000  1
  Cr  Cr5  1  0.750961  0.000000  0.500000  1
  Cr  Cr6  1  0.000000  0.500000  0.871455  1
  Cr  Cr7  1  0.000000  0.500000  0.374104  1
  Cr  Cr8  1  0.500000  0.752548  0.747313  1
  Cr  Cr9  1  0.500000  0.752548  0.252687  1
  Cr  Cr10  1  0.246431  0.000000  0.000000  1
  Cr  Cr11  1  0.249039  0.000000  0.500000  1
  Si  Si12  1  0.500000  0.500000  0.500000  1
  Si  Si13  1  0.000000  0.000000  0.749289  1
  Si  Si14  1  0.000000  0.000000  0.250711  1
  Ge  Ge15  1  0.500000  0.500000  0.000000  1
