# generated using pymatgen
data_Tb2Ho5Tm3(CoSb2)2
_symmetry_space_group_name_H-M   'P 1'
_cell_length_a   7.83017000
_cell_length_b   8.75571342
_cell_length_c   12.13789257
_cell_angle_alpha   89.96470635
_cell_angle_beta   90.00000000
_cell_angle_gamma   90.00000000
_symmetry_Int_Tables_number   1
_chemical_formula_structural   Tb2Ho5Tm3(CoSb2)2
_chemical_formula_sum   'Tb4 Ho10 Tm6 Co4 Sb8'
_cell_volume   832.15827539
_cell_formula_units_Z   2
loop_
 _symmetry_equiv_pos_site_id
 _symmetry_equiv_pos_as_xyz
  1  'x, y, z'
loop_
 _atom_site_type_symbol
 _atom_site_label
 _atom_site_symmetry_multiplicity
 _atom_site_fract_x
 _atom_site_fract_y
 _atom_site_fract_z
 _atom_site_occupancy
  Tb  Tb0  1  0.623114  0.749821  0.307155  1
  Tb  Tb1  1  0.123114  0.250179  0.192845  1
  Tb  Tb2  1  0.377809  0.250370  0.692897  1
  Tb  Tb3  1  0.877809  0.749630  0.807103  1
  Ho  Ho4  1  0.154451  0.749735  0.203264  1
  Ho  Ho5  1  0.654451  0.250265  0.296736  1
  Ho  Ho6  1  0.845633  0.250104  0.796454  1
  Ho  Ho7  1  0.345633  0.749896  0.703546  1
  Ho  Ho8  1  0.450520  0.749714  0.997684  1
  Ho  Ho9  1  0.950520  0.250286  0.502316  1
  Ho  Ho10  1  0.547893  0.250458  0.002102  1
  Ho  Ho11  1  0.047893  0.749542  0.497898  1
  Ho  Ho12  1  0.822090  0.964329  0.065105  1
  Ho  Ho13  1  0.322090  0.035671  0.434895  1
  Tm  Tm14  1  0.176092  0.463638  0.934586  1
  Tm  Tm15  1  0.676092  0.536362  0.565414  1
  Tm  Tm16  1  0.176307  0.036166  0.934646  1
  Tm  Tm17  1  0.676307  0.963834  0.565354  1
  Tm  Tm18  1  0.823978  0.535942  0.065041  1
  Tm  Tm19  1  0.323978  0.464058  0.434959  1
  Co  Co20  1  0.435295  0.749628  0.491600  1
  Co  Co21  1  0.935295  0.250372  0.008400  1
  Co  Co22  1  0.566462  0.250594  0.508867  1
  Co  Co23  1  0.066462  0.749406  0.991133  1
  Sb  Sb24  1  0.929526  0.991767  0.327780  1
  Sb  Sb25  1  0.429526  0.008233  0.172220  1
  Sb  Sb26  1  0.070261  0.491771  0.672126  1
  Sb  Sb27  1  0.570261  0.508229  0.827874  1
  Sb  Sb28  1  0.070330  0.008182  0.672125  1
  Sb  Sb29  1  0.570330  0.991818  0.827875  1
  Sb  Sb30  1  0.930239  0.508053  0.327696  1
  Sb  Sb31  1  0.430239  0.491947  0.172304  1
