# generated using pymatgen
data_Ac2Si9Ni17
_symmetry_space_group_name_H-M   'P 1'
_cell_length_a   8.10561631
_cell_length_b   7.97824113
_cell_length_c   7.90276672
_cell_angle_alpha   61.37836268
_cell_angle_beta   59.76960985
_cell_angle_gamma   58.85203142
_symmetry_Int_Tables_number   1
_chemical_formula_structural   Ac2Si9Ni17
_chemical_formula_sum   'Ac2 Si9 Ni17'
_cell_volume   361.01179507
_cell_formula_units_Z   1
loop_
 _symmetry_equiv_pos_site_id
 _symmetry_equiv_pos_as_xyz
  1  'x, y, z'
loop_
 _atom_site_type_symbol
 _atom_site_label
 _atom_site_symmetry_multiplicity
 _atom_site_fract_x
 _atom_site_fract_y
 _atom_site_fract_z
 _atom_site_occupancy
  Ac  Ac0  1  0.250000  0.250000  0.250000  1
  Ac  Ac1  1  0.750000  0.750000  0.750000  1
  Si  Si2  1  0.699712  0.060446  0.939554  1
  Si  Si3  1  0.060446  0.699712  0.300288  1
  Si  Si4  1  0.211150  0.557770  0.788850  1
  Si  Si5  1  0.557770  0.211150  0.442230  1
  Si  Si6  1  0.300288  0.939554  0.060446  1
  Si  Si7  1  0.939554  0.300288  0.699712  1
  Si  Si8  1  0.788850  0.442230  0.211150  1
  Si  Si9  1  0.442230  0.788850  0.557770  1
  Si  Si10  1  0.000000  0.000000  0.000000  1
  Ni  Ni11  1  0.716174  0.283826  0.059472  1
  Ni  Ni12  1  0.283826  0.716174  0.940528  1
  Ni  Ni13  1  0.205155  0.794845  0.435364  1
  Ni  Ni14  1  0.794845  0.205155  0.564636  1
  Ni  Ni15  1  0.435364  0.564636  0.205155  1
  Ni  Ni16  1  0.564636  0.435364  0.794845  1
  Ni  Ni17  1  0.059472  0.940528  0.716174  1
  Ni  Ni18  1  0.940528  0.059472  0.283826  1
  Ni  Ni19  1  0.440670  0.189744  0.810256  1
  Ni  Ni20  1  0.189744  0.440670  0.559330  1
  Ni  Ni21  1  0.941381  0.689886  0.058619  1
  Ni  Ni22  1  0.689886  0.941381  0.310114  1
  Ni  Ni23  1  0.559330  0.810256  0.189744  1
  Ni  Ni24  1  0.810256  0.559330  0.440670  1
  Ni  Ni25  1  0.058619  0.310114  0.941381  1
  Ni  Ni26  1  0.310114  0.058619  0.689886  1
  Ni  Ni27  1  0.500000  0.500000  0.500000  1
