# generated using pymatgen
data_Ho11Hf(Si3Ir)4
_symmetry_space_group_name_H-M   'P 1'
_cell_length_a   4.18909900
_cell_length_b   10.60170437
_cell_length_c   12.19026197
_cell_angle_alpha   89.80586700
_cell_angle_beta   90.00000000
_cell_angle_gamma   90.00000000
_symmetry_Int_Tables_number   1
_chemical_formula_structural   Ho11Hf(Si3Ir)4
_chemical_formula_sum   'Ho11 Hf1 Si12 Ir4'
_cell_volume   541.38579884
_cell_formula_units_Z   1
loop_
 _symmetry_equiv_pos_site_id
 _symmetry_equiv_pos_as_xyz
  1  'x, y, z'
loop_
 _atom_site_type_symbol
 _atom_site_label
 _atom_site_symmetry_multiplicity
 _atom_site_fract_x
 _atom_site_fract_y
 _atom_site_fract_z
 _atom_site_occupancy
  Ho  Ho0  1  0.250000  0.880960  0.018943  1
  Ho  Ho1  1  0.250000  0.619498  0.520241  1
  Ho  Ho2  1  0.750000  0.120388  0.978212  1
  Ho  Ho3  1  0.750000  0.378341  0.481198  1
  Ho  Ho4  1  0.250000  0.920928  0.603141  1
  Ho  Ho5  1  0.250000  0.581453  0.102784  1
  Ho  Ho6  1  0.750000  0.079986  0.401430  1
  Ho  Ho7  1  0.750000  0.417963  0.895837  1
  Ho  Ho8  1  0.250000  0.659166  0.800631  1
  Ho  Ho9  1  0.250000  0.842310  0.301243  1
  Ho  Ho10  1  0.750000  0.340183  0.198944  1
  Hf  Hf11  1  0.750000  0.158848  0.700826  1
  Si  Si12  1  0.250000  0.014301  0.819531  1
  Si  Si13  1  0.250000  0.488476  0.321048  1
  Si  Si14  1  0.750000  0.990554  0.178827  1
  Si  Si15  1  0.750000  0.511562  0.678604  1
  Si  Si16  1  0.250000  0.243963  0.836216  1
  Si  Si17  1  0.250000  0.251961  0.342652  1
  Si  Si18  1  0.750000  0.753797  0.159446  1
  Si  Si19  1  0.750000  0.746025  0.658396  1
  Si  Si20  1  0.250000  0.197642  0.552373  1
  Si  Si21  1  0.250000  0.298620  0.041644  1
  Si  Si22  1  0.750000  0.799234  0.456121  1
  Si  Si23  1  0.750000  0.701202  0.955776  1
  Ir  Ir24  1  0.250000  0.387305  0.680323  1
  Ir  Ir25  1  0.250000  0.111173  0.180633  1
  Ir  Ir26  1  0.750000  0.609531  0.319721  1
  Ir  Ir27  1  0.750000  0.894628  0.815260  1
