# generated using pymatgen
data_Hf5BeSn3
_symmetry_space_group_name_H-M   'P 1'
_cell_length_a   5.78471600
_cell_length_b   8.54067654
_cell_length_c   8.54067800
_cell_angle_alpha   119.99999793
_cell_angle_beta   90.00000000
_cell_angle_gamma   90.00000000
_symmetry_Int_Tables_number   1
_chemical_formula_structural   Hf5BeSn3
_chemical_formula_sum   'Hf10 Be2 Sn6'
_cell_volume   365.42420042
_cell_formula_units_Z   2
loop_
 _symmetry_equiv_pos_site_id
 _symmetry_equiv_pos_as_xyz
  1  'x, y, z'
loop_
 _atom_site_type_symbol
 _atom_site_label
 _atom_site_symmetry_multiplicity
 _atom_site_fract_x
 _atom_site_fract_y
 _atom_site_fract_z
 _atom_site_occupancy
  Hf  Hf0  1  0.750000  0.751852  0.751852  1
  Hf  Hf1  1  0.250000  0.248148  0.248148  1
  Hf  Hf2  1  0.750000  0.000000  0.248148  1
  Hf  Hf3  1  0.250000  0.000000  0.751852  1
  Hf  Hf4  1  0.750000  0.248148  0.000000  1
  Hf  Hf5  1  0.250000  0.751852  0.000000  1
  Hf  Hf6  1  0.000000  0.666667  0.333333  1
  Hf  Hf7  1  0.000000  0.333333  0.666667  1
  Hf  Hf8  1  0.500000  0.333333  0.666667  1
  Hf  Hf9  1  0.500000  0.666667  0.333333  1
  Be  Be10  1  0.000000  0.000000  0.000000  1
  Be  Be11  1  0.500000  0.000000  0.000000  1
  Sn  Sn12  1  0.750000  0.392010  0.392010  1
  Sn  Sn13  1  0.250000  0.607990  0.607990  1
  Sn  Sn14  1  0.750000  0.000000  0.607990  1
  Sn  Sn15  1  0.250000  0.000000  0.392010  1
  Sn  Sn16  1  0.750000  0.607990  0.000000  1
  Sn  Sn17  1  0.250000  0.392010  0.000000  1
