# generated using pymatgen
data_K2PaWBr12
_symmetry_space_group_name_H-M   'P 1'
_cell_length_a   10.83038709
_cell_length_b   7.70227797
_cell_length_c   7.68232200
_cell_angle_alpha   90.00284163
_cell_angle_beta   89.44391408
_cell_angle_gamma   89.95919043
_symmetry_Int_Tables_number   1
_chemical_formula_structural   K2PaWBr12
_chemical_formula_sum   'K2 Pa1 W1 Br12'
_cell_volume   640.81859799
_cell_formula_units_Z   1
loop_
 _symmetry_equiv_pos_site_id
 _symmetry_equiv_pos_as_xyz
  1  'x, y, z'
loop_
 _atom_site_type_symbol
 _atom_site_label
 _atom_site_symmetry_multiplicity
 _atom_site_fract_x
 _atom_site_fract_y
 _atom_site_fract_z
 _atom_site_occupancy
  K  K0  1  0.717010  0.255479  0.284798  1
  K  K1  1  0.243181  0.746726  0.708728  1
  Pa  Pa2  1  0.993529  0.248925  0.755097  1
  W  W3  1  0.493585  0.751361  0.244779  1
  Br  Br4  1  0.490609  0.983030  0.478930  1
  Br  Br5  1  0.742184  0.247700  0.759948  1
  Br  Br6  1  0.996969  0.999589  0.002780  1
  Br  Br7  1  0.995860  0.499497  0.001489  1
  Br  Br8  1  0.497024  0.980974  0.015606  1
  Br  Br9  1  0.724572  0.747218  0.255364  1
  Br  Br10  1  0.262542  0.751566  0.242313  1
  Br  Br11  1  0.488011  0.521585  0.479904  1
  Br  Br12  1  0.991478  0.999371  0.504653  1
  Br  Br13  1  0.990120  0.497566  0.503200  1
  Br  Br14  1  0.244631  0.251112  0.745949  1
  Br  Br15  1  0.497605  0.518300  0.016465  1
