# generated using pymatgen
data_Ho12InCo2Ru3
_symmetry_space_group_name_H-M   'P 1'
_cell_length_a   8.32878496
_cell_length_b   8.32947074
_cell_length_c   8.32878628
_cell_angle_alpha   113.07663980
_cell_angle_beta   109.74643979
_cell_angle_gamma   105.67172263
_symmetry_Int_Tables_number   1
_chemical_formula_structural   Ho12InCo2Ru3
_chemical_formula_sum   'Ho12 In1 Co2 Ru3'
_cell_volume   442.95617298
_cell_formula_units_Z   1
loop_
 _symmetry_equiv_pos_site_id
 _symmetry_equiv_pos_as_xyz
  1  'x, y, z'
loop_
 _atom_site_type_symbol
 _atom_site_label
 _atom_site_symmetry_multiplicity
 _atom_site_fract_x
 _atom_site_fract_y
 _atom_site_fract_z
 _atom_site_occupancy
  Ho  Ho0  1  0.821618  0.723008  0.544667  1
  Ho  Ho1  1  0.178382  0.276992  0.455333  1
  Ho  Ho2  1  0.178342  0.723008  0.901390  1
  Ho  Ho3  1  0.821658  0.276992  0.098610  1
  Ho  Ho4  1  0.679071  0.362300  0.683230  1
  Ho  Ho5  1  0.320929  0.637700  0.316770  1
  Ho  Ho6  1  0.678995  0.995882  0.316887  1
  Ho  Ho7  1  0.321005  0.004118  0.683113  1
  Ho  Ho8  1  0.582590  0.769066  0.813542  1
  Ho  Ho9  1  0.417410  0.230934  0.186458  1
  Ho  Ho10  1  0.955525  0.769066  0.186477  1
  Ho  Ho11  1  0.044475  0.230934  0.813523  1
  In  In12  1  0.500000  0.500000  0.000000  1
  Co  Co13  1  0.110155  0.610164  0.500010  1
  Co  Co14  1  0.889845  0.389836  0.499990  1
  Ru  Ru15  1  0.663354  0.000000  0.663354  1
  Ru  Ru16  1  0.336646  0.000000  0.336646  1
  Ru  Ru17  1  0.000000  0.000000  0.000000  1
