# generated using pymatgen
data_Th7OsPt2
_symmetry_space_group_name_H-M   'P 1'
_cell_length_a   10.12547425
_cell_length_b   10.12525247
_cell_length_c   6.33127789
_cell_angle_alpha   90.00000271
_cell_angle_beta   89.92354020
_cell_angle_gamma   119.99927247
_symmetry_Int_Tables_number   1
_chemical_formula_structural   Th7OsPt2
_chemical_formula_sum   'Th14 Os2 Pt4'
_cell_volume   562.14183897
_cell_formula_units_Z   2
loop_
 _symmetry_equiv_pos_site_id
 _symmetry_equiv_pos_as_xyz
  1  'x, y, z'
loop_
 _atom_site_type_symbol
 _atom_site_label
 _atom_site_symmetry_multiplicity
 _atom_site_fract_x
 _atom_site_fract_y
 _atom_site_fract_z
 _atom_site_occupancy
  Th  Th0  1  0.453764  0.537350  0.288479  1
  Th  Th1  1  0.087576  0.543788  0.293185  1
  Th  Th2  1  0.919874  0.459937  0.784465  1
  Th  Th3  1  0.251132  0.125566  0.499689  1
  Th  Th4  1  0.538127  0.079956  0.781787  1
  Th  Th5  1  0.740228  0.870114  0.001606  1
  Th  Th6  1  0.667070  0.333535  0.332188  1
  Th  Th7  1  0.130872  0.867891  0.994228  1
  Th  Th8  1  0.453764  0.916414  0.288479  1
  Th  Th9  1  0.538127  0.458171  0.781787  1
  Th  Th10  1  0.878588  0.134144  0.498622  1
  Th  Th11  1  0.130872  0.262980  0.994228  1
  Th  Th12  1  0.878588  0.744444  0.498622  1
  Th  Th13  1  0.328615  0.664308  0.809679  1
  Os  Os14  1  0.188911  0.372575  0.555078  1
  Os  Os15  1  0.188911  0.816335  0.555078  1
  Pt  Pt16  1  0.809971  0.623249  0.055834  1
  Pt  Pt17  1  0.809971  0.186722  0.055834  1
  Pt  Pt18  1  0.627948  0.813974  0.559577  1
  Pt  Pt19  1  0.377094  0.188547  0.055551  1
