# generated using pymatgen
data_Nb3Ir2Rh7
_symmetry_space_group_name_H-M   'P 1'
_cell_length_a   5.56044604
_cell_length_b   5.56044511
_cell_length_c   13.48511300
_cell_angle_alpha   90.00000000
_cell_angle_beta   90.00000000
_cell_angle_gamma   120.01428530
_symmetry_Int_Tables_number   1
_chemical_formula_structural   Nb3Ir2Rh7
_chemical_formula_sum   'Nb6 Ir4 Rh14'
_cell_volume   361.02882367
_cell_formula_units_Z   2
loop_
 _symmetry_equiv_pos_site_id
 _symmetry_equiv_pos_as_xyz
  1  'x, y, z'
loop_
 _atom_site_type_symbol
 _atom_site_label
 _atom_site_symmetry_multiplicity
 _atom_site_fract_x
 _atom_site_fract_y
 _atom_site_fract_z
 _atom_site_occupancy
  Nb  Nb0  1  0.999914  0.000086  0.250000  1
  Nb  Nb1  1  0.000590  0.999410  0.750000  1
  Nb  Nb2  1  0.333266  0.666734  0.410812  1
  Nb  Nb3  1  0.666348  0.333652  0.589820  1
  Nb  Nb4  1  0.666348  0.333652  0.910180  1
  Nb  Nb5  1  0.333266  0.666734  0.089188  1
  Ir  Ir6  1  0.504145  0.495855  0.250000  1
  Ir  Ir7  1  0.504186  0.008686  0.250000  1
  Ir  Ir8  1  0.991314  0.495814  0.250000  1
  Ir  Ir9  1  0.495558  0.504442  0.750000  1
  Rh  Rh10  1  0.495867  0.991994  0.750000  1
  Rh  Rh11  1  0.008006  0.504133  0.750000  1
  Rh  Rh12  1  0.165377  0.329886  0.917240  1
  Rh  Rh13  1  0.670114  0.834623  0.917240  1
  Rh  Rh14  1  0.164938  0.835062  0.917781  1
  Rh  Rh15  1  0.835143  0.670133  0.082426  1
  Rh  Rh16  1  0.329867  0.164857  0.082426  1
  Rh  Rh17  1  0.835156  0.164844  0.082686  1
  Rh  Rh18  1  0.835143  0.670133  0.417574  1
  Rh  Rh19  1  0.329867  0.164857  0.417574  1
  Rh  Rh20  1  0.835156  0.164844  0.417314  1
  Rh  Rh21  1  0.165377  0.329886  0.582760  1
  Rh  Rh22  1  0.670114  0.834623  0.582760  1
  Rh  Rh23  1  0.164938  0.835062  0.582219  1
