# generated using pymatgen
data_LaPr7(CdIr)2
_symmetry_space_group_name_H-M   'P 1'
_cell_length_a   10.05463781
_cell_length_b   10.05463764
_cell_length_c   10.05822500
_cell_angle_alpha   59.98842519
_cell_angle_beta   59.98842652
_cell_angle_gamma   60.00606572
_symmetry_Int_Tables_number   1
_chemical_formula_structural   LaPr7(CdIr)2
_chemical_formula_sum   'La2 Pr14 Cd4 Ir4'
_cell_volume   718.92419826
_cell_formula_units_Z   2
loop_
 _symmetry_equiv_pos_site_id
 _symmetry_equiv_pos_as_xyz
  1  'x, y, z'
loop_
 _atom_site_type_symbol
 _atom_site_label
 _atom_site_symmetry_multiplicity
 _atom_site_fract_x
 _atom_site_fract_y
 _atom_site_fract_z
 _atom_site_occupancy
  La  La0  1  0.346629  0.346629  0.347380  1
  La  La1  1  0.346628  0.346628  0.959373  1
  Pr  Pr2  1  0.347999  0.954153  0.348925  1
  Pr  Pr3  1  0.954153  0.347999  0.348925  1
  Pr  Pr4  1  0.810098  0.189814  0.190789  1
  Pr  Pr5  1  0.189822  0.810098  0.809301  1
  Pr  Pr6  1  0.189814  0.810098  0.190789  1
  Pr  Pr7  1  0.810098  0.189822  0.809301  1
  Pr  Pr8  1  0.189936  0.189936  0.810062  1
  Pr  Pr9  1  0.809343  0.809343  0.190657  1
  Pr  Pr10  1  0.938696  0.561298  0.561734  1
  Pr  Pr11  1  0.561294  0.938690  0.938279  1
  Pr  Pr12  1  0.561298  0.938696  0.561734  1
  Pr  Pr13  1  0.938690  0.561294  0.938279  1
  Pr  Pr14  1  0.562273  0.562273  0.937731  1
  Pr  Pr15  1  0.939075  0.939075  0.560914  1
  Cd  Cd16  1  0.580055  0.580055  0.579309  1
  Cd  Cd17  1  0.580061  0.580061  0.260574  1
  Cd  Cd18  1  0.580462  0.260058  0.579736  1
  Cd  Cd19  1  0.260058  0.580462  0.579736  1
  Ir  Ir20  1  0.142713  0.142713  0.139724  1
  Ir  Ir21  1  0.142704  0.142704  0.574852  1
  Ir  Ir22  1  0.143833  0.574268  0.140947  1
  Ir  Ir23  1  0.574268  0.143833  0.140947  1
