# generated using pymatgen
data_Pr5Y3(Lu3Ga4)4
_symmetry_space_group_name_H-M   'P 1'
_cell_length_a   7.55504399
_cell_length_b   7.86151060
_cell_length_c   14.90042300
_cell_angle_alpha   90.08647380
_cell_angle_beta   90.05888047
_cell_angle_gamma   90.08489811
_symmetry_Int_Tables_number   1
_chemical_formula_structural   Pr5Y3(Lu3Ga4)4
_chemical_formula_sum   'Pr5 Y3 Lu12 Ga16'
_cell_volume   884.99414533
_cell_formula_units_Z   1
loop_
 _symmetry_equiv_pos_site_id
 _symmetry_equiv_pos_as_xyz
  1  'x, y, z'
loop_
 _atom_site_type_symbol
 _atom_site_label
 _atom_site_symmetry_multiplicity
 _atom_site_fract_x
 _atom_site_fract_y
 _atom_site_fract_z
 _atom_site_occupancy
  Pr  Pr0  1  0.480988  0.677431  0.591020  1
  Pr  Pr1  1  0.981712  0.823241  0.591968  1
  Pr  Pr2  1  0.984136  0.819482  0.906130  1
  Pr  Pr3  1  0.517403  0.322503  0.092572  1
  Pr  Pr4  1  0.019032  0.177361  0.094147  1
  Y  Y5  1  0.016970  0.183126  0.404385  1
  Y  Y6  1  0.516755  0.316639  0.404694  1
  Y  Y7  1  0.482752  0.682075  0.904460  1
  Lu  Lu8  1  0.327329  0.175926  0.623253  1
  Lu  Lu9  1  0.675964  0.826507  0.377273  1
  Lu  Lu10  1  0.659759  0.991315  0.750185  1
  Lu  Lu11  1  0.174536  0.674160  0.377082  1
  Lu  Lu12  1  0.823777  0.326209  0.877569  1
  Lu  Lu13  1  0.825083  0.325184  0.622968  1
  Lu  Lu14  1  0.840139  0.490215  0.251402  1
  Lu  Lu15  1  0.341789  0.009327  0.251134  1
  Lu  Lu16  1  0.327484  0.173727  0.876191  1
  Lu  Lu17  1  0.174544  0.674599  0.125472  1
  Lu  Lu18  1  0.673456  0.824379  0.124734  1
  Lu  Lu19  1  0.159241  0.508384  0.750227  1
  Ga  Ga20  1  0.277724  0.875794  0.750000  1
  Ga  Ga21  1  0.471525  0.611284  0.252506  1
  Ga  Ga22  1  0.029344  0.114607  0.750323  1
  Ga  Ga23  1  0.528365  0.389141  0.751277  1
  Ga  Ga24  1  0.152851  0.463714  0.538832  1
  Ga  Ga25  1  0.971713  0.889194  0.252274  1
  Ga  Ga26  1  0.723958  0.124795  0.252754  1
  Ga  Ga27  1  0.845966  0.533257  0.041380  1
  Ga  Ga28  1  0.347084  0.962362  0.039868  1
  Ga  Ga29  1  0.161255  0.469143  0.959137  1
  Ga  Ga30  1  0.653729  0.037078  0.538996  1
  Ga  Ga31  1  0.340583  0.974733  0.457085  1
  Ga  Ga32  1  0.840305  0.526139  0.457113  1
  Ga  Ga33  1  0.774154  0.624009  0.750882  1
  Ga  Ga34  1  0.223647  0.374829  0.252230  1
  Ga  Ga35  1  0.654948  0.028131  0.958477  1
