# generated using pymatgen
data_Sc2U(AlRu)3
_symmetry_space_group_name_H-M   'P 1'
_cell_length_a   6.83144043
_cell_length_b   6.83144029
_cell_length_c   3.80644800
_cell_angle_alpha   90.00000000
_cell_angle_beta   90.00000000
_cell_angle_gamma   116.71582324
_symmetry_Int_Tables_number   1
_chemical_formula_structural   Sc2U(AlRu)3
_chemical_formula_sum   'Sc2 U1 Al3 Ru3'
_cell_volume   158.67779610
_cell_formula_units_Z   1
loop_
 _symmetry_equiv_pos_site_id
 _symmetry_equiv_pos_as_xyz
  1  'x, y, z'
loop_
 _atom_site_type_symbol
 _atom_site_label
 _atom_site_symmetry_multiplicity
 _atom_site_fract_x
 _atom_site_fract_y
 _atom_site_fract_z
 _atom_site_occupancy
  Sc  Sc0  1  0.411187  0.001862  0.500000  1
  Sc  Sc1  1  0.001862  0.411187  0.500000  1
  U  U2  1  0.600279  0.600279  0.500000  1
  Al  Al3  1  0.746793  0.026563  0.000000  1
  Al  Al4  1  0.026563  0.746793  0.000000  1
  Al  Al5  1  0.221486  0.221486  0.000000  1
  Ru  Ru6  1  0.367861  0.650760  0.000000  1
  Ru  Ru7  1  0.650760  0.367861  0.000000  1
  Ru  Ru8  1  0.973210  0.973210  0.500000  1
