# generated using pymatgen
data_Tm4SiTc6Ge7
_symmetry_space_group_name_H-M   'P 1'
_cell_length_a   6.88154601
_cell_length_b   6.87453194
_cell_length_c   6.89546138
_cell_angle_alpha   69.73085813
_cell_angle_beta   90.23799872
_cell_angle_gamma   90.93701526
_symmetry_Int_Tables_number   1
_chemical_formula_structural   Tm4SiTc6Ge7
_chemical_formula_sum   'Tm4 Si1 Tc6 Ge7'
_cell_volume   305.96496633
_cell_formula_units_Z   1
loop_
 _symmetry_equiv_pos_site_id
 _symmetry_equiv_pos_as_xyz
  1  'x, y, z'
loop_
 _atom_site_type_symbol
 _atom_site_label
 _atom_site_symmetry_multiplicity
 _atom_site_fract_x
 _atom_site_fract_y
 _atom_site_fract_z
 _atom_site_occupancy
  Tm  Tm0  1  0.328553  0.552178  0.805787  1
  Tm  Tm1  1  0.829477  0.949304  0.192784  1
  Tm  Tm2  1  0.668596  0.445369  0.192523  1
  Tm  Tm3  1  0.171082  0.054242  0.804917  1
  Si  Si4  1  0.357709  0.363825  0.489611  1
  Tc  Tc5  1  0.497368  0.006517  0.499237  1
  Tc  Tc6  1  0.006452  0.497799  0.502695  1
  Tc  Tc7  1  0.850983  0.755671  0.759343  1
  Tc  Tc8  1  0.358836  0.726730  0.240454  1
  Tc  Tc9  1  0.149993  0.252360  0.242944  1
  Tc  Tc10  1  0.640171  0.260323  0.763257  1
  Ge  Ge11  1  0.552378  0.867413  0.896758  1
  Ge  Ge12  1  0.049224  0.637400  0.099232  1
  Ge  Ge13  1  0.443124  0.126568  0.105220  1
  Ge  Ge14  1  0.948507  0.366790  0.899669  1
  Ge  Ge15  1  0.148138  0.866196  0.480787  1
  Ge  Ge16  1  0.644888  0.634025  0.510166  1
  Ge  Ge17  1  0.854519  0.137289  0.514615  1
