# generated using pymatgen
data_Pr2NdAl4Cl
_symmetry_space_group_name_H-M   'P 1'
_cell_length_a   8.13603105
_cell_length_b   8.13603178
_cell_length_c   8.13603090
_cell_angle_alpha   119.25091989
_cell_angle_beta   119.25091520
_cell_angle_gamma   91.30241807
_symmetry_Int_Tables_number   1
_chemical_formula_structural   Pr2NdAl4Cl
_chemical_formula_sum   'Pr4 Nd2 Al8 Cl2'
_cell_volume   385.02685983
_cell_formula_units_Z   2
loop_
 _symmetry_equiv_pos_site_id
 _symmetry_equiv_pos_as_xyz
  1  'x, y, z'
loop_
 _atom_site_type_symbol
 _atom_site_label
 _atom_site_symmetry_multiplicity
 _atom_site_fract_x
 _atom_site_fract_y
 _atom_site_fract_z
 _atom_site_occupancy
  Pr  Pr0  1  0.840408  0.659592  0.500000  1
  Pr  Pr1  1  0.659592  0.159592  0.819184  1
  Pr  Pr2  1  0.340408  0.840408  0.180816  1
  Pr  Pr3  1  0.159592  0.340408  0.500000  1
  Nd  Nd4  1  0.250000  0.250000  0.000000  1
  Nd  Nd5  1  0.750000  0.750000  0.000000  1
  Al  Al6  1  0.158154  0.945353  0.500000  1
  Al  Al7  1  0.445353  0.658154  0.500000  1
  Al  Al8  1  0.554647  0.341846  0.500000  1
  Al  Al9  1  0.658154  0.158154  0.212801  1
  Al  Al10  1  0.841846  0.054647  0.500000  1
  Al  Al11  1  0.054647  0.554647  0.212801  1
  Al  Al12  1  0.341846  0.841846  0.787199  1
  Al  Al13  1  0.945353  0.445353  0.787199  1
  Cl  Cl14  1  0.000000  0.000000  0.000000  1
  Cl  Cl15  1  0.500000  0.500000  0.000000  1
