# generated using pymatgen
data_K10Sb4PtAu
_symmetry_space_group_name_H-M   'P 1'
_cell_length_a   5.99434000
_cell_length_b   5.99433988
_cell_length_c   20.71281300
_cell_angle_alpha   90.00000000
_cell_angle_beta   90.00000000
_cell_angle_gamma   120.00001171
_symmetry_Int_Tables_number   1
_chemical_formula_structural   K10Sb4PtAu
_chemical_formula_sum   'K10 Sb4 Pt1 Au1'
_cell_volume   644.54374921
_cell_formula_units_Z   1
loop_
 _symmetry_equiv_pos_site_id
 _symmetry_equiv_pos_as_xyz
  1  'x, y, z'
loop_
 _atom_site_type_symbol
 _atom_site_label
 _atom_site_symmetry_multiplicity
 _atom_site_fract_x
 _atom_site_fract_y
 _atom_site_fract_z
 _atom_site_occupancy
  K  K0  1  0.333333  0.666667  0.551272  1
  K  K1  1  0.666667  0.333333  0.050332  1
  K  K2  1  0.666667  0.333333  0.449668  1
  K  K3  1  0.333333  0.666667  0.948728  1
  K  K4  1  0.000000  0.000000  0.148572  1
  K  K5  1  0.000000  0.000000  0.661703  1
  K  K6  1  0.000000  0.000000  0.838297  1
  K  K7  1  0.000000  0.000000  0.351428  1
  K  K8  1  0.333333  0.666667  0.750000  1
  K  K9  1  0.666667  0.333333  0.250000  1
  Sb  Sb10  1  0.333333  0.666667  0.120622  1
  Sb  Sb11  1  0.666667  0.333333  0.624705  1
  Sb  Sb12  1  0.333333  0.666667  0.379378  1
  Sb  Sb13  1  0.666667  0.333333  0.875295  1
  Pt  Pt14  1  0.666667  0.333333  0.750000  1
  Au  Au15  1  0.333333  0.666667  0.250000  1
