# generated using pymatgen
data_Cs2Pd(S4O13)2
_symmetry_space_group_name_H-M   'P 1'
_cell_length_a   7.92298301
_cell_length_b   9.00824931
_cell_length_c   9.71906422
_cell_angle_alpha   108.06695895
_cell_angle_beta   88.93404612
_cell_angle_gamma   106.84158406
_symmetry_Int_Tables_number   1
_chemical_formula_structural   Cs2Pd(S4O13)2
_chemical_formula_sum   'Cs2 Pd1 S8 O26'
_cell_volume   629.24646163
_cell_formula_units_Z   1
loop_
 _symmetry_equiv_pos_site_id
 _symmetry_equiv_pos_as_xyz
  1  'x, y, z'
loop_
 _atom_site_type_symbol
 _atom_site_label
 _atom_site_symmetry_multiplicity
 _atom_site_fract_x
 _atom_site_fract_y
 _atom_site_fract_z
 _atom_site_occupancy
  Cs  Cs0  1  0.132374  0.267918  0.883713  1
  Cs  Cs1  1  0.867626  0.732082  0.116287  1
  Pd  Pd2  1  0.500000  0.500000  0.500000  1
  S  S3  1  0.668466  0.359737  0.702703  1
  S  S4  1  0.331534  0.640263  0.297297  1
  S  S5  1  0.871862  0.192722  0.481652  1
  S  S6  1  0.128138  0.807278  0.518348  1
  S  S7  1  0.394220  0.159068  0.231169  1
  S  S8  1  0.605780  0.840932  0.768831  1
  S  S9  1  0.784084  0.222295  0.200311  1
  S  S10  1  0.215916  0.777705  0.799689  1
  O  O11  1  0.699690  0.188972  0.567772  1
  O  O12  1  0.300310  0.811028  0.432228  1
  O  O13  1  0.694848  0.482657  0.623697  1
  O  O14  1  0.305152  0.517343  0.376303  1
  O  O15  1  0.809610  0.409505  0.813533  1
  O  O16  1  0.190390  0.590495  0.186467  1
  O  O17  1  0.847443  0.299470  0.375761  1
  O  O18  1  0.152557  0.700530  0.624239  1
  O  O19  1  0.028099  0.294176  0.572674  1
  O  O20  1  0.971901  0.705824  0.427326  1
  O  O21  1  0.490021  0.289882  0.731051  1
  O  O22  1  0.509979  0.710118  0.268949  1
  O  O23  1  0.851373  0.027570  0.395756  1
  O  O24  1  0.148627  0.972430  0.604244  1
  O  O25  1  0.426247  0.252768  0.389463  1
  O  O26  1  0.573753  0.747232  0.610537  1
  O  O27  1  0.595022  0.101031  0.194548  1
  O  O28  1  0.404978  0.898969  0.805452  1
  O  O29  1  0.780921  0.363514  0.164419  1
  O  O30  1  0.219079  0.636486  0.835581  1
  O  O31  1  0.894404  0.124735  0.130475  1
  O  O32  1  0.105596  0.875265  0.869525  1
  O  O33  1  0.387662  0.250411  0.134958  1
  O  O34  1  0.612338  0.749589  0.865042  1
  O  O35  1  0.274813  0.997985  0.204851  1
  O  O36  1  0.725187  0.002015  0.795149  1
