# generated using pymatgen
data_Y11In9RuRh3
_symmetry_space_group_name_H-M   'P 1'
_cell_length_a   13.16189748
_cell_length_b   13.15411427
_cell_length_c   3.68604900
_cell_angle_alpha   90.00000000
_cell_angle_beta   90.00000000
_cell_angle_gamma   111.64781589
_symmetry_Int_Tables_number   1
_chemical_formula_structural   Y11In9RuRh3
_chemical_formula_sum   'Y11 In9 Ru1 Rh3'
_cell_volume   593.16579878
_cell_formula_units_Z   1
loop_
 _symmetry_equiv_pos_site_id
 _symmetry_equiv_pos_as_xyz
  1  'x, y, z'
loop_
 _atom_site_type_symbol
 _atom_site_label
 _atom_site_symmetry_multiplicity
 _atom_site_fract_x
 _atom_site_fract_y
 _atom_site_fract_z
 _atom_site_occupancy
  Y  Y0  1  0.077846  0.417310  0.000000  1
  Y  Y1  1  0.922117  0.582477  0.000000  1
  Y  Y2  1  0.417820  0.078027  0.000000  1
  Y  Y3  1  0.582684  0.921908  0.000000  1
  Y  Y4  1  0.624638  0.374956  0.000000  1
  Y  Y5  1  0.375063  0.625013  0.000000  1
  Y  Y6  1  0.838194  0.160471  0.000000  1
  Y  Y7  1  0.161032  0.838715  0.000000  1
  Y  Y8  1  0.000675  0.000903  0.000000  1
  Y  Y9  1  0.312927  0.312823  0.000000  1
  Y  Y10  1  0.687110  0.686796  0.000000  1
  In  In11  1  0.839842  0.368559  0.500000  1
  In  In12  1  0.159408  0.630061  0.500000  1
  In  In13  1  0.368423  0.841558  0.500000  1
  In  In14  1  0.631222  0.159372  0.500000  1
  In  In15  1  0.077947  0.220782  0.500000  1
  In  In16  1  0.922989  0.781270  0.500000  1
  In  In17  1  0.218633  0.075874  0.500000  1
  In  In18  1  0.781736  0.924288  0.500000  1
  In  In19  1  0.499688  0.499518  0.500000  1
  Ru  Ru20  1  0.248188  0.448939  0.500000  1
  Rh  Rh21  1  0.755458  0.551926  0.500000  1
  Rh  Rh22  1  0.447381  0.244899  0.500000  1
  Rh  Rh23  1  0.548979  0.753557  0.500000  1
