# generated using pymatgen
data_Ho3Tm3Al24(Os3Rh)2
_symmetry_space_group_name_H-M   'P 1'
_cell_length_a   8.76282203
_cell_length_b   8.76151485
_cell_length_c   9.59380700
_cell_angle_alpha   90.00000000
_cell_angle_beta   90.00000000
_cell_angle_gamma   119.64829497
_symmetry_Int_Tables_number   1
_chemical_formula_structural   Ho3Tm3Al24(Os3Rh)2
_chemical_formula_sum   'Ho3 Tm3 Al24 Os6 Rh2'
_cell_volume   640.13719616
_cell_formula_units_Z   1
loop_
 _symmetry_equiv_pos_site_id
 _symmetry_equiv_pos_as_xyz
  1  'x, y, z'
loop_
 _atom_site_type_symbol
 _atom_site_label
 _atom_site_symmetry_multiplicity
 _atom_site_fract_x
 _atom_site_fract_y
 _atom_site_fract_z
 _atom_site_occupancy
  Ho  Ho0  1  0.186010  0.386680  0.250000  1
  Ho  Ho1  1  0.813880  0.613274  0.750000  1
  Ho  Ho2  1  0.613300  0.813969  0.250000  1
  Tm  Tm3  1  0.387625  0.186167  0.750000  1
  Tm  Tm4  1  0.194400  0.805558  0.250000  1
  Tm  Tm5  1  0.805421  0.194399  0.750000  1
  Al  Al6  1  0.333011  0.666958  0.023412  1
  Al  Al7  1  0.666648  0.332859  0.976416  1
  Al  Al8  1  0.666648  0.332859  0.523584  1
  Al  Al9  1  0.333011  0.666958  0.476588  1
  Al  Al10  1  0.162611  0.325990  0.577372  1
  Al  Al11  1  0.837511  0.673956  0.422721  1
  Al  Al12  1  0.673955  0.837467  0.577325  1
  Al  Al13  1  0.837511  0.673956  0.077279  1
  Al  Al14  1  0.326086  0.162528  0.422883  1
  Al  Al15  1  0.162611  0.325990  0.922628  1
  Al  Al16  1  0.164301  0.836008  0.575899  1
  Al  Al17  1  0.326086  0.162528  0.077117  1
  Al  Al18  1  0.835840  0.164211  0.424200  1
  Al  Al19  1  0.673955  0.837467  0.922675  1
  Al  Al20  1  0.835840  0.164211  0.075800  1
  Al  Al21  1  0.164301  0.836008  0.924101  1
  Al  Al22  1  0.560991  0.126616  0.250000  1
  Al  Al23  1  0.438962  0.873781  0.750000  1
  Al  Al24  1  0.873420  0.439022  0.250000  1
  Al  Al25  1  0.126623  0.560987  0.750000  1
  Al  Al26  1  0.559490  0.440481  0.250000  1
  Al  Al27  1  0.440462  0.559127  0.750000  1
  Al  Al28  1  0.998566  0.001391  0.250000  1
  Al  Al29  1  0.001723  0.998764  0.750000  1
  Os  Os30  1  0.499809  0.000213  0.999734  1
  Os  Os31  1  0.999850  0.499934  0.999947  1
  Os  Os32  1  0.499809  0.000213  0.500266  1
  Os  Os33  1  0.999850  0.499934  0.500053  1
  Os  Os34  1  0.000067  0.000033  0.999961  1
  Os  Os35  1  0.000067  0.000033  0.500039  1
  Rh  Rh36  1  0.499874  0.499735  0.999856  1
  Rh  Rh37  1  0.499874  0.499735  0.500144  1
