# generated using pymatgen
data_Dy2Ho3Er3(WO6)4
_symmetry_space_group_name_H-M   'P 1'
_cell_length_a   5.38012503
_cell_length_b   7.68746406
_cell_length_c   11.43271543
_cell_angle_alpha   75.40208482
_cell_angle_beta   89.99787532
_cell_angle_gamma   89.98891009
_symmetry_Int_Tables_number   1
_chemical_formula_structural   Dy2Ho3Er3(WO6)4
_chemical_formula_sum   'Dy2 Ho3 Er3 W4 O24'
_cell_volume   457.58715487
_cell_formula_units_Z   1
loop_
 _symmetry_equiv_pos_site_id
 _symmetry_equiv_pos_as_xyz
  1  'x, y, z'
loop_
 _atom_site_type_symbol
 _atom_site_label
 _atom_site_symmetry_multiplicity
 _atom_site_fract_x
 _atom_site_fract_y
 _atom_site_fract_z
 _atom_site_occupancy
  Dy  Dy0  1  0.684212  0.500206  0.249832  1
  Dy  Dy1  1  0.315880  0.500061  0.750020  1
  Ho  Ho2  1  0.183650  0.205391  0.422098  1
  Ho  Ho3  1  0.740665  0.999844  0.249769  1
  Ho  Ho4  1  0.259350  0.999871  0.750188  1
  Er  Er5  1  0.183588  0.794295  0.078131  1
  Er  Er6  1  0.816282  0.794124  0.578203  1
  Er  Er7  1  0.816379  0.205677  0.921923  1
  W  W8  1  0.255967  0.276169  0.114632  1
  W  W9  1  0.255855  0.723987  0.385178  1
  W  W10  1  0.744187  0.723885  0.885198  1
  W  W11  1  0.744286  0.276236  0.615056  1
  O  O12  1  0.458510  0.208475  0.273155  1
  O  O13  1  0.457709  0.791842  0.226273  1
  O  O14  1  0.542188  0.791633  0.726367  1
  O  O15  1  0.542267  0.208451  0.773817  1
  O  O16  1  0.044588  0.059579  0.104053  1
  O  O17  1  0.043687  0.939627  0.395855  1
  O  O18  1  0.955472  0.940390  0.895927  1
  O  O19  1  0.955280  0.059379  0.604396  1
  O  O20  1  0.980664  0.288748  0.228612  1
  O  O21  1  0.980984  0.711265  0.270810  1
  O  O22  1  0.019068  0.711370  0.770956  1
  O  O23  1  0.019223  0.288629  0.729114  1
  O  O24  1  0.848919  0.365567  0.451551  1
  O  O25  1  0.849985  0.634956  0.048542  1
  O  O26  1  0.150068  0.634853  0.548611  1
  O  O27  1  0.150008  0.365131  0.951317  1
  O  O28  1  0.640165  0.510776  0.614472  1
  O  O29  1  0.640316  0.489380  0.885706  1
  O  O30  1  0.360399  0.489834  0.385631  1
  O  O31  1  0.359650  0.510681  0.114253  1
  O  O32  1  0.464678  0.153547  0.569660  1
  O  O33  1  0.463933  0.846005  0.930934  1
  O  O34  1  0.535870  0.846245  0.430931  1
  O  O35  1  0.536069  0.153890  0.068831  1
