# generated using pymatgen
data_UZn(SeO5)2
_symmetry_space_group_name_H-M   'P 1'
_cell_length_a   5.99032629
_cell_length_b   5.58658677
_cell_length_c   7.63047879
_cell_angle_alpha   75.88765566
_cell_angle_beta   71.45398205
_cell_angle_gamma   101.07657380
_symmetry_Int_Tables_number   1
_chemical_formula_structural   UZn(SeO5)2
_chemical_formula_sum   'U1 Zn1 Se2 O10'
_cell_volume   224.46422909
_cell_formula_units_Z   1
loop_
 _symmetry_equiv_pos_site_id
 _symmetry_equiv_pos_as_xyz
  1  'x, y, z'
loop_
 _atom_site_type_symbol
 _atom_site_label
 _atom_site_symmetry_multiplicity
 _atom_site_fract_x
 _atom_site_fract_y
 _atom_site_fract_z
 _atom_site_occupancy
  U  U0  1  0.000000  0.000000  0.500000  1
  Zn  Zn1  1  0.000000  0.000000  0.000000  1
  Se  Se2  1  0.319464  0.667659  0.766973  1
  Se  Se3  1  0.680536  0.332341  0.233027  1
  O  O4  1  0.311186  0.899239  0.868088  1
  O  O5  1  0.688814  0.100761  0.131912  1
  O  O6  1  0.154726  0.682412  0.621593  1
  O  O7  1  0.845274  0.317588  0.378407  1
  O  O8  1  0.231300  0.376433  0.928880  1
  O  O9  1  0.768700  0.623567  0.071120  1
  O  O10  1  0.612418  0.729525  0.609548  1
  O  O11  1  0.387582  0.270475  0.390452  1
  O  O12  1  0.938280  0.071815  0.729888  1
  O  O13  1  0.061720  0.928185  0.270112  1
