# generated using pymatgen
data_Zn22PtRh3
_symmetry_space_group_name_H-M   'P 1'
_cell_length_a   7.91800930
_cell_length_b   7.93648549
_cell_length_c   7.91800970
_cell_angle_alpha   109.51850414
_cell_angle_beta   109.42390315
_cell_angle_gamma   109.51849221
_symmetry_Int_Tables_number   1
_chemical_formula_structural   Zn22PtRh3
_chemical_formula_sum   'Zn22 Pt1 Rh3'
_cell_volume   382.81119959
_cell_formula_units_Z   1
loop_
 _symmetry_equiv_pos_site_id
 _symmetry_equiv_pos_as_xyz
  1  'x, y, z'
loop_
 _atom_site_type_symbol
 _atom_site_label
 _atom_site_symmetry_multiplicity
 _atom_site_fract_x
 _atom_site_fract_y
 _atom_site_fract_z
 _atom_site_occupancy
  Zn  Zn0  1  0.000000  0.789042  0.000000  1
  Zn  Zn1  1  0.785342  0.997687  0.000000  1
  Zn  Zn2  1  0.000000  0.997687  0.785342  1
  Zn  Zn3  1  0.214658  0.212345  0.214658  1
  Zn  Zn4  1  0.353057  0.618159  0.353057  1
  Zn  Zn5  1  0.265805  0.000130  0.649174  1
  Zn  Zn6  1  0.649174  0.000130  0.265805  1
  Zn  Zn7  1  0.268299  0.651553  0.000000  1
  Zn  Zn8  1  0.734195  0.734324  0.383368  1
  Zn  Zn9  1  0.383368  0.734324  0.734195  1
  Zn  Zn10  1  0.000000  0.651553  0.268299  1
  Zn  Zn11  1  0.000000  0.265102  0.646943  1
  Zn  Zn12  1  0.646943  0.265102  0.000000  1
  Zn  Zn13  1  0.350826  0.350956  0.616632  1
  Zn  Zn14  1  0.616632  0.350956  0.350826  1
  Zn  Zn15  1  0.731701  0.383254  0.731701  1
  Zn  Zn16  1  0.357608  0.355371  0.000000  1
  Zn  Zn17  1  0.000000  0.642994  0.643589  1
  Zn  Zn18  1  0.000000  0.355371  0.357608  1
  Zn  Zn19  1  0.356411  0.999404  0.356411  1
  Zn  Zn20  1  0.642392  0.997763  0.642392  1
  Zn  Zn21  1  0.643589  0.642994  0.000000  1
  Pt  Pt22  1  0.000000  0.347892  0.000000  1
  Rh  Rh23  1  0.345378  0.000428  0.000000  1
  Rh  Rh24  1  0.000000  0.000428  0.345378  1
  Rh  Rh25  1  0.654622  0.655050  0.654622  1
