# generated using pymatgen
data_Th3Pd10Pt2Au
_symmetry_space_group_name_H-M   'P 1'
_cell_length_a   5.89621666
_cell_length_b   5.89621569
_cell_length_c   9.65546900
_cell_angle_alpha   90.00000000
_cell_angle_beta   90.00000000
_cell_angle_gamma   120.08605969
_symmetry_Int_Tables_number   1
_chemical_formula_structural   Th3Pd10Pt2Au
_chemical_formula_sum   'Th3 Pd10 Pt2 Au1'
_cell_volume   290.45143724
_cell_formula_units_Z   1
loop_
 _symmetry_equiv_pos_site_id
 _symmetry_equiv_pos_as_xyz
  1  'x, y, z'
loop_
 _atom_site_type_symbol
 _atom_site_label
 _atom_site_symmetry_multiplicity
 _atom_site_fract_x
 _atom_site_fract_y
 _atom_site_fract_z
 _atom_site_occupancy
  Th  Th0  1  0.999819  0.000181  0.490701  1
  Th  Th1  1  0.999819  0.000181  0.009299  1
  Th  Th2  1  0.667022  0.332978  0.750000  1
  Pd  Pd3  1  0.498357  0.501643  0.497002  1
  Pd  Pd4  1  0.498081  0.996758  0.496842  1
  Pd  Pd5  1  0.003242  0.501919  0.496842  1
  Pd  Pd6  1  0.498357  0.501643  0.002998  1
  Pd  Pd7  1  0.498081  0.996758  0.003158  1
  Pd  Pd8  1  0.003242  0.501919  0.003158  1
  Pd  Pd9  1  0.825359  0.650794  0.250000  1
  Pd  Pd10  1  0.349206  0.174641  0.250000  1
  Pd  Pd11  1  0.825704  0.174296  0.250000  1
  Pd  Pd12  1  0.172610  0.827390  0.750000  1
  Pt  Pt13  1  0.172363  0.344698  0.750000  1
  Pt  Pt14  1  0.655302  0.827637  0.750000  1
  Au  Au15  1  0.333435  0.666565  0.250000  1
