# generated using pymatgen
data_Dy5OsPb2
_symmetry_space_group_name_H-M   'P 1'
_cell_length_a   7.84569200
_cell_length_b   9.12878800
_cell_length_c   12.40086100
_cell_angle_alpha   90.00000000
_cell_angle_beta   90.00000000
_cell_angle_gamma   90.00000000
_symmetry_Int_Tables_number   1
_chemical_formula_structural   Dy5OsPb2
_chemical_formula_sum   'Dy20 Os4 Pb8'
_cell_volume   888.17023762
_cell_formula_units_Z   4
loop_
 _symmetry_equiv_pos_site_id
 _symmetry_equiv_pos_as_xyz
  1  'x, y, z'
loop_
 _atom_site_type_symbol
 _atom_site_label
 _atom_site_symmetry_multiplicity
 _atom_site_fract_x
 _atom_site_fract_y
 _atom_site_fract_z
 _atom_site_occupancy
  Dy  Dy0  1  0.847910  0.750000  0.785701  1
  Dy  Dy1  1  0.152090  0.250000  0.214299  1
  Dy  Dy2  1  0.347910  0.250000  0.714299  1
  Dy  Dy3  1  0.652090  0.750000  0.285701  1
  Dy  Dy4  1  0.381202  0.750000  0.694482  1
  Dy  Dy5  1  0.618798  0.250000  0.305518  1
  Dy  Dy6  1  0.881202  0.250000  0.805518  1
  Dy  Dy7  1  0.118798  0.750000  0.194482  1
  Dy  Dy8  1  0.952507  0.750000  0.503011  1
  Dy  Dy9  1  0.047493  0.250000  0.496989  1
  Dy  Dy10  1  0.452507  0.250000  0.996989  1
  Dy  Dy11  1  0.547493  0.750000  0.003011  1
  Dy  Dy12  1  0.674908  0.036182  0.569750  1
  Dy  Dy13  1  0.325092  0.963818  0.430250  1
  Dy  Dy14  1  0.174908  0.963818  0.930250  1
  Dy  Dy15  1  0.325092  0.536182  0.430250  1
  Dy  Dy16  1  0.825092  0.036182  0.069750  1
  Dy  Dy17  1  0.674908  0.463818  0.569750  1
  Dy  Dy18  1  0.825092  0.463818  0.069750  1
  Dy  Dy19  1  0.174908  0.536182  0.930250  1
  Os  Os20  1  0.575543  0.750000  0.506741  1
  Os  Os21  1  0.424457  0.250000  0.493259  1
  Os  Os22  1  0.075543  0.250000  0.993259  1
  Os  Os23  1  0.924457  0.750000  0.006741  1
  Pb  Pb24  1  0.577321  0.495043  0.831304  1
  Pb  Pb25  1  0.422679  0.504957  0.168696  1
  Pb  Pb26  1  0.077321  0.504957  0.668696  1
  Pb  Pb27  1  0.422679  0.995043  0.168696  1
  Pb  Pb28  1  0.922679  0.495043  0.331304  1
  Pb  Pb29  1  0.577321  0.004957  0.831304  1
  Pb  Pb30  1  0.922679  0.004957  0.331304  1
  Pb  Pb31  1  0.077321  0.995043  0.668696  1
