# generated using pymatgen
data_Mn2Fe(BW)3
_symmetry_space_group_name_H-M   'P 1'
_cell_length_a   5.92786064
_cell_length_b   5.91891624
_cell_length_c   3.13670400
_cell_angle_alpha   90.00000000
_cell_angle_beta   90.00000000
_cell_angle_gamma   119.95011516
_symmetry_Int_Tables_number   1
_chemical_formula_structural   Mn2Fe(BW)3
_chemical_formula_sum   'Mn2 Fe1 B3 W3'
_cell_volume   95.35916449
_cell_formula_units_Z   1
loop_
 _symmetry_equiv_pos_site_id
 _symmetry_equiv_pos_as_xyz
  1  'x, y, z'
loop_
 _atom_site_type_symbol
 _atom_site_label
 _atom_site_symmetry_multiplicity
 _atom_site_fract_x
 _atom_site_fract_y
 _atom_site_fract_z
 _atom_site_occupancy
  Mn  Mn0  1  0.757658  0.757143  0.000000  1
  Mn  Mn1  1  0.242342  0.999485  0.000000  1
  Fe  Fe2  1  0.000000  0.242509  0.000000  1
  B  B3  1  0.666683  0.332965  0.000000  1
  B  B4  1  0.333317  0.666283  0.000000  1
  B  B5  1  0.000000  0.002417  0.500000  1
  W  W6  1  0.412480  0.411108  0.500000  1
  W  W7  1  0.587520  0.998628  0.500000  1
  W  W8  1  0.000000  0.589462  0.500000  1
