# generated using pymatgen
data_Hf3Ga2SnRh3
_symmetry_space_group_name_H-M   'P 1'
_cell_length_a   7.35036132
_cell_length_b   7.30182170
_cell_length_c   6.80584800
_cell_angle_alpha   90.00000157
_cell_angle_beta   90.00317229
_cell_angle_gamma   119.78178865
_symmetry_Int_Tables_number   1
_chemical_formula_structural   Hf3Ga2SnRh3
_chemical_formula_sum   'Hf6 Ga4 Sn2 Rh6'
_cell_volume   317.03232072
_cell_formula_units_Z   2
loop_
 _symmetry_equiv_pos_site_id
 _symmetry_equiv_pos_as_xyz
  1  'x, y, z'
loop_
 _atom_site_type_symbol
 _atom_site_label
 _atom_site_symmetry_multiplicity
 _atom_site_fract_x
 _atom_site_fract_y
 _atom_site_fract_z
 _atom_site_occupancy
  Hf  Hf0  1  0.001927  0.401911  0.744865  1
  Hf  Hf1  1  0.616214  0.608111  0.742587  1
  Hf  Hf2  1  0.382042  0.987224  0.742939  1
  Hf  Hf3  1  0.998073  0.399984  0.255135  1
  Hf  Hf4  1  0.617958  0.605182  0.257061  1
  Hf  Hf5  1  0.383786  0.991897  0.257413  1
  Ga  Ga6  1  0.279220  0.280685  0.500170  1
  Ga  Ga7  1  0.000000  0.718267  0.500000  1
  Ga  Ga8  1  0.000000  0.737047  0.000000  1
  Ga  Ga9  1  0.720780  0.001465  0.499830  1
  Sn  Sn10  1  0.736894  0.999287  0.000483  1
  Sn  Sn11  1  0.263106  0.262393  0.999517  1
  Rh  Rh12  1  0.333636  0.668709  0.496836  1
  Rh  Rh13  1  0.666364  0.335072  0.503164  1
  Rh  Rh14  1  0.328195  0.669520  0.003112  1
  Rh  Rh15  1  0.999822  0.995873  0.721843  1
  Rh  Rh16  1  0.000178  0.996050  0.278157  1
  Rh  Rh17  1  0.671805  0.341324  0.996888  1
