# generated using pymatgen
data_Nd4HoRuRh
_symmetry_space_group_name_H-M   'P 1'
_cell_length_a   6.53515530
_cell_length_b   7.27324469
_cell_length_c   8.92829362
_cell_angle_alpha   96.48286971
_cell_angle_beta   111.46792654
_cell_angle_gamma   89.99999758
_symmetry_Int_Tables_number   1
_chemical_formula_structural   Nd4HoRuRh
_chemical_formula_sum   'Nd8 Ho2 Ru2 Rh2'
_cell_volume   392.01812404
_cell_formula_units_Z   2
loop_
 _symmetry_equiv_pos_site_id
 _symmetry_equiv_pos_as_xyz
  1  'x, y, z'
loop_
 _atom_site_type_symbol
 _atom_site_label
 _atom_site_symmetry_multiplicity
 _atom_site_fract_x
 _atom_site_fract_y
 _atom_site_fract_z
 _atom_site_occupancy
  Nd  Nd0  1  0.985274  0.920121  0.185976  1
  Nd  Nd1  1  0.799298  0.579879  0.814024  1
  Nd  Nd2  1  0.022439  0.083106  0.817105  1
  Nd  Nd3  1  0.205334  0.416894  0.182895  1
  Nd  Nd4  1  0.636254  0.812906  0.427308  1
  Nd  Nd5  1  0.208946  0.687094  0.572692  1
  Nd  Nd6  1  0.356731  0.190445  0.568014  1
  Nd  Nd7  1  0.788717  0.309555  0.431986  1
  Ho  Ho8  1  0.431736  0.750000  0.000000  1
  Ho  Ho9  1  0.570028  0.250000  0.000000  1
  Ru  Ru10  1  0.187717  0.428396  0.785559  1
  Ru  Ru11  1  0.402158  0.071604  0.214441  1
  Rh  Rh12  1  0.809336  0.572874  0.213302  1
  Rh  Rh13  1  0.596034  0.927126  0.786698  1
