# generated using pymatgen
data_Dy4Tm12MgCd3Ni4
_symmetry_space_group_name_H-M   'P 1'
_cell_length_a   9.46406379
_cell_length_b   9.43162187
_cell_length_c   9.43162200
_cell_angle_alpha   59.99999955
_cell_angle_beta   60.11332912
_cell_angle_gamma   60.11333363
_symmetry_Int_Tables_number   1
_chemical_formula_structural   Dy4Tm12MgCd3Ni4
_chemical_formula_sum   'Dy4 Tm12 Mg1 Cd3 Ni4'
_cell_volume   596.31708844
_cell_formula_units_Z   1
loop_
 _symmetry_equiv_pos_site_id
 _symmetry_equiv_pos_as_xyz
  1  'x, y, z'
loop_
 _atom_site_type_symbol
 _atom_site_label
 _atom_site_symmetry_multiplicity
 _atom_site_fract_x
 _atom_site_fract_y
 _atom_site_fract_z
 _atom_site_occupancy
  Dy  Dy0  1  0.598359  0.598326  0.598326  1
  Dy  Dy1  1  0.598359  0.598326  0.204991  1
  Dy  Dy2  1  0.598359  0.204991  0.598326  1
  Dy  Dy3  1  0.200256  0.599915  0.599915  1
  Tm  Tm4  1  0.061912  0.437580  0.437580  1
  Tm  Tm5  1  0.435683  0.064053  0.064053  1
  Tm  Tm6  1  0.435683  0.064053  0.436211  1
  Tm  Tm7  1  0.061912  0.437580  0.062926  1
  Tm  Tm8  1  0.435683  0.436211  0.064053  1
  Tm  Tm9  1  0.061912  0.062926  0.437580  1
  Tm  Tm10  1  0.183947  0.815266  0.815266  1
  Tm  Tm11  1  0.814797  0.185032  0.185032  1
  Tm  Tm12  1  0.814797  0.185032  0.815139  1
  Tm  Tm13  1  0.183947  0.815266  0.185523  1
  Tm  Tm14  1  0.814797  0.815139  0.185032  1
  Tm  Tm15  1  0.183947  0.185523  0.815266  1
  Mg  Mg16  1  0.522100  0.825967  0.825967  1
  Cd  Cd17  1  0.832752  0.832236  0.832236  1
  Cd  Cd18  1  0.832752  0.832236  0.502776  1
  Cd  Cd19  1  0.832752  0.502776  0.832236  1
  Ni  Ni20  1  0.389981  0.392249  0.392249  1
  Ni  Ni21  1  0.389981  0.392249  0.825522  1
  Ni  Ni22  1  0.389981  0.825522  0.392249  1
  Ni  Ni23  1  0.825349  0.391550  0.391550  1
