# generated using pymatgen
data_Y6Er4Si5P
_symmetry_space_group_name_H-M   'P 1'
_cell_length_a   8.38520300
_cell_length_b   8.39184657
_cell_length_c   6.26901100
_cell_angle_alpha   90.00000000
_cell_angle_beta   90.00000000
_cell_angle_gamma   119.97380341
_symmetry_Int_Tables_number   1
_chemical_formula_structural   Y6Er4Si5P
_chemical_formula_sum   'Y6 Er4 Si5 P1'
_cell_volume   382.13371949
_cell_formula_units_Z   1
loop_
 _symmetry_equiv_pos_site_id
 _symmetry_equiv_pos_as_xyz
  1  'x, y, z'
loop_
 _atom_site_type_symbol
 _atom_site_label
 _atom_site_symmetry_multiplicity
 _atom_site_fract_x
 _atom_site_fract_y
 _atom_site_fract_z
 _atom_site_occupancy
  Y  Y0  1  0.000967  0.756700  0.750000  1
  Y  Y1  1  0.000751  0.244361  0.250000  1
  Y  Y2  1  0.756390  0.755639  0.250000  1
  Y  Y3  1  0.755047  0.000000  0.750000  1
  Y  Y4  1  0.244267  0.243300  0.750000  1
  Y  Y5  1  0.243837  0.000000  0.250000  1
  Er  Er6  1  0.333695  0.667364  0.500255  1
  Er  Er7  1  0.666332  0.332636  0.999745  1
  Er  Er8  1  0.666332  0.332636  0.500255  1
  Er  Er9  1  0.333695  0.667364  0.999745  1
  Si  Si10  1  0.394922  0.394351  0.250000  1
  Si  Si11  1  0.000571  0.605649  0.250000  1
  Si  Si12  1  0.000094  0.394451  0.750000  1
  Si  Si13  1  0.605644  0.605549  0.750000  1
  Si  Si14  1  0.606247  0.000000  0.250000  1
  P  P15  1  0.391210  0.000000  0.750000  1
