# generated using pymatgen
data_Zr3GaOs2N
_symmetry_space_group_name_H-M   'P 1'
_cell_length_a   8.58331899
_cell_length_b   8.58331853
_cell_length_c   8.58331900
_cell_angle_alpha   59.99999432
_cell_angle_beta   59.99999610
_cell_angle_gamma   60.00000007
_symmetry_Int_Tables_number   1
_chemical_formula_structural   Zr3GaOs2N
_chemical_formula_sum   'Zr12 Ga4 Os8 N4'
_cell_volume   447.14739663
_cell_formula_units_Z   4
loop_
 _symmetry_equiv_pos_site_id
 _symmetry_equiv_pos_as_xyz
  1  'x, y, z'
loop_
 _atom_site_type_symbol
 _atom_site_label
 _atom_site_symmetry_multiplicity
 _atom_site_fract_x
 _atom_site_fract_y
 _atom_site_fract_z
 _atom_site_occupancy
  Zr  Zr0  1  0.806474  0.806474  0.193526  1
  Zr  Zr1  1  0.193526  0.193526  0.806474  1
  Zr  Zr2  1  0.806474  0.193526  0.806474  1
  Zr  Zr3  1  0.193526  0.806474  0.193526  1
  Zr  Zr4  1  0.193526  0.806474  0.806474  1
  Zr  Zr5  1  0.806474  0.193526  0.193526  1
  Zr  Zr6  1  0.443526  0.443526  0.056474  1
  Zr  Zr7  1  0.056474  0.056474  0.443526  1
  Zr  Zr8  1  0.443526  0.056474  0.443526  1
  Zr  Zr9  1  0.056474  0.443526  0.056474  1
  Zr  Zr10  1  0.056474  0.443526  0.443526  1
  Zr  Zr11  1  0.443526  0.056474  0.056474  1
  Ga  Ga12  1  0.125000  0.625000  0.625000  1
  Ga  Ga13  1  0.625000  0.125000  0.625000  1
  Ga  Ga14  1  0.625000  0.625000  0.125000  1
  Ga  Ga15  1  0.625000  0.625000  0.625000  1
  Os  Os16  1  0.747844  0.417385  0.417385  1
  Os  Os17  1  0.417385  0.747844  0.417385  1
  Os  Os18  1  0.417385  0.417385  0.747844  1
  Os  Os19  1  0.417385  0.417385  0.417385  1
  Os  Os20  1  0.502156  0.832615  0.832615  1
  Os  Os21  1  0.832615  0.502156  0.832615  1
  Os  Os22  1  0.832615  0.832615  0.502156  1
  Os  Os23  1  0.832615  0.832615  0.832615  1
  N  N24  1  0.625000  0.125000  0.125000  1
  N  N25  1  0.125000  0.625000  0.125000  1
  N  N26  1  0.125000  0.125000  0.625000  1
  N  N27  1  0.125000  0.125000  0.125000  1
