# generated using pymatgen
data_V14CrIr
_symmetry_space_group_name_H-M   'P 1'
_cell_length_a   5.93857100
_cell_length_b   5.99067500
_cell_length_c   5.99067500
_cell_angle_alpha   90.00000000
_cell_angle_beta   90.00000000
_cell_angle_gamma   90.00000000
_symmetry_Int_Tables_number   1
_chemical_formula_structural   V14CrIr
_chemical_formula_sum   'V14 Cr1 Ir1'
_cell_volume   213.12454630
_cell_formula_units_Z   1
loop_
 _symmetry_equiv_pos_site_id
 _symmetry_equiv_pos_as_xyz
  1  'x, y, z'
loop_
 _atom_site_type_symbol
 _atom_site_label
 _atom_site_symmetry_multiplicity
 _atom_site_fract_x
 _atom_site_fract_y
 _atom_site_fract_z
 _atom_site_occupancy
  V  V0  1  0.000000  0.500001  0.000000  1
  V  V1  1  0.500001  0.500001  0.000000  1
  V  V2  1  0.245918  0.249454  0.249454  1
  V  V3  1  0.754082  0.249454  0.249454  1
  V  V4  1  0.245918  0.750546  0.249454  1
  V  V5  1  0.754082  0.750546  0.249454  1
  V  V6  1  0.000000  0.000000  0.500001  1
  V  V7  1  0.500001  0.000000  0.500001  1
  V  V8  1  0.000000  0.500001  0.500001  1
  V  V9  1  0.500001  0.500001  0.500001  1
  V  V10  1  0.245918  0.249454  0.750546  1
  V  V11  1  0.754082  0.249454  0.750546  1
  V  V12  1  0.245918  0.750546  0.750546  1
  V  V13  1  0.754082  0.750546  0.750546  1
  Cr  Cr14  1  0.000000  0.000000  0.000000  1
  Ir  Ir15  1  0.500001  0.000000  0.000000  1
