# generated using pymatgen
data_Eu3Y(Co3Si5)2
_symmetry_space_group_name_H-M   'P 1'
_cell_length_a   7.98433500
_cell_length_b   7.99035347
_cell_length_c   5.52901792
_cell_angle_alpha   70.84521557
_cell_angle_beta   109.06870167
_cell_angle_gamma   86.35419007
_symmetry_Int_Tables_number   1
_chemical_formula_structural   Eu3Y(Co3Si5)2
_chemical_formula_sum   'Eu3 Y1 Co6 Si10'
_cell_volume   309.10952731
_cell_formula_units_Z   1
loop_
 _symmetry_equiv_pos_site_id
 _symmetry_equiv_pos_as_xyz
  1  'x, y, z'
loop_
 _atom_site_type_symbol
 _atom_site_label
 _atom_site_symmetry_multiplicity
 _atom_site_fract_x
 _atom_site_fract_y
 _atom_site_fract_z
 _atom_site_occupancy
  Eu  Eu0  1  0.402718  0.868104  0.261650  1
  Eu  Eu1  1  0.868093  0.402506  0.237987  1
  Eu  Eu2  1  0.597255  0.132038  0.738056  1
  Y  Y3  1  0.132387  0.596975  0.763596  1
  Co  Co4  1  0.457440  0.266589  0.121960  1
  Co  Co5  1  0.262052  0.461138  0.374066  1
  Co  Co6  1  0.539993  0.734889  0.876318  1
  Co  Co7  1  0.737667  0.541431  0.623890  1
  Co  Co8  1  0.004510  0.001887  0.251460  1
  Co  Co9  1  0.997040  0.993956  0.750639  1
  Si  Si10  1  0.508388  0.508821  0.250757  1
  Si  Si11  1  0.490707  0.491151  0.748971  1
  Si  Si12  1  0.740105  0.062337  0.337767  1
  Si  Si13  1  0.062827  0.739166  0.163014  1
  Si  Si14  1  0.260003  0.937168  0.662434  1
  Si  Si15  1  0.938664  0.260283  0.837479  1
  Si  Si16  1  0.214352  0.215505  0.249530  1
  Si  Si17  1  0.785673  0.784815  0.750372  1
  Si  Si18  1  0.773077  0.772378  0.250362  1
  Si  Si19  1  0.227050  0.228861  0.749698  1
