# generated using pymatgen
data_Nd2Zn2Ga7Pd3
_symmetry_space_group_name_H-M   'P 1'
_cell_length_a   7.69793004
_cell_length_b   7.72790568
_cell_length_c   9.62204900
_cell_angle_alpha   90.00000000
_cell_angle_beta   90.00000000
_cell_angle_gamma   119.34839661
_symmetry_Int_Tables_number   1
_chemical_formula_structural   Nd2Zn2Ga7Pd3
_chemical_formula_sum   'Nd4 Zn4 Ga14 Pd6'
_cell_volume   498.93992384
_cell_formula_units_Z   2
loop_
 _symmetry_equiv_pos_site_id
 _symmetry_equiv_pos_as_xyz
  1  'x, y, z'
loop_
 _atom_site_type_symbol
 _atom_site_label
 _atom_site_symmetry_multiplicity
 _atom_site_fract_x
 _atom_site_fract_y
 _atom_site_fract_z
 _atom_site_occupancy
  Nd  Nd0  1  0.995706  0.669945  0.250000  1
  Nd  Nd1  1  0.004294  0.330055  0.750000  1
  Nd  Nd2  1  0.672552  0.998268  0.250000  1
  Nd  Nd3  1  0.327448  0.001732  0.750000  1
  Zn  Zn4  1  0.139360  0.138594  0.250000  1
  Zn  Zn5  1  0.860640  0.861406  0.750000  1
  Zn  Zn6  1  0.342181  0.543021  0.250000  1
  Zn  Zn7  1  0.657819  0.456979  0.750000  1
  Ga  Ga8  1  0.010726  0.336619  0.084292  1
  Ga  Ga9  1  0.989274  0.663381  0.915708  1
  Ga  Ga10  1  0.989274  0.663381  0.584292  1
  Ga  Ga11  1  0.332962  0.003034  0.416786  1
  Ga  Ga12  1  0.010726  0.336619  0.415708  1
  Ga  Ga13  1  0.667038  0.996966  0.583214  1
  Ga  Ga14  1  0.667038  0.996966  0.916786  1
  Ga  Ga15  1  0.332962  0.003034  0.083214  1
  Ga  Ga16  1  0.337590  0.334491  0.561842  1
  Ga  Ga17  1  0.662410  0.665509  0.438158  1
  Ga  Ga18  1  0.662410  0.665509  0.061842  1
  Ga  Ga19  1  0.337590  0.334491  0.938158  1
  Ga  Ga20  1  0.537712  0.341880  0.250000  1
  Ga  Ga21  1  0.462288  0.658120  0.750000  1
  Pd  Pd22  1  0.674441  0.326102  0.003416  1
  Pd  Pd23  1  0.325559  0.673898  0.996584  1
  Pd  Pd24  1  0.325559  0.673898  0.503416  1
  Pd  Pd25  1  0.674441  0.326102  0.496584  1
  Pd  Pd26  1  0.000000  0.000000  0.000000  1
  Pd  Pd27  1  0.000000  0.000000  0.500000  1
