# generated using pymatgen
data_Nd16Y4Si15Tc
_symmetry_space_group_name_H-M   'P 1'
_cell_length_a   7.89125260
_cell_length_b   7.85973295
_cell_length_c   15.15672800
_cell_angle_alpha   90.23822364
_cell_angle_beta   89.94528358
_cell_angle_gamma   89.99682317
_symmetry_Int_Tables_number   1
_chemical_formula_structural   Nd16Y4Si15Tc
_chemical_formula_sum   'Nd16 Y4 Si15 Tc1'
_cell_volume   940.05927748
_cell_formula_units_Z   1
loop_
 _symmetry_equiv_pos_site_id
 _symmetry_equiv_pos_as_xyz
  1  'x, y, z'
loop_
 _atom_site_type_symbol
 _atom_site_label
 _atom_site_symmetry_multiplicity
 _atom_site_fract_x
 _atom_site_fract_y
 _atom_site_fract_z
 _atom_site_occupancy
  Nd  Nd0  1  0.371438  0.012547  0.451756  1
  Nd  Nd1  1  0.484671  0.881763  0.696890  1
  Nd  Nd2  1  0.511543  0.123857  0.198946  1
  Nd  Nd3  1  0.876753  0.487927  0.301793  1
  Nd  Nd4  1  0.128079  0.500386  0.797508  1
  Nd  Nd5  1  0.625617  0.987872  0.948336  1
  Nd  Nd6  1  0.008121  0.377623  0.551796  1
  Nd  Nd7  1  0.988572  0.624718  0.051423  1
  Nd  Nd8  1  0.132879  0.982693  0.871125  1
  Nd  Nd9  1  0.519502  0.629812  0.126970  1
  Nd  Nd10  1  0.469776  0.360200  0.630112  1
  Nd  Nd11  1  0.628491  0.517785  0.874202  1
  Nd  Nd12  1  0.374663  0.481398  0.373289  1
  Nd  Nd13  1  0.872594  0.023198  0.376705  1
  Nd  Nd14  1  0.979681  0.127715  0.124176  1
  Nd  Nd15  1  0.027297  0.881637  0.627114  1
  Y  Y16  1  0.309461  0.307835  0.998602  1
  Y  Y17  1  0.189101  0.810130  0.250977  1
  Y  Y18  1  0.821891  0.190136  0.747790  1
  Y  Y19  1  0.692740  0.690438  0.502445  1
  Si  Si20  1  0.331124  0.690396  0.953199  1
  Si  Si21  1  0.665501  0.305588  0.453625  1
  Si  Si22  1  0.693367  0.331753  0.048121  1
  Si  Si23  1  0.307717  0.669483  0.545256  1
  Si  Si24  1  0.810078  0.830176  0.205025  1
  Si  Si25  1  0.170410  0.192510  0.295986  1
  Si  Si26  1  0.829355  0.806011  0.797881  1
  Si  Si27  1  0.287428  0.923274  0.061373  1
  Si  Si28  1  0.578364  0.786352  0.313479  1
  Si  Si29  1  0.423665  0.211439  0.814908  1
  Si  Si30  1  0.776705  0.582403  0.688266  1
  Si  Si31  1  0.212440  0.424386  0.187304  1
  Si  Si32  1  0.707052  0.072543  0.560889  1
  Si  Si33  1  0.922740  0.286155  0.938449  1
  Si  Si34  1  0.077693  0.716472  0.437756  1
  Tc  Tc35  1  0.193488  0.171386  0.696526  1
