# generated using pymatgen
data_Hf8ZnIn4PdPt6
_symmetry_space_group_name_H-M   'P 1'
_cell_length_a   7.49740891
_cell_length_b   7.49868833
_cell_length_c   6.85200189
_cell_angle_alpha   90.07622888
_cell_angle_beta   90.15345928
_cell_angle_gamma   90.39814048
_symmetry_Int_Tables_number   1
_chemical_formula_structural   Hf8ZnIn4PdPt6
_chemical_formula_sum   'Hf8 Zn1 In4 Pd1 Pt6'
_cell_volume   385.21353401
_cell_formula_units_Z   1
loop_
 _symmetry_equiv_pos_site_id
 _symmetry_equiv_pos_as_xyz
  1  'x, y, z'
loop_
 _atom_site_type_symbol
 _atom_site_label
 _atom_site_symmetry_multiplicity
 _atom_site_fract_x
 _atom_site_fract_y
 _atom_site_fract_z
 _atom_site_occupancy
  Hf  Hf0  1  0.143565  0.147048  0.997805  1
  Hf  Hf1  1  0.847227  0.850731  0.004101  1
  Hf  Hf2  1  0.651585  0.352294  0.506664  1
  Hf  Hf3  1  0.354302  0.650226  0.504662  1
  Hf  Hf4  1  0.694995  0.312632  0.993848  1
  Hf  Hf5  1  0.314922  0.693648  0.995717  1
  Hf  Hf6  1  0.811535  0.813292  0.496279  1
  Hf  Hf7  1  0.183213  0.184819  0.503474  1
  Zn  Zn8  1  0.371386  0.370866  0.205323  1
  In  In9  1  0.498260  0.003646  0.251214  1
  In  In10  1  0.498185  0.001902  0.746395  1
  In  In11  1  0.002718  0.499066  0.251476  1
  In  In12  1  0.003140  0.502788  0.746391  1
  Pd  Pd13  1  0.131249  0.867100  0.710961  1
  Pt  Pt14  1  0.632264  0.631923  0.788024  1
  Pt  Pt15  1  0.621740  0.621770  0.218565  1
  Pt  Pt16  1  0.870969  0.127925  0.714689  1
  Pt  Pt17  1  0.868503  0.131475  0.286813  1
  Pt  Pt18  1  0.368663  0.368722  0.793540  1
  Pt  Pt19  1  0.131579  0.868128  0.284060  1
