# generated using pymatgen
data_Lu8Ti12Si15Ge
_symmetry_space_group_name_H-M   'P 1'
_cell_length_a   6.81003824
_cell_length_b   6.97382691
_cell_length_c   13.22041733
_cell_angle_alpha   90.00334449
_cell_angle_beta   89.89790851
_cell_angle_gamma   90.02625196
_symmetry_Int_Tables_number   1
_chemical_formula_structural   Lu8Ti12Si15Ge
_chemical_formula_sum   'Lu8 Ti12 Si15 Ge1'
_cell_volume   627.86336575
_cell_formula_units_Z   1
loop_
 _symmetry_equiv_pos_site_id
 _symmetry_equiv_pos_as_xyz
  1  'x, y, z'
loop_
 _atom_site_type_symbol
 _atom_site_label
 _atom_site_symmetry_multiplicity
 _atom_site_fract_x
 _atom_site_fract_y
 _atom_site_fract_z
 _atom_site_occupancy
  Lu  Lu0  1  0.996254  0.172178  0.404212  1
  Lu  Lu1  1  0.497368  0.328516  0.096403  1
  Lu  Lu2  1  0.504329  0.672004  0.595549  1
  Lu  Lu3  1  0.000734  0.825788  0.903377  1
  Lu  Lu4  1  0.003701  0.827861  0.595583  1
  Lu  Lu5  1  0.504133  0.671317  0.903844  1
  Lu  Lu6  1  0.495906  0.327411  0.404346  1
  Lu  Lu7  1  0.995534  0.173169  0.096721  1
  Ti  Ti8  1  0.337347  0.823087  0.127740  1
  Ti  Ti9  1  0.836094  0.675140  0.373867  1
  Ti  Ti10  1  0.664092  0.174920  0.626325  1
  Ti  Ti11  1  0.160659  0.328704  0.872180  1
  Ti  Ti12  1  0.164665  0.324630  0.626456  1
  Ti  Ti13  1  0.667392  0.175756  0.873437  1
  Ti  Ti14  1  0.335543  0.007779  0.747516  1
  Ti  Ti15  1  0.836198  0.674572  0.127055  1
  Ti  Ti16  1  0.664406  0.991931  0.250198  1
  Ti  Ti17  1  0.164634  0.507636  0.250133  1
  Ti  Ti18  1  0.835730  0.492256  0.750024  1
  Ti  Ti19  1  0.335708  0.824974  0.373541  1
  Si  Si20  1  0.339433  0.037200  0.540639  1
  Si  Si21  1  0.838451  0.462086  0.959649  1
  Si  Si22  1  0.664791  0.961312  0.042045  1
  Si  Si23  1  0.160525  0.537524  0.458992  1
  Si  Si24  1  0.161059  0.537938  0.040950  1
  Si  Si25  1  0.660737  0.962504  0.458856  1
  Si  Si26  1  0.840115  0.462346  0.541347  1
  Si  Si27  1  0.796989  0.373152  0.250573  1
  Si  Si28  1  0.296984  0.126647  0.250094  1
  Si  Si29  1  0.702213  0.873376  0.749845  1
  Si  Si30  1  0.203581  0.627846  0.749365  1
  Si  Si31  1  0.038942  0.875671  0.250210  1
  Si  Si32  1  0.539288  0.623743  0.250854  1
  Si  Si33  1  0.461639  0.375692  0.750100  1
  Si  Si34  1  0.961388  0.124060  0.749557  1
  Ge  Ge35  1  0.333439  0.039273  0.958413  1
