# generated using pymatgen
data_Ti3Nb3Ga4(CoC)2
_symmetry_space_group_name_H-M   'P 1'
_cell_length_a   8.13398540
_cell_length_b   8.14214517
_cell_length_c   8.13398444
_cell_angle_alpha   59.96681630
_cell_angle_beta   59.99247606
_cell_angle_gamma   59.96681174
_symmetry_Int_Tables_number   1
_chemical_formula_structural   Ti3Nb3Ga4(CoC)2
_chemical_formula_sum   'Ti6 Nb6 Ga8 Co4 C4'
_cell_volume   380.70437385
_cell_formula_units_Z   2
loop_
 _symmetry_equiv_pos_site_id
 _symmetry_equiv_pos_as_xyz
  1  'x, y, z'
loop_
 _atom_site_type_symbol
 _atom_site_label
 _atom_site_symmetry_multiplicity
 _atom_site_fract_x
 _atom_site_fract_y
 _atom_site_fract_z
 _atom_site_occupancy
  Ti  Ti0  1  0.691806  0.308194  0.691806  1
  Ti  Ti1  1  0.942618  0.556936  0.556881  1
  Ti  Ti2  1  0.556881  0.943565  0.942618  1
  Ti  Ti3  1  0.942441  0.557559  0.942441  1
  Ti  Ti4  1  0.556881  0.556936  0.942618  1
  Ti  Ti5  1  0.942618  0.943565  0.556881  1
  Nb  Nb6  1  0.693609  0.693915  0.305899  1
  Nb  Nb7  1  0.305899  0.693915  0.693609  1
  Nb  Nb8  1  0.693609  0.306578  0.305899  1
  Nb  Nb9  1  0.305899  0.306578  0.693609  1
  Nb  Nb10  1  0.557414  0.942586  0.557414  1
  Nb  Nb11  1  0.307584  0.692416  0.307584  1
  Ga  Ga12  1  0.332760  0.334367  0.332760  1
  Ga  Ga13  1  0.252292  0.914659  0.918389  1
  Ga  Ga14  1  0.914587  0.253944  0.914587  1
  Ga  Ga15  1  0.918389  0.914659  0.252292  1
  Ga  Ga16  1  0.332760  0.000113  0.332760  1
  Ga  Ga17  1  0.336179  0.332962  0.997898  1
  Ga  Ga18  1  0.997898  0.332962  0.336179  1
  Ga  Ga19  1  0.914587  0.916881  0.914587  1
  Co  Co20  1  0.124731  0.126034  0.124731  1
  Co  Co21  1  0.625944  0.124307  0.125442  1
  Co  Co22  1  0.124731  0.624504  0.124731  1
  Co  Co23  1  0.125442  0.124307  0.625944  1
  C  C24  1  0.629460  0.617769  0.629460  1
  C  C25  1  0.114777  0.628239  0.628746  1
  C  C26  1  0.629460  0.123311  0.629460  1
  C  C27  1  0.628746  0.628239  0.114777  1
