# generated using pymatgen
data_RbCr3Sb12Ru
_symmetry_space_group_name_H-M   'P 1'
_cell_length_a   8.34254567
_cell_length_b   8.27062788
_cell_length_c   8.27062916
_cell_angle_alpha   109.29441289
_cell_angle_beta   109.64745908
_cell_angle_gamma   109.64746166
_symmetry_Int_Tables_number   1
_chemical_formula_structural   RbCr3Sb12Ru
_chemical_formula_sum   'Rb1 Cr3 Sb12 Ru1'
_cell_volume   438.33330556
_cell_formula_units_Z   1
loop_
 _symmetry_equiv_pos_site_id
 _symmetry_equiv_pos_as_xyz
  1  'x, y, z'
loop_
 _atom_site_type_symbol
 _atom_site_label
 _atom_site_symmetry_multiplicity
 _atom_site_fract_x
 _atom_site_fract_y
 _atom_site_fract_z
 _atom_site_occupancy
  Rb  Rb0  1  0.000000  0.000000  0.000000  1
  Cr  Cr1  1  0.500000  0.500000  0.500000  1
  Cr  Cr2  1  0.000000  0.000000  0.500000  1
  Cr  Cr3  1  0.000000  0.500000  0.000000  1
  Sb  Sb4  1  0.161865  0.813674  0.663752  1
  Sb  Sb5  1  0.154238  0.501585  0.348825  1
  Sb  Sb6  1  0.501886  0.663752  0.850078  1
  Sb  Sb7  1  0.348191  0.850078  0.186326  1
  Sb  Sb8  1  0.805412  0.651175  0.152759  1
  Sb  Sb9  1  0.652653  0.847241  0.498415  1
  Sb  Sb10  1  0.194588  0.348825  0.847241  1
  Sb  Sb11  1  0.651809  0.149922  0.813674  1
  Sb  Sb12  1  0.347347  0.152759  0.501585  1
  Sb  Sb13  1  0.498114  0.336248  0.149922  1
  Sb  Sb14  1  0.845762  0.498415  0.651175  1
  Sb  Sb15  1  0.838135  0.186326  0.336248  1
  Ru  Ru16  1  0.500000  0.000000  0.000000  1
