# generated using pymatgen
data_CsLuBeS3
_symmetry_space_group_name_H-M   'P 1'
_cell_length_a   8.04123693
_cell_length_b   8.04123680
_cell_length_c   10.25799900
_cell_angle_alpha   90.00000000
_cell_angle_beta   90.00000000
_cell_angle_gamma   152.32190172
_symmetry_Int_Tables_number   1
_chemical_formula_structural   CsLuBeS3
_chemical_formula_sum   'Cs2 Lu2 Be2 S6'
_cell_volume   308.10405399
_cell_formula_units_Z   2
loop_
 _symmetry_equiv_pos_site_id
 _symmetry_equiv_pos_as_xyz
  1  'x, y, z'
loop_
 _atom_site_type_symbol
 _atom_site_label
 _atom_site_symmetry_multiplicity
 _atom_site_fract_x
 _atom_site_fract_y
 _atom_site_fract_z
 _atom_site_occupancy
  Cs  Cs0  1  0.739939  0.260062  0.250000  1
  Cs  Cs1  1  0.260062  0.739939  0.750000  1
  Lu  Lu2  1  0.000000  0.000000  0.000000  1
  Lu  Lu3  1  0.000000  0.000000  0.500000  1
  Be  Be4  1  0.461857  0.538144  0.250000  1
  Be  Be5  1  0.538144  0.461857  0.750000  1
  S  S6  1  0.392218  0.607783  0.075578  1
  S  S7  1  0.045007  0.954994  0.250000  1
  S  S8  1  0.392218  0.607783  0.424421  1
  S  S9  1  0.607783  0.392218  0.575579  1
  S  S10  1  0.954994  0.045007  0.750000  1
  S  S11  1  0.607783  0.392218  0.924421  1
