# generated using pymatgen
data_Nd3Sm3Co14(P3Rh)4
_symmetry_space_group_name_H-M   'P 1'
_cell_length_a   3.79882800
_cell_length_b   10.76518608
_cell_length_c   12.56150009
_cell_angle_alpha   90.01365669
_cell_angle_beta   90.00000000
_cell_angle_gamma   89.99999468
_symmetry_Int_Tables_number   1
_chemical_formula_structural   Nd3Sm3Co14(P3Rh)4
_chemical_formula_sum   'Nd3 Sm3 Co14 P12 Rh4'
_cell_volume   513.70366576
_cell_formula_units_Z   1
loop_
 _symmetry_equiv_pos_site_id
 _symmetry_equiv_pos_as_xyz
  1  'x, y, z'
loop_
 _atom_site_type_symbol
 _atom_site_label
 _atom_site_symmetry_multiplicity
 _atom_site_fract_x
 _atom_site_fract_y
 _atom_site_fract_z
 _atom_site_occupancy
  Nd  Nd0  1  0.000000  0.500177  0.520561  1
  Nd  Nd1  1  0.500000  0.999675  0.479234  1
  Nd  Nd2  1  0.000000  0.314543  0.793969  1
  Sm  Sm3  1  0.500000  0.813982  0.206118  1
  Sm  Sm4  1  0.500000  0.185775  0.205803  1
  Sm  Sm5  1  0.000000  0.686309  0.794070  1
  Co  Co6  1  0.000000  0.500471  0.989509  1
  Co  Co7  1  0.500000  0.999413  0.011546  1
  Co  Co8  1  0.500000  0.332360  0.995088  1
  Co  Co9  1  0.500000  0.668183  0.994687  1
  Co  Co10  1  0.000000  0.167199  0.006140  1
  Co  Co11  1  0.000000  0.832169  0.005759  1
  Co  Co12  1  0.500000  0.300476  0.427618  1
  Co  Co13  1  0.500000  0.699593  0.428217  1
  Co  Co14  1  0.000000  0.199247  0.570784  1
  Co  Co15  1  0.000000  0.800559  0.571727  1
  Co  Co16  1  0.500000  0.882039  0.712178  1
  Co  Co17  1  0.500000  0.116831  0.711408  1
  Co  Co18  1  0.000000  0.617801  0.287922  1
  Co  Co19  1  0.000000  0.382258  0.287648  1
  P  P20  1  0.500000  0.500836  0.893293  1
  P  P21  1  0.000000  0.999648  0.107717  1
  P  P22  1  0.500000  0.500002  0.345238  1
  P  P23  1  0.000000  0.000020  0.654653  1
  P  P24  1  0.500000  0.298027  0.611013  1
  P  P25  1  0.500000  0.702112  0.612195  1
  P  P26  1  0.000000  0.201567  0.387188  1
  P  P27  1  0.000000  0.798282  0.387668  1
  P  P28  1  0.500000  0.845286  0.896865  1
  P  P29  1  0.500000  0.153727  0.897734  1
  P  P30  1  0.000000  0.654957  0.103460  1
  P  P31  1  0.000000  0.345178  0.103173  1
  Rh  Rh32  1  0.500000  0.500251  0.158315  1
  Rh  Rh33  1  0.000000  0.999700  0.841945  1
  Rh  Rh34  1  0.500000  0.501481  0.705245  1
  Rh  Rh35  1  0.000000  0.999865  0.294311  1
