# generated using pymatgen
data_NaLi2Ni11P7
_symmetry_space_group_name_H-M   'P 1'
_cell_length_a   3.60747800
_cell_length_b   9.05049020
_cell_length_c   9.06879380
_cell_angle_alpha   120.22156102
_cell_angle_beta   90.00000000
_cell_angle_gamma   90.00000000
_symmetry_Int_Tables_number   1
_chemical_formula_structural   NaLi2Ni11P7
_chemical_formula_sum   'Na1 Li2 Ni11 P7'
_cell_volume   255.84799195
_cell_formula_units_Z   1
loop_
 _symmetry_equiv_pos_site_id
 _symmetry_equiv_pos_as_xyz
  1  'x, y, z'
loop_
 _atom_site_type_symbol
 _atom_site_label
 _atom_site_symmetry_multiplicity
 _atom_site_fract_x
 _atom_site_fract_y
 _atom_site_fract_z
 _atom_site_occupancy
  Na  Na0  1  0.000000  0.670136  0.337661  1
  Li  Li1  1  0.500000  0.328396  0.664693  1
  Li  Li2  1  0.500000  0.116170  0.897179  1
  Ni  Ni3  1  0.000000  0.884980  0.726449  1
  Ni  Ni4  1  0.000000  0.278811  0.159554  1
  Ni  Ni5  1  0.000000  0.834939  0.118504  1
  Ni  Ni6  1  0.500000  0.954389  0.567192  1
  Ni  Ni7  1  0.500000  0.434307  0.387501  1
  Ni  Ni8  1  0.500000  0.612460  0.043924  1
  Ni  Ni9  1  0.000000  0.372818  0.941206  1
  Ni  Ni10  1  0.000000  0.061942  0.429502  1
  Ni  Ni11  1  0.000000  0.566927  0.629165  1
  Ni  Ni12  1  0.500000  0.090732  0.209863  1
  Ni  Ni13  1  0.500000  0.788958  0.881677  1
  P  P14  1  0.500000  0.711555  0.598999  1
  P  P15  1  0.500000  0.412141  0.119131  1
  P  P16  1  0.500000  0.887011  0.291388  1
  P  P17  1  0.000000  0.996261  0.005201  1
  P  P18  1  0.000000  0.120835  0.697924  1
  P  P19  1  0.000000  0.297268  0.416689  1
  P  P20  1  0.000000  0.578964  0.876599  1
