# generated using pymatgen
data_Y8Hg3PbAu8
_symmetry_space_group_name_H-M   'P 1'
_cell_length_a   8.05165000
_cell_length_b   8.05165000
_cell_length_c   7.39959800
_cell_angle_alpha   90.00000000
_cell_angle_beta   90.00000000
_cell_angle_gamma   90.00000000
_symmetry_Int_Tables_number   1
_chemical_formula_structural   Y8Hg3PbAu8
_chemical_formula_sum   'Y8 Hg3 Pb1 Au8'
_cell_volume   479.70903986
_cell_formula_units_Z   1
loop_
 _symmetry_equiv_pos_site_id
 _symmetry_equiv_pos_as_xyz
  1  'x, y, z'
loop_
 _atom_site_type_symbol
 _atom_site_label
 _atom_site_symmetry_multiplicity
 _atom_site_fract_x
 _atom_site_fract_y
 _atom_site_fract_z
 _atom_site_occupancy
  Y  Y0  1  0.835335  0.157969  0.502200  1
  Y  Y1  1  0.164665  0.842031  0.502200  1
  Y  Y2  1  0.342031  0.335335  0.997800  1
  Y  Y3  1  0.657969  0.664665  0.997800  1
  Y  Y4  1  0.679286  0.686598  0.501001  1
  Y  Y5  1  0.320714  0.313402  0.501001  1
  Y  Y6  1  0.186598  0.820714  0.998999  1
  Y  Y7  1  0.813402  0.179286  0.998999  1
  Hg  Hg8  1  0.500000  0.000000  0.250000  1
  Hg  Hg9  1  0.000000  0.500000  0.750000  1
  Hg  Hg10  1  0.500000  0.000000  0.750000  1
  Pb  Pb11  1  0.000000  0.500000  0.250000  1
  Au  Au12  1  0.623473  0.370922  0.272173  1
  Au  Au13  1  0.376527  0.629078  0.272173  1
  Au  Au14  1  0.125290  0.127903  0.772801  1
  Au  Au15  1  0.874710  0.872097  0.772801  1
  Au  Au16  1  0.372097  0.625290  0.727199  1
  Au  Au17  1  0.627903  0.374710  0.727199  1
  Au  Au18  1  0.870922  0.876527  0.227827  1
  Au  Au19  1  0.129078  0.123473  0.227827  1
