# generated using pymatgen
data_Nd10Sn5Bi3
_symmetry_space_group_name_H-M   'P 1'
_cell_length_a   8.39726301
_cell_length_b   8.48828985
_cell_length_c   16.20117000
_cell_angle_alpha   90.00000000
_cell_angle_beta   90.00000000
_cell_angle_gamma   90.12382436
_symmetry_Int_Tables_number   1
_chemical_formula_structural   Nd10Sn5Bi3
_chemical_formula_sum   'Nd20 Sn10 Bi6'
_cell_volume   1154.79081719
_cell_formula_units_Z   2
loop_
 _symmetry_equiv_pos_site_id
 _symmetry_equiv_pos_as_xyz
  1  'x, y, z'
loop_
 _atom_site_type_symbol
 _atom_site_label
 _atom_site_symmetry_multiplicity
 _atom_site_fract_x
 _atom_site_fract_y
 _atom_site_fract_z
 _atom_site_occupancy
  Nd  Nd0  1  0.053376  0.169692  0.392539  1
  Nd  Nd1  1  0.394466  0.837344  0.119028  1
  Nd  Nd2  1  0.112466  0.333371  0.620492  1
  Nd  Nd3  1  0.453319  0.676677  0.891348  1
  Nd  Nd4  1  0.887534  0.666629  0.120492  1
  Nd  Nd5  1  0.108675  0.337173  0.879460  1
  Nd  Nd6  1  0.218622  0.495896  0.249357  1
  Nd  Nd7  1  0.718571  0.001354  0.246818  1
  Nd  Nd8  1  0.450329  0.677839  0.609378  1
  Nd  Nd9  1  0.281429  0.998646  0.746818  1
  Nd  Nd10  1  0.605534  0.162656  0.619028  1
  Nd  Nd11  1  0.781378  0.504104  0.749357  1
  Nd  Nd12  1  0.891325  0.662827  0.379460  1
  Nd  Nd13  1  0.045264  0.170439  0.107734  1
  Nd  Nd14  1  0.946624  0.830308  0.892539  1
  Nd  Nd15  1  0.611860  0.161515  0.882027  1
  Nd  Nd16  1  0.549671  0.322161  0.109378  1
  Nd  Nd17  1  0.388140  0.838485  0.382027  1
  Nd  Nd18  1  0.954736  0.829561  0.607734  1
  Nd  Nd19  1  0.546681  0.323323  0.391348  1
  Sn  Sn20  1  0.650692  0.864304  0.749950  1
  Sn  Sn21  1  0.850505  0.360784  0.250993  1
  Sn  Sn22  1  0.587474  0.623329  0.251458  1
  Sn  Sn23  1  0.412526  0.376671  0.751458  1
  Sn  Sn24  1  0.149495  0.639216  0.750993  1
  Sn  Sn25  1  0.910554  0.125054  0.750150  1
  Sn  Sn26  1  0.268450  0.020661  0.545754  1
  Sn  Sn27  1  0.731550  0.979339  0.045754  1
  Sn  Sn28  1  0.349308  0.135696  0.249950  1
  Sn  Sn29  1  0.089446  0.874946  0.250150  1
  Bi  Bi30  1  0.768750  0.480556  0.544949  1
  Bi  Bi31  1  0.731555  0.979424  0.453861  1
  Bi  Bi32  1  0.231042  0.519396  0.454706  1
  Bi  Bi33  1  0.268445  0.020576  0.953861  1
  Bi  Bi34  1  0.768958  0.480604  0.954706  1
  Bi  Bi35  1  0.231250  0.519444  0.044949  1
