# generated using pymatgen
data_NdLu7(SiO5)4
_symmetry_space_group_name_H-M   'P 1'
_cell_length_a   6.69543580
_cell_length_b   7.88353377
_cell_length_c   9.55702638
_cell_angle_alpha   90.71869784
_cell_angle_beta   110.68206965
_cell_angle_gamma   114.47391405
_symmetry_Int_Tables_number   1
_chemical_formula_structural   NdLu7(SiO5)4
_chemical_formula_sum   'Nd1 Lu7 Si4 O20'
_cell_volume   421.99942746
_cell_formula_units_Z   1
loop_
 _symmetry_equiv_pos_site_id
 _symmetry_equiv_pos_as_xyz
  1  'x, y, z'
loop_
 _atom_site_type_symbol
 _atom_site_label
 _atom_site_symmetry_multiplicity
 _atom_site_fract_x
 _atom_site_fract_y
 _atom_site_fract_z
 _atom_site_occupancy
  Nd  Nd0  1  0.321547  0.116883  0.036387  1
  Lu  Lu1  1  0.934652  0.445792  0.164582  1
  Lu  Lu2  1  0.820117  0.058520  0.339607  1
  Lu  Lu3  1  0.694251  0.398731  0.470250  1
  Lu  Lu4  1  0.309302  0.603855  0.530182  1
  Lu  Lu5  1  0.180555  0.941579  0.661064  1
  Lu  Lu6  1  0.079368  0.552307  0.835880  1
  Lu  Lu7  1  0.669373  0.892384  0.972732  1
  Si  Si8  1  0.472440  0.564049  0.196996  1
  Si  Si9  1  0.214547  0.940288  0.310953  1
  Si  Si10  1  0.772229  0.053212  0.687764  1
  Si  Si11  1  0.538492  0.442612  0.803532  1
  O  O12  1  0.200547  0.460946  0.062811  1
  O  O13  1  0.729793  0.142642  0.106708  1
  O  O14  1  0.040860  0.948883  0.142232  1
  O  O15  1  0.611838  0.782140  0.179642  1
  O  O16  1  0.613480  0.437898  0.185471  1
  O  O17  1  0.490078  0.086963  0.327066  1
  O  O18  1  0.177653  0.724263  0.324974  1
  O  O19  1  0.454230  0.535809  0.362653  1
  O  O20  1  0.976860  0.362073  0.397569  1
  O  O21  1  0.156547  0.030046  0.438476  1
  O  O22  1  0.840595  0.968618  0.563092  1
  O  O23  1  0.025715  0.634983  0.604386  1
  O  O24  1  0.549363  0.469542  0.635976  1
  O  O25  1  0.824166  0.273509  0.675777  1
  O  O26  1  0.491746  0.911436  0.658708  1
  O  O27  1  0.422196  0.584836  0.828420  1
  O  O28  1  0.371375  0.224708  0.809563  1
  O  O29  1  0.918904  0.029785  0.858868  1
  O  O30  1  0.286664  0.858501  0.892926  1
  O  O31  1  0.810522  0.522209  0.934752  1
