# generated using pymatgen
data_Pr2Th(InRh)3
_symmetry_space_group_name_H-M   'P 1'
_cell_length_a   7.66437937
_cell_length_b   7.85518632
_cell_length_c   4.02520400
_cell_angle_alpha   90.00000000
_cell_angle_beta   90.00000000
_cell_angle_gamma   120.82699986
_symmetry_Int_Tables_number   1
_chemical_formula_structural   Pr2Th(InRh)3
_chemical_formula_sum   'Pr2 Th1 In3 Rh3'
_cell_volume   208.10005903
_cell_formula_units_Z   1
loop_
 _symmetry_equiv_pos_site_id
 _symmetry_equiv_pos_as_xyz
  1  'x, y, z'
loop_
 _atom_site_type_symbol
 _atom_site_label
 _atom_site_symmetry_multiplicity
 _atom_site_fract_x
 _atom_site_fract_y
 _atom_site_fract_z
 _atom_site_occupancy
  Pr  Pr0  1  0.410780  0.411196  0.500000  1
  Pr  Pr1  1  0.589220  0.000416  0.500000  1
  Th  Th2  1  0.000000  0.582533  0.500000  1
  In  In3  1  0.742398  0.749107  0.000000  1
  In  In4  1  0.000000  0.240371  0.000000  1
  In  In5  1  0.257602  0.006709  0.000000  1
  Rh  Rh6  1  0.303585  0.662787  0.000000  1
  Rh  Rh7  1  0.000000  0.987680  0.500000  1
  Rh  Rh8  1  0.696415  0.359202  0.000000  1
