# generated using pymatgen
data_Li8Tb8Sn3Sb5
_symmetry_space_group_name_H-M   'P 1'
_cell_length_a   9.41969238
_cell_length_b   9.42130254
_cell_length_c   7.19076907
_cell_angle_alpha   89.99999725
_cell_angle_beta   89.91807843
_cell_angle_gamma   120.00565636
_symmetry_Int_Tables_number   1
_chemical_formula_structural   Li8Tb8Sn3Sb5
_chemical_formula_sum   'Li8 Tb8 Sn3 Sb5'
_cell_volume   552.62215989
_cell_formula_units_Z   1
loop_
 _symmetry_equiv_pos_site_id
 _symmetry_equiv_pos_as_xyz
  1  'x, y, z'
loop_
 _atom_site_type_symbol
 _atom_site_label
 _atom_site_symmetry_multiplicity
 _atom_site_fract_x
 _atom_site_fract_y
 _atom_site_fract_z
 _atom_site_occupancy
  Li  Li0  1  0.168019  0.334425  0.282447  1
  Li  Li1  1  0.168019  0.833595  0.282447  1
  Li  Li2  1  0.664773  0.832387  0.283433  1
  Li  Li3  1  0.832376  0.665313  0.783358  1
  Li  Li4  1  0.832376  0.167062  0.783358  1
  Li  Li5  1  0.334956  0.167477  0.782634  1
  Li  Li6  1  0.333647  0.666824  0.676918  1
  Li  Li7  1  0.665693  0.332846  0.177673  1
  Tb  Tb8  1  0.510220  0.023480  0.491783  1
  Tb  Tb9  1  0.510220  0.486739  0.491783  1
  Tb  Tb10  1  0.978386  0.489193  0.492110  1
  Tb  Tb11  1  0.487500  0.978466  0.993676  1
  Tb  Tb12  1  0.487500  0.509035  0.993676  1
  Tb  Tb13  1  0.021587  0.510794  0.993105  1
  Tb  Tb14  1  0.002180  0.001091  0.501653  1
  Tb  Tb15  1  0.002364  0.001182  0.003656  1
  Sn  Sn16  1  0.332981  0.166490  0.233994  1
  Sn  Sn17  1  0.332904  0.666452  0.259108  1
  Sn  Sn18  1  0.667243  0.333621  0.759308  1
  Sb  Sb19  1  0.165971  0.332902  0.735193  1
  Sb  Sb20  1  0.165971  0.833070  0.735193  1
  Sb  Sb21  1  0.667197  0.833599  0.735121  1
  Sb  Sb22  1  0.833958  0.667130  0.235172  1
  Sb  Sb23  1  0.833958  0.166827  0.235172  1
