# generated using pymatgen
data_Rb4Li2ScInBi4
_symmetry_space_group_name_H-M   'P 1'
_cell_length_a   11.27842000
_cell_length_b   11.27841905
_cell_length_c   7.18870200
_cell_angle_alpha   90.00000000
_cell_angle_beta   90.00000000
_cell_angle_gamma   101.56185115
_symmetry_Int_Tables_number   1
_chemical_formula_structural   Rb4Li2ScInBi4
_chemical_formula_sum   'Rb8 Li4 Sc2 In2 Bi8'
_cell_volume   895.86801414
_cell_formula_units_Z   2
loop_
 _symmetry_equiv_pos_site_id
 _symmetry_equiv_pos_as_xyz
  1  'x, y, z'
loop_
 _atom_site_type_symbol
 _atom_site_label
 _atom_site_symmetry_multiplicity
 _atom_site_fract_x
 _atom_site_fract_y
 _atom_site_fract_z
 _atom_site_occupancy
  Rb  Rb0  1  0.575299  0.924701  0.750000  1
  Rb  Rb1  1  0.924701  0.575299  0.250000  1
  Rb  Rb2  1  0.423773  0.076227  0.250000  1
  Rb  Rb3  1  0.076227  0.423773  0.750000  1
  Rb  Rb4  1  0.671483  0.326454  0.773963  1
  Rb  Rb5  1  0.828517  0.173546  0.273963  1
  Rb  Rb6  1  0.326454  0.671483  0.226037  1
  Rb  Rb7  1  0.173546  0.828517  0.726037  1
  Li  Li8  1  0.621225  0.621225  0.000000  1
  Li  Li9  1  0.878775  0.878775  0.500000  1
  Li  Li10  1  0.378152  0.378152  0.000000  1
  Li  Li11  1  0.121848  0.121848  0.500000  1
  Sc  Sc12  1  0.873922  0.873922  0.000000  1
  Sc  Sc13  1  0.626078  0.626078  0.500000  1
  In  In14  1  0.129059  0.129059  0.000000  1
  In  In15  1  0.370941  0.370941  0.500000  1
  Bi  Bi16  1  0.348989  0.151011  0.750000  1
  Bi  Bi17  1  0.151011  0.348989  0.250000  1
  Bi  Bi18  1  0.659328  0.840672  0.250000  1
  Bi  Bi19  1  0.840672  0.659328  0.750000  1
  Bi  Bi20  1  0.902381  0.094263  0.766249  1
  Bi  Bi21  1  0.597619  0.405737  0.266249  1
  Bi  Bi22  1  0.094263  0.902381  0.233751  1
  Bi  Bi23  1  0.405737  0.597619  0.733751  1
