# generated using pymatgen
data_Hf18FeCu(ReW)4
_symmetry_space_group_name_H-M   'P 1'
_cell_length_a   8.48139700
_cell_length_b   8.64778445
_cell_length_c   8.67011945
_cell_angle_alpha   119.91395482
_cell_angle_beta   90.00000000
_cell_angle_gamma   90.00000000
_symmetry_Int_Tables_number   1
_chemical_formula_structural   Hf18FeCu(ReW)4
_chemical_formula_sum   'Hf18 Fe1 Cu1 Re4 W4'
_cell_volume   551.19321446
_cell_formula_units_Z   1
loop_
 _symmetry_equiv_pos_site_id
 _symmetry_equiv_pos_as_xyz
  1  'x, y, z'
loop_
 _atom_site_type_symbol
 _atom_site_label
 _atom_site_symmetry_multiplicity
 _atom_site_fract_x
 _atom_site_fract_y
 _atom_site_fract_z
 _atom_site_occupancy
  Hf  Hf0  1  0.555621  0.803422  0.606843  1
  Hf  Hf1  1  0.554500  0.803583  0.196018  1
  Hf  Hf2  1  0.554483  0.392409  0.196004  1
  Hf  Hf3  1  0.440451  0.201440  0.402877  1
  Hf  Hf4  1  0.441527  0.201441  0.798527  1
  Hf  Hf5  1  0.441547  0.597110  0.798538  1
  Hf  Hf6  1  0.059549  0.201440  0.402877  1
  Hf  Hf7  1  0.058473  0.201441  0.798527  1
  Hf  Hf8  1  0.058453  0.597110  0.798538  1
  Hf  Hf9  1  0.944379  0.803422  0.606843  1
  Hf  Hf10  1  0.945500  0.803583  0.196018  1
  Hf  Hf11  1  0.945517  0.392409  0.196004  1
  Hf  Hf12  1  0.750000  0.458471  0.916966  1
  Hf  Hf13  1  0.750000  0.459258  0.542053  1
  Hf  Hf14  1  0.750000  0.082776  0.542057  1
  Hf  Hf15  1  0.250000  0.540695  0.081368  1
  Hf  Hf16  1  0.250000  0.540222  0.458726  1
  Hf  Hf17  1  0.250000  0.918509  0.458719  1
  Fe  Fe18  1  0.250000  0.333904  0.667729  1
  Cu  Cu19  1  0.750000  0.666516  0.333106  1
  Re  Re20  1  0.750000  0.112264  0.888478  1
  Re  Re21  1  0.750000  0.776200  0.888479  1
  Re  Re22  1  0.250000  0.887594  0.111980  1
  Re  Re23  1  0.250000  0.224398  0.111976  1
  W  W24  1  0.750000  0.111508  0.223035  1
  W  W25  1  0.250000  0.889012  0.777999  1
  W  W26  1  0.498707  0.999930  0.999857  1
  W  W27  1  0.001293  0.999930  0.999857  1
