# generated using pymatgen
data_KCoP2Os
_symmetry_space_group_name_H-M   'P 1'
_cell_length_a   7.14451206
_cell_length_b   7.14451242
_cell_length_c   7.14451210
_cell_angle_alpha   148.74664355
_cell_angle_beta   148.74664934
_cell_angle_gamma   44.78436283
_symmetry_Int_Tables_number   1
_chemical_formula_structural   KCoP2Os
_chemical_formula_sum   'K1 Co1 P2 Os1'
_cell_volume   97.86411387
_cell_formula_units_Z   1
loop_
 _symmetry_equiv_pos_site_id
 _symmetry_equiv_pos_as_xyz
  1  'x, y, z'
loop_
 _atom_site_type_symbol
 _atom_site_label
 _atom_site_symmetry_multiplicity
 _atom_site_fract_x
 _atom_site_fract_y
 _atom_site_fract_z
 _atom_site_occupancy
  K  K0  1  0.000000  0.000000  0.000000  1
  Co  Co1  1  0.250000  0.750000  0.500000  1
  P  P2  1  0.343346  0.343346  0.000000  1
  P  P3  1  0.656654  0.656654  0.000000  1
  Os  Os4  1  0.750000  0.250000  0.500000  1
