# generated using pymatgen
data_Eu2GaPtRh
_symmetry_space_group_name_H-M   'P 1'
_cell_length_a   5.83692700
_cell_length_b   5.83692634
_cell_length_c   5.83692680
_cell_angle_alpha   137.46746001
_cell_angle_beta   119.63467362
_cell_angle_gamma   76.62275207
_symmetry_Int_Tables_number   1
_chemical_formula_structural   Eu2GaPtRh
_chemical_formula_sum   'Eu2 Ga1 Pt1 Rh1'
_cell_volume   113.81529418
_cell_formula_units_Z   1
loop_
 _symmetry_equiv_pos_site_id
 _symmetry_equiv_pos_as_xyz
  1  'x, y, z'
loop_
 _atom_site_type_symbol
 _atom_site_label
 _atom_site_symmetry_multiplicity
 _atom_site_fract_x
 _atom_site_fract_y
 _atom_site_fract_z
 _atom_site_occupancy
  Eu  Eu0  1  0.699105  0.198037  0.501069  1
  Eu  Eu1  1  0.303031  0.801962  0.501067  1
  Ga  Ga2  1  0.990740  0.000000  0.990740  1
  Pt  Pt3  1  0.260366  0.499999  0.760366  1
  Rh  Rh4  1  0.746758  0.500000  0.246758  1
