# generated using pymatgen
data_La4Ga10Ir5Pt
_symmetry_space_group_name_H-M   'P 1'
_cell_length_a   8.71990858
_cell_length_b   8.73104104
_cell_length_c   8.73036787
_cell_angle_alpha   140.52001161
_cell_angle_beta   107.70700685
_cell_angle_gamma   85.65281315
_symmetry_Int_Tables_number   1
_chemical_formula_structural   La4Ga10Ir5Pt
_chemical_formula_sum   'La4 Ga10 Ir5 Pt1'
_cell_volume   388.47454752
_cell_formula_units_Z   1
loop_
 _symmetry_equiv_pos_site_id
 _symmetry_equiv_pos_as_xyz
  1  'x, y, z'
loop_
 _atom_site_type_symbol
 _atom_site_label
 _atom_site_symmetry_multiplicity
 _atom_site_fract_x
 _atom_site_fract_y
 _atom_site_fract_z
 _atom_site_occupancy
  La  La0  1  0.094370  0.865978  0.228322  1
  La  La1  1  0.635230  0.363981  0.271158  1
  La  La2  1  0.904948  0.135265  0.769601  1
  La  La3  1  0.365299  0.635678  0.729778  1
  Ga  Ga4  1  0.292261  0.043157  0.753911  1
  Ga  Ga5  1  0.292235  0.538350  0.249063  1
  Ga  Ga6  1  0.000289  0.245920  0.248696  1
  Ga  Ga7  1  0.241102  0.406485  0.834647  1
  Ga  Ga8  1  0.754588  0.592855  0.161821  1
  Ga  Ga9  1  0.710642  0.461005  0.750364  1
  Ga  Ga10  1  0.572073  0.906328  0.665698  1
  Ga  Ga11  1  0.710629  0.960266  0.249622  1
  Ga  Ga12  1  0.428059  0.093284  0.334709  1
  Ga  Ga13  1  0.000293  0.751605  0.754368  1
  Ir  Ir14  1  0.753895  0.853998  0.899948  1
  Ir  Ir15  1  0.953964  0.354132  0.599892  1
  Ir  Ir16  1  0.246100  0.146391  0.099803  1
  Ir  Ir17  1  0.499544  0.750823  0.251022  1
  Ir  Ir18  1  0.499608  0.248544  0.748765  1
  Pt  Pt19  1  0.044871  0.645959  0.398812  1
