# generated using pymatgen
data_Tb7Dy(InPt)2
_symmetry_space_group_name_H-M   'P 1'
_cell_length_a   9.76167928
_cell_length_b   9.77204825
_cell_length_c   9.76129417
_cell_angle_alpha   59.96361213
_cell_angle_beta   59.93698675
_cell_angle_gamma   59.96493024
_symmetry_Int_Tables_number   1
_chemical_formula_structural   Tb7Dy(InPt)2
_chemical_formula_sum   'Tb14 Dy2 In4 Pt4'
_cell_volume   657.74986670
_cell_formula_units_Z   2
loop_
 _symmetry_equiv_pos_site_id
 _symmetry_equiv_pos_as_xyz
  1  'x, y, z'
loop_
 _atom_site_type_symbol
 _atom_site_label
 _atom_site_symmetry_multiplicity
 _atom_site_fract_x
 _atom_site_fract_y
 _atom_site_fract_z
 _atom_site_occupancy
  Tb  Tb0  1  0.690090  0.309514  0.308646  1
  Tb  Tb1  1  0.690089  0.691752  0.308645  1
  Tb  Tb2  1  0.309372  0.690549  0.309530  1
  Tb  Tb3  1  0.936883  0.937278  0.563790  1
  Tb  Tb4  1  0.149406  0.148463  0.553669  1
  Tb  Tb5  1  0.562416  0.937724  0.562136  1
  Tb  Tb6  1  0.149704  0.148763  0.149684  1
  Tb  Tb7  1  0.308756  0.309740  0.690029  1
  Tb  Tb8  1  0.936884  0.562049  0.563789  1
  Tb  Tb9  1  0.563840  0.561801  0.936979  1
  Tb  Tb10  1  0.563840  0.937379  0.936980  1
  Tb  Tb11  1  0.936604  0.563459  0.936478  1
  Tb  Tb12  1  0.149704  0.551850  0.149684  1
  Tb  Tb13  1  0.308755  0.691477  0.690029  1
  Dy  Dy14  1  0.691239  0.308649  0.691463  1
  Dy  Dy15  1  0.553240  0.148626  0.149510  1
  In  In16  1  0.917199  0.917810  0.247181  1
  In  In17  1  0.247143  0.917641  0.917575  1
  In  In18  1  0.916361  0.249540  0.916879  1
  In  In19  1  0.916361  0.917221  0.916878  1
  Pt  Pt20  1  0.357508  0.355769  0.356668  1
  Pt  Pt21  1  0.928052  0.356682  0.358583  1
  Pt  Pt22  1  0.359044  0.356215  0.928526  1
  Pt  Pt23  1  0.357510  0.930053  0.356668  1
