# generated using pymatgen
data_CdFe7(As2O5)4
_symmetry_space_group_name_H-M   'P 1'
_cell_length_a   6.48048725
_cell_length_b   9.58764401
_cell_length_c   9.60250300
_cell_angle_alpha   66.52658535
_cell_angle_beta   81.70586587
_cell_angle_gamma   78.85733295
_symmetry_Int_Tables_number   1
_chemical_formula_structural   CdFe7(As2O5)4
_chemical_formula_sum   'Cd1 Fe7 As8 O20'
_cell_volume   535.43577709
_cell_formula_units_Z   1
loop_
 _symmetry_equiv_pos_site_id
 _symmetry_equiv_pos_as_xyz
  1  'x, y, z'
loop_
 _atom_site_type_symbol
 _atom_site_label
 _atom_site_symmetry_multiplicity
 _atom_site_fract_x
 _atom_site_fract_y
 _atom_site_fract_z
 _atom_site_occupancy
  Cd  Cd0  1  0.322911  0.249638  0.477662  1
  Fe  Fe1  1  0.143891  0.925724  0.631188  1
  Fe  Fe2  1  0.597177  0.416841  0.156377  1
  Fe  Fe3  1  0.896765  0.605553  0.848491  1
  Fe  Fe4  1  0.104953  0.394198  0.149596  1
  Fe  Fe5  1  0.405366  0.586312  0.839976  1
  Fe  Fe6  1  0.852486  0.064944  0.367957  1
  Fe  Fe7  1  0.680851  0.731330  0.532506  1
  As  As8  1  0.786242  0.401041  0.477342  1
  As  As9  1  0.252752  0.280387  0.841800  1
  As  As10  1  0.387633  0.037908  0.253669  1
  As  As11  1  0.748187  0.724073  0.159004  1
  As  As12  1  0.213352  0.607118  0.517205  1
  As  As13  1  0.771421  0.224285  0.992652  1
  As  As14  1  0.621613  0.948479  0.752639  1
  As  As15  1  0.229578  0.774548  0.006090  1
  O  O16  1  0.820360  0.013224  0.597325  1
  O  O17  1  0.395416  0.654343  0.609331  1
  O  O18  1  0.974740  0.664136  0.612397  1
  O  O19  1  0.761654  0.617495  0.368566  1
  O  O20  1  0.826436  0.571546  0.088587  1
  O  O21  1  0.614998  0.952164  0.364653  1
  O  O22  1  0.374903  0.029836  0.664797  1
  O  O23  1  0.880437  0.231877  0.154122  1
  O  O24  1  0.017270  0.345454  0.376486  1
  O  O25  1  0.118789  0.763978  0.846106  1
  O  O26  1  0.174440  0.991648  0.402057  1
  O  O27  1  0.005831  0.207728  0.868313  1
  O  O28  1  0.679797  0.431643  0.917465  1
  O  O29  1  0.385687  0.236512  0.230341  1
  O  O30  1  0.173424  0.433506  0.910698  1
  O  O31  1  0.599757  0.367831  0.380053  1
  O  O32  1  0.623774  0.755960  0.758346  1
  O  O33  1  0.319467  0.567822  0.082069  1
  O  O34  1  0.241599  0.394042  0.634852  1
  O  O35  1  0.996041  0.796876  0.129284  1
