# generated using pymatgen
data_Cs4ScMnS2(O4F3)2
_symmetry_space_group_name_H-M   'P 1'
_cell_length_a   11.94097400
_cell_length_b   7.56489072
_cell_length_c   9.40642100
_cell_angle_alpha   87.44459521
_cell_angle_beta   90.00000000
_cell_angle_gamma   90.00000000
_symmetry_Int_Tables_number   1
_chemical_formula_structural   Cs4ScMnS2(O4F3)2
_chemical_formula_sum   'Cs8 Sc2 Mn2 S4 O16 F12'
_cell_volume   848.85739312
_cell_formula_units_Z   2
loop_
 _symmetry_equiv_pos_site_id
 _symmetry_equiv_pos_as_xyz
  1  'x, y, z'
loop_
 _atom_site_type_symbol
 _atom_site_label
 _atom_site_symmetry_multiplicity
 _atom_site_fract_x
 _atom_site_fract_y
 _atom_site_fract_z
 _atom_site_occupancy
  Cs  Cs0  1  0.188201  0.794361  0.332341  1
  Cs  Cs1  1  0.688201  0.205639  0.167659  1
  Cs  Cs2  1  0.811799  0.205639  0.667659  1
  Cs  Cs3  1  0.311799  0.794361  0.832341  1
  Cs  Cs4  1  0.310030  0.288994  0.173373  1
  Cs  Cs5  1  0.810030  0.711006  0.326627  1
  Cs  Cs6  1  0.689970  0.711006  0.826627  1
  Cs  Cs7  1  0.189970  0.288994  0.673373  1
  Sc  Sc8  1  0.000000  0.000000  0.000000  1
  Sc  Sc9  1  0.500000  0.000000  0.500000  1
  Mn  Mn10  1  0.000000  0.500000  0.000000  1
  Mn  Mn11  1  0.500000  0.500000  0.500000  1
  S  S12  1  0.999032  0.253414  0.291307  1
  S  S13  1  0.499032  0.746586  0.208693  1
  S  S14  1  0.000968  0.746586  0.708693  1
  S  S15  1  0.500968  0.253414  0.791307  1
  O  O16  1  0.454973  0.892433  0.298309  1
  O  O17  1  0.954973  0.107567  0.201691  1
  O  O18  1  0.545027  0.107567  0.701691  1
  O  O19  1  0.045027  0.892433  0.798309  1
  O  O20  1  0.049043  0.396941  0.190296  1
  O  O21  1  0.549043  0.603059  0.309704  1
  O  O22  1  0.950957  0.603059  0.809704  1
  O  O23  1  0.450957  0.396941  0.690296  1
  O  O24  1  0.905722  0.326299  0.371977  1
  O  O25  1  0.405722  0.673701  0.128023  1
  O  O26  1  0.094278  0.673701  0.628023  1
  O  O27  1  0.594278  0.326299  0.871977  1
  O  O28  1  0.091506  0.187440  0.382061  1
  O  O29  1  0.591506  0.812560  0.117939  1
  O  O30  1  0.908494  0.812560  0.617939  1
  O  O31  1  0.408494  0.187440  0.882061  1
  F  F32  1  0.348308  0.519585  0.453626  1
  F  F33  1  0.848308  0.480415  0.046374  1
  F  F34  1  0.651692  0.480415  0.546374  1
  F  F35  1  0.151692  0.519585  0.953626  1
  F  F36  1  0.163499  0.019701  0.041581  1
  F  F37  1  0.663499  0.980299  0.458419  1
  F  F38  1  0.836501  0.980299  0.958419  1
  F  F39  1  0.336501  0.019701  0.541581  1
  F  F40  1  0.001485  0.753321  0.096868  1
  F  F41  1  0.501485  0.246679  0.403132  1
  F  F42  1  0.998515  0.246679  0.903132  1
  F  F43  1  0.498515  0.753321  0.596868  1
