# generated using pymatgen
data_Li3Dy2LuSi2Ge
_symmetry_space_group_name_H-M   'P 1'
_cell_length_a   6.94267578
_cell_length_b   6.94267590
_cell_length_c   4.22602300
_cell_angle_alpha   90.00000000
_cell_angle_beta   90.00000000
_cell_angle_gamma   119.52444413
_symmetry_Int_Tables_number   1
_chemical_formula_structural   Li3Dy2LuSi2Ge
_chemical_formula_sum   'Li3 Dy2 Lu1 Si2 Ge1'
_cell_volume   177.24644293
_cell_formula_units_Z   1
loop_
 _symmetry_equiv_pos_site_id
 _symmetry_equiv_pos_as_xyz
  1  'x, y, z'
loop_
 _atom_site_type_symbol
 _atom_site_label
 _atom_site_symmetry_multiplicity
 _atom_site_fract_x
 _atom_site_fract_y
 _atom_site_fract_z
 _atom_site_occupancy
  Li  Li0  1  0.235461  0.000715  0.500000  1
  Li  Li1  1  0.000715  0.235461  0.500000  1
  Li  Li2  1  0.764292  0.764292  0.500000  1
  Dy  Dy3  1  0.572736  0.999661  0.000000  1
  Dy  Dy4  1  0.999661  0.572736  0.000000  1
  Lu  Lu5  1  0.425645  0.425645  0.000000  1
  Si  Si6  1  0.334511  0.664215  0.500000  1
  Si  Si7  1  0.664215  0.334511  0.500000  1
  Ge  Ge8  1  0.002765  0.002765  0.000000  1
