# generated using pymatgen
data_Dy3Y6TmSn6
_symmetry_space_group_name_H-M   'P 1'
_cell_length_a   8.97398800
_cell_length_b   8.97398613
_cell_length_c   6.55150100
_cell_angle_alpha   90.00000000
_cell_angle_beta   90.00000000
_cell_angle_gamma   119.99999952
_symmetry_Int_Tables_number   1
_chemical_formula_structural   Dy3Y6TmSn6
_chemical_formula_sum   'Dy3 Y6 Tm1 Sn6'
_cell_volume   456.92226809
_cell_formula_units_Z   1
loop_
 _symmetry_equiv_pos_site_id
 _symmetry_equiv_pos_as_xyz
  1  'x, y, z'
loop_
 _atom_site_type_symbol
 _atom_site_label
 _atom_site_symmetry_multiplicity
 _atom_site_fract_x
 _atom_site_fract_y
 _atom_site_fract_z
 _atom_site_occupancy
  Dy  Dy0  1  0.666667  0.333333  0.000000  1
  Dy  Dy1  1  0.666667  0.333333  0.500000  1
  Dy  Dy2  1  0.333333  0.666667  0.000000  1
  Y  Y3  1  0.000097  0.760017  0.749902  1
  Y  Y4  1  0.000097  0.240080  0.250098  1
  Y  Y5  1  0.759920  0.760017  0.250098  1
  Y  Y6  1  0.759920  0.999903  0.749902  1
  Y  Y7  1  0.239983  0.240080  0.749902  1
  Y  Y8  1  0.239983  0.999903  0.250098  1
  Tm  Tm9  1  0.333333  0.666667  0.500000  1
  Sn  Sn10  1  0.394949  0.999645  0.749698  1
  Sn  Sn11  1  0.394949  0.395304  0.250302  1
  Sn  Sn12  1  0.000355  0.605051  0.250302  1
  Sn  Sn13  1  0.000355  0.395304  0.749698  1
  Sn  Sn14  1  0.604696  0.605051  0.749698  1
  Sn  Sn15  1  0.604696  0.999645  0.250302  1
