# generated using pymatgen
data_LaCuNiSbAs
_symmetry_space_group_name_H-M   'P 1'
_cell_length_a   4.42755800
_cell_length_b   4.42755800
_cell_length_c   10.03440000
_cell_angle_alpha   90.00000000
_cell_angle_beta   90.00000000
_cell_angle_gamma   90.00000000
_symmetry_Int_Tables_number   1
_chemical_formula_structural   LaCuNiSbAs
_chemical_formula_sum   'La2 Cu2 Ni2 Sb2 As2'
_cell_volume   196.70705092
_cell_formula_units_Z   2
loop_
 _symmetry_equiv_pos_site_id
 _symmetry_equiv_pos_as_xyz
  1  'x, y, z'
loop_
 _atom_site_type_symbol
 _atom_site_label
 _atom_site_symmetry_multiplicity
 _atom_site_fract_x
 _atom_site_fract_y
 _atom_site_fract_z
 _atom_site_occupancy
  La  La0  1  0.000000  0.500000  0.768453  1
  La  La1  1  0.500000  0.000000  0.231547  1
  Cu  Cu2  1  0.000000  0.000000  0.500000  1
  Cu  Cu3  1  0.500000  0.500000  0.500000  1
  Ni  Ni4  1  0.000000  0.500000  0.099448  1
  Ni  Ni5  1  0.500000  0.000000  0.900552  1
  Sb  Sb6  1  0.000000  0.500000  0.354916  1
  Sb  Sb7  1  0.500000  0.000000  0.645084  1
  As  As8  1  0.000000  0.000000  0.000000  1
  As  As9  1  0.500000  0.500000  0.000000  1
