# generated using pymatgen
data_Li6La6Te(WO8)3
_symmetry_space_group_name_H-M   'P 1'
_cell_length_a   11.07079755
_cell_length_b   11.07628702
_cell_length_c   11.07628719
_cell_angle_alpha   109.49209391
_cell_angle_beta   109.47243920
_cell_angle_gamma   109.47243196
_symmetry_Int_Tables_number   1
_chemical_formula_structural   Li6La6Te(WO8)3
_chemical_formula_sum   'Li12 La12 Te2 W6 O48'
_cell_volume   1045.25066205
_cell_formula_units_Z   2
loop_
 _symmetry_equiv_pos_site_id
 _symmetry_equiv_pos_as_xyz
  1  'x, y, z'
loop_
 _atom_site_type_symbol
 _atom_site_label
 _atom_site_symmetry_multiplicity
 _atom_site_fract_x
 _atom_site_fract_y
 _atom_site_fract_z
 _atom_site_occupancy
  Li  Li0  1  0.749746  0.375422  0.123920  1
  Li  Li1  1  0.874817  0.751351  0.126545  1
  Li  Li2  1  0.124939  0.374985  0.249926  1
  Li  Li3  1  0.625183  0.873455  0.248649  1
  Li  Li4  1  0.624939  0.249926  0.374985  1
  Li  Li5  1  0.249746  0.123920  0.375422  1
  Li  Li6  1  0.375061  0.750074  0.625015  1
  Li  Li7  1  0.750254  0.876079  0.624578  1
  Li  Li8  1  0.374817  0.126545  0.751351  1
  Li  Li9  1  0.875060  0.625015  0.750074  1
  Li  Li10  1  0.125182  0.248648  0.873454  1
  Li  Li11  1  0.250254  0.624578  0.876080  1
  La  La12  1  0.249999  0.874783  0.125215  1
  La  La13  1  0.374162  0.248655  0.125440  1
  La  La14  1  0.874161  0.125439  0.248654  1
  La  La15  1  0.374490  0.625448  0.250891  1
  La  La16  1  0.125510  0.749109  0.374552  1
  La  La17  1  0.750000  0.623895  0.376105  1
  La  La18  1  0.874490  0.250891  0.625448  1
  La  La19  1  0.250000  0.376105  0.623895  1
  La  La20  1  0.625510  0.374552  0.749109  1
  La  La21  1  0.125838  0.874560  0.751345  1
  La  La22  1  0.625838  0.751345  0.874559  1
  La  La23  1  0.750000  0.125216  0.874784  1
  Te  Te24  1  0.500000  0.500000  0.000000  1
  Te  Te25  1  0.000000  0.000000  0.500001  1
  W  W26  1  0.000000  0.000000  0.000000  1
  W  W27  1  0.500001  0.000000  0.000000  1
  W  W28  1  0.000000  0.500001  0.000000  1
  W  W29  1  0.500000  0.000000  0.500000  1
  W  W30  1  0.000000  0.500000  0.500000  1
  W  W31  1  0.500001  0.500001  0.500001  1
  O  O32  1  0.329383  0.408138  0.022335  1
  O  O33  1  0.192678  0.614378  0.022455  1
  O  O34  1  0.885621  0.907826  0.078063  1
  O  O35  1  0.692493  0.171079  0.078632  1
  O  O36  1  0.614379  0.921937  0.092174  1
  O  O37  1  0.977952  0.170813  0.091753  1
  O  O38  1  0.021631  0.692557  0.113985  1
  O  O39  1  0.591513  0.421013  0.114023  1
  O  O40  1  0.192493  0.078631  0.171079  1
  O  O41  1  0.477951  0.091753  0.170813  1
  O  O42  1  0.113679  0.521585  0.192554  1
  O  O43  1  0.578191  0.669883  0.192819  1
  O  O44  1  0.329130  0.420993  0.307194  1
  O  O45  1  0.478370  0.886015  0.307443  1
  O  O46  1  0.921809  0.807181  0.330117  1
  O  O47  1  0.907891  0.521688  0.329129  1
  O  O48  1  0.578813  0.407794  0.386319  1
  O  O49  1  0.307322  0.977546  0.385621  1
  O  O50  1  0.829382  0.022335  0.408138  1
  O  O51  1  0.078813  0.386319  0.407794  1
  O  O52  1  0.091513  0.114022  0.421012  1
  O  O53  1  0.829131  0.307194  0.420994  1
  O  O54  1  0.592109  0.670871  0.478311  1
  O  O55  1  0.386320  0.807446  0.478414  1
  O  O56  1  0.613680  0.192554  0.521585  1
  O  O57  1  0.407891  0.329128  0.521688  1
  O  O58  1  0.170870  0.692806  0.579006  1
  O  O59  1  0.908487  0.885977  0.578987  1
  O  O60  1  0.170618  0.977666  0.591862  1
  O  O61  1  0.921187  0.613681  0.592206  1
  O  O62  1  0.421186  0.592206  0.613680  1
  O  O63  1  0.692678  0.022455  0.614379  1
  O  O64  1  0.078192  0.192819  0.669882  1
  O  O65  1  0.092110  0.478312  0.670872  1
  O  O66  1  0.670869  0.579006  0.692806  1
  O  O67  1  0.521630  0.113986  0.692557  1
  O  O68  1  0.886320  0.478414  0.807445  1
  O  O69  1  0.421809  0.330118  0.807181  1
  O  O70  1  0.522048  0.908247  0.829187  1
  O  O71  1  0.807507  0.921369  0.828922  1
  O  O72  1  0.978369  0.307443  0.886014  1
  O  O73  1  0.408487  0.578987  0.885978  1
  O  O74  1  0.385621  0.078064  0.907826  1
  O  O75  1  0.022049  0.829188  0.908247  1
  O  O76  1  0.114378  0.092174  0.921937  1
  O  O77  1  0.307507  0.828922  0.921369  1
  O  O78  1  0.807322  0.385621  0.977546  1
  O  O79  1  0.670618  0.591862  0.977666  1
