# generated using pymatgen
data_Dy5Y3Ti11Si16Mo
_symmetry_space_group_name_H-M   'P 1'
_cell_length_a   7.04339867
_cell_length_b   7.04331808
_cell_length_c   12.94869300
_cell_angle_alpha   90.02089958
_cell_angle_beta   89.97594715
_cell_angle_gamma   90.01594550
_symmetry_Int_Tables_number   1
_chemical_formula_structural   Dy5Y3Ti11Si16Mo
_chemical_formula_sum   'Dy5 Y3 Ti11 Si16 Mo1'
_cell_volume   642.37025571
_cell_formula_units_Z   1
loop_
 _symmetry_equiv_pos_site_id
 _symmetry_equiv_pos_as_xyz
  1  'x, y, z'
loop_
 _atom_site_type_symbol
 _atom_site_label
 _atom_site_symmetry_multiplicity
 _atom_site_fract_x
 _atom_site_fract_y
 _atom_site_fract_z
 _atom_site_occupancy
  Dy  Dy0  1  0.160039  0.502768  0.782650  1
  Dy  Dy1  1  0.840016  0.498830  0.284411  1
  Dy  Dy2  1  0.502788  0.160070  0.217343  1
  Dy  Dy3  1  0.498847  0.840051  0.715598  1
  Dy  Dy4  1  0.341445  0.001371  0.467087  1
  Y  Y5  1  0.996906  0.659933  0.032987  1
  Y  Y6  1  0.001400  0.341411  0.532934  1
  Y  Y7  1  0.659930  0.996913  0.966989  1
  Ti  Ti8  1  0.348196  0.508335  0.375077  1
  Ti  Ti9  1  0.846317  0.990732  0.376880  1
  Ti  Ti10  1  0.007928  0.152079  0.123890  1
  Ti  Ti11  1  0.990738  0.846354  0.623138  1
  Ti  Ti12  1  0.508373  0.348155  0.624937  1
  Ti  Ti13  1  0.152062  0.007955  0.876080  1
  Ti  Ti14  1  0.826148  0.172627  0.749640  1
  Ti  Ti15  1  0.172634  0.826153  0.250378  1
  Ti  Ti16  1  0.327083  0.327074  0.999985  1
  Ti  Ti17  1  0.492337  0.651922  0.126650  1
  Ti  Ti18  1  0.651963  0.492291  0.873319  1
  Si  Si19  1  0.046644  0.709319  0.435076  1
  Si  Si20  1  0.952708  0.291213  0.934879  1
  Si  Si21  1  0.709282  0.046630  0.564963  1
  Si  Si22  1  0.208451  0.453643  0.185082  1
  Si  Si23  1  0.791385  0.547284  0.684629  1
  Si  Si24  1  0.453679  0.208456  0.814908  1
  Si  Si25  1  0.547299  0.791415  0.315406  1
  Si  Si26  1  0.291225  0.952721  0.065076  1
  Si  Si27  1  0.797932  0.870051  0.184852  1
  Si  Si28  1  0.298759  0.629390  0.565338  1
  Si  Si29  1  0.702465  0.370157  0.065375  1
  Si  Si30  1  0.629329  0.298739  0.434677  1
  Si  Si31  1  0.370151  0.702476  0.934603  1
  Si  Si32  1  0.129799  0.202210  0.315303  1
  Si  Si33  1  0.202189  0.129747  0.684718  1
  Si  Si34  1  0.870057  0.797977  0.815138  1
  Mo  Mo35  1  0.673495  0.673545  0.500006  1
