# generated using pymatgen
data_Dy6TmCoBr12
_symmetry_space_group_name_H-M   'P 1'
_cell_length_a   9.21374383
_cell_length_b   9.21374413
_cell_length_c   9.21374443
_cell_angle_alpha   106.83060624
_cell_angle_beta   106.83060964
_cell_angle_gamma   106.83061893
_symmetry_Int_Tables_number   1
_chemical_formula_structural   Dy6TmCoBr12
_chemical_formula_sum   'Dy6 Tm1 Co1 Br12'
_cell_volume   654.39624636
_cell_formula_units_Z   1
loop_
 _symmetry_equiv_pos_site_id
 _symmetry_equiv_pos_as_xyz
  1  'x, y, z'
loop_
 _atom_site_type_symbol
 _atom_site_label
 _atom_site_symmetry_multiplicity
 _atom_site_fract_x
 _atom_site_fract_y
 _atom_site_fract_z
 _atom_site_occupancy
  Dy  Dy0  1  0.300494  0.096677  0.021474  1
  Dy  Dy1  1  0.096677  0.021474  0.300494  1
  Dy  Dy2  1  0.021474  0.300494  0.096677  1
  Dy  Dy3  1  0.699506  0.903323  0.978526  1
  Dy  Dy4  1  0.903323  0.978526  0.699506  1
  Dy  Dy5  1  0.978526  0.699506  0.903323  1
  Tm  Tm6  1  0.500000  0.500000  0.500000  1
  Co  Co7  1  0.000000  0.000000  0.000000  1
  Br  Br8  1  0.221137  0.070182  0.677874  1
  Br  Br9  1  0.070182  0.677874  0.221137  1
  Br  Br10  1  0.677874  0.221137  0.070182  1
  Br  Br11  1  0.778863  0.929818  0.322126  1
  Br  Br12  1  0.929818  0.322126  0.778863  1
  Br  Br13  1  0.322126  0.778863  0.929818  1
  Br  Br14  1  0.388362  0.461609  0.171673  1
  Br  Br15  1  0.461609  0.171673  0.388362  1
  Br  Br16  1  0.171673  0.388362  0.461609  1
  Br  Br17  1  0.611638  0.538391  0.828327  1
  Br  Br18  1  0.538391  0.828327  0.611638  1
  Br  Br19  1  0.828327  0.611638  0.538391  1
