# generated using pymatgen
data_Tm3UAs6Ru7
_symmetry_space_group_name_H-M   'P 1'
_cell_length_a   7.18072842
_cell_length_b   7.24691602
_cell_length_c   7.18072818
_cell_angle_alpha   109.65805255
_cell_angle_beta   109.28375355
_cell_angle_gamma   109.65804888
_symmetry_Int_Tables_number   1
_chemical_formula_structural   Tm3UAs6Ru7
_chemical_formula_sum   'Tm3 U1 As6 Ru7'
_cell_volume   286.98666643
_cell_formula_units_Z   1
loop_
 _symmetry_equiv_pos_site_id
 _symmetry_equiv_pos_as_xyz
  1  'x, y, z'
loop_
 _atom_site_type_symbol
 _atom_site_label
 _atom_site_symmetry_multiplicity
 _atom_site_fract_x
 _atom_site_fract_y
 _atom_site_fract_z
 _atom_site_occupancy
  Tm  Tm0  1  0.000000  0.000000  0.500000  1
  Tm  Tm1  1  0.500000  0.000000  0.000000  1
  Tm  Tm2  1  0.500000  0.500000  0.500000  1
  U  U3  1  0.000000  0.500000  0.000000  1
  As  As4  1  0.316060  0.002935  0.316060  1
  As  As5  1  0.000000  0.313125  0.316060  1
  As  As6  1  0.000000  0.686875  0.683940  1
  As  As7  1  0.316060  0.313125  0.000000  1
  As  As8  1  0.683940  0.686875  0.000000  1
  As  As9  1  0.683940  0.997065  0.683940  1
  Ru  Ru10  1  0.753297  0.500000  0.246703  1
  Ru  Ru11  1  0.493406  0.746703  0.246703  1
  Ru  Ru12  1  0.506594  0.253297  0.753297  1
  Ru  Ru13  1  0.753297  0.253297  0.506594  1
  Ru  Ru14  1  0.246703  0.746703  0.493406  1
  Ru  Ru15  1  0.246703  0.500000  0.753297  1
  Ru  Ru16  1  0.000000  0.000000  0.000000  1
