# generated using pymatgen
data_TbLuTc5(PRh)7
_symmetry_space_group_name_H-M   'P 1'
_cell_length_a   3.93236900
_cell_length_b   9.44818672
_cell_length_c   9.47759278
_cell_angle_alpha   119.59699559
_cell_angle_beta   90.00000966
_cell_angle_gamma   90.00134959
_symmetry_Int_Tables_number   1
_chemical_formula_structural   TbLuTc5(PRh)7
_chemical_formula_sum   'Tb1 Lu1 Tc5 P7 Rh7'
_cell_volume   306.18278284
_cell_formula_units_Z   1
loop_
 _symmetry_equiv_pos_site_id
 _symmetry_equiv_pos_as_xyz
  1  'x, y, z'
loop_
 _atom_site_type_symbol
 _atom_site_label
 _atom_site_symmetry_multiplicity
 _atom_site_fract_x
 _atom_site_fract_y
 _atom_site_fract_z
 _atom_site_occupancy
  Tb  Tb0  1  0.262079  0.668800  0.333409  1
  Lu  Lu1  1  0.762240  0.333407  0.666572  1
  Tc  Tc2  1  0.761831  0.093610  0.870719  1
  Tc  Tc3  1  0.761789  0.127726  0.219573  1
  Tc  Tc4  1  0.761773  0.780382  0.906855  1
  Tc  Tc5  1  0.261797  0.885914  0.160298  1
  Tc  Tc6  1  0.261892  0.840521  0.726008  1
  P  P7  1  0.261265  0.996584  0.997655  1
  P  P8  1  0.761980  0.881213  0.599119  1
  P  P9  1  0.761884  0.402427  0.286637  1
  P  P10  1  0.761785  0.718726  0.120963  1
  P  P11  1  0.262209  0.116525  0.411357  1
  P  P12  1  0.262118  0.586975  0.704048  1
  P  P13  1  0.262042  0.294676  0.880739  1
  Rh  Rh14  1  0.261778  0.272628  0.112354  1
  Rh  Rh15  1  0.762000  0.607796  0.556698  1
  Rh  Rh16  1  0.761793  0.443208  0.054916  1
  Rh  Rh17  1  0.761975  0.947733  0.392669  1
  Rh  Rh18  1  0.261968  0.368454  0.437292  1
  Rh  Rh19  1  0.261789  0.560876  0.930222  1
  Rh  Rh20  1  0.262015  0.071820  0.631899  1
