# generated using pymatgen
data_CaHo(MgAl4)2
_symmetry_space_group_name_H-M   'P 1'
_cell_length_a   9.43454044
_cell_length_b   9.43454026
_cell_length_c   9.43454029
_cell_angle_alpha   34.22396694
_cell_angle_beta   34.22396625
_cell_angle_gamma   34.22396659
_symmetry_Int_Tables_number   1
_chemical_formula_structural   CaHo(MgAl4)2
_chemical_formula_sum   'Ca1 Ho1 Mg2 Al8'
_cell_volume   236.87622011
_cell_formula_units_Z   1
loop_
 _symmetry_equiv_pos_site_id
 _symmetry_equiv_pos_as_xyz
  1  'x, y, z'
loop_
 _atom_site_type_symbol
 _atom_site_label
 _atom_site_symmetry_multiplicity
 _atom_site_fract_x
 _atom_site_fract_y
 _atom_site_fract_z
 _atom_site_occupancy
  Ca  Ca0  1  0.064248  0.064248  0.064248  1
  Ho  Ho1  1  0.935940  0.935940  0.935940  1
  Mg  Mg2  1  0.560811  0.560811  0.560811  1
  Mg  Mg3  1  0.439688  0.439688  0.439688  1
  Al  Al4  1  0.750430  0.750430  0.750430  1
  Al  Al5  1  0.249926  0.249926  0.249926  1
  Al  Al6  1  0.997500  0.499353  0.499353  1
  Al  Al7  1  0.502395  0.000177  0.000177  1
  Al  Al8  1  0.499353  0.997500  0.499353  1
  Al  Al9  1  0.000177  0.502395  0.000177  1
  Al  Al10  1  0.499353  0.499353  0.997500  1
  Al  Al11  1  0.000177  0.000177  0.502395  1
