# generated using pymatgen
data_ErLu5Co2
_symmetry_space_group_name_H-M   'P 1'
_cell_length_a   6.10091400
_cell_length_b   6.86394700
_cell_length_c   9.06916400
_cell_angle_alpha   90.00000000
_cell_angle_beta   90.00000000
_cell_angle_gamma   90.00000000
_symmetry_Int_Tables_number   1
_chemical_formula_structural   ErLu5Co2
_chemical_formula_sum   'Er2 Lu10 Co4'
_cell_volume   379.78348902
_cell_formula_units_Z   2
loop_
 _symmetry_equiv_pos_site_id
 _symmetry_equiv_pos_as_xyz
  1  'x, y, z'
loop_
 _atom_site_type_symbol
 _atom_site_label
 _atom_site_symmetry_multiplicity
 _atom_site_fract_x
 _atom_site_fract_y
 _atom_site_fract_z
 _atom_site_occupancy
  Er  Er0  1  0.866503  0.540325  0.250000  1
  Er  Er1  1  0.633497  0.040325  0.250000  1
  Lu  Lu2  1  0.325338  0.675358  0.065395  1
  Lu  Lu3  1  0.174662  0.175358  0.434605  1
  Lu  Lu4  1  0.675387  0.324397  0.566352  1
  Lu  Lu5  1  0.824613  0.824397  0.933648  1
  Lu  Lu6  1  0.675387  0.324397  0.933648  1
  Lu  Lu7  1  0.824613  0.824397  0.566352  1
  Lu  Lu8  1  0.325338  0.675358  0.434605  1
  Lu  Lu9  1  0.174662  0.175358  0.065395  1
  Lu  Lu10  1  0.136220  0.459153  0.750000  1
  Lu  Lu11  1  0.363780  0.959153  0.750000  1
  Co  Co12  1  0.044377  0.885757  0.250000  1
  Co  Co13  1  0.455623  0.385757  0.250000  1
  Co  Co14  1  0.956958  0.115254  0.750000  1
  Co  Co15  1  0.543042  0.615254  0.750000  1
