# generated using pymatgen
data_Lu4Sc4B24Ir3Rh
_symmetry_space_group_name_H-M   'P 1'
_cell_length_a   3.52017600
_cell_length_b   8.96634830
_cell_length_c   11.30609738
_cell_angle_alpha   89.97020569
_cell_angle_beta   90.00000000
_cell_angle_gamma   90.00000000
_symmetry_Int_Tables_number   1
_chemical_formula_structural   Lu4Sc4B24Ir3Rh
_chemical_formula_sum   'Lu4 Sc4 B24 Ir3 Rh1'
_cell_volume   356.85570656
_cell_formula_units_Z   1
loop_
 _symmetry_equiv_pos_site_id
 _symmetry_equiv_pos_as_xyz
  1  'x, y, z'
loop_
 _atom_site_type_symbol
 _atom_site_label
 _atom_site_symmetry_multiplicity
 _atom_site_fract_x
 _atom_site_fract_y
 _atom_site_fract_z
 _atom_site_occupancy
  Lu  Lu0  1  0.500000  0.319167  0.413391  1
  Lu  Lu1  1  0.500000  0.680714  0.586060  1
  Lu  Lu2  1  0.500000  0.180369  0.914434  1
  Lu  Lu3  1  0.500000  0.820078  0.086268  1
  Sc  Sc4  1  0.500000  0.444502  0.124383  1
  Sc  Sc5  1  0.500000  0.555124  0.875852  1
  Sc  Sc6  1  0.500000  0.054984  0.624182  1
  Sc  Sc7  1  0.500000  0.945208  0.375433  1
  B  B8  1  0.000000  0.101513  0.472379  1
  B  B9  1  0.000000  0.898544  0.527587  1
  B  B10  1  0.000000  0.398422  0.972372  1
  B  B11  1  0.000000  0.601479  0.027588  1
  B  B12  1  0.000000  0.130729  0.318484  1
  B  B13  1  0.000000  0.869370  0.681385  1
  B  B14  1  0.000000  0.369539  0.818671  1
  B  B15  1  0.000000  0.630509  0.181548  1
  B  B16  1  0.000000  0.054272  0.064603  1
  B  B17  1  0.000000  0.945709  0.935454  1
  B  B18  1  0.000000  0.445538  0.564658  1
  B  B19  1  0.000000  0.554409  0.435259  1
  B  B20  1  0.000000  0.480783  0.285810  1
  B  B21  1  0.000000  0.519069  0.714185  1
  B  B22  1  0.000000  0.018963  0.785859  1
  B  B23  1  0.000000  0.981073  0.213999  1
  B  B24  1  0.000000  0.253167  0.079178  1
  B  B25  1  0.000000  0.746722  0.920935  1
  B  B26  1  0.000000  0.246489  0.579071  1
  B  B27  1  0.000000  0.753465  0.420944  1
  B  B28  1  0.000000  0.295965  0.236245  1
  B  B29  1  0.000000  0.703996  0.763874  1
  B  B30  1  0.000000  0.204061  0.736053  1
  B  B31  1  0.000000  0.796174  0.263907  1
  Ir  Ir32  1  0.500000  0.858726  0.818847  1
  Ir  Ir33  1  0.500000  0.359171  0.680743  1
  Ir  Ir34  1  0.500000  0.640992  0.319439  1
  Rh  Rh35  1  0.500000  0.141005  0.180921  1
