# generated using pymatgen
data_YEr2ZnGa7Ag3
_symmetry_space_group_name_H-M   'P 1'
_cell_length_a   4.31238864
_cell_length_b   8.31121174
_cell_length_c   8.33757893
_cell_angle_alpha   70.43813634
_cell_angle_beta   75.01230988
_cell_angle_gamma   74.96363455
_symmetry_Int_Tables_number   1
_chemical_formula_structural   YEr2ZnGa7Ag3
_chemical_formula_sum   'Y1 Er2 Zn1 Ga7 Ag3'
_cell_volume   267.05246759
_cell_formula_units_Z   1
loop_
 _symmetry_equiv_pos_site_id
 _symmetry_equiv_pos_as_xyz
  1  'x, y, z'
loop_
 _atom_site_type_symbol
 _atom_site_label
 _atom_site_symmetry_multiplicity
 _atom_site_fract_x
 _atom_site_fract_y
 _atom_site_fract_z
 _atom_site_occupancy
  Y  Y0  1  0.498726  0.500592  0.501957  1
  Er  Er1  1  0.202116  0.796272  0.799496  1
  Er  Er2  1  0.799259  0.202873  0.198608  1
  Zn  Zn3  1  0.356743  0.364821  0.921693  1
  Ga  Ga4  1  0.643383  0.638956  0.074277  1
  Ga  Ga5  1  0.356137  0.926929  0.360797  1
  Ga  Ga6  1  0.642160  0.074808  0.640872  1
  Ga  Ga7  1  0.161990  0.469534  0.206487  1
  Ga  Ga8  1  0.842137  0.525039  0.790684  1
  Ga  Ga9  1  0.158016  0.211327  0.472643  1
  Ga  Ga10  1  0.841279  0.788325  0.529115  1
  Ag  Ag11  1  0.498659  0.001563  0.001118  1
  Ag  Ag12  1  0.000195  0.805467  0.194145  1
  Ag  Ag13  1  0.999199  0.193494  0.808110  1
