# generated using pymatgen
data_IrPdO4
_symmetry_space_group_name_H-M   'P 1'
_cell_length_a   4.58556001
_cell_length_b   4.58555917
_cell_length_c   3.21746300
_cell_angle_alpha   90.00000000
_cell_angle_beta   90.00000000
_cell_angle_gamma   90.51434690
_symmetry_Int_Tables_number   1
_chemical_formula_structural   IrPdO4
_chemical_formula_sum   'Ir1 Pd1 O4'
_cell_volume   67.65201639
_cell_formula_units_Z   1
loop_
 _symmetry_equiv_pos_site_id
 _symmetry_equiv_pos_as_xyz
  1  'x, y, z'
loop_
 _atom_site_type_symbol
 _atom_site_label
 _atom_site_symmetry_multiplicity
 _atom_site_fract_x
 _atom_site_fract_y
 _atom_site_fract_z
 _atom_site_occupancy
  Ir  Ir0  1  0.500000  0.500000  0.000000  1
  Pd  Pd1  1  0.000000  0.000000  0.500000  1
  O  O2  1  0.797813  0.797813  0.000000  1
  O  O3  1  0.686349  0.313652  0.500000  1
  O  O4  1  0.202187  0.202187  0.000000  1
  O  O5  1  0.313651  0.686349  0.500000  1
