# generated using pymatgen
data_Dy3Y3Tc2
_symmetry_space_group_name_H-M   'P 1'
_cell_length_a   6.26316157
_cell_length_b   7.47299415
_cell_length_c   9.20108293
_cell_angle_alpha   89.99080443
_cell_angle_beta   89.89558015
_cell_angle_gamma   90.07676466
_symmetry_Int_Tables_number   1
_chemical_formula_structural   Dy3Y3Tc2
_chemical_formula_sum   'Dy6 Y6 Tc4'
_cell_volume   430.65162068
_cell_formula_units_Z   2
loop_
 _symmetry_equiv_pos_site_id
 _symmetry_equiv_pos_as_xyz
  1  'x, y, z'
loop_
 _atom_site_type_symbol
 _atom_site_label
 _atom_site_symmetry_multiplicity
 _atom_site_fract_x
 _atom_site_fract_y
 _atom_site_fract_z
 _atom_site_occupancy
  Dy  Dy0  1  0.159517  0.174682  0.062815  1
  Dy  Dy1  1  0.840483  0.825318  0.937185  1
  Dy  Dy2  1  0.660057  0.325003  0.937323  1
  Dy  Dy3  1  0.839444  0.825861  0.562883  1
  Dy  Dy4  1  0.339943  0.674997  0.062677  1
  Dy  Dy5  1  0.160556  0.174139  0.437117  1
  Y  Y6  1  0.625910  0.041585  0.249470  1
  Y  Y7  1  0.374090  0.958415  0.750530  1
  Y  Y8  1  0.126783  0.458464  0.750722  1
  Y  Y9  1  0.873217  0.541536  0.249278  1
  Y  Y10  1  0.339998  0.675339  0.437436  1
  Y  Y11  1  0.660002  0.324661  0.562564  1
  Tc  Tc12  1  0.453111  0.385244  0.248515  1
  Tc  Tc13  1  0.546889  0.614756  0.751485  1
  Tc  Tc14  1  0.955129  0.113457  0.750421  1
  Tc  Tc15  1  0.044871  0.886543  0.249579  1
