# generated using pymatgen
data_Lu6Co13IrC4
_symmetry_space_group_name_H-M   'P 1'
_cell_length_a   5.04236701
_cell_length_b   5.04351944
_cell_length_c   13.74895500
_cell_angle_alpha   90.00343080
_cell_angle_beta   90.00290890
_cell_angle_gamma   119.99827188
_symmetry_Int_Tables_number   1
_chemical_formula_structural   Lu6Co13IrC4
_chemical_formula_sum   'Lu6 Co13 Ir1 C4'
_cell_volume   302.81405849
_cell_formula_units_Z   1
loop_
 _symmetry_equiv_pos_site_id
 _symmetry_equiv_pos_as_xyz
  1  'x, y, z'
loop_
 _atom_site_type_symbol
 _atom_site_label
 _atom_site_symmetry_multiplicity
 _atom_site_fract_x
 _atom_site_fract_y
 _atom_site_fract_z
 _atom_site_occupancy
  Lu  Lu0  1  0.666637  0.333296  0.532309  1
  Lu  Lu1  1  0.333363  0.666704  0.467691  1
  Lu  Lu2  1  0.333346  0.666677  0.032909  1
  Lu  Lu3  1  0.666689  0.333317  0.748232  1
  Lu  Lu4  1  0.666654  0.333323  0.967091  1
  Lu  Lu5  1  0.333311  0.666683  0.251768  1
  Co  Co6  1  0.164638  0.329262  0.651615  1
  Co  Co7  1  0.329334  0.164689  0.348420  1
  Co  Co8  1  0.329886  0.164951  0.159058  1
  Co  Co9  1  0.164984  0.835053  0.840963  1
  Co  Co10  1  0.835362  0.670738  0.348385  1
  Co  Co11  1  0.835016  0.164947  0.159037  1
  Co  Co12  1  0.670666  0.835311  0.651580  1
  Co  Co13  1  0.670114  0.835049  0.840942  1
  Co  Co14  1  0.164638  0.835325  0.651621  1
  Co  Co15  1  0.835020  0.670090  0.159031  1
  Co  Co16  1  0.164980  0.329910  0.840969  1
  Co  Co17  1  0.835362  0.164675  0.348379  1
  Co  Co18  1  0.000000  0.000000  0.500000  1
  Ir  Ir19  1  0.000000  0.000000  0.000000  1
  C  C20  1  0.666695  0.333391  0.253733  1
  C  C21  1  0.999998  0.000020  0.746233  1
  C  C22  1  0.333305  0.666609  0.746267  1
  C  C23  1  0.000002  0.999980  0.253767  1
