# generated using pymatgen
data_Zr6Al16Co4Cu2Ni
_symmetry_space_group_name_H-M   'P 1'
_cell_length_a   8.56348402
_cell_length_b   8.53621045
_cell_length_c   8.55977900
_cell_angle_alpha   60.11972305
_cell_angle_beta   59.80366459
_cell_angle_gamma   59.97475512
_symmetry_Int_Tables_number   1
_chemical_formula_structural   Zr6Al16Co4Cu2Ni
_chemical_formula_sum   'Zr6 Al16 Co4 Cu2 Ni1'
_cell_volume   442.10153016
_cell_formula_units_Z   1
loop_
 _symmetry_equiv_pos_site_id
 _symmetry_equiv_pos_as_xyz
  1  'x, y, z'
loop_
 _atom_site_type_symbol
 _atom_site_label
 _atom_site_symmetry_multiplicity
 _atom_site_fract_x
 _atom_site_fract_y
 _atom_site_fract_z
 _atom_site_occupancy
  Zr  Zr0  1  0.685096  0.314904  0.314756  1
  Zr  Zr1  1  0.698109  0.301891  0.697699  1
  Zr  Zr2  1  0.694553  0.694553  0.305447  1
  Zr  Zr3  1  0.314904  0.685096  0.685244  1
  Zr  Zr4  1  0.301891  0.698109  0.302301  1
  Zr  Zr5  1  0.305447  0.305447  0.694553  1
  Al  Al6  1  0.645847  0.123210  0.122033  1
  Al  Al7  1  0.123210  0.645847  0.108912  1
  Al  Al8  1  0.124896  0.110789  0.647111  1
  Al  Al9  1  0.110789  0.124896  0.117205  1
  Al  Al10  1  0.354153  0.876790  0.877967  1
  Al  Al11  1  0.876790  0.354153  0.891088  1
  Al  Al12  1  0.875104  0.889211  0.352889  1
  Al  Al13  1  0.889211  0.875104  0.882795  1
  Al  Al14  1  0.999566  0.333214  0.330453  1
  Al  Al15  1  0.333214  0.999566  0.336768  1
  Al  Al16  1  0.332593  0.338508  0.997760  1
  Al  Al17  1  0.338508  0.332593  0.331140  1
  Al  Al18  1  0.000434  0.666786  0.669547  1
  Al  Al19  1  0.666786  0.000434  0.663232  1
  Al  Al20  1  0.667407  0.661492  0.002240  1
  Al  Al21  1  0.661492  0.667407  0.668860  1
  Co  Co22  1  0.000000  0.000000  0.000000  1
  Co  Co23  1  0.500000  0.000000  0.500000  1
  Co  Co24  1  0.500000  0.500000  0.000000  1
  Co  Co25  1  0.000000  0.500000  0.000000  1
  Cu  Cu26  1  0.500000  0.000000  0.000000  1
  Cu  Cu27  1  0.000000  0.500000  0.500000  1
  Ni  Ni28  1  0.000000  0.000000  0.500000  1
