# generated using pymatgen
data_TbSmLu8(In2Pt)4
_symmetry_space_group_name_H-M   'P 1'
_cell_length_a   3.59058700
_cell_length_b   8.06553171
_cell_length_c   18.08993959
_cell_angle_alpha   89.95197572
_cell_angle_beta   90.00000000
_cell_angle_gamma   90.00000000
_symmetry_Int_Tables_number   1
_chemical_formula_structural   TbSmLu8(In2Pt)4
_chemical_formula_sum   'Tb1 Sm1 Lu8 In8 Pt4'
_cell_volume   523.88434526
_cell_formula_units_Z   1
loop_
 _symmetry_equiv_pos_site_id
 _symmetry_equiv_pos_as_xyz
  1  'x, y, z'
loop_
 _atom_site_type_symbol
 _atom_site_label
 _atom_site_symmetry_multiplicity
 _atom_site_fract_x
 _atom_site_fract_y
 _atom_site_fract_z
 _atom_site_occupancy
  Tb  Tb0  1  0.000000  0.500000  0.500000  1
  Sm  Sm1  1  0.000000  0.000000  0.000000  1
  Lu  Lu2  1  0.000000  0.117562  0.413540  1
  Lu  Lu3  1  0.000000  0.882438  0.586460  1
  Lu  Lu4  1  0.000000  0.382367  0.913562  1
  Lu  Lu5  1  0.000000  0.617633  0.086438  1
  Lu  Lu6  1  0.000000  0.244757  0.221258  1
  Lu  Lu7  1  0.000000  0.755243  0.778742  1
  Lu  Lu8  1  0.000000  0.255258  0.721272  1
  Lu  Lu9  1  0.000000  0.744742  0.278728  1
  In  In10  1  0.500000  0.424685  0.350643  1
  In  In11  1  0.500000  0.575315  0.649357  1
  In  In12  1  0.500000  0.075518  0.850150  1
  In  In13  1  0.500000  0.924482  0.149850  1
  In  In14  1  0.500000  0.296901  0.066769  1
  In  In15  1  0.500000  0.703099  0.933231  1
  In  In16  1  0.500000  0.204437  0.566502  1
  In  In17  1  0.500000  0.795563  0.433498  1
  Pt  Pt18  1  0.500000  0.026034  0.304107  1
  Pt  Pt19  1  0.500000  0.973966  0.695893  1
  Pt  Pt20  1  0.500000  0.474055  0.803944  1
  Pt  Pt21  1  0.500000  0.525945  0.196056  1
