# generated using pymatgen
data_Ce2NbVSi6
_symmetry_space_group_name_H-M   'P 1'
_cell_length_a   6.05938500
_cell_length_b   6.05938445
_cell_length_c   5.63984400
_cell_angle_alpha   90.00000000
_cell_angle_beta   90.00000000
_cell_angle_gamma   119.99999752
_symmetry_Int_Tables_number   1
_chemical_formula_structural   Ce2NbVSi6
_chemical_formula_sum   'Ce2 Nb1 V1 Si6'
_cell_volume   179.33076034
_cell_formula_units_Z   1
loop_
 _symmetry_equiv_pos_site_id
 _symmetry_equiv_pos_as_xyz
  1  'x, y, z'
loop_
 _atom_site_type_symbol
 _atom_site_label
 _atom_site_symmetry_multiplicity
 _atom_site_fract_x
 _atom_site_fract_y
 _atom_site_fract_z
 _atom_site_occupancy
  Ce  Ce0  1  0.666666  0.333334  0.260938  1
  Ce  Ce1  1  0.333333  0.666666  0.739063  1
  Nb  Nb2  1  0.000000  0.000000  0.500000  1
  V  V3  1  0.000000  0.000000  0.000000  1
  Si  Si4  1  0.201411  0.402822  0.232555  1
  Si  Si5  1  0.201410  0.798589  0.232555  1
  Si  Si6  1  0.597179  0.798589  0.232555  1
  Si  Si7  1  0.402822  0.201411  0.767446  1
  Si  Si8  1  0.798590  0.201411  0.767446  1
  Si  Si9  1  0.798589  0.597178  0.767446  1
