# generated using pymatgen
data_Ho2Fe3Tc14C3
_symmetry_space_group_name_H-M   'P 1'
_cell_length_a   6.89374478
_cell_length_b   6.89374537
_cell_length_c   6.89374417
_cell_angle_alpha   82.37383745
_cell_angle_beta   82.37383285
_cell_angle_gamma   82.37383733
_symmetry_Int_Tables_number   1
_chemical_formula_structural   Ho2Fe3Tc14C3
_chemical_formula_sum   'Ho2 Fe3 Tc14 C3'
_cell_volume   319.62993217
_cell_formula_units_Z   1
loop_
 _symmetry_equiv_pos_site_id
 _symmetry_equiv_pos_as_xyz
  1  'x, y, z'
loop_
 _atom_site_type_symbol
 _atom_site_label
 _atom_site_symmetry_multiplicity
 _atom_site_fract_x
 _atom_site_fract_y
 _atom_site_fract_z
 _atom_site_occupancy
  Ho  Ho0  1  0.652869  0.652869  0.652869  1
  Ho  Ho1  1  0.347131  0.347131  0.347131  1
  Fe  Fe2  1  0.000000  0.000000  0.500000  1
  Fe  Fe3  1  0.500000  0.000000  0.000000  1
  Fe  Fe4  1  0.000000  0.500000  0.000000  1
  Tc  Tc5  1  0.723909  0.276091  0.000000  1
  Tc  Tc6  1  0.000000  0.723909  0.276091  1
  Tc  Tc7  1  0.276091  0.000000  0.723909  1
  Tc  Tc8  1  0.000000  0.276091  0.723909  1
  Tc  Tc9  1  0.723909  0.000000  0.276091  1
  Tc  Tc10  1  0.276091  0.723909  0.000000  1
  Tc  Tc11  1  0.348587  0.860447  0.348587  1
  Tc  Tc12  1  0.348587  0.348587  0.860447  1
  Tc  Tc13  1  0.860447  0.348587  0.348587  1
  Tc  Tc14  1  0.651413  0.139553  0.651413  1
  Tc  Tc15  1  0.651413  0.651413  0.139553  1
  Tc  Tc16  1  0.139553  0.651413  0.651413  1
  Tc  Tc17  1  0.898841  0.898841  0.898841  1
  Tc  Tc18  1  0.101159  0.101159  0.101159  1
  C  C19  1  0.500000  0.500000  0.000000  1
  C  C20  1  0.000000  0.500000  0.500000  1
  C  C21  1  0.500000  0.000000  0.500000  1
