# generated using pymatgen
data_YHo5Al24(RuRh3)2
_symmetry_space_group_name_H-M   'P 1'
_cell_length_a   8.82545000
_cell_length_b   8.82086698
_cell_length_c   9.48439500
_cell_angle_alpha   90.00000000
_cell_angle_beta   90.00000000
_cell_angle_gamma   120.01718109
_symmetry_Int_Tables_number   1
_chemical_formula_structural   YHo5Al24(RuRh3)2
_chemical_formula_sum   'Y1 Ho5 Al24 Ru2 Rh6'
_cell_volume   639.31247880
_cell_formula_units_Z   1
loop_
 _symmetry_equiv_pos_site_id
 _symmetry_equiv_pos_as_xyz
  1  'x, y, z'
loop_
 _atom_site_type_symbol
 _atom_site_label
 _atom_site_symmetry_multiplicity
 _atom_site_fract_x
 _atom_site_fract_y
 _atom_site_fract_z
 _atom_site_occupancy
  Y  Y0  1  0.191523  0.383047  0.250000  1
  Ho  Ho1  1  0.808248  0.616494  0.750000  1
  Ho  Ho2  1  0.616733  0.808416  0.250000  1
  Ho  Ho3  1  0.383409  0.191679  0.750000  1
  Ho  Ho4  1  0.191681  0.808416  0.250000  1
  Ho  Ho5  1  0.808271  0.191679  0.750000  1
  Al  Al6  1  0.333424  0.666849  0.031499  1
  Al  Al7  1  0.666690  0.333380  0.968361  1
  Al  Al8  1  0.666690  0.333380  0.531639  1
  Al  Al9  1  0.333424  0.666849  0.468501  1
  Al  Al10  1  0.163095  0.326190  0.576292  1
  Al  Al11  1  0.836903  0.673805  0.423910  1
  Al  Al12  1  0.673870  0.836930  0.576175  1
  Al  Al13  1  0.836903  0.673805  0.076090  1
  Al  Al14  1  0.326223  0.162954  0.423969  1
  Al  Al15  1  0.163095  0.326190  0.923708  1
  Al  Al16  1  0.163059  0.836930  0.576175  1
  Al  Al17  1  0.326223  0.162954  0.076031  1
  Al  Al18  1  0.836732  0.162954  0.423969  1
  Al  Al19  1  0.673870  0.836930  0.923825  1
  Al  Al20  1  0.836732  0.162954  0.076031  1
  Al  Al21  1  0.163059  0.836930  0.923825  1
  Al  Al22  1  0.561680  0.123361  0.250000  1
  Al  Al23  1  0.438275  0.876550  0.750000  1
  Al  Al24  1  0.876463  0.438389  0.250000  1
  Al  Al25  1  0.123451  0.561718  0.750000  1
  Al  Al26  1  0.561926  0.438389  0.250000  1
  Al  Al27  1  0.438267  0.561718  0.750000  1
  Al  Al28  1  0.999777  0.999555  0.250000  1
  Al  Al29  1  0.999925  0.999849  0.750000  1
  Ru  Ru30  1  0.000072  0.000144  0.000086  1
  Ru  Ru31  1  0.000072  0.000144  0.499914  1
  Rh  Rh32  1  0.500051  0.000101  0.999994  1
  Rh  Rh33  1  0.999910  0.500067  0.999887  1
  Rh  Rh34  1  0.500051  0.000101  0.500006  1
  Rh  Rh35  1  0.500157  0.500067  0.999887  1
  Rh  Rh36  1  0.999910  0.500067  0.500113  1
  Rh  Rh37  1  0.500157  0.500067  0.500113  1
