# generated using pymatgen
data_DyHoAl2PtRh
_symmetry_space_group_name_H-M   'P 1'
_cell_length_a   4.35307900
_cell_length_b   6.80657013
_cell_length_c   7.87106803
_cell_angle_alpha   89.91189419
_cell_angle_beta   90.00000000
_cell_angle_gamma   90.00000000
_symmetry_Int_Tables_number   1
_chemical_formula_structural   DyHoAl2PtRh
_chemical_formula_sum   'Dy2 Ho2 Al4 Pt2 Rh2'
_cell_volume   233.21582960
_cell_formula_units_Z   2
loop_
 _symmetry_equiv_pos_site_id
 _symmetry_equiv_pos_as_xyz
  1  'x, y, z'
loop_
 _atom_site_type_symbol
 _atom_site_label
 _atom_site_symmetry_multiplicity
 _atom_site_fract_x
 _atom_site_fract_y
 _atom_site_fract_z
 _atom_site_occupancy
  Dy  Dy0  1  0.250000  0.534548  0.181959  1
  Dy  Dy1  1  0.750000  0.465452  0.818041  1
  Ho  Ho2  1  0.750000  0.968006  0.677009  1
  Ho  Ho3  1  0.250000  0.031994  0.322991  1
  Al  Al4  1  0.250000  0.637276  0.560863  1
  Al  Al5  1  0.750000  0.362724  0.439137  1
  Al  Al6  1  0.750000  0.858847  0.061419  1
  Al  Al7  1  0.250000  0.141153  0.938581  1
  Pt  Pt8  1  0.250000  0.768741  0.878104  1
  Pt  Pt9  1  0.750000  0.231259  0.121896  1
  Rh  Rh10  1  0.750000  0.736164  0.380814  1
  Rh  Rh11  1  0.250000  0.263836  0.619186  1
