# generated using pymatgen
data_ErTm2Sc3FeSb2
_symmetry_space_group_name_H-M   'P 1'
_cell_length_a   7.80013000
_cell_length_b   7.79739598
_cell_length_c   4.09273000
_cell_angle_alpha   90.00000000
_cell_angle_beta   90.00000000
_cell_angle_gamma   120.01160798
_symmetry_Int_Tables_number   1
_chemical_formula_structural   ErTm2Sc3FeSb2
_chemical_formula_sum   'Er1 Tm2 Sc3 Fe1 Sb2'
_cell_volume   215.54817310
_cell_formula_units_Z   1
loop_
 _symmetry_equiv_pos_site_id
 _symmetry_equiv_pos_as_xyz
  1  'x, y, z'
loop_
 _atom_site_type_symbol
 _atom_site_label
 _atom_site_symmetry_multiplicity
 _atom_site_fract_x
 _atom_site_fract_y
 _atom_site_fract_z
 _atom_site_occupancy
  Er  Er0  1  0.608414  0.000000  0.500000  1
  Tm  Tm1  1  0.390370  0.390604  0.500000  1
  Tm  Tm2  1  0.999766  0.609396  0.500000  1
  Sc  Sc3  1  0.227452  0.000000  0.000000  1
  Sc  Sc4  1  0.772736  0.772326  0.000000  1
  Sc  Sc5  1  0.000410  0.227674  0.000000  1
  Fe  Fe6  1  0.001546  0.000000  0.500000  1
  Sb  Sb7  1  0.332683  0.666059  0.000000  1
  Sb  Sb8  1  0.666624  0.333941  0.000000  1
