# generated using pymatgen
data_Tb3DyB16Os3Ru
_symmetry_space_group_name_H-M   'P 1'
_cell_length_a   3.57294000
_cell_length_b   5.97325100
_cell_length_c   11.55741904
_cell_angle_alpha   89.99630931
_cell_angle_beta   90.00000000
_cell_angle_gamma   90.00000000
_symmetry_Int_Tables_number   1
_chemical_formula_structural   Tb3DyB16Os3Ru
_chemical_formula_sum   'Tb3 Dy1 B16 Os3 Ru1'
_cell_volume   246.65921605
_cell_formula_units_Z   1
loop_
 _symmetry_equiv_pos_site_id
 _symmetry_equiv_pos_as_xyz
  1  'x, y, z'
loop_
 _atom_site_type_symbol
 _atom_site_label
 _atom_site_symmetry_multiplicity
 _atom_site_fract_x
 _atom_site_fract_y
 _atom_site_fract_z
 _atom_site_occupancy
  Tb  Tb0  1  0.500000  0.871969  0.850203  1
  Tb  Tb1  1  0.500000  0.628216  0.349545  1
  Tb  Tb2  1  0.500000  0.371720  0.650442  1
  Dy  Dy3  1  0.500000  0.128090  0.149872  1
  B  B4  1  0.000000  0.475515  0.191290  1
  B  B5  1  0.000000  0.523973  0.808657  1
  B  B6  1  0.000000  0.975532  0.308603  1
  B  B7  1  0.000000  0.024866  0.691371  1
  B  B8  1  0.000000  0.288408  0.314026  1
  B  B9  1  0.000000  0.711543  0.685820  1
  B  B10  1  0.000000  0.788639  0.185551  1
  B  B11  1  0.000000  0.211586  0.814563  1
  B  B12  1  0.000000  0.363306  0.469905  1
  B  B13  1  0.000000  0.636674  0.530218  1
  B  B14  1  0.000000  0.863638  0.030350  1
  B  B15  1  0.000000  0.136421  0.969538  1
  B  B16  1  0.000000  0.387807  0.046533  1
  B  B17  1  0.000000  0.611987  0.953577  1
  B  B18  1  0.000000  0.887899  0.453435  1
  B  B19  1  0.000000  0.112168  0.546681  1
  Os  Os20  1  0.500000  0.141256  0.406862  1
  Os  Os21  1  0.500000  0.858783  0.592928  1
  Os  Os22  1  0.500000  0.640323  0.092913  1
  Ru  Ru23  1  0.500000  0.359680  0.907117  1
