# generated using pymatgen
data_Tm12Ga2Fe2Tc
_symmetry_space_group_name_H-M   'P 1'
_cell_length_a   8.15334699
_cell_length_b   8.15334748
_cell_length_c   8.15334670
_cell_angle_alpha   109.27534816
_cell_angle_beta   109.27535040
_cell_angle_gamma   109.86367248
_symmetry_Int_Tables_number   1
_chemical_formula_structural   Tm12Ga2Fe2Tc
_chemical_formula_sum   'Tm12 Ga2 Fe2 Tc1'
_cell_volume   417.22529409
_cell_formula_units_Z   1
loop_
 _symmetry_equiv_pos_site_id
 _symmetry_equiv_pos_as_xyz
  1  'x, y, z'
loop_
 _atom_site_type_symbol
 _atom_site_label
 _atom_site_symmetry_multiplicity
 _atom_site_fract_x
 _atom_site_fract_y
 _atom_site_fract_z
 _atom_site_occupancy
  Tm  Tm0  1  0.190084  0.434498  0.244414  1
  Tm  Tm1  1  0.809916  0.565502  0.755586  1
  Tm  Tm2  1  0.190084  0.945672  0.755586  1
  Tm  Tm3  1  0.945672  0.190084  0.755586  1
  Tm  Tm4  1  0.809916  0.054328  0.244414  1
  Tm  Tm5  1  0.054328  0.809916  0.244414  1
  Tm  Tm6  1  0.434498  0.190084  0.244414  1
  Tm  Tm7  1  0.565502  0.809916  0.755586  1
  Tm  Tm8  1  0.307444  0.307444  0.614887  1
  Tm  Tm9  1  0.692556  0.692556  0.385113  1
  Tm  Tm10  1  0.692556  0.307444  0.000000  1
  Tm  Tm11  1  0.307444  0.692556  0.000000  1
  Ga  Ga12  1  0.000000  0.500000  0.500000  1
  Ga  Ga13  1  0.500000  0.000000  0.500000  1
  Fe  Fe14  1  0.382566  0.382566  0.000000  1
  Fe  Fe15  1  0.617434  0.617434  0.000000  1
  Tc  Tc16  1  0.000000  0.000000  0.000000  1
