# generated using pymatgen
data_Lu4Ga4Si2Ir7
_symmetry_space_group_name_H-M   'P 1'
_cell_length_a   7.17621735
_cell_length_b   7.17621651
_cell_length_c   7.19822794
_cell_angle_alpha   109.60730199
_cell_angle_beta   109.60729777
_cell_angle_gamma   109.07455509
_symmetry_Int_Tables_number   1
_chemical_formula_structural   Lu4Ga4Si2Ir7
_chemical_formula_sum   'Lu4 Ga4 Si2 Ir7'
_cell_volume   285.79260251
_cell_formula_units_Z   1
loop_
 _symmetry_equiv_pos_site_id
 _symmetry_equiv_pos_as_xyz
  1  'x, y, z'
loop_
 _atom_site_type_symbol
 _atom_site_label
 _atom_site_symmetry_multiplicity
 _atom_site_fract_x
 _atom_site_fract_y
 _atom_site_fract_z
 _atom_site_occupancy
  Lu  Lu0  1  0.000537  0.000537  0.527661  1
  Lu  Lu1  1  0.000182  0.500182  0.000364  1
  Lu  Lu2  1  0.500182  0.000182  0.000364  1
  Lu  Lu3  1  0.527124  0.527124  0.527661  1
  Ga  Ga4  1  0.692338  0.692338  0.012414  1
  Ga  Ga5  1  0.299269  0.006562  0.305831  1
  Ga  Ga6  1  0.006562  0.299269  0.305831  1
  Ga  Ga7  1  0.320076  0.320076  0.012414  1
  Si  Si8  1  0.668190  0.003941  0.672132  1
  Si  Si9  1  0.003941  0.668190  0.672132  1
  Ir  Ir10  1  0.750735  0.250735  0.501471  1
  Ir  Ir11  1  0.756427  0.499431  0.255859  1
  Ir  Ir12  1  0.501464  0.250415  0.751879  1
  Ir  Ir13  1  0.250415  0.501464  0.751879  1
  Ir  Ir14  1  0.250735  0.750735  0.501471  1
  Ir  Ir15  1  0.499431  0.756427  0.255859  1
  Ir  Ir16  1  0.972389  0.972389  0.944777  1
