# generated using pymatgen
data_BaAlIO6
_symmetry_space_group_name_H-M   'P 1'
_cell_length_a   5.12858600
_cell_length_b   5.12858621
_cell_length_c   11.75616500
_cell_angle_alpha   90.00000000
_cell_angle_beta   90.00000000
_cell_angle_gamma   119.99999867
_symmetry_Int_Tables_number   1
_chemical_formula_structural   BaAlIO6
_chemical_formula_sum   'Ba2 Al2 I2 O12'
_cell_volume   267.78830901
_cell_formula_units_Z   2
loop_
 _symmetry_equiv_pos_site_id
 _symmetry_equiv_pos_as_xyz
  1  'x, y, z'
loop_
 _atom_site_type_symbol
 _atom_site_label
 _atom_site_symmetry_multiplicity
 _atom_site_fract_x
 _atom_site_fract_y
 _atom_site_fract_z
 _atom_site_occupancy
  Ba  Ba0  1  0.666667  0.333333  0.250000  1
  Ba  Ba1  1  0.666667  0.333333  0.750000  1
  Al  Al2  1  0.333333  0.666667  0.500000  1
  Al  Al3  1  0.333333  0.666667  0.000000  1
  I  I4  1  0.000000  0.000000  0.000000  1
  I  I5  1  0.000000  0.000000  0.500000  1
  O  O6  1  0.052615  0.329876  0.407721  1
  O  O7  1  0.052615  0.329876  0.907721  1
  O  O8  1  0.277261  0.947385  0.407721  1
  O  O9  1  0.277261  0.947385  0.907721  1
  O  O10  1  0.277261  0.329876  0.092279  1
  O  O11  1  0.277261  0.329876  0.592279  1
  O  O12  1  0.670124  0.722739  0.407721  1
  O  O13  1  0.670124  0.722739  0.907721  1
  O  O14  1  0.670124  0.947385  0.092279  1
  O  O15  1  0.670124  0.947385  0.592279  1
  O  O16  1  0.052615  0.722739  0.092279  1
  O  O17  1  0.052615  0.722739  0.592279  1
