# generated using pymatgen
data_TbPr8TmIr6
_symmetry_space_group_name_H-M   'P 1'
_cell_length_a   11.26664300
_cell_length_b   11.26664300
_cell_length_c   6.56148800
_cell_angle_alpha   90.00000000
_cell_angle_beta   90.00000000
_cell_angle_gamma   90.00000000
_symmetry_Int_Tables_number   1
_chemical_formula_structural   TbPr8TmIr6
_chemical_formula_sum   'Tb2 Pr16 Tm2 Ir12'
_cell_volume   832.89720647
_cell_formula_units_Z   2
loop_
 _symmetry_equiv_pos_site_id
 _symmetry_equiv_pos_as_xyz
  1  'x, y, z'
loop_
 _atom_site_type_symbol
 _atom_site_label
 _atom_site_symmetry_multiplicity
 _atom_site_fract_x
 _atom_site_fract_y
 _atom_site_fract_z
 _atom_site_occupancy
  Tb  Tb0  1  0.000000  0.000000  0.500000  1
  Tb  Tb1  1  0.000000  0.000000  0.000000  1
  Pr  Pr2  1  0.288891  0.087545  0.381329  1
  Pr  Pr3  1  0.288891  0.912455  0.881329  1
  Pr  Pr4  1  0.711109  0.087545  0.881329  1
  Pr  Pr5  1  0.711109  0.912455  0.381329  1
  Pr  Pr6  1  0.587387  0.788152  0.881222  1
  Pr  Pr7  1  0.587387  0.211848  0.381222  1
  Pr  Pr8  1  0.412613  0.788152  0.381222  1
  Pr  Pr9  1  0.412613  0.211848  0.881222  1
  Pr  Pr10  1  0.211848  0.412613  0.618778  1
  Pr  Pr11  1  0.211848  0.587387  0.118778  1
  Pr  Pr12  1  0.788152  0.412613  0.118778  1
  Pr  Pr13  1  0.788152  0.587387  0.618778  1
  Pr  Pr14  1  0.912455  0.711109  0.118671  1
  Pr  Pr15  1  0.912455  0.288891  0.618671  1
  Pr  Pr16  1  0.087545  0.711109  0.618671  1
  Pr  Pr17  1  0.087545  0.288891  0.118671  1
  Tm  Tm18  1  0.500000  0.500000  0.000000  1
  Tm  Tm19  1  0.500000  0.500000  0.500000  1
  Ir  Ir20  1  0.851515  0.148485  0.250000  1
  Ir  Ir21  1  0.851515  0.851515  0.750000  1
  Ir  Ir22  1  0.148485  0.148485  0.750000  1
  Ir  Ir23  1  0.148485  0.851515  0.250000  1
  Ir  Ir24  1  0.646448  0.353552  0.750000  1
  Ir  Ir25  1  0.646448  0.646448  0.250000  1
  Ir  Ir26  1  0.353552  0.353552  0.250000  1
  Ir  Ir27  1  0.353552  0.646448  0.750000  1
  Ir  Ir28  1  0.500000  0.000000  0.116792  1
  Ir  Ir29  1  0.500000  0.000000  0.616792  1
  Ir  Ir30  1  0.000000  0.500000  0.883208  1
  Ir  Ir31  1  0.000000  0.500000  0.383208  1
