# generated using pymatgen
data_Zn4B2Ir3Rh
_symmetry_space_group_name_H-M   'P 1'
_cell_length_a   13.42369950
_cell_length_b   13.42369830
_cell_length_c   10.15017500
_cell_angle_alpha   90.00000000
_cell_angle_beta   90.00000000
_cell_angle_gamma   167.65826159
_symmetry_Int_Tables_number   1
_chemical_formula_structural   Zn4B2Ir3Rh
_chemical_formula_sum   'Zn12 B6 Ir9 Rh3'
_cell_volume   390.93807223
_cell_formula_units_Z   3
loop_
 _symmetry_equiv_pos_site_id
 _symmetry_equiv_pos_as_xyz
  1  'x, y, z'
loop_
 _atom_site_type_symbol
 _atom_site_label
 _atom_site_symmetry_multiplicity
 _atom_site_fract_x
 _atom_site_fract_y
 _atom_site_fract_z
 _atom_site_occupancy
  Zn  Zn0  1  0.087868  0.912132  0.119705  1
  Zn  Zn1  1  0.912119  0.087881  0.880390  1
  Zn  Zn2  1  0.912119  0.087881  0.619610  1
  Zn  Zn3  1  0.087868  0.912132  0.380295  1
  Zn  Zn4  1  0.239067  0.760933  0.609303  1
  Zn  Zn5  1  0.761533  0.238467  0.390425  1
  Zn  Zn6  1  0.999925  0.000075  0.000218  1
  Zn  Zn7  1  0.999925  0.000075  0.499782  1
  Zn  Zn8  1  0.819876  0.180124  0.750000  1
  Zn  Zn9  1  0.180211  0.819789  0.250000  1
  Zn  Zn10  1  0.239067  0.760933  0.890697  1
  Zn  Zn11  1  0.761533  0.238467  0.109575  1
  B  B12  1  0.137878  0.862122  0.606788  1
  B  B13  1  0.862193  0.137807  0.394587  1
  B  B14  1  0.862193  0.137807  0.105413  1
  B  B15  1  0.137878  0.862122  0.893212  1
  B  B16  1  0.958735  0.041265  0.250000  1
  B  B17  1  0.041056  0.958944  0.750000  1
  Ir  Ir18  1  0.331942  0.668058  0.527557  1
  Ir  Ir19  1  0.668082  0.331918  0.472104  1
  Ir  Ir20  1  0.668082  0.331918  0.027896  1
  Ir  Ir21  1  0.331942  0.668058  0.972443  1
  Ir  Ir22  1  0.671361  0.328639  0.750000  1
  Ir  Ir23  1  0.574791  0.425209  0.610011  1
  Ir  Ir24  1  0.424813  0.575187  0.389662  1
  Ir  Ir25  1  0.424813  0.575187  0.110338  1
  Ir  Ir26  1  0.574791  0.425209  0.889989  1
  Rh  Rh27  1  0.518202  0.481798  0.250000  1
  Rh  Rh28  1  0.481583  0.518417  0.750000  1
  Rh  Rh29  1  0.328557  0.671443  0.250000  1
