# generated using pymatgen
data_DyBi3(SeO5)2
_symmetry_space_group_name_H-M   'P 1'
_cell_length_a   8.77745668
_cell_length_b   8.77745531
_cell_length_c   11.43063400
_cell_angle_alpha   90.00000000
_cell_angle_beta   90.00000000
_cell_angle_gamma   143.29331505
_symmetry_Int_Tables_number   1
_chemical_formula_structural   DyBi3(SeO5)2
_chemical_formula_sum   'Dy2 Bi6 Se4 O20'
_cell_volume   526.38617699
_cell_formula_units_Z   2
loop_
 _symmetry_equiv_pos_site_id
 _symmetry_equiv_pos_as_xyz
  1  'x, y, z'
loop_
 _atom_site_type_symbol
 _atom_site_label
 _atom_site_symmetry_multiplicity
 _atom_site_fract_x
 _atom_site_fract_y
 _atom_site_fract_z
 _atom_site_occupancy
  Dy  Dy0  1  0.740933  0.240933  0.607091  1
  Dy  Dy1  1  0.240933  0.740933  0.392909  1
  Bi  Bi2  1  0.236670  0.736670  0.865548  1
  Bi  Bi3  1  0.736670  0.236670  0.134452  1
  Bi  Bi4  1  0.891327  0.064379  0.392623  1
  Bi  Bi5  1  0.064379  0.891327  0.607377  1
  Bi  Bi6  1  0.391327  0.564379  0.607377  1
  Bi  Bi7  1  0.564379  0.391327  0.392623  1
  Se  Se8  1  0.386155  0.574573  0.147367  1
  Se  Se9  1  0.574573  0.386155  0.852633  1
  Se  Se10  1  0.886155  0.074573  0.852633  1
  Se  Se11  1  0.074573  0.886155  0.147367  1
  O  O12  1  0.147743  0.480332  0.227626  1
  O  O13  1  0.480332  0.147743  0.772374  1
  O  O14  1  0.647743  0.980332  0.772374  1
  O  O15  1  0.980332  0.647743  0.227626  1
  O  O16  1  0.567932  0.898649  0.502164  1
  O  O17  1  0.898649  0.567932  0.497836  1
  O  O18  1  0.067932  0.398649  0.497836  1
  O  O19  1  0.398649  0.067932  0.502164  1
  O  O20  1  0.104475  0.604475  0.698061  1
  O  O21  1  0.604475  0.104475  0.301939  1
  O  O22  1  0.554905  0.855759  0.078567  1
  O  O23  1  0.855759  0.554905  0.921433  1
  O  O24  1  0.173150  0.077933  0.260188  1
  O  O25  1  0.077933  0.173150  0.739812  1
  O  O26  1  0.673150  0.577933  0.739812  1
  O  O27  1  0.577933  0.673150  0.260188  1
  O  O28  1  0.247605  0.247605  0.500000  1
  O  O29  1  0.747605  0.747605  0.500000  1
  O  O30  1  0.355759  0.054905  0.078567  1
  O  O31  1  0.054905  0.355759  0.921433  1
