# generated using pymatgen
data_Pd4I5Br3
_symmetry_space_group_name_H-M   'P 1'
_cell_length_a   8.78526014
_cell_length_b   6.90523765
_cell_length_c   6.97705783
_cell_angle_alpha   75.64974024
_cell_angle_beta   90.07436378
_cell_angle_gamma   90.95245879
_symmetry_Int_Tables_number   1
_chemical_formula_structural   Pd4I5Br3
_chemical_formula_sum   'Pd4 I5 Br3'
_cell_volume   409.99378160
_cell_formula_units_Z   1
loop_
 _symmetry_equiv_pos_site_id
 _symmetry_equiv_pos_as_xyz
  1  'x, y, z'
loop_
 _atom_site_type_symbol
 _atom_site_label
 _atom_site_symmetry_multiplicity
 _atom_site_fract_x
 _atom_site_fract_y
 _atom_site_fract_z
 _atom_site_occupancy
  Pd  Pd0  1  0.370672  0.219291  0.998591  1
  Pd  Pd1  1  0.872748  0.784084  0.498280  1
  Pd  Pd2  1  0.627740  0.780366  0.997795  1
  Pd  Pd3  1  0.126034  0.216202  0.499149  1
  I  I4  1  0.578976  0.014754  0.233851  1
  I  I5  1  0.673092  0.561723  0.740526  1
  I  I6  1  0.171501  0.435339  0.752238  1
  I  I7  1  0.325740  0.434347  0.255896  1
  I  I8  1  0.825916  0.567998  0.240789  1
  Br  Br9  1  0.925220  0.012151  0.720165  1
  Br  Br10  1  0.426856  0.986184  0.783463  1
  Br  Br11  1  0.075506  0.987562  0.279257  1
