# generated using pymatgen
data_Ca5Th3(Si3Pt)4
_symmetry_space_group_name_H-M   'P 1'
_cell_length_a   8.26070300
_cell_length_b   8.26070326
_cell_length_c   8.43018800
_cell_angle_alpha   90.00000000
_cell_angle_beta   90.00000000
_cell_angle_gamma   119.90463025
_symmetry_Int_Tables_number   1
_chemical_formula_structural   Ca5Th3(Si3Pt)4
_chemical_formula_sum   'Ca5 Th3 Si12 Pt4'
_cell_volume   498.67601536
_cell_formula_units_Z   1
loop_
 _symmetry_equiv_pos_site_id
 _symmetry_equiv_pos_as_xyz
  1  'x, y, z'
loop_
 _atom_site_type_symbol
 _atom_site_label
 _atom_site_symmetry_multiplicity
 _atom_site_fract_x
 _atom_site_fract_y
 _atom_site_fract_z
 _atom_site_occupancy
  Ca  Ca0  1  0.499776  0.500224  0.750000  1
  Ca  Ca1  1  0.000432  0.500216  0.750000  1
  Ca  Ca2  1  0.999644  0.499814  0.250000  1
  Ca  Ca3  1  0.499784  0.999568  0.750000  1
  Ca  Ca4  1  0.500186  0.000356  0.250000  1
  Th  Th5  1  0.500241  0.499759  0.250000  1
  Th  Th6  1  0.000000  0.000000  0.750000  1
  Th  Th7  1  0.000013  0.999987  0.250000  1
  Si  Si8  1  0.832954  0.167046  0.001209  1
  Si  Si9  1  0.167044  0.832956  0.001639  1
  Si  Si10  1  0.330553  0.164289  0.999718  1
  Si  Si11  1  0.167044  0.832956  0.498361  1
  Si  Si12  1  0.669435  0.835723  0.000193  1
  Si  Si13  1  0.832954  0.167046  0.498791  1
  Si  Si14  1  0.835711  0.669447  0.999718  1
  Si  Si15  1  0.669435  0.835723  0.499807  1
  Si  Si16  1  0.164277  0.330565  0.000193  1
  Si  Si17  1  0.330553  0.164289  0.500282  1
  Si  Si18  1  0.164277  0.330565  0.499807  1
  Si  Si19  1  0.835711  0.669447  0.500282  1
  Pt  Pt20  1  0.665265  0.334735  0.002705  1
  Pt  Pt21  1  0.334726  0.665274  0.003139  1
  Pt  Pt22  1  0.334726  0.665274  0.496861  1
  Pt  Pt23  1  0.665265  0.334735  0.497295  1
