# generated using pymatgen
data_Y5Ho15(Cd3Ir)2
_symmetry_space_group_name_H-M   'P 1'
_cell_length_a   9.61068100
_cell_length_b   9.61068125
_cell_length_c   9.81638300
_cell_angle_alpha   89.99989481
_cell_angle_beta   90.00010618
_cell_angle_gamma   119.99642426
_symmetry_Int_Tables_number   1
_chemical_formula_structural   Y5Ho15(Cd3Ir)2
_chemical_formula_sum   'Y5 Ho15 Cd6 Ir2'
_cell_volume   785.24668129
_cell_formula_units_Z   1
loop_
 _symmetry_equiv_pos_site_id
 _symmetry_equiv_pos_as_xyz
  1  'x, y, z'
loop_
 _atom_site_type_symbol
 _atom_site_label
 _atom_site_symmetry_multiplicity
 _atom_site_fract_x
 _atom_site_fract_y
 _atom_site_fract_z
 _atom_site_occupancy
  Y  Y0  1  0.541316  0.082782  0.249997  1
  Y  Y1  1  0.917218  0.458684  0.249997  1
  Y  Y2  1  0.458705  0.541295  0.749996  1
  Y  Y3  1  0.458693  0.917420  0.750001  1
  Y  Y4  1  0.082580  0.541307  0.750001  1
  Ho  Ho5  1  0.000009  0.999991  0.500022  1
  Ho  Ho6  1  0.000012  0.999988  0.999979  1
  Ho  Ho7  1  0.209601  0.790399  0.440527  1
  Ho  Ho8  1  0.209772  0.419187  0.440432  1
  Ho  Ho9  1  0.580813  0.790228  0.440432  1
  Ho  Ho10  1  0.790412  0.209588  0.559499  1
  Ho  Ho11  1  0.790249  0.580737  0.559371  1
  Ho  Ho12  1  0.419263  0.209751  0.559371  1
  Ho  Ho13  1  0.790412  0.209588  0.940496  1
  Ho  Ho14  1  0.790246  0.580735  0.940632  1
  Ho  Ho15  1  0.419265  0.209754  0.940632  1
  Ho  Ho16  1  0.209598  0.790402  0.059473  1
  Ho  Ho17  1  0.209775  0.419190  0.059569  1
  Ho  Ho18  1  0.580810  0.790225  0.059569  1
  Ho  Ho19  1  0.541221  0.458779  0.250001  1
  Cd  Cd20  1  0.885525  0.114475  0.250001  1
  Cd  Cd21  1  0.885281  0.770833  0.249999  1
  Cd  Cd22  1  0.229167  0.114719  0.249999  1
  Cd  Cd23  1  0.114492  0.885508  0.750003  1
  Cd  Cd24  1  0.114497  0.228983  0.750000  1
  Cd  Cd25  1  0.771017  0.885503  0.750000  1
  Ir  Ir26  1  0.333385  0.666615  0.250002  1
  Ir  Ir27  1  0.666667  0.333333  0.750001  1
