# generated using pymatgen
data_Dy2YPtRh8
_symmetry_space_group_name_H-M   'P 1'
_cell_length_a   5.28473300
_cell_length_b   5.28473446
_cell_length_c   17.52104000
_cell_angle_alpha   90.00000000
_cell_angle_beta   90.00000000
_cell_angle_gamma   119.99998463
_symmetry_Int_Tables_number   1
_chemical_formula_structural   Dy2YPtRh8
_chemical_formula_sum   'Dy4 Y2 Pt2 Rh16'
_cell_volume   423.77643238
_cell_formula_units_Z   2
loop_
 _symmetry_equiv_pos_site_id
 _symmetry_equiv_pos_as_xyz
  1  'x, y, z'
loop_
 _atom_site_type_symbol
 _atom_site_label
 _atom_site_symmetry_multiplicity
 _atom_site_fract_x
 _atom_site_fract_y
 _atom_site_fract_z
 _atom_site_occupancy
  Dy  Dy0  1  0.333333  0.666667  0.957035  1
  Dy  Dy1  1  0.666667  0.333333  0.042965  1
  Dy  Dy2  1  0.666667  0.333333  0.457035  1
  Dy  Dy3  1  0.333333  0.666667  0.542965  1
  Y  Y4  1  0.333333  0.666667  0.750000  1
  Y  Y5  1  0.666667  0.333333  0.250000  1
  Pt  Pt6  1  0.000000  0.000000  0.500000  1
  Pt  Pt7  1  0.000000  0.000000  0.000000  1
  Rh  Rh8  1  0.167630  0.832370  0.373662  1
  Rh  Rh9  1  0.167630  0.335261  0.373662  1
  Rh  Rh10  1  0.664739  0.832370  0.373662  1
  Rh  Rh11  1  0.832370  0.167630  0.626338  1
  Rh  Rh12  1  0.832370  0.664739  0.626338  1
  Rh  Rh13  1  0.335261  0.167630  0.626338  1
  Rh  Rh14  1  0.832370  0.167630  0.873662  1
  Rh  Rh15  1  0.832370  0.664739  0.873662  1
  Rh  Rh16  1  0.335261  0.167630  0.873662  1
  Rh  Rh17  1  0.167630  0.832370  0.126338  1
  Rh  Rh18  1  0.167630  0.335261  0.126338  1
  Rh  Rh19  1  0.664739  0.832370  0.126338  1
  Rh  Rh20  1  0.333333  0.666667  0.250000  1
  Rh  Rh21  1  0.666667  0.333333  0.750000  1
  Rh  Rh22  1  0.000000  0.000000  0.250000  1
  Rh  Rh23  1  0.000000  0.000000  0.750000  1
