# generated using pymatgen
data_Li3Ni9As7Ru2
_symmetry_space_group_name_H-M   'P 1'
_cell_length_a   9.42815352
_cell_length_b   9.48543721
_cell_length_c   3.71621700
_cell_angle_alpha   90.00000000
_cell_angle_beta   90.00000000
_cell_angle_gamma   120.46263905
_symmetry_Int_Tables_number   1
_chemical_formula_structural   Li3Ni9As7Ru2
_chemical_formula_sum   'Li3 Ni9 As7 Ru2'
_cell_volume   286.46537819
_cell_formula_units_Z   1
loop_
 _symmetry_equiv_pos_site_id
 _symmetry_equiv_pos_as_xyz
  1  'x, y, z'
loop_
 _atom_site_type_symbol
 _atom_site_label
 _atom_site_symmetry_multiplicity
 _atom_site_fract_x
 _atom_site_fract_y
 _atom_site_fract_z
 _atom_site_occupancy
  Li  Li0  1  0.787673  0.233667  0.500000  1
  Li  Li1  1  0.331834  0.666726  0.000000  1
  Li  Li2  1  0.996675  0.999202  0.500000  1
  Ni  Ni3  1  0.281759  0.382556  0.500000  1
  Ni  Ni4  1  0.622734  0.902456  0.500000  1
  Ni  Ni5  1  0.102822  0.720457  0.500000  1
  Ni  Ni6  1  0.499381  0.453970  0.000000  1
  Ni  Ni7  1  0.552712  0.051894  0.000000  1
  Ni  Ni8  1  0.948959  0.493166  0.000000  1
  Ni  Ni9  1  0.721065  0.764832  0.000000  1
  Ni  Ni10  1  0.234599  0.956499  0.000000  1
  Ni  Ni11  1  0.047833  0.283724  0.000000  1
  As  As12  1  0.957074  0.749568  0.000000  1
  As  As13  1  0.245789  0.204862  0.000000  1
  As  As14  1  0.797676  0.037455  0.000000  1
  As  As15  1  0.662863  0.334697  0.000000  1
  As  As16  1  0.539529  0.625714  0.500000  1
  As  As17  1  0.377641  0.917256  0.500000  1
  As  As18  1  0.089891  0.465304  0.500000  1
  Ru  Ru19  1  0.756055  0.547653  0.500000  1
  Ru  Ru20  1  0.445438  0.208341  0.500000  1
