# generated using pymatgen
data_TbDyEr4GaCo2
_symmetry_space_group_name_H-M   'P 1'
_cell_length_a   8.22820629
_cell_length_b   8.22820700
_cell_length_c   8.23786105
_cell_angle_alpha   107.00085919
_cell_angle_beta   109.21218158
_cell_angle_gamma   112.19855081
_symmetry_Int_Tables_number   1
_chemical_formula_structural   TbDyEr4GaCo2
_chemical_formula_sum   'Tb2 Dy2 Er8 Ga2 Co4'
_cell_volume   428.68296041
_cell_formula_units_Z   2
loop_
 _symmetry_equiv_pos_site_id
 _symmetry_equiv_pos_as_xyz
  1  'x, y, z'
loop_
 _atom_site_type_symbol
 _atom_site_label
 _atom_site_symmetry_multiplicity
 _atom_site_fract_x
 _atom_site_fract_y
 _atom_site_fract_z
 _atom_site_occupancy
  Tb  Tb0  1  0.698367  0.738413  0.436781  1
  Tb  Tb1  1  0.301633  0.261587  0.563219  1
  Dy  Dy2  1  0.698491  0.261478  0.959970  1
  Dy  Dy3  1  0.301509  0.738522  0.040030  1
  Er  Er4  1  0.811300  0.139013  0.327185  1
  Er  Er5  1  0.811830  0.484115  0.672815  1
  Er  Er6  1  0.188700  0.860987  0.672815  1
  Er  Er7  1  0.188170  0.515885  0.327185  1
  Er  Er8  1  0.601672  0.781063  0.820930  1
  Er  Er9  1  0.960132  0.780742  0.179070  1
  Er  Er10  1  0.039868  0.219258  0.820930  1
  Er  Er11  1  0.398328  0.218937  0.179070  1
  Ga  Ga12  1  0.500000  0.500000  0.000000  1
  Ga  Ga13  1  0.500000  0.000000  0.500000  1
  Co  Co14  1  0.839013  0.499836  0.338848  1
  Co  Co15  1  0.160987  0.500164  0.661152  1
  Co  Co16  1  0.999719  0.115171  0.114889  1
  Co  Co17  1  0.000281  0.884829  0.885111  1
