# generated using pymatgen
data_Tb3ErTm4In3Co
_symmetry_space_group_name_H-M   'P 1'
_cell_length_a   10.30278600
_cell_length_b   10.30278666
_cell_length_c   6.98599600
_cell_angle_alpha   90.00000000
_cell_angle_beta   90.00000000
_cell_angle_gamma   119.99998858
_symmetry_Int_Tables_number   1
_chemical_formula_structural   Tb3ErTm4In3Co
_chemical_formula_sum   'Tb6 Er2 Tm8 In6 Co2'
_cell_volume   642.19718901
_cell_formula_units_Z   2
loop_
 _symmetry_equiv_pos_site_id
 _symmetry_equiv_pos_as_xyz
  1  'x, y, z'
loop_
 _atom_site_type_symbol
 _atom_site_label
 _atom_site_symmetry_multiplicity
 _atom_site_fract_x
 _atom_site_fract_y
 _atom_site_fract_z
 _atom_site_occupancy
  Tb  Tb0  1  0.534341  0.068681  0.790766  1
  Tb  Tb1  1  0.931321  0.465664  0.790771  1
  Tb  Tb2  1  0.534341  0.465658  0.790769  1
  Tb  Tb3  1  0.465659  0.931319  0.290766  1
  Tb  Tb4  1  0.068679  0.534336  0.290771  1
  Tb  Tb5  1  0.465659  0.534342  0.290769  1
  Er  Er6  1  0.000002  0.000002  0.779715  1
  Er  Er7  1  0.999998  0.999998  0.279715  1
  Tm  Tm8  1  0.821947  0.643904  0.498777  1
  Tm  Tm9  1  0.356089  0.178045  0.498781  1
  Tm  Tm10  1  0.821957  0.178044  0.498782  1
  Tm  Tm11  1  0.178053  0.356096  0.998777  1
  Tm  Tm12  1  0.643911  0.821955  0.998781  1
  Tm  Tm13  1  0.178043  0.821956  0.998782  1
  Tm  Tm14  1  0.666663  0.333338  0.184155  1
  Tm  Tm15  1  0.333337  0.666662  0.684155  1
  In  In16  1  0.837348  0.674699  0.039701  1
  In  In17  1  0.325303  0.162650  0.039700  1
  In  In18  1  0.837352  0.162652  0.039699  1
  In  In19  1  0.162652  0.325301  0.539701  1
  In  In20  1  0.674697  0.837350  0.539700  1
  In  In21  1  0.162648  0.837348  0.539699  1
  Co  Co22  1  0.666667  0.333336  0.566338  1
  Co  Co23  1  0.333333  0.666664  0.066338  1
