# generated using pymatgen
data_Tb12Er4InHg3Rh4
_symmetry_space_group_name_H-M   'P 1'
_cell_length_a   9.61845228
_cell_length_b   9.61947133
_cell_length_c   9.61840597
_cell_angle_alpha   60.02818508
_cell_angle_beta   59.96572221
_cell_angle_gamma   59.92599354
_symmetry_Int_Tables_number   1
_chemical_formula_structural   Tb12Er4InHg3Rh4
_chemical_formula_sum   'Tb12 Er4 In1 Hg3 Rh4'
_cell_volume   628.89881838
_cell_formula_units_Z   1
loop_
 _symmetry_equiv_pos_site_id
 _symmetry_equiv_pos_as_xyz
  1  'x, y, z'
loop_
 _atom_site_type_symbol
 _atom_site_label
 _atom_site_symmetry_multiplicity
 _atom_site_fract_x
 _atom_site_fract_y
 _atom_site_fract_z
 _atom_site_occupancy
  Tb  Tb0  1  0.065194  0.061073  0.437256  1
  Tb  Tb1  1  0.438200  0.435967  0.062136  1
  Tb  Tb2  1  0.650160  0.649282  0.649318  1
  Tb  Tb3  1  0.811985  0.189496  0.189318  1
  Tb  Tb4  1  0.188327  0.812271  0.811216  1
  Tb  Tb5  1  0.053312  0.647882  0.648829  1
  Tb  Tb6  1  0.438494  0.062822  0.062086  1
  Tb  Tb7  1  0.437959  0.062003  0.436973  1
  Tb  Tb8  1  0.065783  0.436533  0.061123  1
  Tb  Tb9  1  0.649408  0.649064  0.052135  1
  Tb  Tb10  1  0.188613  0.812316  0.188675  1
  Tb  Tb11  1  0.065333  0.435755  0.436616  1
  Er  Er12  1  0.811101  0.809562  0.189962  1
  Er  Er13  1  0.811478  0.189804  0.809384  1
  Er  Er14  1  0.188797  0.189123  0.811481  1
  Er  Er15  1  0.649197  0.051725  0.649404  1
  In  In16  1  0.742436  0.418980  0.419912  1
  Hg  Hg17  1  0.415316  0.415190  0.416007  1
  Hg  Hg18  1  0.415208  0.414443  0.754945  1
  Hg  Hg19  1  0.415240  0.754844  0.414980  1
  Rh  Rh20  1  0.858121  0.426074  0.856926  1
  Rh  Rh21  1  0.856215  0.859000  0.857357  1
  Rh  Rh22  1  0.856145  0.857742  0.427771  1
  Rh  Rh23  1  0.427980  0.859051  0.856192  1
