# generated using pymatgen
data_Ta4Be4FeRh
_symmetry_space_group_name_H-M   'P 1'
_cell_length_a   6.13661300
_cell_length_b   6.13661300
_cell_length_c   3.40771100
_cell_angle_alpha   90.00000000
_cell_angle_beta   90.00000000
_cell_angle_gamma   90.00000000
_symmetry_Int_Tables_number   1
_chemical_formula_structural   Ta4Be4FeRh
_chemical_formula_sum   'Ta4 Be4 Fe1 Rh1'
_cell_volume   128.32764597
_cell_formula_units_Z   1
loop_
 _symmetry_equiv_pos_site_id
 _symmetry_equiv_pos_as_xyz
  1  'x, y, z'
loop_
 _atom_site_type_symbol
 _atom_site_label
 _atom_site_symmetry_multiplicity
 _atom_site_fract_x
 _atom_site_fract_y
 _atom_site_fract_z
 _atom_site_occupancy
  Ta  Ta0  1  0.680109  0.169393  0.500000  1
  Ta  Ta1  1  0.319891  0.830607  0.500000  1
  Ta  Ta2  1  0.169393  0.319891  0.500000  1
  Ta  Ta3  1  0.830607  0.680109  0.500000  1
  Be  Be4  1  0.122932  0.622867  0.000000  1
  Be  Be5  1  0.877068  0.377133  0.000000  1
  Be  Be6  1  0.622867  0.877068  0.000000  1
  Be  Be7  1  0.377133  0.122932  0.000000  1
  Fe  Fe8  1  0.000000  0.000000  0.000000  1
  Rh  Rh9  1  0.500000  0.500000  0.000000  1
