# generated using pymatgen
data_Er9Lu(PaGa10)2
_symmetry_space_group_name_H-M   'P 1'
_cell_length_a   6.08866935
_cell_length_b   9.59002344
_cell_length_c   11.42348206
_cell_angle_alpha   89.99001987
_cell_angle_beta   90.00600957
_cell_angle_gamma   89.99746050
_symmetry_Int_Tables_number   1
_chemical_formula_structural   Er9Lu(PaGa10)2
_chemical_formula_sum   'Er9 Lu1 Pa2 Ga20'
_cell_volume   667.02260629
_cell_formula_units_Z   1
loop_
 _symmetry_equiv_pos_site_id
 _symmetry_equiv_pos_as_xyz
  1  'x, y, z'
loop_
 _atom_site_type_symbol
 _atom_site_label
 _atom_site_symmetry_multiplicity
 _atom_site_fract_x
 _atom_site_fract_y
 _atom_site_fract_z
 _atom_site_occupancy
  Er  Er0  1  0.649348  0.750744  0.573593  1
  Er  Er1  1  0.147772  0.247739  0.925950  1
  Er  Er2  1  0.352132  0.252256  0.425981  1
  Er  Er3  1  0.111680  0.009480  0.648579  1
  Er  Er4  1  0.388401  0.490619  0.148570  1
  Er  Er5  1  0.111018  0.489852  0.648640  1
  Er  Er6  1  0.389160  0.010141  0.148624  1
  Er  Er7  1  0.889907  0.990713  0.351641  1
  Er  Er8  1  0.610198  0.509379  0.851840  1
  Lu  Lu9  1  0.850296  0.749240  0.073669  1
  Pa  Pa10  1  0.887487  0.511068  0.353337  1
  Pa  Pa11  1  0.612554  0.988862  0.853727  1
  Ga  Ga12  1  0.871783  0.052681  0.090816  1
  Ga  Ga13  1  0.628293  0.446840  0.590921  1
  Ga  Ga14  1  0.127225  0.551294  0.907840  1
  Ga  Ga15  1  0.372593  0.948770  0.407681  1
  Ga  Ga16  1  0.123630  0.946678  0.908969  1
  Ga  Ga17  1  0.376217  0.553222  0.408804  1
  Ga  Ga18  1  0.872567  0.447423  0.090886  1
  Ga  Ga19  1  0.627570  0.053095  0.591007  1
  Ga  Ga20  1  0.172042  0.750264  0.253030  1
  Ga  Ga21  1  0.327339  0.749713  0.753481  1
  Ga  Ga22  1  0.825748  0.249541  0.746752  1
  Ga  Ga23  1  0.674218  0.250415  0.246754  1
  Ga  Ga24  1  0.376277  0.750664  0.003613  1
  Ga  Ga25  1  0.124280  0.749336  0.503490  1
  Ga  Ga26  1  0.623677  0.249177  0.994686  1
  Ga  Ga27  1  0.876411  0.250840  0.494662  1
  Ga  Ga28  1  0.604352  0.750747  0.298722  1
  Ga  Ga29  1  0.895911  0.749223  0.799303  1
  Ga  Ga30  1  0.398302  0.247977  0.702228  1
  Ga  Ga31  1  0.101613  0.252009  0.202207  1
