# generated using pymatgen
data_Nd4Sn11Hg
_symmetry_space_group_name_H-M   'P 1'
_cell_length_a   9.69041100
_cell_length_b   6.69315060
_cell_length_c   6.68651654
_cell_angle_alpha   89.90979378
_cell_angle_beta   90.00000000
_cell_angle_gamma   90.00000000
_symmetry_Int_Tables_number   1
_chemical_formula_structural   Nd4Sn11Hg
_chemical_formula_sum   'Nd4 Sn11 Hg1'
_cell_volume   433.68278110
_cell_formula_units_Z   1
loop_
 _symmetry_equiv_pos_site_id
 _symmetry_equiv_pos_as_xyz
  1  'x, y, z'
loop_
 _atom_site_type_symbol
 _atom_site_label
 _atom_site_symmetry_multiplicity
 _atom_site_fract_x
 _atom_site_fract_y
 _atom_site_fract_z
 _atom_site_occupancy
  Nd  Nd0  1  0.250000  0.003866  0.001227  1
  Nd  Nd1  1  0.250000  0.497756  0.502419  1
  Nd  Nd2  1  0.750000  0.997608  0.999301  1
  Nd  Nd3  1  0.750000  0.502868  0.498763  1
  Sn  Sn4  1  0.997737  0.246873  0.746952  1
  Sn  Sn5  1  0.502825  0.253196  0.247340  1
  Sn  Sn6  1  0.500677  0.751491  0.251374  1
  Sn  Sn7  1  0.998543  0.746891  0.753302  1
  Sn  Sn8  1  0.999323  0.751491  0.251374  1
  Sn  Sn9  1  0.501457  0.746891  0.753302  1
  Sn  Sn10  1  0.502263  0.246873  0.746952  1
  Sn  Sn11  1  0.997175  0.253196  0.247340  1
  Sn  Sn12  1  0.250000  0.998265  0.501319  1
  Sn  Sn13  1  0.250000  0.503824  0.002364  1
  Sn  Sn14  1  0.750000  0.002498  0.499072  1
  Hg  Hg15  1  0.750000  0.496411  0.997601  1
