# generated using pymatgen
data_Tb4Bi4Sb2Rh7
_symmetry_space_group_name_H-M   'P 1'
_cell_length_a   7.77684833
_cell_length_b   7.74956390
_cell_length_c   7.74956330
_cell_angle_alpha   110.12284344
_cell_angle_beta   109.07661269
_cell_angle_gamma   109.07661710
_symmetry_Int_Tables_number   1
_chemical_formula_structural   Tb4Bi4Sb2Rh7
_chemical_formula_sum   'Tb4 Bi4 Sb2 Rh7'
_cell_volume   360.10998414
_cell_formula_units_Z   1
loop_
 _symmetry_equiv_pos_site_id
 _symmetry_equiv_pos_as_xyz
  1  'x, y, z'
loop_
 _atom_site_type_symbol
 _atom_site_label
 _atom_site_symmetry_multiplicity
 _atom_site_fract_x
 _atom_site_fract_y
 _atom_site_fract_z
 _atom_site_occupancy
  Tb  Tb0  1  0.472227  0.003421  0.003421  1
  Tb  Tb1  1  0.004508  0.502254  0.002254  1
  Tb  Tb2  1  0.004508  0.002254  0.502254  1
  Tb  Tb3  1  0.472227  0.468806  0.468806  1
  Bi  Bi4  1  0.983652  0.305212  0.305212  1
  Bi  Bi5  1  0.690180  0.992827  0.697353  1
  Bi  Bi6  1  0.690180  0.697353  0.992827  1
  Bi  Bi7  1  0.983652  0.678439  0.678439  1
  Sb  Sb8  1  0.325880  0.992091  0.333789  1
  Sb  Sb9  1  0.325880  0.333789  0.992091  1
  Rh  Rh10  1  0.086110  0.043055  0.043055  1
  Rh  Rh11  1  0.496702  0.748351  0.248351  1
  Rh  Rh12  1  0.739235  0.498564  0.240670  1
  Rh  Rh13  1  0.244562  0.745771  0.498791  1
  Rh  Rh14  1  0.244562  0.498791  0.745771  1
  Rh  Rh15  1  0.496702  0.248351  0.748351  1
  Rh  Rh16  1  0.739235  0.240670  0.498564  1
