# generated using pymatgen
data_Nb6Re5Si6Ru
_symmetry_space_group_name_H-M   'P 1'
_cell_length_a   7.58192155
_cell_length_b   7.55056183
_cell_length_c   7.56867333
_cell_angle_alpha   127.32457116
_cell_angle_beta   124.26206129
_cell_angle_gamma   80.30874606
_symmetry_Int_Tables_number   1
_chemical_formula_structural   Nb6Re5Si6Ru
_chemical_formula_sum   'Nb6 Re5 Si6 Ru1'
_cell_volume   274.72290248
_cell_formula_units_Z   1
loop_
 _symmetry_equiv_pos_site_id
 _symmetry_equiv_pos_as_xyz
  1  'x, y, z'
loop_
 _atom_site_type_symbol
 _atom_site_label
 _atom_site_symmetry_multiplicity
 _atom_site_fract_x
 _atom_site_fract_y
 _atom_site_fract_z
 _atom_site_occupancy
  Nb  Nb0  1  0.557434  0.090834  0.034508  1
  Nb  Nb1  1  0.450163  0.492948  0.546083  1
  Nb  Nb2  1  0.957881  0.496766  0.032655  1
  Nb  Nb3  1  0.035035  0.067132  0.533196  1
  Nb  Nb4  1  0.758337  0.917195  0.667861  1
  Nb  Nb5  1  0.244297  0.905091  0.155648  1
  Re  Re6  1  0.476833  0.247434  0.723649  1
  Re  Re7  1  0.021239  0.248709  0.266771  1
  Re  Re8  1  0.158231  0.748531  0.651538  1
  Re  Re9  1  0.840265  0.496999  0.589730  1
  Re  Re10  1  0.592294  0.747298  0.087399  1
  Si  Si11  1  0.770524  0.518030  0.244570  1
  Si  Si12  1  0.221701  0.489036  0.771395  1
  Si  Si13  1  0.335220  0.824193  0.492164  1
  Si  Si14  1  0.661338  0.161356  0.489054  1
  Si  Si15  1  0.831296  0.827723  0.994073  1
  Si  Si16  1  0.175139  0.166366  0.001555  1
  Ru  Ru17  1  0.412774  0.496557  0.160350  1
