# generated using pymatgen
data_Y3HoGa17SiIr6
_symmetry_space_group_name_H-M   'P 1'
_cell_length_a   7.58659130
_cell_length_b   7.56701902
_cell_length_c   9.49344800
_cell_angle_alpha   90.06607891
_cell_angle_beta   89.80420772
_cell_angle_gamma   119.90128909
_symmetry_Int_Tables_number   1
_chemical_formula_structural   Y3HoGa17SiIr6
_chemical_formula_sum   'Y3 Ho1 Ga17 Si1 Ir6'
_cell_volume   472.44866086
_cell_formula_units_Z   1
loop_
 _symmetry_equiv_pos_site_id
 _symmetry_equiv_pos_as_xyz
  1  'x, y, z'
loop_
 _atom_site_type_symbol
 _atom_site_label
 _atom_site_symmetry_multiplicity
 _atom_site_fract_x
 _atom_site_fract_y
 _atom_site_fract_z
 _atom_site_occupancy
  Y  Y0  1  0.002703  0.331093  0.751126  1
  Y  Y1  1  0.673986  0.002239  0.248166  1
  Y  Y2  1  0.330523  0.002601  0.749787  1
  Ho  Ho3  1  0.997094  0.664629  0.248072  1
  Ga  Ga4  1  0.129900  0.128897  0.250896  1
  Ga  Ga5  1  0.872709  0.874117  0.750748  1
  Ga  Ga6  1  0.998879  0.671076  0.918017  1
  Ga  Ga7  1  0.000442  0.665884  0.579640  1
  Ga  Ga8  1  0.333505  0.997699  0.419505  1
  Ga  Ga9  1  0.999667  0.334976  0.420611  1
  Ga  Ga10  1  0.665252  0.000215  0.579986  1
  Ga  Ga11  1  0.658362  0.994341  0.917849  1
  Ga  Ga12  1  0.333152  0.997528  0.081500  1
  Ga  Ga13  1  0.332367  0.331670  0.564197  1
  Ga  Ga14  1  0.668909  0.669018  0.435060  1
  Ga  Ga15  1  0.668327  0.669203  0.067275  1
  Ga  Ga16  1  0.338524  0.332591  0.934111  1
  Ga  Ga17  1  0.340987  0.546329  0.251604  1
  Ga  Ga18  1  0.661340  0.452328  0.751167  1
  Ga  Ga19  1  0.547784  0.339909  0.250639  1
  Ga  Ga20  1  0.451788  0.659154  0.750459  1
  Si  Si21  1  0.999793  0.334733  0.072521  1
  Ir  Ir22  1  0.684062  0.329634  0.003631  1
  Ir  Ir23  1  0.312944  0.656255  0.001873  1
  Ir  Ir24  1  0.328042  0.671066  0.500352  1
  Ir  Ir25  1  0.671485  0.328701  0.500061  1
  Ir  Ir26  1  0.998112  0.014245  0.001543  1
  Ir  Ir27  1  0.999362  0.999867  0.499606  1
