# generated using pymatgen
data_Sr8ScMo3O16
_symmetry_space_group_name_H-M   'P 1'
_cell_length_a   5.75854682
_cell_length_b   5.75854750
_cell_length_c   12.74584309
_cell_angle_alpha   90.01889068
_cell_angle_beta   89.98110738
_cell_angle_gamma   89.20698432
_symmetry_Int_Tables_number   1
_chemical_formula_structural   Sr8ScMo3O16
_chemical_formula_sum   'Sr8 Sc1 Mo3 O16'
_cell_volume   422.62265752
_cell_formula_units_Z   1
loop_
 _symmetry_equiv_pos_site_id
 _symmetry_equiv_pos_as_xyz
  1  'x, y, z'
loop_
 _atom_site_type_symbol
 _atom_site_label
 _atom_site_symmetry_multiplicity
 _atom_site_fract_x
 _atom_site_fract_y
 _atom_site_fract_z
 _atom_site_occupancy
  Sr  Sr0  1  0.264988  0.760608  0.102710  1
  Sr  Sr1  1  0.263042  0.236958  0.601400  1
  Sr  Sr2  1  0.738986  0.761014  0.599930  1
  Sr  Sr3  1  0.739392  0.235012  0.102710  1
  Sr  Sr4  1  0.760608  0.264988  0.397290  1
  Sr  Sr5  1  0.761014  0.738986  0.900070  1
  Sr  Sr6  1  0.236958  0.263042  0.898600  1
  Sr  Sr7  1  0.235012  0.739392  0.397290  1
  Sc  Sc8  1  0.750000  0.750000  0.250000  1
  Mo  Mo9  1  0.250000  0.750000  0.750000  1
  Mo  Mo10  1  0.250000  0.250000  0.250000  1
  Mo  Mo11  1  0.750000  0.250000  0.750000  1
  O  O12  1  0.280902  0.219098  0.090874  1
  O  O13  1  0.285178  0.785579  0.586322  1
  O  O14  1  0.498924  0.001076  0.779330  1
  O  O15  1  0.489424  0.010576  0.272727  1
  O  O16  1  0.499051  0.499051  0.750000  1
  O  O17  1  0.495714  0.495714  0.250000  1
  O  O18  1  0.714421  0.214822  0.586322  1
  O  O19  1  0.708480  0.791520  0.086020  1
  O  O20  1  0.785579  0.285178  0.913678  1
  O  O21  1  0.791520  0.708480  0.413980  1
  O  O22  1  0.004286  0.004286  0.250000  1
  O  O23  1  0.010576  0.489424  0.227273  1
  O  O24  1  0.000949  0.000949  0.750000  1
  O  O25  1  0.001076  0.498924  0.720670  1
  O  O26  1  0.214822  0.714421  0.913678  1
  O  O27  1  0.219098  0.280902  0.409126  1
