# generated using pymatgen
data_LuPa2Sb4Pt3
_symmetry_space_group_name_H-M   'P 1'
_cell_length_a   8.43635778
_cell_length_b   8.43635889
_cell_length_c   8.43635818
_cell_angle_alpha   109.81320528
_cell_angle_beta   109.81320981
_cell_angle_gamma   108.78939324
_symmetry_Int_Tables_number   1
_chemical_formula_structural   LuPa2Sb4Pt3
_chemical_formula_sum   'Lu2 Pa4 Sb8 Pt6'
_cell_volume   462.16502819
_cell_formula_units_Z   2
loop_
 _symmetry_equiv_pos_site_id
 _symmetry_equiv_pos_as_xyz
  1  'x, y, z'
loop_
 _atom_site_type_symbol
 _atom_site_label
 _atom_site_symmetry_multiplicity
 _atom_site_fract_x
 _atom_site_fract_y
 _atom_site_fract_z
 _atom_site_occupancy
  Lu  Lu0  1  0.125000  0.875000  0.250000  1
  Lu  Lu1  1  0.375000  0.625000  0.750000  1
  Pa  Pa2  1  0.875902  0.250000  0.125902  1
  Pa  Pa3  1  0.624098  0.750000  0.374098  1
  Pa  Pa4  1  0.250000  0.124098  0.874098  1
  Pa  Pa5  1  0.750000  0.375902  0.625902  1
  Sb  Sb6  1  0.676047  0.501215  0.998260  1
  Sb  Sb7  1  0.497045  0.998785  0.674831  1
  Sb  Sb8  1  0.002955  0.677786  0.501740  1
  Sb  Sb9  1  0.823953  0.822214  0.825169  1
  Sb  Sb10  1  0.498785  0.997045  0.174831  1
  Sb  Sb11  1  0.177786  0.502955  0.001740  1
  Sb  Sb12  1  0.001215  0.176047  0.498260  1
  Sb  Sb13  1  0.322214  0.323953  0.325169  1
  Pt  Pt14  1  0.374831  0.250000  0.624831  1
  Pt  Pt15  1  0.125169  0.750000  0.875169  1
  Pt  Pt16  1  0.250000  0.625169  0.375169  1
  Pt  Pt17  1  0.750000  0.874831  0.124831  1
  Pt  Pt18  1  0.625000  0.375000  0.250000  1
  Pt  Pt19  1  0.875000  0.125000  0.750000  1
