# generated using pymatgen
data_BaEr(ZnSn)2
_symmetry_space_group_name_H-M   'P 1'
_cell_length_a   4.55896000
_cell_length_b   4.55896021
_cell_length_c   18.32834500
_cell_angle_alpha   90.00000000
_cell_angle_beta   90.00000000
_cell_angle_gamma   119.99998393
_symmetry_Int_Tables_number   1
_chemical_formula_structural   BaEr(ZnSn)2
_chemical_formula_sum   'Ba2 Er2 Zn4 Sn4'
_cell_volume   329.90244716
_cell_formula_units_Z   2
loop_
 _symmetry_equiv_pos_site_id
 _symmetry_equiv_pos_as_xyz
  1  'x, y, z'
loop_
 _atom_site_type_symbol
 _atom_site_label
 _atom_site_symmetry_multiplicity
 _atom_site_fract_x
 _atom_site_fract_y
 _atom_site_fract_z
 _atom_site_occupancy
  Ba  Ba0  1  0.000000  0.000000  0.000000  1
  Ba  Ba1  1  0.000000  0.000000  0.500000  1
  Er  Er2  1  0.000000  0.000000  0.250000  1
  Er  Er3  1  0.000000  0.000000  0.750000  1
  Zn  Zn4  1  0.333333  0.666667  0.169848  1
  Zn  Zn5  1  0.666667  0.333333  0.830152  1
  Zn  Zn6  1  0.666667  0.333333  0.669848  1
  Zn  Zn7  1  0.333333  0.666667  0.330152  1
  Sn  Sn8  1  0.333333  0.666667  0.633795  1
  Sn  Sn9  1  0.666667  0.333333  0.366205  1
  Sn  Sn10  1  0.666667  0.333333  0.133795  1
  Sn  Sn11  1  0.333333  0.666667  0.866205  1
