# generated using pymatgen
data_Nd8CdInCo2
_symmetry_space_group_name_H-M   'P 1'
_cell_length_a   9.81324502
_cell_length_b   9.81324469
_cell_length_c   9.82363000
_cell_angle_alpha   59.96499243
_cell_angle_beta   59.96499355
_cell_angle_gamma   59.94496284
_symmetry_Int_Tables_number   1
_chemical_formula_structural   Nd8CdInCo2
_chemical_formula_sum   'Nd16 Cd2 In2 Co4'
_cell_volume   668.30004688
_cell_formula_units_Z   2
loop_
 _symmetry_equiv_pos_site_id
 _symmetry_equiv_pos_as_xyz
  1  'x, y, z'
loop_
 _atom_site_type_symbol
 _atom_site_label
 _atom_site_symmetry_multiplicity
 _atom_site_fract_x
 _atom_site_fract_y
 _atom_site_fract_z
 _atom_site_occupancy
  Nd  Nd0  1  0.346923  0.346923  0.345387  1
  Nd  Nd1  1  0.346923  0.346923  0.960765  1
  Nd  Nd2  1  0.349485  0.956842  0.346836  1
  Nd  Nd3  1  0.956842  0.349485  0.346836  1
  Nd  Nd4  1  0.810611  0.189069  0.189798  1
  Nd  Nd5  1  0.189069  0.810611  0.810521  1
  Nd  Nd6  1  0.189069  0.810611  0.189798  1
  Nd  Nd7  1  0.810611  0.189069  0.810521  1
  Nd  Nd8  1  0.187727  0.187727  0.812273  1
  Nd  Nd9  1  0.809160  0.809160  0.190840  1
  Nd  Nd10  1  0.941262  0.561240  0.560936  1
  Nd  Nd11  1  0.561240  0.941262  0.936563  1
  Nd  Nd12  1  0.561240  0.941262  0.560936  1
  Nd  Nd13  1  0.941262  0.561240  0.936563  1
  Nd  Nd14  1  0.561472  0.561472  0.938528  1
  Nd  Nd15  1  0.940170  0.940170  0.559830  1
  Cd  Cd16  1  0.578438  0.259507  0.581029  1
  Cd  Cd17  1  0.259507  0.578438  0.581029  1
  In  In18  1  0.579809  0.579809  0.581900  1
  In  In19  1  0.579809  0.579809  0.258481  1
  Co  Co20  1  0.140807  0.140807  0.141461  1
  Co  Co21  1  0.140807  0.140807  0.576927  1
  Co  Co22  1  0.140895  0.576864  0.141121  1
  Co  Co23  1  0.576864  0.140895  0.141121  1
