# generated using pymatgen
data_CsMgTiF6
_symmetry_space_group_name_H-M   'P 1'
_cell_length_a   7.49330822
_cell_length_b   7.49330768
_cell_length_c   7.49330735
_cell_angle_alpha   120.95920965
_cell_angle_beta   118.92422304
_cell_angle_gamma   90.11000164
_symmetry_Int_Tables_number   1
_chemical_formula_structural   CsMgTiF6
_chemical_formula_sum   'Cs2 Mg2 Ti2 F12'
_cell_volume   297.65721381
_cell_formula_units_Z   2
loop_
 _symmetry_equiv_pos_site_id
 _symmetry_equiv_pos_as_xyz
  1  'x, y, z'
loop_
 _atom_site_type_symbol
 _atom_site_label
 _atom_site_symmetry_multiplicity
 _atom_site_fract_x
 _atom_site_fract_y
 _atom_site_fract_z
 _atom_site_occupancy
  Cs  Cs0  1  0.363359  0.613359  0.750000  1
  Cs  Cs1  1  0.636641  0.386641  0.250000  1
  Mg  Mg2  1  0.000000  0.000000  0.500000  1
  Mg  Mg3  1  0.000000  0.500000  0.000000  1
  Ti  Ti4  1  0.000000  0.000000  0.000000  1
  Ti  Ti5  1  0.500000  0.000000  0.500000  1
  F  F6  1  0.307054  0.057054  0.250000  1
  F  F7  1  0.934696  0.684696  0.250000  1
  F  F8  1  0.321110  0.684716  0.253112  1
  F  F9  1  0.931604  0.067998  0.246888  1
  F  F10  1  0.321110  0.067998  0.636394  1
  F  F11  1  0.931604  0.684716  0.863606  1
  F  F12  1  0.692946  0.942946  0.750000  1
  F  F13  1  0.065304  0.315304  0.750000  1
  F  F14  1  0.678890  0.315284  0.746888  1
  F  F15  1  0.068396  0.932002  0.753112  1
  F  F16  1  0.678890  0.932002  0.363606  1
  F  F17  1  0.068396  0.315284  0.136394  1
