# generated using pymatgen
data_Tb7Y13Co3Bi8Ru
_symmetry_space_group_name_H-M   'P 1'
_cell_length_a   8.07100786
_cell_length_b   8.92375412
_cell_length_c   12.48479697
_cell_angle_alpha   89.98237405
_cell_angle_beta   90.08609530
_cell_angle_gamma   89.99314976
_symmetry_Int_Tables_number   1
_chemical_formula_structural   Tb7Y13Co3Bi8Ru
_chemical_formula_sum   'Tb7 Y13 Co3 Bi8 Ru1'
_cell_volume   899.20007797
_cell_formula_units_Z   1
loop_
 _symmetry_equiv_pos_site_id
 _symmetry_equiv_pos_as_xyz
  1  'x, y, z'
loop_
 _atom_site_type_symbol
 _atom_site_label
 _atom_site_symmetry_multiplicity
 _atom_site_fract_x
 _atom_site_fract_y
 _atom_site_fract_z
 _atom_site_occupancy
  Tb  Tb0  1  0.324980  0.966482  0.437368  1
  Tb  Tb1  1  0.175586  0.966456  0.937236  1
  Tb  Tb2  1  0.324501  0.533040  0.437077  1
  Tb  Tb3  1  0.823229  0.035423  0.062792  1
  Tb  Tb4  1  0.677873  0.458314  0.564417  1
  Tb  Tb5  1  0.823160  0.464680  0.062718  1
  Tb  Tb6  1  0.175664  0.533553  0.937315  1
  Y  Y7  1  0.847138  0.749984  0.799774  1
  Y  Y8  1  0.152027  0.250033  0.198907  1
  Y  Y9  1  0.347323  0.250062  0.700041  1
  Y  Y10  1  0.653626  0.749964  0.295477  1
  Y  Y11  1  0.377860  0.750043  0.694845  1
  Y  Y12  1  0.619758  0.249775  0.308066  1
  Y  Y13  1  0.879975  0.250168  0.809067  1
  Y  Y14  1  0.119479  0.750043  0.189820  1
  Y  Y15  1  0.950451  0.749626  0.502978  1
  Y  Y16  1  0.048351  0.250378  0.497046  1
  Y  Y17  1  0.454104  0.249986  0.997736  1
  Y  Y18  1  0.546127  0.750051  0.001930  1
  Y  Y19  1  0.678258  0.042376  0.565049  1
  Co  Co20  1  0.434332  0.250294  0.490027  1
  Co  Co21  1  0.059391  0.250030  0.991553  1
  Co  Co22  1  0.939026  0.750000  0.007933  1
  Bi  Bi23  1  0.571749  0.491750  0.826735  1
  Bi  Bi24  1  0.427585  0.507899  0.173442  1
  Bi  Bi25  1  0.071957  0.507886  0.674155  1
  Bi  Bi26  1  0.427542  0.992089  0.173483  1
  Bi  Bi27  1  0.929022  0.491961  0.325948  1
  Bi  Bi28  1  0.571793  0.008395  0.826610  1
  Bi  Bi29  1  0.929126  0.008046  0.326310  1
  Bi  Bi30  1  0.071389  0.992261  0.673784  1
  Ru  Ru31  1  0.567617  0.748954  0.510364  1
