# generated using pymatgen
data_Dy4HoOs2
_symmetry_space_group_name_H-M   'P 1'
_cell_length_a   6.37149912
_cell_length_b   7.34580848
_cell_length_c   8.43717727
_cell_angle_alpha   96.84872819
_cell_angle_beta   112.18416217
_cell_angle_gamma   89.99999889
_symmetry_Int_Tables_number   1
_chemical_formula_structural   Dy4HoOs2
_chemical_formula_sum   'Dy8 Ho2 Os4'
_cell_volume   362.61532095
_cell_formula_units_Z   2
loop_
 _symmetry_equiv_pos_site_id
 _symmetry_equiv_pos_as_xyz
  1  'x, y, z'
loop_
 _atom_site_type_symbol
 _atom_site_label
 _atom_site_symmetry_multiplicity
 _atom_site_fract_x
 _atom_site_fract_y
 _atom_site_fract_z
 _atom_site_occupancy
  Dy  Dy0  1  0.976641  0.916272  0.183561  1
  Dy  Dy1  1  0.793080  0.583728  0.816439  1
  Dy  Dy2  1  0.023359  0.083728  0.816439  1
  Dy  Dy3  1  0.206920  0.416272  0.183561  1
  Dy  Dy4  1  0.639268  0.816337  0.435047  1
  Dy  Dy5  1  0.204221  0.683663  0.564953  1
  Dy  Dy6  1  0.360732  0.183663  0.564953  1
  Dy  Dy7  1  0.795779  0.316337  0.435047  1
  Ho  Ho8  1  0.422064  0.750000  0.000000  1
  Ho  Ho9  1  0.577936  0.250000  0.000000  1
  Os  Os10  1  0.822148  0.577094  0.218854  1
  Os  Os11  1  0.603294  0.922906  0.781146  1
  Os  Os12  1  0.177852  0.422906  0.781146  1
  Os  Os13  1  0.396706  0.077094  0.218854  1
