# generated using pymatgen
data_Sc6In2PtAu3
_symmetry_space_group_name_H-M   'P 1'
_cell_length_a   4.70803900
_cell_length_b   6.11834564
_cell_length_c   8.58596071
_cell_angle_alpha   88.53758903
_cell_angle_beta   90.00000000
_cell_angle_gamma   90.00000000
_symmetry_Int_Tables_number   1
_chemical_formula_structural   Sc6In2PtAu3
_chemical_formula_sum   'Sc6 In2 Pt1 Au3'
_cell_volume   247.24156045
_cell_formula_units_Z   1
loop_
 _symmetry_equiv_pos_site_id
 _symmetry_equiv_pos_as_xyz
  1  'x, y, z'
loop_
 _atom_site_type_symbol
 _atom_site_label
 _atom_site_symmetry_multiplicity
 _atom_site_fract_x
 _atom_site_fract_y
 _atom_site_fract_z
 _atom_site_occupancy
  Sc  Sc0  1  0.250000  0.472960  0.217612  1
  Sc  Sc1  1  0.750000  0.521629  0.787439  1
  Sc  Sc2  1  0.750000  0.700957  0.428920  1
  Sc  Sc3  1  0.250000  0.287172  0.565080  1
  Sc  Sc4  1  0.750000  0.165956  0.082395  1
  Sc  Sc5  1  0.250000  0.834693  0.923016  1
  In  In6  1  0.250000  0.973466  0.286368  1
  In  In7  1  0.750000  0.029600  0.712301  1
  Pt  Pt8  1  0.750000  0.265021  0.388916  1
  Au  Au9  1  0.250000  0.284668  0.906013  1
  Au  Au10  1  0.750000  0.716801  0.093535  1
  Au  Au11  1  0.250000  0.747076  0.608405  1
