# generated using pymatgen
data_Dy8Ga(CuPd11)2
_symmetry_space_group_name_H-M   'P 1'
_cell_length_a   8.20550600
_cell_length_b   8.31525000
_cell_length_c   8.37197900
_cell_angle_alpha   90.00000000
_cell_angle_beta   90.00000000
_cell_angle_gamma   90.00000000
_symmetry_Int_Tables_number   1
_chemical_formula_structural   Dy8Ga(CuPd11)2
_chemical_formula_sum   'Dy8 Ga1 Cu2 Pd22'
_cell_volume   571.22710745
_cell_formula_units_Z   1
loop_
 _symmetry_equiv_pos_site_id
 _symmetry_equiv_pos_as_xyz
  1  'x, y, z'
loop_
 _atom_site_type_symbol
 _atom_site_label
 _atom_site_symmetry_multiplicity
 _atom_site_fract_x
 _atom_site_fract_y
 _atom_site_fract_z
 _atom_site_occupancy
  Dy  Dy0  1  0.252215  0.250310  0.255137  1
  Dy  Dy1  1  0.747785  0.749690  0.744863  1
  Dy  Dy2  1  0.747785  0.749690  0.255137  1
  Dy  Dy3  1  0.747785  0.250310  0.744863  1
  Dy  Dy4  1  0.252215  0.250310  0.744863  1
  Dy  Dy5  1  0.252215  0.749690  0.255137  1
  Dy  Dy6  1  0.252215  0.749690  0.744863  1
  Dy  Dy7  1  0.747785  0.250310  0.255137  1
  Ga  Ga8  1  0.000000  0.000000  0.000000  1
  Cu  Cu9  1  0.262532  0.500000  0.000000  1
  Cu  Cu10  1  0.737468  0.500000  0.000000  1
  Pd  Pd11  1  0.000000  0.258988  0.500000  1
  Pd  Pd12  1  0.500000  0.266895  0.000000  1
  Pd  Pd13  1  0.000000  0.741012  0.500000  1
  Pd  Pd14  1  0.500000  0.733105  0.000000  1
  Pd  Pd15  1  0.500000  0.000000  0.259419  1
  Pd  Pd16  1  0.259071  0.000000  0.500000  1
  Pd  Pd17  1  0.500000  0.000000  0.740581  1
  Pd  Pd18  1  0.740929  0.000000  0.500000  1
  Pd  Pd19  1  0.000000  0.500000  0.259241  1
  Pd  Pd20  1  0.000000  0.500000  0.740759  1
  Pd  Pd21  1  0.253349  0.500000  0.500000  1
  Pd  Pd22  1  0.746651  0.500000  0.500000  1
  Pd  Pd23  1  0.500000  0.253854  0.500000  1
  Pd  Pd24  1  0.500000  0.746146  0.500000  1
  Pd  Pd25  1  0.500000  0.500000  0.248817  1
  Pd  Pd26  1  0.500000  0.500000  0.751183  1
  Pd  Pd27  1  0.293128  0.000000  0.000000  1
  Pd  Pd28  1  0.706872  0.000000  0.000000  1
  Pd  Pd29  1  0.000000  0.296498  0.000000  1
  Pd  Pd30  1  0.000000  0.703502  0.000000  1
  Pd  Pd31  1  0.000000  0.000000  0.288102  1
  Pd  Pd32  1  0.000000  0.000000  0.711898  1
