# generated using pymatgen
data_Ho10Tm2Ir3Os
_symmetry_space_group_name_H-M   'P 1'
_cell_length_a   6.40297060
_cell_length_b   7.26907729
_cell_length_c   9.04038518
_cell_angle_alpha   90.01809207
_cell_angle_beta   90.18804431
_cell_angle_gamma   90.02668221
_symmetry_Int_Tables_number   1
_chemical_formula_structural   Ho10Tm2Ir3Os
_chemical_formula_sum   'Ho10 Tm2 Ir3 Os1'
_cell_volume   420.77053553
_cell_formula_units_Z   1
loop_
 _symmetry_equiv_pos_site_id
 _symmetry_equiv_pos_as_xyz
  1  'x, y, z'
loop_
 _atom_site_type_symbol
 _atom_site_label
 _atom_site_symmetry_multiplicity
 _atom_site_fract_x
 _atom_site_fract_y
 _atom_site_fract_z
 _atom_site_occupancy
  Ho  Ho0  1  0.324554  0.679148  0.064198  1
  Ho  Ho1  1  0.172896  0.175904  0.436000  1
  Ho  Ho2  1  0.672374  0.322253  0.561911  1
  Ho  Ho3  1  0.830525  0.822858  0.940253  1
  Ho  Ho4  1  0.671975  0.322878  0.938253  1
  Ho  Ho5  1  0.830965  0.823250  0.559661  1
  Ho  Ho6  1  0.874143  0.534705  0.250648  1
  Ho  Ho7  1  0.625588  0.035059  0.249351  1
  Ho  Ho8  1  0.129324  0.464863  0.749663  1
  Ho  Ho9  1  0.372486  0.964105  0.750278  1
  Tm  Tm10  1  0.326469  0.678333  0.435852  1
  Tm  Tm11  1  0.170859  0.175211  0.063757  1
  Ir  Ir12  1  0.459631  0.385848  0.249956  1
  Ir  Ir13  1  0.960238  0.115619  0.752295  1
  Ir  Ir14  1  0.541215  0.614757  0.747593  1
  Os  Os15  1  0.036756  0.885209  0.250331  1
