# generated using pymatgen
data_Y2Al6Si3IrOs2
_symmetry_space_group_name_H-M   'P 1'
_cell_length_a   7.49270595
_cell_length_b   7.46397785
_cell_length_c   9.35365534
_cell_angle_alpha   90.04221216
_cell_angle_beta   90.00226050
_cell_angle_gamma   119.83169315
_symmetry_Int_Tables_number   1
_chemical_formula_structural   Y2Al6Si3IrOs2
_chemical_formula_sum   'Y4 Al12 Si6 Ir2 Os4'
_cell_volume   453.78999420
_cell_formula_units_Z   2
loop_
 _symmetry_equiv_pos_site_id
 _symmetry_equiv_pos_as_xyz
  1  'x, y, z'
loop_
 _atom_site_type_symbol
 _atom_site_label
 _atom_site_symmetry_multiplicity
 _atom_site_fract_x
 _atom_site_fract_y
 _atom_site_fract_z
 _atom_site_occupancy
  Y  Y0  1  0.999824  0.675097  0.250626  1
  Y  Y1  1  0.006167  0.335442  0.753554  1
  Y  Y2  1  0.673968  0.999152  0.249182  1
  Y  Y3  1  0.314275  0.992383  0.746946  1
  Al  Al4  1  0.003161  0.329664  0.426631  1
  Al  Al5  1  0.669658  0.998863  0.576841  1
  Al  Al6  1  0.660161  0.994960  0.923349  1
  Al  Al7  1  0.341080  0.006598  0.072241  1
  Al  Al8  1  0.334889  0.336069  0.560200  1
  Al  Al9  1  0.662843  0.666045  0.439945  1
  Al  Al10  1  0.661334  0.665135  0.056979  1
  Al  Al11  1  0.339160  0.334818  0.942579  1
  Al  Al12  1  0.333691  0.546513  0.248678  1
  Al  Al13  1  0.666028  0.452610  0.752034  1
  Al  Al14  1  0.548571  0.339280  0.248968  1
  Al  Al15  1  0.453505  0.662580  0.750001  1
  Si  Si16  1  0.128785  0.128083  0.250292  1
  Si  Si17  1  0.868420  0.874920  0.749481  1
  Si  Si18  1  0.003858  0.332066  0.073280  1
  Si  Si19  1  0.995863  0.666599  0.934394  1
  Si  Si20  1  0.991205  0.659201  0.569832  1
  Si  Si21  1  0.340493  0.007669  0.424638  1
  Ir  Ir22  1  0.320506  0.678640  0.499372  1
  Ir  Ir23  1  0.672229  0.328195  0.500094  1
  Os  Os24  1  0.688502  0.336209  0.002323  1
  Os  Os25  1  0.311671  0.663680  0.997940  1
  Os  Os26  1  0.001131  0.998909  0.999876  1
  Os  Os27  1  0.009020  0.990621  0.499723  1
