# generated using pymatgen
data_K(RhS2)4
_symmetry_space_group_name_H-M   'P 1'
_cell_length_a   3.62190055
_cell_length_b   7.87748509
_cell_length_c   9.01217315
_cell_angle_alpha   80.53785547
_cell_angle_beta   78.40777740
_cell_angle_gamma   76.70942934
_symmetry_Int_Tables_number   1
_chemical_formula_structural   K(RhS2)4
_chemical_formula_sum   'K1 Rh4 S8'
_cell_volume   243.24798836
_cell_formula_units_Z   1
loop_
 _symmetry_equiv_pos_site_id
 _symmetry_equiv_pos_as_xyz
  1  'x, y, z'
loop_
 _atom_site_type_symbol
 _atom_site_label
 _atom_site_symmetry_multiplicity
 _atom_site_fract_x
 _atom_site_fract_y
 _atom_site_fract_z
 _atom_site_occupancy
  K  K0  1  0.499619  0.000247  0.000513  1
  Rh  Rh1  1  0.631890  0.199764  0.536457  1
  Rh  Rh2  1  0.841099  0.498107  0.819693  1
  Rh  Rh3  1  0.159141  0.501568  0.180150  1
  Rh  Rh4  1  0.367997  0.800395  0.463610  1
  S  S5  1  0.456966  0.321987  0.764081  1
  S  S6  1  0.543195  0.677832  0.235776  1
  S  S7  1  0.903533  0.626645  0.566288  1
  S  S8  1  0.096353  0.373551  0.433742  1
  S  S9  1  0.212349  0.654557  0.920746  1
  S  S10  1  0.787930  0.345066  0.079074  1
  S  S11  1  0.827495  0.988488  0.356523  1
  S  S12  1  0.172432  0.011791  0.643345  1
