# generated using pymatgen
data_Ca2PrGa9Ag2
_symmetry_space_group_name_H-M   'P 1'
_cell_length_a   8.40839204
_cell_length_b   8.40839115
_cell_length_c   8.40839143
_cell_angle_alpha   149.14049579
_cell_angle_beta   110.55510288
_cell_angle_gamma   77.90485834
_symmetry_Int_Tables_number   1
_chemical_formula_structural   Ca2PrGa9Ag2
_chemical_formula_sum   'Ca2 Pr1 Ga9 Ag2'
_cell_volume   280.24542038
_cell_formula_units_Z   1
loop_
 _symmetry_equiv_pos_site_id
 _symmetry_equiv_pos_as_xyz
  1  'x, y, z'
loop_
 _atom_site_type_symbol
 _atom_site_label
 _atom_site_symmetry_multiplicity
 _atom_site_fract_x
 _atom_site_fract_y
 _atom_site_fract_z
 _atom_site_occupancy
  Ca  Ca0  1  0.301390  0.301390  0.000000  1
  Ca  Ca1  1  0.698610  0.698610  0.000000  1
  Pr  Pr2  1  0.000000  0.000000  0.000000  1
  Ga  Ga3  1  0.706549  0.339815  0.366734  1
  Ga  Ga4  1  0.293451  0.660185  0.633266  1
  Ga  Ga5  1  0.973080  0.339815  0.633266  1
  Ga  Ga6  1  0.026920  0.660185  0.366734  1
  Ga  Ga7  1  0.426864  0.146548  0.280314  1
  Ga  Ga8  1  0.573136  0.853452  0.719686  1
  Ga  Ga9  1  0.866234  0.146548  0.719686  1
  Ga  Ga10  1  0.133766  0.853452  0.280314  1
  Ga  Ga11  1  0.500000  0.000000  0.500000  1
  Ag  Ag12  1  0.691504  0.500000  0.191504  1
  Ag  Ag13  1  0.308496  0.500000  0.808496  1
