# generated using pymatgen
data_YbErNi7
_symmetry_space_group_name_H-M   'P 1'
_cell_length_a   4.88494463
_cell_length_b   4.88494378
_cell_length_c   12.34873881
_cell_angle_alpha   78.59217140
_cell_angle_beta   78.59217466
_cell_angle_gamma   59.99998547
_symmetry_Int_Tables_number   1
_chemical_formula_structural   YbErNi7
_chemical_formula_sum   'Yb2 Er2 Ni14'
_cell_volume   248.45027691
_cell_formula_units_Z   2
loop_
 _symmetry_equiv_pos_site_id
 _symmetry_equiv_pos_as_xyz
  1  'x, y, z'
loop_
 _atom_site_type_symbol
 _atom_site_label
 _atom_site_symmetry_multiplicity
 _atom_site_fract_x
 _atom_site_fract_y
 _atom_site_fract_z
 _atom_site_occupancy
  Yb  Yb0  1  0.851006  0.851006  0.446981  1
  Yb  Yb1  1  0.148994  0.148994  0.553019  1
  Er  Er2  1  0.947872  0.947872  0.156385  1
  Er  Er3  1  0.052128  0.052128  0.843615  1
  Ni  Ni4  1  0.500000  0.500000  0.500000  1
  Ni  Ni5  1  0.722125  0.722125  0.833625  1
  Ni  Ni6  1  0.277875  0.277875  0.166375  1
  Ni  Ni7  1  0.611488  0.611488  0.165536  1
  Ni  Ni8  1  0.388512  0.388512  0.834464  1
  Ni  Ni9  1  0.000000  0.500000  0.000000  1
  Ni  Ni10  1  0.500000  0.000000  0.000000  1
  Ni  Ni11  1  0.500000  0.500000  0.000000  1
  Ni  Ni12  1  0.389160  0.389160  0.330919  1
  Ni  Ni13  1  0.890761  0.389160  0.330919  1
  Ni  Ni14  1  0.389160  0.890761  0.330919  1
  Ni  Ni15  1  0.610840  0.610840  0.669081  1
  Ni  Ni16  1  0.109239  0.610840  0.669081  1
  Ni  Ni17  1  0.610840  0.109239  0.669081  1
