# generated using pymatgen
data_LaNdZn5Ge
_symmetry_space_group_name_H-M   'P 1'
_cell_length_a   8.43709244
_cell_length_b   8.43709285
_cell_length_c   8.94163800
_cell_angle_alpha   90.00000000
_cell_angle_beta   90.00000000
_cell_angle_gamma   149.29675786
_symmetry_Int_Tables_number   1
_chemical_formula_structural   LaNdZn5Ge
_chemical_formula_sum   'La2 Nd2 Zn10 Ge2'
_cell_volume   324.99476229
_cell_formula_units_Z   2
loop_
 _symmetry_equiv_pos_site_id
 _symmetry_equiv_pos_as_xyz
  1  'x, y, z'
loop_
 _atom_site_type_symbol
 _atom_site_label
 _atom_site_symmetry_multiplicity
 _atom_site_fract_x
 _atom_site_fract_y
 _atom_site_fract_z
 _atom_site_occupancy
  La  La0  1  0.000000  0.000000  0.500000  1
  La  La1  1  0.000000  0.000000  0.000000  1
  Nd  Nd2  1  0.202988  0.797012  0.250000  1
  Nd  Nd3  1  0.797012  0.202988  0.750000  1
  Zn  Zn4  1  0.813293  0.186707  0.391722  1
  Zn  Zn5  1  0.186707  0.813293  0.608278  1
  Zn  Zn6  1  0.813293  0.186707  0.108278  1
  Zn  Zn7  1  0.186707  0.813293  0.891722  1
  Zn  Zn8  1  0.653718  0.346282  0.478825  1
  Zn  Zn9  1  0.346282  0.653718  0.521175  1
  Zn  Zn10  1  0.653718  0.346282  0.021175  1
  Zn  Zn11  1  0.346282  0.653718  0.978825  1
  Zn  Zn12  1  0.401557  0.598443  0.250000  1
  Zn  Zn13  1  0.598443  0.401557  0.750000  1
  Ge  Ge14  1  0.558105  0.441895  0.250000  1
  Ge  Ge15  1  0.441895  0.558105  0.750000  1
