# generated using pymatgen
data_NdTaMn4P3
_symmetry_space_group_name_H-M   'P 1'
_cell_length_a   3.66794800
_cell_length_b   11.03635900
_cell_length_c   12.53236800
_cell_angle_alpha   90.00000000
_cell_angle_beta   90.00000000
_cell_angle_gamma   90.00000000
_symmetry_Int_Tables_number   1
_chemical_formula_structural   NdTaMn4P3
_chemical_formula_sum   'Nd4 Ta4 Mn16 P12'
_cell_volume   507.32016876
_cell_formula_units_Z   4
loop_
 _symmetry_equiv_pos_site_id
 _symmetry_equiv_pos_as_xyz
  1  'x, y, z'
loop_
 _atom_site_type_symbol
 _atom_site_label
 _atom_site_symmetry_multiplicity
 _atom_site_fract_x
 _atom_site_fract_y
 _atom_site_fract_z
 _atom_site_occupancy
  Nd  Nd0  1  0.250000  0.587212  0.707253  1
  Nd  Nd1  1  0.250000  0.912788  0.207253  1
  Nd  Nd2  1  0.750000  0.412788  0.292747  1
  Nd  Nd3  1  0.750000  0.087212  0.792747  1
  Ta  Ta4  1  0.250000  0.707682  0.983980  1
  Ta  Ta5  1  0.250000  0.792318  0.483980  1
  Ta  Ta6  1  0.750000  0.292318  0.016020  1
  Ta  Ta7  1  0.750000  0.207682  0.516020  1
  Mn  Mn8  1  0.250000  0.409506  0.494046  1
  Mn  Mn9  1  0.250000  0.090494  0.994046  1
  Mn  Mn10  1  0.750000  0.590494  0.505954  1
  Mn  Mn11  1  0.750000  0.909506  0.005954  1
  Mn  Mn12  1  0.250000  0.212487  0.177247  1
  Mn  Mn13  1  0.250000  0.287513  0.677247  1
  Mn  Mn14  1  0.750000  0.787513  0.822753  1
  Mn  Mn15  1  0.750000  0.712487  0.322753  1
  Mn  Mn16  1  0.250000  0.884312  0.695240  1
  Mn  Mn17  1  0.250000  0.615688  0.195240  1
  Mn  Mn18  1  0.750000  0.115688  0.304760  1
  Mn  Mn19  1  0.750000  0.384312  0.804760  1
  Mn  Mn20  1  0.250000  0.465033  0.934442  1
  Mn  Mn21  1  0.250000  0.034967  0.434442  1
  Mn  Mn22  1  0.750000  0.534967  0.065558  1
  Mn  Mn23  1  0.750000  0.965033  0.565558  1
  P  P24  1  0.250000  0.417124  0.115012  1
  P  P25  1  0.250000  0.082876  0.615012  1
  P  P26  1  0.750000  0.582876  0.884988  1
  P  P27  1  0.750000  0.917124  0.384988  1
  P  P28  1  0.250000  0.270410  0.867397  1
  P  P29  1  0.250000  0.229590  0.367397  1
  P  P30  1  0.750000  0.729590  0.132603  1
  P  P31  1  0.750000  0.770410  0.632603  1
  P  P32  1  0.250000  0.588426  0.384341  1
  P  P33  1  0.250000  0.911574  0.884341  1
  P  P34  1  0.750000  0.411574  0.615659  1
  P  P35  1  0.750000  0.088426  0.115659  1
