# generated using pymatgen
data_Hf16Re3Ni4Au
_symmetry_space_group_name_H-M   'P 1'
_cell_length_a   8.67236022
_cell_length_b   8.66586926
_cell_length_c   8.66587000
_cell_angle_alpha   60.00000481
_cell_angle_beta   60.02476074
_cell_angle_gamma   60.02475712
_symmetry_Int_Tables_number   1
_chemical_formula_structural   Hf16Re3Ni4Au
_chemical_formula_sum   'Hf16 Re3 Ni4 Au1'
_cell_volume   460.69028524
_cell_formula_units_Z   1
loop_
 _symmetry_equiv_pos_site_id
 _symmetry_equiv_pos_as_xyz
  1  'x, y, z'
loop_
 _atom_site_type_symbol
 _atom_site_label
 _atom_site_symmetry_multiplicity
 _atom_site_fract_x
 _atom_site_fract_y
 _atom_site_fract_z
 _atom_site_occupancy
  Hf  Hf0  1  0.691582  0.102805  0.102805  1
  Hf  Hf1  1  0.107364  0.687214  0.102710  1
  Hf  Hf2  1  0.107364  0.102710  0.687214  1
  Hf  Hf3  1  0.107364  0.102710  0.102710  1
  Hf  Hf4  1  0.313074  0.314874  0.686026  1
  Hf  Hf5  1  0.673322  0.694809  0.315934  1
  Hf  Hf6  1  0.313074  0.686026  0.314874  1
  Hf  Hf7  1  0.673322  0.315934  0.694809  1
  Hf  Hf8  1  0.673322  0.315934  0.315934  1
  Hf  Hf9  1  0.313074  0.686026  0.686026  1
  Hf  Hf10  1  0.952624  0.943006  0.552185  1
  Hf  Hf11  1  0.547247  0.544849  0.953952  1
  Hf  Hf12  1  0.952624  0.552185  0.943006  1
  Hf  Hf13  1  0.547247  0.953952  0.544849  1
  Hf  Hf14  1  0.547247  0.953952  0.953952  1
  Hf  Hf15  1  0.952624  0.552185  0.552185  1
  Re  Re16  1  0.338187  0.996687  0.332562  1
  Re  Re17  1  0.338187  0.332562  0.996687  1
  Re  Re18  1  0.338187  0.332562  0.332562  1
  Ni  Ni19  1  0.324203  0.891932  0.891932  1
  Ni  Ni20  1  0.895794  0.323198  0.890504  1
  Ni  Ni21  1  0.895794  0.890504  0.323198  1
  Ni  Ni22  1  0.895794  0.890504  0.890504  1
  Au  Au23  1  0.001372  0.332875  0.332875  1
