# generated using pymatgen
data_U3CoP2Ru3
_symmetry_space_group_name_H-M   'P 1'
_cell_length_a   6.54036700
_cell_length_b   6.54036468
_cell_length_c   4.04508600
_cell_angle_alpha   90.00000000
_cell_angle_beta   90.00000000
_cell_angle_gamma   120.00001681
_symmetry_Int_Tables_number   1
_chemical_formula_structural   U3CoP2Ru3
_chemical_formula_sum   'U3 Co1 P2 Ru3'
_cell_volume   149.85195055
_cell_formula_units_Z   1
loop_
 _symmetry_equiv_pos_site_id
 _symmetry_equiv_pos_as_xyz
  1  'x, y, z'
loop_
 _atom_site_type_symbol
 _atom_site_label
 _atom_site_symmetry_multiplicity
 _atom_site_fract_x
 _atom_site_fract_y
 _atom_site_fract_z
 _atom_site_occupancy
  U  U0  1  0.387196  0.387196  0.500000  1
  U  U1  1  0.612804  0.000000  0.500000  1
  U  U2  1  0.000000  0.612804  0.500000  1
  Co  Co3  1  0.000000  0.000000  0.500000  1
  P  P4  1  0.666667  0.333333  0.000000  1
  P  P5  1  0.333333  0.666667  0.000000  1
  Ru  Ru6  1  0.752139  0.752139  0.000000  1
  Ru  Ru7  1  0.247861  0.000000  0.000000  1
  Ru  Ru8  1  0.000000  0.247861  0.000000  1
