# generated using pymatgen
data_Ho6Si5GeRu2
_symmetry_space_group_name_H-M   'P 1'
_cell_length_a   5.66956337
_cell_length_b   5.66956159
_cell_length_c   13.54147500
_cell_angle_alpha   70.91535708
_cell_angle_beta   70.91536332
_cell_angle_gamma   43.40017446
_symmetry_Int_Tables_number   1
_chemical_formula_structural   Ho6Si5GeRu2
_chemical_formula_sum   'Ho6 Si5 Ge1 Ru2'
_cell_volume   279.94405384
_cell_formula_units_Z   1
loop_
 _symmetry_equiv_pos_site_id
 _symmetry_equiv_pos_as_xyz
  1  'x, y, z'
loop_
 _atom_site_type_symbol
 _atom_site_label
 _atom_site_symmetry_multiplicity
 _atom_site_fract_x
 _atom_site_fract_y
 _atom_site_fract_z
 _atom_site_occupancy
  Ho  Ho0  1  0.743865  0.743865  0.772227  1
  Ho  Ho1  1  0.396849  0.396849  0.923060  1
  Ho  Ho2  1  0.601850  0.601850  0.080720  1
  Ho  Ho3  1  0.480468  0.480468  0.374623  1
  Ho  Ho4  1  0.254275  0.254275  0.227701  1
  Ho  Ho5  1  0.521016  0.521016  0.621858  1
  Si  Si6  1  0.136900  0.136900  0.455936  1
  Si  Si7  1  0.865713  0.865713  0.542337  1
  Si  Si8  1  0.948883  0.948883  0.237583  1
  Si  Si9  1  0.886743  0.886743  0.075185  1
  Si  Si10  1  0.115205  0.115205  0.928674  1
  Ge  Ge11  1  0.043989  0.043989  0.763610  1
  Ru  Ru12  1  0.753543  0.753543  0.412774  1
  Ru  Ru13  1  0.250703  0.250703  0.583710  1
