# generated using pymatgen
data_Tb4MgNi2Te
_symmetry_space_group_name_H-M   'P 1'
_cell_length_a   8.68580181
_cell_length_b   8.68580216
_cell_length_c   8.68580168
_cell_angle_alpha   129.31186080
_cell_angle_beta   129.31186456
_cell_angle_gamma   74.50928901
_symmetry_Int_Tables_number   1
_chemical_formula_structural   Tb4MgNi2Te
_chemical_formula_sum   'Tb8 Mg2 Ni4 Te2'
_cell_volume   382.27195834
_cell_formula_units_Z   2
loop_
 _symmetry_equiv_pos_site_id
 _symmetry_equiv_pos_as_xyz
  1  'x, y, z'
loop_
 _atom_site_type_symbol
 _atom_site_label
 _atom_site_symmetry_multiplicity
 _atom_site_fract_x
 _atom_site_fract_y
 _atom_site_fract_z
 _atom_site_occupancy
  Tb  Tb0  1  0.792901  0.292901  0.828949  1
  Tb  Tb1  1  0.207099  0.707099  0.171051  1
  Tb  Tb2  1  0.463952  0.963952  0.171051  1
  Tb  Tb3  1  0.292901  0.463952  0.500000  1
  Tb  Tb4  1  0.036048  0.207099  0.500000  1
  Tb  Tb5  1  0.536048  0.036048  0.828949  1
  Tb  Tb6  1  0.707099  0.536048  0.500000  1
  Tb  Tb7  1  0.963952  0.792901  0.500000  1
  Mg  Mg8  1  0.000000  0.000000  0.000000  1
  Mg  Mg9  1  0.500000  0.500000  0.000000  1
  Ni  Ni10  1  0.127239  0.627239  0.754479  1
  Ni  Ni11  1  0.872761  0.372761  0.245521  1
  Ni  Ni12  1  0.627239  0.872761  0.500000  1
  Ni  Ni13  1  0.372761  0.127239  0.500000  1
  Te  Te14  1  0.250000  0.250000  0.000000  1
  Te  Te15  1  0.750000  0.750000  0.000000  1
