# generated using pymatgen
data_Nd2Re13W4C3
_symmetry_space_group_name_H-M   'P 1'
_cell_length_a   7.07945504
_cell_length_b   7.07945399
_cell_length_c   7.12285720
_cell_angle_alpha   82.73379245
_cell_angle_beta   82.73379481
_cell_angle_gamma   82.62260055
_symmetry_Int_Tables_number   1
_chemical_formula_structural   Nd2Re13W4C3
_chemical_formula_sum   'Nd2 Re13 W4 C3'
_cell_volume   348.97786794
_cell_formula_units_Z   1
loop_
 _symmetry_equiv_pos_site_id
 _symmetry_equiv_pos_as_xyz
  1  'x, y, z'
loop_
 _atom_site_type_symbol
 _atom_site_label
 _atom_site_symmetry_multiplicity
 _atom_site_fract_x
 _atom_site_fract_y
 _atom_site_fract_z
 _atom_site_occupancy
  Nd  Nd0  1  0.650057  0.650057  0.650077  1
  Nd  Nd1  1  0.349943  0.349943  0.349923  1
  Re  Re2  1  0.000000  0.000000  0.500000  1
  Re  Re3  1  0.500000  0.000000  0.000000  1
  Re  Re4  1  0.000000  0.500000  0.000000  1
  Re  Re5  1  0.718050  0.281950  0.000000  1
  Re  Re6  1  0.001119  0.719977  0.281287  1
  Re  Re7  1  0.280023  0.998881  0.718713  1
  Re  Re8  1  0.998881  0.280023  0.718713  1
  Re  Re9  1  0.719977  0.001119  0.281287  1
  Re  Re10  1  0.281950  0.718050  0.000000  1
  Re  Re11  1  0.348239  0.861911  0.348949  1
  Re  Re12  1  0.861911  0.348239  0.348949  1
  Re  Re13  1  0.651761  0.138089  0.651051  1
  Re  Re14  1  0.138089  0.651761  0.651051  1
  W  W15  1  0.344972  0.344972  0.859003  1
  W  W16  1  0.655028  0.655028  0.140997  1
  W  W17  1  0.902278  0.902278  0.899487  1
  W  W18  1  0.097722  0.097722  0.100513  1
  C  C19  1  0.500000  0.500000  0.000000  1
  C  C20  1  0.000000  0.500000  0.500000  1
  C  C21  1  0.500000  0.000000  0.500000  1
