# generated using pymatgen
data_Ho2Lu3Pb4
_symmetry_space_group_name_H-M   'P 1'
_cell_length_a   8.12438800
_cell_length_b   15.44327300
_cell_length_c   8.19408600
_cell_angle_alpha   90.00000000
_cell_angle_beta   90.00000000
_cell_angle_gamma   90.00000000
_symmetry_Int_Tables_number   1
_chemical_formula_structural   Ho2Lu3Pb4
_chemical_formula_sum   'Ho8 Lu12 Pb16'
_cell_volume   1028.08855043
_cell_formula_units_Z   4
loop_
 _symmetry_equiv_pos_site_id
 _symmetry_equiv_pos_as_xyz
  1  'x, y, z'
loop_
 _atom_site_type_symbol
 _atom_site_label
 _atom_site_symmetry_multiplicity
 _atom_site_fract_x
 _atom_site_fract_y
 _atom_site_fract_z
 _atom_site_occupancy
  Ho  Ho0  1  0.464661  0.599697  0.677119  1
  Ho  Ho1  1  0.964661  0.900303  0.822881  1
  Ho  Ho2  1  0.535339  0.099697  0.322881  1
  Ho  Ho3  1  0.035339  0.400303  0.177119  1
  Ho  Ho4  1  0.535339  0.400303  0.322881  1
  Ho  Ho5  1  0.035339  0.099697  0.177119  1
  Ho  Ho6  1  0.464661  0.900303  0.677119  1
  Ho  Ho7  1  0.964661  0.599697  0.822881  1
  Lu  Lu8  1  0.623179  0.621031  0.159169  1
  Lu  Lu9  1  0.123179  0.878969  0.340831  1
  Lu  Lu10  1  0.376821  0.121031  0.840831  1
  Lu  Lu11  1  0.876821  0.378969  0.659169  1
  Lu  Lu12  1  0.376821  0.378969  0.840831  1
  Lu  Lu13  1  0.876821  0.121031  0.659169  1
  Lu  Lu14  1  0.623179  0.878969  0.159169  1
  Lu  Lu15  1  0.123179  0.621031  0.340831  1
  Lu  Lu16  1  0.792112  0.750000  0.495287  1
  Lu  Lu17  1  0.292112  0.750000  0.004713  1
  Lu  Lu18  1  0.207888  0.250000  0.504713  1
  Lu  Lu19  1  0.707888  0.250000  0.995287  1
  Pb  Pb20  1  0.717944  0.457269  0.966130  1
  Pb  Pb21  1  0.217944  0.042731  0.533870  1
  Pb  Pb22  1  0.282056  0.957269  0.033870  1
  Pb  Pb23  1  0.782056  0.542731  0.466130  1
  Pb  Pb24  1  0.282056  0.542731  0.033870  1
  Pb  Pb25  1  0.782056  0.957269  0.466130  1
  Pb  Pb26  1  0.717944  0.042731  0.966130  1
  Pb  Pb27  1  0.217944  0.457269  0.533870  1
  Pb  Pb28  1  0.429332  0.750000  0.370813  1
  Pb  Pb29  1  0.929332  0.750000  0.129187  1
  Pb  Pb30  1  0.570668  0.250000  0.629187  1
  Pb  Pb31  1  0.070668  0.250000  0.870813  1
  Pb  Pb32  1  0.653341  0.750000  0.847533  1
  Pb  Pb33  1  0.153341  0.750000  0.652467  1
  Pb  Pb34  1  0.346659  0.250000  0.152467  1
  Pb  Pb35  1  0.846659  0.250000  0.347533  1
