# generated using pymatgen
data_Sb7AsPd11
_symmetry_space_group_name_H-M   'P 1'
_cell_length_a   7.78329593
_cell_length_b   7.87270216
_cell_length_c   12.45733119
_cell_angle_alpha   99.08702106
_cell_angle_beta   98.92311640
_cell_angle_gamma   90.03147310
_symmetry_Int_Tables_number   1
_chemical_formula_structural   Sb7AsPd11
_chemical_formula_sum   'Sb14 As2 Pd22'
_cell_volume   744.38214661
_cell_formula_units_Z   2
loop_
 _symmetry_equiv_pos_site_id
 _symmetry_equiv_pos_as_xyz
  1  'x, y, z'
loop_
 _atom_site_type_symbol
 _atom_site_label
 _atom_site_symmetry_multiplicity
 _atom_site_fract_x
 _atom_site_fract_y
 _atom_site_fract_z
 _atom_site_occupancy
  Sb  Sb0  1  0.064518  0.439400  0.245215  1
  Sb  Sb1  1  0.557718  0.439867  0.247383  1
  Sb  Sb2  1  0.064682  0.932466  0.243819  1
  Sb  Sb3  1  0.556379  0.932860  0.246018  1
  Sb  Sb4  1  0.873356  0.247551  0.490254  1
  Sb  Sb5  1  0.623629  0.747985  0.496569  1
  Sb  Sb6  1  0.375005  0.251812  0.501583  1
  Sb  Sb7  1  0.127737  0.752319  0.509589  1
  Sb  Sb8  1  0.443094  0.067794  0.750250  1
  Sb  Sb9  1  0.933726  0.068059  0.752729  1
  Sb  Sb10  1  0.443913  0.558423  0.755354  1
  Sb  Sb11  1  0.934932  0.558473  0.757510  1
  Sb  Sb12  1  0.249021  0.876107  0.992923  1
  Sb  Sb13  1  0.747683  0.623847  0.995685  1
  As  As14  1  0.251478  0.374166  0.002328  1
  As  As15  1  0.751155  0.128040  0.006092  1
  Pd  Pd16  1  0.472416  0.151885  0.087162  1
  Pd  Pd17  1  0.089327  0.641985  0.088595  1
  Pd  Pd18  1  0.070375  0.150813  0.086853  1
  Pd  Pd19  1  0.453090  0.641748  0.089793  1
  Pd  Pd20  1  0.801658  0.678296  0.212500  1
  Pd  Pd21  1  0.811273  0.187178  0.249264  1
  Pd  Pd22  1  0.320405  0.195182  0.282190  1
  Pd  Pd23  1  0.346967  0.541009  0.405091  1
  Pd  Pd24  1  0.856184  0.919925  0.407137  1
  Pd  Pd25  1  0.347581  0.914455  0.406117  1
  Pd  Pd26  1  0.855895  0.533664  0.407176  1
  Pd  Pd27  1  0.144554  0.465813  0.594871  1
  Pd  Pd28  1  0.651279  0.086181  0.592000  1
  Pd  Pd29  1  0.145176  0.081779  0.594328  1
  Pd  Pd30  1  0.652791  0.457734  0.594222  1
  Pd  Pd31  1  0.678611  0.801377  0.714025  1
  Pd  Pd32  1  0.188488  0.810963  0.749796  1
  Pd  Pd33  1  0.200295  0.325614  0.795012  1
  Pd  Pd34  1  0.542724  0.343031  0.913890  1
  Pd  Pd35  1  0.917693  0.863421  0.911390  1
  Pd  Pd36  1  0.916095  0.343974  0.914419  1
  Pd  Pd37  1  0.539090  0.864802  0.910870  1
