# generated using pymatgen
data_La10Ir3Os2Pt
_symmetry_space_group_name_H-M   'P 1'
_cell_length_a   11.45029421
_cell_length_b   11.44856200
_cell_length_c   6.70368930
_cell_angle_alpha   90.00000000
_cell_angle_beta   90.07124604
_cell_angle_gamma   90.00000000
_symmetry_Int_Tables_number   1
_chemical_formula_structural   La10Ir3Os2Pt
_chemical_formula_sum   'La20 Ir6 Os4 Pt2'
_cell_volume   878.78194972
_cell_formula_units_Z   2
loop_
 _symmetry_equiv_pos_site_id
 _symmetry_equiv_pos_as_xyz
  1  'x, y, z'
loop_
 _atom_site_type_symbol
 _atom_site_label
 _atom_site_symmetry_multiplicity
 _atom_site_fract_x
 _atom_site_fract_y
 _atom_site_fract_z
 _atom_site_occupancy
  La  La0  1  0.295181  0.089806  0.386271  1
  La  La1  1  0.295181  0.910194  0.886271  1
  La  La2  1  0.701730  0.090563  0.882630  1
  La  La3  1  0.701730  0.909437  0.382630  1
  La  La4  1  0.586851  0.794744  0.887464  1
  La  La5  1  0.586851  0.205256  0.387464  1
  La  La6  1  0.410038  0.795001  0.387044  1
  La  La7  1  0.410038  0.204999  0.887044  1
  La  La8  1  0.205020  0.410226  0.612978  1
  La  La9  1  0.205020  0.589774  0.112978  1
  La  La10  1  0.794735  0.413041  0.112416  1
  La  La11  1  0.794735  0.586959  0.612416  1
  La  La12  1  0.911415  0.703081  0.118128  1
  La  La13  1  0.911415  0.296919  0.618128  1
  La  La14  1  0.091719  0.703611  0.613109  1
  La  La15  1  0.091719  0.296389  0.113109  1
  La  La16  1  0.003854  0.999715  0.500019  1
  La  La17  1  0.003854  0.000285  0.000019  1
  La  La18  1  0.499825  0.500027  0.999970  1
  La  La19  1  0.499825  0.499973  0.499970  1
  Ir  Ir20  1  0.150866  0.151135  0.750026  1
  Ir  Ir21  1  0.150866  0.848865  0.250026  1
  Ir  Ir22  1  0.652375  0.347668  0.749966  1
  Ir  Ir23  1  0.652375  0.652332  0.249966  1
  Ir  Ir24  1  0.348267  0.348185  0.250028  1
  Ir  Ir25  1  0.348267  0.651815  0.750028  1
  Os  Os26  1  0.501214  0.999966  0.123760  1
  Os  Os27  1  0.501214  0.000034  0.623760  1
  Os  Os28  1  0.999522  0.500254  0.876198  1
  Os  Os29  1  0.999522  0.499746  0.376198  1
  Pt  Pt30  1  0.847387  0.152344  0.249994  1
  Pt  Pt31  1  0.847387  0.847656  0.749994  1
