# generated using pymatgen
data_Hf15Sc3CuRe8P
_symmetry_space_group_name_H-M   'P 1'
_cell_length_a   8.60315700
_cell_length_b   8.60315630
_cell_length_c   8.55996200
_cell_angle_alpha   90.00000000
_cell_angle_beta   90.00000000
_cell_angle_gamma   119.99999883
_symmetry_Int_Tables_number   1
_chemical_formula_structural   Hf15Sc3CuRe8P
_chemical_formula_sum   'Hf15 Sc3 Cu1 Re8 P1'
_cell_volume   548.67874342
_cell_formula_units_Z   1
loop_
 _symmetry_equiv_pos_site_id
 _symmetry_equiv_pos_as_xyz
  1  'x, y, z'
loop_
 _atom_site_type_symbol
 _atom_site_label
 _atom_site_symmetry_multiplicity
 _atom_site_fract_x
 _atom_site_fract_y
 _atom_site_fract_z
 _atom_site_occupancy
  Hf  Hf0  1  0.196114  0.803886  0.447831  1
  Hf  Hf1  1  0.196114  0.392227  0.447831  1
  Hf  Hf2  1  0.607773  0.803886  0.447831  1
  Hf  Hf3  1  0.804727  0.195273  0.548784  1
  Hf  Hf4  1  0.804727  0.609456  0.548784  1
  Hf  Hf5  1  0.390544  0.195273  0.548784  1
  Hf  Hf6  1  0.804727  0.195273  0.951216  1
  Hf  Hf7  1  0.804727  0.609456  0.951216  1
  Hf  Hf8  1  0.390544  0.195273  0.951216  1
  Hf  Hf9  1  0.196114  0.803886  0.052169  1
  Hf  Hf10  1  0.196114  0.392227  0.052169  1
  Hf  Hf11  1  0.607773  0.803886  0.052169  1
  Hf  Hf12  1  0.542292  0.457708  0.250000  1
  Hf  Hf13  1  0.542292  0.084583  0.250000  1
  Hf  Hf14  1  0.915417  0.457708  0.250000  1
  Sc  Sc15  1  0.459325  0.540675  0.750000  1
  Sc  Sc16  1  0.459325  0.918650  0.750000  1
  Sc  Sc17  1  0.081350  0.540675  0.750000  1
  Cu  Cu18  1  0.333333  0.666667  0.250000  1
  Re  Re19  1  0.889582  0.110418  0.250000  1
  Re  Re20  1  0.889582  0.779162  0.250000  1
  Re  Re21  1  0.220838  0.110418  0.250000  1
  Re  Re22  1  0.109164  0.890836  0.750000  1
  Re  Re23  1  0.109164  0.218329  0.750000  1
  Re  Re24  1  0.781671  0.890836  0.750000  1
  Re  Re25  1  0.000000  0.000000  0.500041  1
  Re  Re26  1  0.000000  0.000000  0.999959  1
  P  P27  1  0.666667  0.333333  0.750000  1
