# generated using pymatgen
data_Yb9Pr11Sn16
_symmetry_space_group_name_H-M   'P 1'
_cell_length_a   8.02460776
_cell_length_b   8.54171690
_cell_length_c   16.13941569
_cell_angle_alpha   89.99056441
_cell_angle_beta   89.93020579
_cell_angle_gamma   90.11232892
_symmetry_Int_Tables_number   1
_chemical_formula_structural   Yb9Pr11Sn16
_chemical_formula_sum   'Yb9 Pr11 Sn16'
_cell_volume   1106.25598028
_cell_formula_units_Z   1
loop_
 _symmetry_equiv_pos_site_id
 _symmetry_equiv_pos_as_xyz
  1  'x, y, z'
loop_
 _atom_site_type_symbol
 _atom_site_label
 _atom_site_symmetry_multiplicity
 _atom_site_fract_x
 _atom_site_fract_y
 _atom_site_fract_z
 _atom_site_occupancy
  Yb  Yb0  1  0.329841  0.828954  0.877999  1
  Yb  Yb1  1  0.829372  0.671832  0.623424  1
  Yb  Yb2  1  0.670350  0.172349  0.376060  1
  Yb  Yb3  1  0.171260  0.328039  0.123798  1
  Yb  Yb4  1  0.668398  0.171406  0.123592  1
  Yb  Yb5  1  0.159902  0.499752  0.751325  1
  Yb  Yb6  1  0.659398  0.000082  0.749780  1
  Yb  Yb7  1  0.839835  0.498262  0.248667  1
  Yb  Yb8  1  0.341013  0.001063  0.248007  1
  Pr  Pr9  1  0.166988  0.325840  0.374371  1
  Pr  Pr10  1  0.330869  0.826995  0.624290  1
  Pr  Pr11  1  0.831325  0.672626  0.876214  1
  Pr  Pr12  1  0.491387  0.312933  0.905308  1
  Pr  Pr13  1  0.989838  0.185479  0.596448  1
  Pr  Pr14  1  0.511310  0.685294  0.403136  1
  Pr  Pr15  1  0.009634  0.814562  0.097134  1
  Pr  Pr16  1  0.508717  0.686313  0.095654  1
  Pr  Pr17  1  0.006629  0.815747  0.403166  1
  Pr  Pr18  1  0.491311  0.315493  0.595436  1
  Pr  Pr19  1  0.991174  0.185728  0.904742  1
  Sn  Sn20  1  0.329773  0.036476  0.039719  1
  Sn  Sn21  1  0.827673  0.463955  0.461006  1
  Sn  Sn22  1  0.672160  0.964651  0.538749  1
  Sn  Sn23  1  0.171730  0.534778  0.961609  1
  Sn  Sn24  1  0.668116  0.964837  0.961961  1
  Sn  Sn25  1  0.168485  0.536564  0.538140  1
  Sn  Sn26  1  0.330943  0.035682  0.460398  1
  Sn  Sn27  1  0.832346  0.462628  0.040230  1
  Sn  Sn28  1  0.531199  0.604251  0.750561  1
  Sn  Sn29  1  0.031360  0.898052  0.751362  1
  Sn  Sn30  1  0.470119  0.396493  0.249050  1
  Sn  Sn31  1  0.966502  0.104168  0.248972  1
  Sn  Sn32  1  0.287884  0.141542  0.749730  1
  Sn  Sn33  1  0.786681  0.358511  0.750462  1
  Sn  Sn34  1  0.713034  0.858873  0.249180  1
  Sn  Sn35  1  0.213444  0.639792  0.250320  1
