# generated using pymatgen
data_Lu10Zn3CuBi2
_symmetry_space_group_name_H-M   'P 1'
_cell_length_a   8.45227715
_cell_length_b   8.45227654
_cell_length_c   8.48962993
_cell_angle_alpha   124.29195488
_cell_angle_beta   124.29194824
_cell_angle_gamma   82.42639357
_symmetry_Int_Tables_number   1
_chemical_formula_structural   Lu10Zn3CuBi2
_chemical_formula_sum   'Lu10 Zn3 Cu1 Bi2'
_cell_volume   398.37978067
_cell_formula_units_Z   1
loop_
 _symmetry_equiv_pos_site_id
 _symmetry_equiv_pos_as_xyz
  1  'x, y, z'
loop_
 _atom_site_type_symbol
 _atom_site_label
 _atom_site_symmetry_multiplicity
 _atom_site_fract_x
 _atom_site_fract_y
 _atom_site_fract_z
 _atom_site_occupancy
  Lu  Lu0  1  0.002056  0.000183  0.002239  1
  Lu  Lu1  1  0.499817  0.497944  0.997761  1
  Lu  Lu2  1  0.788712  0.294523  0.800452  1
  Lu  Lu3  1  0.205477  0.711288  0.199548  1
  Lu  Lu4  1  0.488261  0.994073  0.199548  1
  Lu  Lu5  1  0.297211  0.481272  0.500000  1
  Lu  Lu6  1  0.018728  0.202789  0.500000  1
  Lu  Lu7  1  0.505927  0.011739  0.800452  1
  Lu  Lu8  1  0.706022  0.511578  0.500000  1
  Lu  Lu9  1  0.988422  0.793978  0.500000  1
  Zn  Zn10  1  0.138812  0.639749  0.778561  1
  Zn  Zn11  1  0.860251  0.361188  0.221439  1
  Zn  Zn12  1  0.637114  0.862886  0.500000  1
  Cu  Cu13  1  0.368212  0.131788  0.500000  1
  Bi  Bi14  1  0.247489  0.252511  0.000000  1
  Bi  Bi15  1  0.747489  0.752511  0.000000  1
