# generated using pymatgen
data_Nd15Th(HgIr)4
_symmetry_space_group_name_H-M   'P 1'
_cell_length_a   9.93966534
_cell_length_b   9.93966529
_cell_length_c   9.93966623
_cell_angle_alpha   60.03021241
_cell_angle_beta   60.03021095
_cell_angle_gamma   60.03022272
_symmetry_Int_Tables_number   1
_chemical_formula_structural   Nd15Th(HgIr)4
_chemical_formula_sum   'Nd15 Th1 Hg4 Ir4'
_cell_volume   694.86059501
_cell_formula_units_Z   1
loop_
 _symmetry_equiv_pos_site_id
 _symmetry_equiv_pos_as_xyz
  1  'x, y, z'
loop_
 _atom_site_type_symbol
 _atom_site_label
 _atom_site_symmetry_multiplicity
 _atom_site_fract_x
 _atom_site_fract_y
 _atom_site_fract_z
 _atom_site_occupancy
  Nd  Nd0  1  0.350521  0.350521  0.949145  1
  Nd  Nd1  1  0.350521  0.949145  0.350521  1
  Nd  Nd2  1  0.949145  0.350521  0.350521  1
  Nd  Nd3  1  0.810333  0.190121  0.190121  1
  Nd  Nd4  1  0.190098  0.808257  0.808257  1
  Nd  Nd5  1  0.190121  0.810333  0.190121  1
  Nd  Nd6  1  0.808257  0.190098  0.808257  1
  Nd  Nd7  1  0.190121  0.190121  0.810333  1
  Nd  Nd8  1  0.808257  0.808257  0.190098  1
  Nd  Nd9  1  0.940951  0.562121  0.562121  1
  Nd  Nd10  1  0.559282  0.939713  0.939713  1
  Nd  Nd11  1  0.562121  0.940951  0.562121  1
  Nd  Nd12  1  0.939713  0.559282  0.939713  1
  Nd  Nd13  1  0.562121  0.562121  0.940951  1
  Nd  Nd14  1  0.939713  0.939713  0.559282  1
  Th  Th15  1  0.345547  0.345547  0.345547  1
  Hg  Hg16  1  0.583500  0.583500  0.583500  1
  Hg  Hg17  1  0.583626  0.583626  0.246970  1
  Hg  Hg18  1  0.583626  0.246970  0.583626  1
  Hg  Hg19  1  0.246970  0.583626  0.583626  1
  Ir  Ir20  1  0.142351  0.142351  0.142351  1
  Ir  Ir21  1  0.145947  0.145947  0.571206  1
  Ir  Ir22  1  0.145947  0.571206  0.145947  1
  Ir  Ir23  1  0.571206  0.145947  0.145947  1
