# generated using pymatgen
data_ScNbCrB2Ru5
_symmetry_space_group_name_H-M   'P 1'
_cell_length_a   9.32738807
_cell_length_b   9.32738787
_cell_length_c   2.98540200
_cell_angle_alpha   90.00000000
_cell_angle_beta   90.00000000
_cell_angle_gamma   90.40956246
_symmetry_Int_Tables_number   1
_chemical_formula_structural   ScNbCrB2Ru5
_chemical_formula_sum   'Sc2 Nb2 Cr2 B4 Ru10'
_cell_volume   259.72383503
_cell_formula_units_Z   2
loop_
 _symmetry_equiv_pos_site_id
 _symmetry_equiv_pos_as_xyz
  1  'x, y, z'
loop_
 _atom_site_type_symbol
 _atom_site_label
 _atom_site_symmetry_multiplicity
 _atom_site_fract_x
 _atom_site_fract_y
 _atom_site_fract_z
 _atom_site_occupancy
  Sc  Sc0  1  0.175343  0.175343  0.000000  1
  Sc  Sc1  1  0.824657  0.824657  0.000000  1
  Nb  Nb2  1  0.677316  0.322684  0.000000  1
  Nb  Nb3  1  0.322684  0.677316  0.000000  1
  Cr  Cr4  1  0.500000  0.000000  0.000000  1
  Cr  Cr5  1  0.000000  0.500000  0.000000  1
  B  B6  1  0.375297  0.375297  0.000000  1
  B  B7  1  0.624703  0.624703  0.000000  1
  B  B8  1  0.878043  0.121957  0.000000  1
  B  B9  1  0.121957  0.878043  0.000000  1
  Ru  Ru10  1  0.500000  0.500000  0.500000  1
  Ru  Ru11  1  0.000000  0.000000  0.500000  1
  Ru  Ru12  1  0.433962  0.213916  0.500000  1
  Ru  Ru13  1  0.566038  0.786084  0.500000  1
  Ru  Ru14  1  0.926861  0.289391  0.500000  1
  Ru  Ru15  1  0.073139  0.710609  0.500000  1
  Ru  Ru16  1  0.710609  0.073139  0.500000  1
  Ru  Ru17  1  0.289391  0.926861  0.500000  1
  Ru  Ru18  1  0.786084  0.566038  0.500000  1
  Ru  Ru19  1  0.213916  0.433962  0.500000  1
