# generated using pymatgen
data_Ho9Er(SiSn3)2
_symmetry_space_group_name_H-M   'P 1'
_cell_length_a   9.17475200
_cell_length_b   9.17475260
_cell_length_c   6.41378100
_cell_angle_alpha   90.00000000
_cell_angle_beta   90.00000000
_cell_angle_gamma   119.99999783
_symmetry_Int_Tables_number   1
_chemical_formula_structural   Ho9Er(SiSn3)2
_chemical_formula_sum   'Ho9 Er1 Si2 Sn6'
_cell_volume   467.55581643
_cell_formula_units_Z   1
loop_
 _symmetry_equiv_pos_site_id
 _symmetry_equiv_pos_as_xyz
  1  'x, y, z'
loop_
 _atom_site_type_symbol
 _atom_site_label
 _atom_site_symmetry_multiplicity
 _atom_site_fract_x
 _atom_site_fract_y
 _atom_site_fract_z
 _atom_site_occupancy
  Ho  Ho0  1  0.666667  0.333333  0.000000  1
  Ho  Ho1  1  0.333333  0.666667  0.000000  1
  Ho  Ho2  1  0.333333  0.666667  0.500000  1
  Ho  Ho3  1  0.747355  0.747316  0.750046  1
  Ho  Ho4  1  0.252684  0.000039  0.750046  1
  Ho  Ho5  1  0.999961  0.252645  0.750046  1
  Ho  Ho6  1  0.252684  0.252645  0.249954  1
  Ho  Ho7  1  0.747355  0.000039  0.249954  1
  Ho  Ho8  1  0.999961  0.747316  0.249954  1
  Er  Er9  1  0.666667  0.333333  0.500000  1
  Si  Si10  1  0.000000  0.000000  0.000000  1
  Si  Si11  1  0.000000  0.000000  0.500000  1
  Sn  Sn12  1  0.391497  0.391334  0.749932  1
  Sn  Sn13  1  0.608666  0.000163  0.749932  1
  Sn  Sn14  1  0.999837  0.608503  0.749932  1
  Sn  Sn15  1  0.608666  0.608503  0.250068  1
  Sn  Sn16  1  0.391497  0.000163  0.250068  1
  Sn  Sn17  1  0.999837  0.391334  0.250068  1
