# generated using pymatgen
data_Nd2CuPd3O8
_symmetry_space_group_name_H-M   'P 1'
_cell_length_a   6.41043279
_cell_length_b   6.65108230
_cell_length_c   6.58654116
_cell_angle_alpha   125.25043424
_cell_angle_beta   127.26251559
_cell_angle_gamma   78.80875795
_symmetry_Int_Tables_number   1
_chemical_formula_structural   Nd2CuPd3O8
_chemical_formula_sum   'Nd2 Cu1 Pd3 O8'
_cell_volume   177.22769774
_cell_formula_units_Z   1
loop_
 _symmetry_equiv_pos_site_id
 _symmetry_equiv_pos_as_xyz
  1  'x, y, z'
loop_
 _atom_site_type_symbol
 _atom_site_label
 _atom_site_symmetry_multiplicity
 _atom_site_fract_x
 _atom_site_fract_y
 _atom_site_fract_z
 _atom_site_occupancy
  Nd  Nd0  1  0.494023  0.497554  0.994840  1
  Nd  Nd1  1  0.255977  0.752446  0.505160  1
  Cu  Cu2  1  0.875000  0.125000  0.250000  1
  Pd  Pd3  1  0.875000  0.125000  0.750000  1
  Pd  Pd4  1  0.875000  0.625000  0.750000  1
  Pd  Pd5  1  0.375000  0.125000  0.250000  1
  O  O6  1  0.496667  0.444020  0.338275  1
  O  O7  1  0.187856  0.340998  0.440276  1
  O  O8  1  0.899217  0.756475  0.550070  1
  O  O9  1  0.086109  0.140186  0.617773  1
  O  O10  1  0.253333  0.805980  0.161725  1
  O  O11  1  0.562144  0.909002  0.059724  1
  O  O12  1  0.663891  0.109814  0.882227  1
  O  O13  1  0.850783  0.493525  0.949930  1
