# generated using pymatgen
data_Dy2TmMg3Ga2Hg
_symmetry_space_group_name_H-M   'P 1'
_cell_length_a   7.41198400
_cell_length_b   7.38311099
_cell_length_c   4.38156700
_cell_angle_alpha   90.00000000
_cell_angle_beta   90.00000000
_cell_angle_gamma   120.12944890
_symmetry_Int_Tables_number   1
_chemical_formula_structural   Dy2TmMg3Ga2Hg
_chemical_formula_sum   'Dy2 Tm1 Mg3 Ga2 Hg1'
_cell_volume   207.37957527
_cell_formula_units_Z   1
loop_
 _symmetry_equiv_pos_site_id
 _symmetry_equiv_pos_as_xyz
  1  'x, y, z'
loop_
 _atom_site_type_symbol
 _atom_site_label
 _atom_site_symmetry_multiplicity
 _atom_site_fract_x
 _atom_site_fract_y
 _atom_site_fract_z
 _atom_site_occupancy
  Dy  Dy0  1  0.000300  0.572084  0.000000  1
  Dy  Dy1  1  0.428216  0.427916  0.000000  1
  Tm  Tm2  1  0.572397  0.000000  0.000000  1
  Mg  Mg3  1  0.999806  0.249089  0.500000  1
  Mg  Mg4  1  0.750717  0.750911  0.500000  1
  Mg  Mg5  1  0.249521  0.000000  0.500000  1
  Ga  Ga6  1  0.666242  0.331520  0.500000  1
  Ga  Ga7  1  0.334721  0.668480  0.500000  1
  Hg  Hg8  1  0.998079  0.000000  0.000000  1
