# generated using pymatgen
data_Y6Mn7Ni11As12
_symmetry_space_group_name_H-M   'P 1'
_cell_length_a   3.90466000
_cell_length_b   10.85717000
_cell_length_c   13.03228900
_cell_angle_alpha   90.00000000
_cell_angle_beta   90.00000000
_cell_angle_gamma   90.00000000
_symmetry_Int_Tables_number   1
_chemical_formula_structural   Y6Mn7Ni11As12
_chemical_formula_sum   'Y6 Mn7 Ni11 As12'
_cell_volume   552.48509193
_cell_formula_units_Z   1
loop_
 _symmetry_equiv_pos_site_id
 _symmetry_equiv_pos_as_xyz
  1  'x, y, z'
loop_
 _atom_site_type_symbol
 _atom_site_label
 _atom_site_symmetry_multiplicity
 _atom_site_fract_x
 _atom_site_fract_y
 _atom_site_fract_z
 _atom_site_occupancy
  Y  Y0  1  0.000000  0.500000  0.521397  1
  Y  Y1  1  0.500000  0.000000  0.477873  1
  Y  Y2  1  0.500000  0.817799  0.213427  1
  Y  Y3  1  0.500000  0.182201  0.213427  1
  Y  Y4  1  0.000000  0.682705  0.785831  1
  Y  Y5  1  0.000000  0.317295  0.785831  1
  Mn  Mn6  1  0.500000  0.500000  0.159761  1
  Mn  Mn7  1  0.000000  0.000000  0.843663  1
  Mn  Mn8  1  0.000000  0.500000  0.983753  1
  Mn  Mn9  1  0.500000  0.336568  0.997305  1
  Mn  Mn10  1  0.500000  0.663432  0.997305  1
  Mn  Mn11  1  0.000000  0.167129  0.001278  1
  Mn  Mn12  1  0.000000  0.832871  0.001278  1
  Ni  Ni13  1  0.500000  0.500000  0.696100  1
  Ni  Ni14  1  0.000000  0.000000  0.301130  1
  Ni  Ni15  1  0.500000  0.000000  0.017330  1
  Ni  Ni16  1  0.500000  0.301523  0.428360  1
  Ni  Ni17  1  0.500000  0.698477  0.428360  1
  Ni  Ni18  1  0.000000  0.197616  0.571970  1
  Ni  Ni19  1  0.000000  0.802384  0.571970  1
  Ni  Ni20  1  0.500000  0.879668  0.706907  1
  Ni  Ni21  1  0.500000  0.120332  0.706907  1
  Ni  Ni22  1  0.000000  0.620046  0.293735  1
  Ni  Ni23  1  0.000000  0.379954  0.293735  1
  As  As24  1  0.500000  0.500000  0.871014  1
  As  As25  1  0.000000  0.000000  0.125562  1
  As  As26  1  0.500000  0.500000  0.351235  1
  As  As27  1  0.000000  0.000000  0.650764  1
  As  As28  1  0.500000  0.313412  0.611724  1
  As  As29  1  0.500000  0.686588  0.611724  1
  As  As30  1  0.000000  0.185743  0.387927  1
  As  As31  1  0.000000  0.814257  0.387927  1
  As  As32  1  0.500000  0.843926  0.887822  1
  As  As33  1  0.500000  0.156074  0.887822  1
  As  As34  1  0.000000  0.656834  0.113922  1
  As  As35  1  0.000000  0.343166  0.113922  1
