# generated using pymatgen
data_Dy5Tm2Pa(ReB6)4
_symmetry_space_group_name_H-M   'P 1'
_cell_length_a   3.68464000
_cell_length_b   9.15811827
_cell_length_c   11.52966703
_cell_angle_alpha   90.19415051
_cell_angle_beta   90.00000000
_cell_angle_gamma   90.00000000
_symmetry_Int_Tables_number   1
_chemical_formula_structural   Dy5Tm2Pa(ReB6)4
_chemical_formula_sum   'Dy5 Tm2 Pa1 Re4 B24'
_cell_volume   389.05910400
_cell_formula_units_Z   1
loop_
 _symmetry_equiv_pos_site_id
 _symmetry_equiv_pos_as_xyz
  1  'x, y, z'
loop_
 _atom_site_type_symbol
 _atom_site_label
 _atom_site_symmetry_multiplicity
 _atom_site_fract_x
 _atom_site_fract_y
 _atom_site_fract_z
 _atom_site_occupancy
  Dy  Dy0  1  0.000000  0.678837  0.586960  1
  Dy  Dy1  1  0.000000  0.822947  0.085354  1
  Dy  Dy2  1  0.000000  0.176295  0.913660  1
  Dy  Dy3  1  0.000000  0.942415  0.371310  1
  Dy  Dy4  1  0.000000  0.055523  0.629542  1
  Tm  Tm5  1  0.000000  0.443462  0.127315  1
  Tm  Tm6  1  0.000000  0.557105  0.870484  1
  Pa  Pa7  1  0.000000  0.323693  0.413874  1
  Re  Re8  1  0.000000  0.634581  0.321260  1
  Re  Re9  1  0.000000  0.363006  0.676883  1
  Re  Re10  1  0.000000  0.142177  0.181420  1
  Re  Re11  1  0.000000  0.860448  0.821514  1
  B  B12  1  0.500000  0.552217  0.431763  1
  B  B13  1  0.500000  0.446113  0.567155  1
  B  B14  1  0.500000  0.054410  0.067542  1
  B  B15  1  0.500000  0.946575  0.933739  1
  B  B16  1  0.500000  0.747802  0.418235  1
  B  B17  1  0.500000  0.251742  0.581135  1
  B  B18  1  0.500000  0.249894  0.080805  1
  B  B19  1  0.500000  0.749907  0.919106  1
  B  B20  1  0.500000  0.790481  0.265562  1
  B  B21  1  0.500000  0.209070  0.734882  1
  B  B22  1  0.500000  0.292771  0.234222  1
  B  B23  1  0.500000  0.707337  0.766159  1
  B  B24  1  0.500000  0.629904  0.184336  1
  B  B25  1  0.500000  0.370609  0.814539  1
  B  B26  1  0.500000  0.132674  0.314586  1
  B  B27  1  0.500000  0.868182  0.686502  1
  B  B28  1  0.500000  0.983302  0.212009  1
  B  B29  1  0.500000  0.017059  0.788589  1
  B  B30  1  0.500000  0.482072  0.286775  1
  B  B31  1  0.500000  0.518277  0.713362  1
  B  B32  1  0.500000  0.599830  0.027434  1
  B  B33  1  0.500000  0.400171  0.971369  1
  B  B34  1  0.500000  0.106029  0.470812  1
  B  B35  1  0.500000  0.893084  0.529803  1
