# generated using pymatgen
data_Tb4CrFe19P12
_symmetry_space_group_name_H-M   'P 1'
_cell_length_a   3.66245200
_cell_length_b   10.32552086
_cell_length_c   11.84183701
_cell_angle_alpha   90.04716224
_cell_angle_beta   90.00000000
_cell_angle_gamma   90.00000000
_symmetry_Int_Tables_number   1
_chemical_formula_structural   Tb4CrFe19P12
_chemical_formula_sum   'Tb4 Cr1 Fe19 P12'
_cell_volume   447.81933673
_cell_formula_units_Z   1
loop_
 _symmetry_equiv_pos_site_id
 _symmetry_equiv_pos_as_xyz
  1  'x, y, z'
loop_
 _atom_site_type_symbol
 _atom_site_label
 _atom_site_symmetry_multiplicity
 _atom_site_fract_x
 _atom_site_fract_y
 _atom_site_fract_z
 _atom_site_occupancy
  Tb  Tb0  1  0.250000  0.581324  0.704372  1
  Tb  Tb1  1  0.250000  0.919092  0.204404  1
  Tb  Tb2  1  0.750000  0.419439  0.296044  1
  Tb  Tb3  1  0.750000  0.080949  0.795078  1
  Cr  Cr4  1  0.250000  0.703175  0.989730  1
  Fe  Fe5  1  0.250000  0.791978  0.488677  1
  Fe  Fe6  1  0.750000  0.292978  0.011739  1
  Fe  Fe7  1  0.750000  0.207900  0.511216  1
  Fe  Fe8  1  0.250000  0.404838  0.490526  1
  Fe  Fe9  1  0.250000  0.095616  0.990360  1
  Fe  Fe10  1  0.750000  0.594631  0.509784  1
  Fe  Fe11  1  0.750000  0.905268  0.009104  1
  Fe  Fe12  1  0.250000  0.219718  0.176164  1
  Fe  Fe13  1  0.250000  0.280998  0.676337  1
  Fe  Fe14  1  0.750000  0.782034  0.823266  1
  Fe  Fe15  1  0.750000  0.719212  0.324915  1
  Fe  Fe16  1  0.250000  0.876253  0.700579  1
  Fe  Fe17  1  0.250000  0.624640  0.202014  1
  Fe  Fe18  1  0.750000  0.124381  0.299058  1
  Fe  Fe19  1  0.750000  0.375589  0.799189  1
  Fe  Fe20  1  0.250000  0.462283  0.932641  1
  Fe  Fe21  1  0.250000  0.036837  0.432230  1
  Fe  Fe22  1  0.750000  0.534058  0.066511  1
  Fe  Fe23  1  0.750000  0.963745  0.566996  1
  P  P24  1  0.250000  0.422801  0.113109  1
  P  P25  1  0.250000  0.077509  0.611902  1
  P  P26  1  0.750000  0.578294  0.887139  1
  P  P27  1  0.750000  0.922135  0.387693  1
  P  P28  1  0.250000  0.265685  0.871430  1
  P  P29  1  0.250000  0.233270  0.371474  1
  P  P30  1  0.750000  0.732161  0.131052  1
  P  P31  1  0.750000  0.766970  0.627904  1
  P  P32  1  0.250000  0.601681  0.396200  1
  P  P33  1  0.250000  0.901995  0.894567  1
  P  P34  1  0.750000  0.398709  0.603042  1
  P  P35  1  0.750000  0.101851  0.103553  1
