# generated using pymatgen
data_YEr5NbCo17P12
_symmetry_space_group_name_H-M   'P 1'
_cell_length_a   3.68179600
_cell_length_b   10.51945500
_cell_length_c   12.20124900
_cell_angle_alpha   90.00000000
_cell_angle_beta   90.00000000
_cell_angle_gamma   90.00000000
_symmetry_Int_Tables_number   1
_chemical_formula_structural   YEr5NbCo17P12
_chemical_formula_sum   'Y1 Er5 Nb1 Co17 P12'
_cell_volume   472.56031994
_cell_formula_units_Z   1
loop_
 _symmetry_equiv_pos_site_id
 _symmetry_equiv_pos_as_xyz
  1  'x, y, z'
loop_
 _atom_site_type_symbol
 _atom_site_label
 _atom_site_symmetry_multiplicity
 _atom_site_fract_x
 _atom_site_fract_y
 _atom_site_fract_z
 _atom_site_occupancy
  Y  Y0  1  0.250000  0.750000  0.522222  1
  Er  Er1  1  0.750000  0.250000  0.473382  1
  Er  Er2  1  0.250000  0.930166  0.792928  1
  Er  Er3  1  0.250000  0.569834  0.792928  1
  Er  Er4  1  0.750000  0.067341  0.204151  1
  Er  Er5  1  0.750000  0.432659  0.204151  1
  Nb  Nb6  1  0.250000  0.250000  0.845008  1
  Co  Co7  1  0.750000  0.750000  0.161232  1
  Co  Co8  1  0.250000  0.250000  0.298508  1
  Co  Co9  1  0.750000  0.750000  0.703702  1
  Co  Co10  1  0.750000  0.250000  0.015969  1
  Co  Co11  1  0.250000  0.750000  0.985523  1
  Co  Co12  1  0.250000  0.420207  0.010889  1
  Co  Co13  1  0.250000  0.079793  0.010889  1
  Co  Co14  1  0.750000  0.586240  0.995632  1
  Co  Co15  1  0.750000  0.913760  0.995632  1
  Co  Co16  1  0.250000  0.454642  0.567144  1
  Co  Co17  1  0.250000  0.045358  0.567144  1
  Co  Co18  1  0.750000  0.547195  0.430188  1
  Co  Co19  1  0.750000  0.952805  0.430188  1
  Co  Co20  1  0.250000  0.870878  0.291589  1
  Co  Co21  1  0.250000  0.629122  0.291589  1
  Co  Co22  1  0.750000  0.126625  0.705512  1
  Co  Co23  1  0.750000  0.373375  0.705512  1
  P  P24  1  0.250000  0.250000  0.119781  1
  P  P25  1  0.750000  0.750000  0.882230  1
  P  P26  1  0.250000  0.250000  0.643695  1
  P  P27  1  0.750000  0.750000  0.343975  1
  P  P28  1  0.250000  0.439707  0.382682  1
  P  P29  1  0.250000  0.060293  0.382682  1
  P  P30  1  0.750000  0.561896  0.614796  1
  P  P31  1  0.750000  0.938104  0.614796  1
  P  P32  1  0.250000  0.899165  0.110093  1
  P  P33  1  0.250000  0.600835  0.110093  1
  P  P34  1  0.750000  0.088751  0.896783  1
  P  P35  1  0.750000  0.411249  0.896783  1
