# generated using pymatgen
data_Tb10Tl6Se
_symmetry_space_group_name_H-M   'P 1'
_cell_length_a   9.20999500
_cell_length_b   9.20999816
_cell_length_c   6.61954900
_cell_angle_alpha   90.00000000
_cell_angle_beta   90.00000000
_cell_angle_gamma   119.99999224
_symmetry_Int_Tables_number   1
_chemical_formula_structural   Tb10Tl6Se
_chemical_formula_sum   'Tb10 Tl6 Se1'
_cell_volume   486.27059106
_cell_formula_units_Z   1
loop_
 _symmetry_equiv_pos_site_id
 _symmetry_equiv_pos_as_xyz
  1  'x, y, z'
loop_
 _atom_site_type_symbol
 _atom_site_label
 _atom_site_symmetry_multiplicity
 _atom_site_fract_x
 _atom_site_fract_y
 _atom_site_fract_z
 _atom_site_occupancy
  Tb  Tb0  1  0.666667  0.333333  0.500000  1
  Tb  Tb1  1  0.333333  0.666667  0.500000  1
  Tb  Tb2  1  0.333333  0.666667  0.000000  1
  Tb  Tb3  1  0.666667  0.333333  0.000000  1
  Tb  Tb4  1  0.750568  0.750568  0.244767  1
  Tb  Tb5  1  0.249432  0.000000  0.244767  1
  Tb  Tb6  1  0.000000  0.249432  0.244767  1
  Tb  Tb7  1  0.249432  0.249432  0.755233  1
  Tb  Tb8  1  0.750568  0.000000  0.755233  1
  Tb  Tb9  1  0.000000  0.750568  0.755233  1
  Tl  Tl10  1  0.396382  0.396382  0.246721  1
  Tl  Tl11  1  0.603618  0.000000  0.246721  1
  Tl  Tl12  1  0.000000  0.603618  0.246721  1
  Tl  Tl13  1  0.603618  0.603618  0.753279  1
  Tl  Tl14  1  0.396382  0.000000  0.753279  1
  Tl  Tl15  1  0.000000  0.396382  0.753279  1
  Se  Se16  1  0.000000  0.000000  0.500000  1
