# generated using pymatgen
data_Tb2Y2LuSn4
_symmetry_space_group_name_H-M   'P 1'
_cell_length_a   8.00697500
_cell_length_b   8.16503600
_cell_length_c   15.46997800
_cell_angle_alpha   90.00000000
_cell_angle_beta   90.00000000
_cell_angle_gamma   90.00000000
_symmetry_Int_Tables_number   1
_chemical_formula_structural   Tb2Y2LuSn4
_chemical_formula_sum   'Tb8 Y8 Lu4 Sn16'
_cell_volume   1011.38445098
_cell_formula_units_Z   4
loop_
 _symmetry_equiv_pos_site_id
 _symmetry_equiv_pos_as_xyz
  1  'x, y, z'
loop_
 _atom_site_type_symbol
 _atom_site_label
 _atom_site_symmetry_multiplicity
 _atom_site_fract_x
 _atom_site_fract_y
 _atom_site_fract_z
 _atom_site_occupancy
  Tb  Tb0  1  0.520169  0.320044  0.902494  1
  Tb  Tb1  1  0.020169  0.179956  0.597506  1
  Tb  Tb2  1  0.479831  0.679956  0.402494  1
  Tb  Tb3  1  0.979831  0.820044  0.097506  1
  Tb  Tb4  1  0.479831  0.679956  0.097506  1
  Tb  Tb5  1  0.979831  0.820044  0.402494  1
  Tb  Tb6  1  0.520169  0.320044  0.597506  1
  Tb  Tb7  1  0.020169  0.179956  0.902494  1
  Y  Y8  1  0.367389  0.836331  0.878078  1
  Y  Y9  1  0.867389  0.663669  0.621922  1
  Y  Y10  1  0.632611  0.163669  0.378078  1
  Y  Y11  1  0.132611  0.336331  0.121922  1
  Y  Y12  1  0.632611  0.163669  0.121922  1
  Y  Y13  1  0.132611  0.336331  0.378078  1
  Y  Y14  1  0.367389  0.836331  0.621922  1
  Y  Y15  1  0.867389  0.663669  0.878078  1
  Lu  Lu16  1  0.198419  0.502488  0.750000  1
  Lu  Lu17  1  0.698419  0.997512  0.750000  1
  Lu  Lu18  1  0.801581  0.497512  0.250000  1
  Lu  Lu19  1  0.301581  0.002488  0.250000  1
  Sn  Sn20  1  0.292653  0.034683  0.042775  1
  Sn  Sn21  1  0.792653  0.465317  0.457225  1
  Sn  Sn22  1  0.707347  0.965317  0.542775  1
  Sn  Sn23  1  0.207347  0.534683  0.957225  1
  Sn  Sn24  1  0.707347  0.965317  0.957225  1
  Sn  Sn25  1  0.207347  0.534683  0.542775  1
  Sn  Sn26  1  0.292653  0.034683  0.457225  1
  Sn  Sn27  1  0.792653  0.465317  0.042775  1
  Sn  Sn28  1  0.563897  0.618627  0.750000  1
  Sn  Sn29  1  0.063897  0.881373  0.750000  1
  Sn  Sn30  1  0.436103  0.381373  0.250000  1
  Sn  Sn31  1  0.936103  0.118627  0.250000  1
  Sn  Sn32  1  0.328714  0.147774  0.750000  1
  Sn  Sn33  1  0.828714  0.352226  0.750000  1
  Sn  Sn34  1  0.671286  0.852226  0.250000  1
  Sn  Sn35  1  0.171286  0.647774  0.250000  1
