# generated using pymatgen
data_Sr2Cu7Pt3
_symmetry_space_group_name_H-M   'P 1'
_cell_length_a   4.08598800
_cell_length_b   5.28743496
_cell_length_c   9.39859741
_cell_angle_alpha   88.02256681
_cell_angle_beta   90.00000000
_cell_angle_gamma   90.00000000
_symmetry_Int_Tables_number   1
_chemical_formula_structural   Sr2Cu7Pt3
_chemical_formula_sum   'Sr2 Cu7 Pt3'
_cell_volume   202.93010073
_cell_formula_units_Z   1
loop_
 _symmetry_equiv_pos_site_id
 _symmetry_equiv_pos_as_xyz
  1  'x, y, z'
loop_
 _atom_site_type_symbol
 _atom_site_label
 _atom_site_symmetry_multiplicity
 _atom_site_fract_x
 _atom_site_fract_y
 _atom_site_fract_z
 _atom_site_occupancy
  Sr  Sr0  1  0.000000  0.238189  0.754313  1
  Sr  Sr1  1  0.000000  0.761811  0.245687  1
  Cu  Cu2  1  0.000000  0.265989  0.083254  1
  Cu  Cu3  1  0.000000  0.746838  0.573050  1
  Cu  Cu4  1  0.000000  0.734011  0.916746  1
  Cu  Cu5  1  0.000000  0.253162  0.426950  1
  Cu  Cu6  1  0.500000  0.500000  0.500000  1
  Cu  Cu7  1  0.500000  0.500000  0.000000  1
  Cu  Cu8  1  0.500000  0.000000  0.500000  1
  Pt  Pt9  1  0.500000  0.737144  0.743638  1
  Pt  Pt10  1  0.500000  0.262856  0.256362  1
  Pt  Pt11  1  0.500000  0.000000  0.000000  1
