# generated using pymatgen
data_Pr4Al7Ga17Pt9
_symmetry_space_group_name_H-M   'P 1'
_cell_length_a   7.54549241
_cell_length_b   7.60604734
_cell_length_c   13.47041000
_cell_angle_alpha   84.89313462
_cell_angle_beta   100.49401671
_cell_angle_gamma   119.89206137
_symmetry_Int_Tables_number   1
_chemical_formula_structural   Pr4Al7Ga17Pt9
_chemical_formula_sum   'Pr4 Al7 Ga17 Pt9'
_cell_volume   659.02668561
_cell_formula_units_Z   1
loop_
 _symmetry_equiv_pos_site_id
 _symmetry_equiv_pos_as_xyz
  1  'x, y, z'
loop_
 _atom_site_type_symbol
 _atom_site_label
 _atom_site_symmetry_multiplicity
 _atom_site_fract_x
 _atom_site_fract_y
 _atom_site_fract_z
 _atom_site_occupancy
  Pr  Pr0  1  0.437173  0.830152  0.808374  1
  Pr  Pr1  1  0.562483  0.171318  0.191136  1
  Pr  Pr2  1  0.771721  0.504345  0.809143  1
  Pr  Pr3  1  0.226390  0.494026  0.190064  1
  Al  Al4  1  0.477844  0.166838  0.947082  1
  Al  Al5  1  0.521593  0.833374  0.053242  1
  Al  Al6  1  0.021412  0.166327  0.559587  1
  Al  Al7  1  0.979789  0.833528  0.440090  1
  Al  Al8  1  0.353746  0.834064  0.556220  1
  Al  Al9  1  0.645920  0.164796  0.442659  1
  Al  Al10  1  0.617125  0.834257  0.332546  1
  Ga  Ga11  1  0.386027  0.165292  0.671385  1
  Ga  Ga12  1  0.056303  0.496639  0.668850  1
  Ga  Ga13  1  0.944004  0.503327  0.331863  1
  Ga  Ga14  1  0.728402  0.836267  0.668145  1
  Ga  Ga15  1  0.272002  0.163916  0.332387  1
  Ga  Ga16  1  0.146634  0.499052  0.942163  1
  Ga  Ga17  1  0.853003  0.501456  0.057797  1
  Ga  Ga18  1  0.817147  0.834761  0.947115  1
  Ga  Ga19  1  0.181553  0.164434  0.053068  1
  Ga  Ga20  1  0.315360  0.503662  0.442528  1
  Ga  Ga21  1  0.686106  0.497533  0.556432  1
  Ga  Ga22  1  0.099132  0.832299  0.184390  1
  Ga  Ga23  1  0.901236  0.167833  0.815557  1
  Ga  Ga24  1  0.306791  0.363589  0.816101  1
  Ga  Ga25  1  0.692655  0.638356  0.184054  1
  Ga  Ga26  1  0.103941  0.963423  0.815685  1
  Ga  Ga27  1  0.893686  0.035076  0.184748  1
  Pt  Pt28  1  0.380030  0.501150  0.635324  1
  Pt  Pt29  1  0.620135  0.502352  0.363869  1
  Pt  Pt30  1  0.177712  0.832939  0.000213  1
  Pt  Pt31  1  0.822004  0.167026  0.999650  1
  Pt  Pt32  1  0.296619  0.837173  0.365172  1
  Pt  Pt33  1  0.707359  0.162754  0.633419  1
  Pt  Pt34  1  0.048430  0.833177  0.631416  1
  Pt  Pt35  1  0.948669  0.163429  0.368413  1
  Pt  Pt36  1  0.499865  0.500060  0.000119  1
