# generated using pymatgen
data_Tb7Ho13Pb16
_symmetry_space_group_name_H-M   'P 1'
_cell_length_a   8.20395066
_cell_length_b   8.28661684
_cell_length_c   15.62001569
_cell_angle_alpha   89.97192575
_cell_angle_beta   90.01944955
_cell_angle_gamma   89.89339927
_symmetry_Int_Tables_number   1
_chemical_formula_structural   Tb7Ho13Pb16
_chemical_formula_sum   'Tb7 Ho13 Pb16'
_cell_volume   1061.89343317
_cell_formula_units_Z   1
loop_
 _symmetry_equiv_pos_site_id
 _symmetry_equiv_pos_as_xyz
  1  'x, y, z'
loop_
 _atom_site_type_symbol
 _atom_site_label
 _atom_site_symmetry_multiplicity
 _atom_site_fract_x
 _atom_site_fract_y
 _atom_site_fract_z
 _atom_site_occupancy
  Tb  Tb0  1  0.035004  0.176678  0.599977  1
  Tb  Tb1  1  0.464469  0.676150  0.400232  1
  Tb  Tb2  1  0.964624  0.823625  0.099722  1
  Tb  Tb3  1  0.464339  0.675887  0.099779  1
  Tb  Tb4  1  0.965034  0.823389  0.400364  1
  Tb  Tb5  1  0.535050  0.323565  0.599914  1
  Tb  Tb6  1  0.035104  0.176709  0.900291  1
  Ho  Ho7  1  0.376398  0.841644  0.878565  1
  Ho  Ho8  1  0.875477  0.657781  0.621071  1
  Ho  Ho9  1  0.623612  0.158225  0.378548  1
  Ho  Ho10  1  0.123780  0.341859  0.120798  1
  Ho  Ho11  1  0.623190  0.158290  0.121190  1
  Ho  Ho12  1  0.124236  0.342003  0.379140  1
  Ho  Ho13  1  0.376363  0.841931  0.621720  1
  Ho  Ho14  1  0.876054  0.658034  0.879062  1
  Ho  Ho15  1  0.536937  0.324551  0.899542  1
  Ho  Ho16  1  0.208301  0.504278  0.750245  1
  Ho  Ho17  1  0.708453  0.995780  0.750198  1
  Ho  Ho18  1  0.791576  0.495469  0.249817  1
  Ho  Ho19  1  0.291161  0.004255  0.249954  1
  Pb  Pb20  1  0.282763  0.033800  0.042854  1
  Pb  Pb21  1  0.782287  0.465268  0.457138  1
  Pb  Pb22  1  0.717396  0.966068  0.543125  1
  Pb  Pb23  1  0.219154  0.533733  0.956674  1
  Pb  Pb24  1  0.716656  0.966812  0.956849  1
  Pb  Pb25  1  0.217421  0.534790  0.543088  1
  Pb  Pb26  1  0.282744  0.034092  0.457203  1
  Pb  Pb27  1  0.781657  0.464589  0.042242  1
  Pb  Pb28  1  0.571338  0.625796  0.750008  1
  Pb  Pb29  1  0.070808  0.873396  0.750030  1
  Pb  Pb30  1  0.428972  0.373894  0.249773  1
  Pb  Pb31  1  0.929109  0.126798  0.249957  1
  Pb  Pb32  1  0.347404  0.154104  0.750663  1
  Pb  Pb33  1  0.846587  0.347130  0.750260  1
  Pb  Pb34  1  0.653069  0.846626  0.250065  1
  Pb  Pb35  1  0.153471  0.653000  0.249945  1
