# generated using pymatgen
data_DyErMnIr3
_symmetry_space_group_name_H-M   'P 1'
_cell_length_a   5.17818757
_cell_length_b   5.17818776
_cell_length_c   5.17818875
_cell_angle_alpha   63.82776602
_cell_angle_beta   63.82776537
_cell_angle_gamma   63.82776737
_symmetry_Int_Tables_number   1
_chemical_formula_structural   DyErMnIr3
_chemical_formula_sum   'Dy1 Er1 Mn1 Ir3'
_cell_volume   106.46731375
_cell_formula_units_Z   1
loop_
 _symmetry_equiv_pos_site_id
 _symmetry_equiv_pos_as_xyz
  1  'x, y, z'
loop_
 _atom_site_type_symbol
 _atom_site_label
 _atom_site_symmetry_multiplicity
 _atom_site_fract_x
 _atom_site_fract_y
 _atom_site_fract_z
 _atom_site_occupancy
  Dy  Dy0  1  0.251375  0.251375  0.251375  1
  Er  Er1  1  0.998307  0.998307  0.998307  1
  Mn  Mn2  1  0.624991  0.624991  0.624991  1
  Ir  Ir3  1  0.625268  0.625268  0.124790  1
  Ir  Ir4  1  0.625268  0.124790  0.625268  1
  Ir  Ir5  1  0.124790  0.625268  0.625268  1
