# generated using pymatgen
data_La2Pr3DyOsI10
_symmetry_space_group_name_H-M   'P 1'
_cell_length_a   8.04586789
_cell_length_b   10.20260974
_cell_length_c   10.00302443
_cell_angle_alpha   107.38754089
_cell_angle_beta   96.14417597
_cell_angle_gamma   105.44737250
_symmetry_Int_Tables_number   1
_chemical_formula_structural   La2Pr3DyOsI10
_chemical_formula_sum   'La2 Pr3 Dy1 Os1 I10'
_cell_volume   739.59805367
_cell_formula_units_Z   1
loop_
 _symmetry_equiv_pos_site_id
 _symmetry_equiv_pos_as_xyz
  1  'x, y, z'
loop_
 _atom_site_type_symbol
 _atom_site_label
 _atom_site_symmetry_multiplicity
 _atom_site_fract_x
 _atom_site_fract_y
 _atom_site_fract_z
 _atom_site_occupancy
  La  La0  1  0.384130  0.957879  0.727896  1
  La  La1  1  0.609806  0.039246  0.269496  1
  Pr  Pr2  1  0.467955  0.293913  0.589532  1
  Pr  Pr3  1  0.527881  0.704891  0.407459  1
  Pr  Pr4  1  0.860241  0.131528  0.673829  1
  Dy  Dy5  1  0.150244  0.872222  0.331683  1
  Os  Os6  1  0.498201  0.999274  0.499481  1
  I  I7  1  0.415005  0.631040  0.680153  1
  I  I8  1  0.584661  0.368620  0.318573  1
  I  I9  1  0.287020  0.261374  0.852676  1
  I  I10  1  0.729466  0.744096  0.155329  1
  I  I11  1  0.854517  0.453434  0.770096  1
  I  I12  1  0.138835  0.555986  0.229471  1
  I  I13  1  0.046678  0.171934  0.404876  1
  I  I14  1  0.232066  0.910390  0.048276  1
  I  I15  1  0.757961  0.085158  0.958179  1
  I  I16  1  0.955332  0.819018  0.582996  1
