# generated using pymatgen
data_Tm8ReTc3C8
_symmetry_space_group_name_H-M   'P 1'
_cell_length_a   5.02891900
_cell_length_b   6.50537118
_cell_length_c   9.73843827
_cell_angle_alpha   90.02715422
_cell_angle_beta   90.00000000
_cell_angle_gamma   90.00000000
_symmetry_Int_Tables_number   1
_chemical_formula_structural   Tm8ReTc3C8
_chemical_formula_sum   'Tm8 Re1 Tc3 C8'
_cell_volume   318.59282375
_cell_formula_units_Z   1
loop_
 _symmetry_equiv_pos_site_id
 _symmetry_equiv_pos_as_xyz
  1  'x, y, z'
loop_
 _atom_site_type_symbol
 _atom_site_label
 _atom_site_symmetry_multiplicity
 _atom_site_fract_x
 _atom_site_fract_y
 _atom_site_fract_z
 _atom_site_occupancy
  Tm  Tm0  1  0.250000  0.823288  0.941889  1
  Tm  Tm1  1  0.250000  0.322814  0.557665  1
  Tm  Tm2  1  0.750000  0.176179  0.057366  1
  Tm  Tm3  1  0.750000  0.677959  0.441766  1
  Tm  Tm4  1  0.250000  0.465575  0.217876  1
  Tm  Tm5  1  0.250000  0.965676  0.282119  1
  Tm  Tm6  1  0.750000  0.533621  0.781858  1
  Tm  Tm7  1  0.750000  0.033666  0.717626  1
  Re  Re8  1  0.750000  0.217804  0.368356  1
  Tc  Tc9  1  0.250000  0.282687  0.868246  1
  Tc  Tc10  1  0.250000  0.782459  0.631718  1
  Tc  Tc11  1  0.750000  0.717895  0.131463  1
  C  C12  1  0.250000  0.050267  0.741037  1
  C  C13  1  0.250000  0.549949  0.758699  1
  C  C14  1  0.750000  0.950982  0.259870  1
  C  C15  1  0.750000  0.449908  0.241419  1
  C  C16  1  0.250000  0.674237  0.447286  1
  C  C17  1  0.250000  0.174535  0.052628  1
  C  C18  1  0.750000  0.325113  0.553860  1
  C  C19  1  0.750000  0.825385  0.947253  1
