# generated using pymatgen
data_Ho4CdSnAu4
_symmetry_space_group_name_H-M   'P 1'
_cell_length_a   8.01028000
_cell_length_b   8.01028000
_cell_length_c   7.32535400
_cell_angle_alpha   90.00000000
_cell_angle_beta   90.00000000
_cell_angle_gamma   90.00000000
_symmetry_Int_Tables_number   1
_chemical_formula_structural   Ho4CdSnAu4
_chemical_formula_sum   'Ho8 Cd2 Sn2 Au8'
_cell_volume   470.02830436
_cell_formula_units_Z   2
loop_
 _symmetry_equiv_pos_site_id
 _symmetry_equiv_pos_as_xyz
  1  'x, y, z'
loop_
 _atom_site_type_symbol
 _atom_site_label
 _atom_site_symmetry_multiplicity
 _atom_site_fract_x
 _atom_site_fract_y
 _atom_site_fract_z
 _atom_site_occupancy
  Ho  Ho0  1  0.842058  0.157942  0.500000  1
  Ho  Ho1  1  0.157942  0.842058  0.500000  1
  Ho  Ho2  1  0.342058  0.342058  0.000000  1
  Ho  Ho3  1  0.657942  0.657942  0.000000  1
  Ho  Ho4  1  0.683554  0.683554  0.500000  1
  Ho  Ho5  1  0.316446  0.316446  0.500000  1
  Ho  Ho6  1  0.183554  0.816446  0.000000  1
  Ho  Ho7  1  0.816446  0.183554  0.000000  1
  Cd  Cd8  1  0.500000  0.000000  0.250000  1
  Cd  Cd9  1  0.000000  0.500000  0.750000  1
  Sn  Sn10  1  0.500000  0.000000  0.750000  1
  Sn  Sn11  1  0.000000  0.500000  0.250000  1
  Au  Au12  1  0.625321  0.368817  0.274968  1
  Au  Au13  1  0.374679  0.631183  0.274968  1
  Au  Au14  1  0.125321  0.131183  0.774968  1
  Au  Au15  1  0.874679  0.868817  0.774968  1
  Au  Au16  1  0.368817  0.625321  0.725032  1
  Au  Au17  1  0.631183  0.374679  0.725032  1
  Au  Au18  1  0.868817  0.874679  0.225032  1
  Au  Au19  1  0.131183  0.125321  0.225032  1
