# generated using pymatgen
data_Ir(ClF)2
_symmetry_space_group_name_H-M   'P 1'
_cell_length_a   5.35658279
_cell_length_b   5.35658310
_cell_length_c   3.51904739
_cell_angle_alpha   87.76837401
_cell_angle_beta   87.76837021
_cell_angle_gamma   95.82838564
_symmetry_Int_Tables_number   1
_chemical_formula_structural   Ir(ClF)2
_chemical_formula_sum   'Ir1 Cl2 F2'
_cell_volume   100.28031830
_cell_formula_units_Z   1
loop_
 _symmetry_equiv_pos_site_id
 _symmetry_equiv_pos_as_xyz
  1  'x, y, z'
loop_
 _atom_site_type_symbol
 _atom_site_label
 _atom_site_symmetry_multiplicity
 _atom_site_fract_x
 _atom_site_fract_y
 _atom_site_fract_z
 _atom_site_occupancy
  Ir  Ir0  1  0.000000  0.000000  0.000000  1
  Cl  Cl1  1  0.216121  0.216121  0.474456  1
  Cl  Cl2  1  0.783879  0.783879  0.525544  1
  F  F3  1  0.755382  0.244618  0.000000  1
  F  F4  1  0.244618  0.755382  0.000000  1
