# generated using pymatgen
data_TbLu(P2Rh3)2
_symmetry_space_group_name_H-M   'P 1'
_cell_length_a   3.91582300
_cell_length_b   11.18957208
_cell_length_c   12.73389909
_cell_angle_alpha   89.98646355
_cell_angle_beta   90.00000000
_cell_angle_gamma   90.00000000
_symmetry_Int_Tables_number   1
_chemical_formula_structural   TbLu(P2Rh3)2
_chemical_formula_sum   'Tb3 Lu3 P12 Rh18'
_cell_volume   557.95339295
_cell_formula_units_Z   3
loop_
 _symmetry_equiv_pos_site_id
 _symmetry_equiv_pos_as_xyz
  1  'x, y, z'
loop_
 _atom_site_type_symbol
 _atom_site_label
 _atom_site_symmetry_multiplicity
 _atom_site_fract_x
 _atom_site_fract_y
 _atom_site_fract_z
 _atom_site_occupancy
  Tb  Tb0  1  0.000000  0.500036  0.521772  1
  Tb  Tb1  1  0.500000  0.999961  0.478577  1
  Tb  Tb2  1  0.500000  0.815385  0.205177  1
  Lu  Lu3  1  0.500000  0.184704  0.205524  1
  Lu  Lu4  1  0.000000  0.684622  0.794553  1
  Lu  Lu5  1  0.000000  0.315320  0.794216  1
  P  P6  1  0.500000  0.499722  0.878000  1
  P  P7  1  0.000000  0.000948  0.121355  1
  P  P8  1  0.500000  0.500392  0.351762  1
  P  P9  1  0.000000  0.999961  0.648375  1
  P  P10  1  0.500000  0.315652  0.619903  1
  P  P11  1  0.500000  0.684185  0.620395  1
  P  P12  1  0.000000  0.184887  0.380257  1
  P  P13  1  0.000000  0.815870  0.381523  1
  P  P14  1  0.500000  0.845000  0.892029  1
  P  P15  1  0.500000  0.155076  0.891717  1
  P  P16  1  0.000000  0.653094  0.107463  1
  P  P17  1  0.000000  0.345322  0.107989  1
  Rh  Rh18  1  0.500000  0.500129  0.169307  1
  Rh  Rh19  1  0.000000  0.000451  0.830532  1
  Rh  Rh20  1  0.500000  0.499817  0.702483  1
  Rh  Rh21  1  0.000000  0.001479  0.298227  1
  Rh  Rh22  1  0.000000  0.499517  0.979001  1
  Rh  Rh23  1  0.500000  0.000695  0.019538  1
  Rh  Rh24  1  0.500000  0.333788  0.992766  1
  Rh  Rh25  1  0.500000  0.665681  0.991992  1
  Rh  Rh26  1  0.000000  0.166662  0.007132  1
  Rh  Rh27  1  0.000000  0.833885  0.005748  1
  Rh  Rh28  1  0.500000  0.296006  0.431218  1
  Rh  Rh29  1  0.500000  0.703865  0.432171  1
  Rh  Rh30  1  0.000000  0.204480  0.568822  1
  Rh  Rh31  1  0.000000  0.795737  0.569197  1
  Rh  Rh32  1  0.500000  0.871268  0.711655  1
  Rh  Rh33  1  0.500000  0.128828  0.711443  1
  Rh  Rh34  1  0.000000  0.626600  0.289809  1
  Rh  Rh35  1  0.000000  0.370978  0.288373  1
