# generated using pymatgen
data_Sc4TiCo16Si7Tc
_symmetry_space_group_name_H-M   'P 1'
_cell_length_a   7.94199178
_cell_length_b   7.96090228
_cell_length_c   7.97345086
_cell_angle_alpha   59.79091112
_cell_angle_beta   60.02606352
_cell_angle_gamma   60.27187783
_symmetry_Int_Tables_number   1
_chemical_formula_structural   Sc4TiCo16Si7Tc
_chemical_formula_sum   'Sc4 Ti1 Co16 Si7 Tc1'
_cell_volume   356.69681819
_cell_formula_units_Z   1
loop_
 _symmetry_equiv_pos_site_id
 _symmetry_equiv_pos_as_xyz
  1  'x, y, z'
loop_
 _atom_site_type_symbol
 _atom_site_label
 _atom_site_symmetry_multiplicity
 _atom_site_fract_x
 _atom_site_fract_y
 _atom_site_fract_z
 _atom_site_occupancy
  Sc  Sc0  1  0.802943  0.795951  0.199145  1
  Sc  Sc1  1  0.789359  0.210641  0.212088  1
  Sc  Sc2  1  0.204049  0.197057  0.798039  1
  Sc  Sc3  1  0.796269  0.203731  0.791505  1
  Ti  Ti4  1  0.215909  0.784091  0.208512  1
  Co  Co5  1  0.614559  0.622932  0.140632  1
  Co  Co6  1  0.171538  0.486388  0.172437  1
  Co  Co7  1  0.861519  0.381218  0.378005  1
  Co  Co8  1  0.513612  0.828462  0.830362  1
  Co  Co9  1  0.480144  0.173811  0.173699  1
  Co  Co10  1  0.828982  0.828550  0.515312  1
  Co  Co11  1  0.172170  0.173507  0.482077  1
  Co  Co12  1  0.147048  0.621737  0.616033  1
  Co  Co13  1  0.171450  0.171018  0.172842  1
  Co  Co14  1  0.378422  0.386690  0.854729  1
  Co  Co15  1  0.613310  0.621578  0.619841  1
  Co  Co16  1  0.378263  0.852952  0.384819  1
  Co  Co17  1  0.377068  0.385441  0.378123  1
  Co  Co18  1  0.826493  0.827830  0.827754  1
  Co  Co19  1  0.618782  0.138481  0.620741  1
  Co  Co20  1  0.826189  0.519856  0.827655  1
  Si  Si21  1  0.495551  0.993084  0.504474  1
  Si  Si22  1  0.495241  0.504759  0.994284  1
  Si  Si23  1  0.505968  0.494032  0.496991  1
  Si  Si24  1  0.007736  0.992264  0.503417  1
  Si  Si25  1  0.006916  0.504449  0.993109  1
  Si  Si26  1  0.000361  0.502190  0.500357  1
  Si  Si27  1  0.497810  0.999639  0.002908  1
  Tc  Tc28  1  0.202343  0.797657  0.800106  1
