# generated using pymatgen
data_Sm3HoSc2(Si3Ru)8
_symmetry_space_group_name_H-M   'P 1'
_cell_length_a   10.07452075
_cell_length_b   10.07452088
_cell_length_c   8.13796609
_cell_angle_alpha   90.07524416
_cell_angle_beta   89.92475767
_cell_angle_gamma   132.37327055
_symmetry_Int_Tables_number   1
_chemical_formula_structural   Sm3HoSc2(Si3Ru)8
_chemical_formula_sum   'Sm3 Ho1 Sc2 Si24 Ru8'
_cell_volume   610.20165212
_cell_formula_units_Z   1
loop_
 _symmetry_equiv_pos_site_id
 _symmetry_equiv_pos_as_xyz
  1  'x, y, z'
loop_
 _atom_site_type_symbol
 _atom_site_label
 _atom_site_symmetry_multiplicity
 _atom_site_fract_x
 _atom_site_fract_y
 _atom_site_fract_z
 _atom_site_occupancy
  Sm  Sm0  1  0.502125  0.002125  0.750000  1
  Sm  Sm1  1  0.997699  0.497699  0.250000  1
  Sm  Sm2  1  0.497366  0.997366  0.250000  1
  Ho  Ho3  1  0.002150  0.502150  0.750000  1
  Sc  Sc4  1  0.499969  0.499940  0.500079  1
  Sc  Sc5  1  0.999940  0.999969  0.999921  1
  Si  Si6  1  0.795803  0.206143  0.501434  1
  Si  Si7  1  0.293734  0.704005  0.998688  1
  Si  Si8  1  0.204005  0.793734  0.501312  1
  Si  Si9  1  0.706143  0.295803  0.998566  1
  Si  Si10  1  0.331647  0.331260  0.832304  1
  Si  Si11  1  0.668505  0.668531  0.167870  1
  Si  Si12  1  0.168531  0.168505  0.332130  1
  Si  Si13  1  0.831260  0.831647  0.667696  1
  Si  Si14  1  0.119644  0.888285  0.729061  1
  Si  Si15  1  0.112090  0.880401  0.269985  1
  Si  Si16  1  0.610736  0.378765  0.229773  1
  Si  Si17  1  0.620867  0.389220  0.770418  1
  Si  Si18  1  0.878765  0.110736  0.270227  1
  Si  Si19  1  0.889220  0.120867  0.729582  1
  Si  Si20  1  0.388285  0.619644  0.770939  1
  Si  Si21  1  0.380401  0.612090  0.230015  1
  Si  Si22  1  0.346349  0.114847  0.504656  1
  Si  Si23  1  0.886341  0.656035  0.496796  1
  Si  Si24  1  0.384980  0.153548  0.004751  1
  Si  Si25  1  0.844518  0.613731  0.994259  1
  Si  Si26  1  0.653548  0.884980  0.495249  1
  Si  Si27  1  0.113731  0.344518  0.505741  1
  Si  Si28  1  0.614847  0.846349  0.995344  1
  Si  Si29  1  0.156035  0.386341  0.003204  1
  Ru  Ru30  1  0.669328  0.335230  0.500795  1
  Ru  Ru31  1  0.164909  0.830819  0.998408  1
  Ru  Ru32  1  0.330819  0.664909  0.501592  1
  Ru  Ru33  1  0.835230  0.169328  0.999205  1
  Ru  Ru34  1  0.126487  0.126335  0.627046  1
  Ru  Ru35  1  0.873655  0.874002  0.372652  1
  Ru  Ru36  1  0.374002  0.373655  0.127348  1
  Ru  Ru37  1  0.626335  0.626487  0.872954  1
