# generated using pymatgen
data_K4P2PtS8
_symmetry_space_group_name_H-M   'P 1'
_cell_length_a   6.49810853
_cell_length_b   7.06321352
_cell_length_c   9.17387087
_cell_angle_alpha   87.51738053
_cell_angle_beta   82.79230792
_cell_angle_gamma   84.84718400
_symmetry_Int_Tables_number   1
_chemical_formula_structural   K4P2PtS8
_chemical_formula_sum   'K4 P2 Pt1 S8'
_cell_volume   415.82367127
_cell_formula_units_Z   1
loop_
 _symmetry_equiv_pos_site_id
 _symmetry_equiv_pos_as_xyz
  1  'x, y, z'
loop_
 _atom_site_type_symbol
 _atom_site_label
 _atom_site_symmetry_multiplicity
 _atom_site_fract_x
 _atom_site_fract_y
 _atom_site_fract_z
 _atom_site_occupancy
  K  K0  1  0.285589  0.337695  0.136903  1
  K  K1  1  0.746044  0.219251  0.475193  1
  K  K2  1  0.253956  0.780749  0.524807  1
  K  K3  1  0.714411  0.662305  0.863097  1
  P  P4  1  0.826006  0.731723  0.262833  1
  P  P5  1  0.173994  0.268277  0.737167  1
  Pt  Pt6  1  0.000000  0.000000  0.000000  1
  S  S7  1  0.681101  0.959715  0.146220  1
  S  S8  1  0.774686  0.477427  0.187488  1
  S  S9  1  0.130561  0.804355  0.187532  1
  S  S10  1  0.759740  0.746774  0.484339  1
  S  S11  1  0.240260  0.253226  0.515661  1
  S  S12  1  0.869439  0.195645  0.812468  1
  S  S13  1  0.225314  0.522573  0.812512  1
  S  S14  1  0.318899  0.040285  0.853780  1
