# generated using pymatgen
data_La17Nd3Sn9Sb7
_symmetry_space_group_name_H-M   'P 1'
_cell_length_a   8.52583295
_cell_length_b   8.59903363
_cell_length_c   16.30662200
_cell_angle_alpha   89.95582398
_cell_angle_beta   90.20192395
_cell_angle_gamma   90.05591174
_symmetry_Int_Tables_number   1
_chemical_formula_structural   La17Nd3Sn9Sb7
_chemical_formula_sum   'La17 Nd3 Sn9 Sb7'
_cell_volume   1195.49410380
_cell_formula_units_Z   1
loop_
 _symmetry_equiv_pos_site_id
 _symmetry_equiv_pos_as_xyz
  1  'x, y, z'
loop_
 _atom_site_type_symbol
 _atom_site_label
 _atom_site_symmetry_multiplicity
 _atom_site_fract_x
 _atom_site_fract_y
 _atom_site_fract_z
 _atom_site_occupancy
  La  La0  1  0.068372  0.169087  0.391457  1
  La  La1  1  0.408282  0.835143  0.113754  1
  La  La2  1  0.089659  0.334357  0.613168  1
  La  La3  1  0.438917  0.674388  0.892802  1
  La  La4  1  0.909102  0.666499  0.114291  1
  La  La5  1  0.088673  0.332522  0.886902  1
  La  La6  1  0.432278  0.670090  0.609066  1
  La  La7  1  0.588114  0.166889  0.612534  1
  La  La8  1  0.762091  0.501909  0.750350  1
  La  La9  1  0.910835  0.665891  0.386467  1
  La  La10  1  0.064879  0.169595  0.108481  1
  La  La11  1  0.933933  0.829295  0.890874  1
  La  La12  1  0.590880  0.165882  0.886347  1
  La  La13  1  0.565784  0.328251  0.109840  1
  La  La14  1  0.409974  0.833979  0.387489  1
  La  La15  1  0.931942  0.829977  0.609192  1
  La  La16  1  0.568613  0.330583  0.389923  1
  Nd  Nd17  1  0.238244  0.498306  0.249459  1
  Nd  Nd18  1  0.738228  0.001666  0.248180  1
  Nd  Nd19  1  0.261696  0.998507  0.750184  1
  Sn  Sn20  1  0.630737  0.870551  0.749277  1
  Sn  Sn21  1  0.869260  0.366580  0.250624  1
  Sn  Sn22  1  0.608124  0.628208  0.250721  1
  Sn  Sn23  1  0.388884  0.373450  0.750221  1
  Sn  Sn24  1  0.135098  0.632575  0.750315  1
  Sn  Sn25  1  0.891507  0.125026  0.748934  1
  Sn  Sn26  1  0.741670  0.989642  0.047218  1
  Sn  Sn27  1  0.367999  0.131965  0.250843  1
  Sn  Sn28  1  0.108489  0.873687  0.251071  1
  Sb  Sb29  1  0.755895  0.493340  0.548241  1
  Sb  Sb30  1  0.743710  0.993275  0.450094  1
  Sb  Sb31  1  0.244618  0.505756  0.449925  1
  Sb  Sb32  1  0.257045  0.008494  0.950379  1
  Sb  Sb33  1  0.758156  0.490216  0.952472  1
  Sb  Sb34  1  0.243244  0.508351  0.048577  1
  Sb  Sb35  1  0.255070  0.006068  0.550323  1
