# generated using pymatgen
data_LaGa6Cu7
_symmetry_space_group_name_H-M   'P 1'
_cell_length_a   8.44559778
_cell_length_b   8.44559731
_cell_length_c   8.44559680
_cell_angle_alpha   121.59293739
_cell_angle_beta   119.44305460
_cell_angle_gamma   89.11536114
_symmetry_Int_Tables_number   1
_chemical_formula_structural   LaGa6Cu7
_chemical_formula_sum   'La2 Ga12 Cu14'
_cell_volume   422.38789446
_cell_formula_units_Z   2
loop_
 _symmetry_equiv_pos_site_id
 _symmetry_equiv_pos_as_xyz
  1  'x, y, z'
loop_
 _atom_site_type_symbol
 _atom_site_label
 _atom_site_symmetry_multiplicity
 _atom_site_fract_x
 _atom_site_fract_y
 _atom_site_fract_z
 _atom_site_occupancy
  La  La0  1  0.250000  0.750000  0.500000  1
  La  La1  1  0.750000  0.250000  0.500000  1
  Ga  Ga2  1  0.552542  0.545829  0.358313  1
  Ga  Ga3  1  0.447458  0.454171  0.641687  1
  Ga  Ga4  1  0.187516  0.194229  0.641687  1
  Ga  Ga5  1  0.312484  0.954171  0.006712  1
  Ga  Ga6  1  0.812484  0.805771  0.358313  1
  Ga  Ga7  1  0.687516  0.045829  0.993288  1
  Ga  Ga8  1  0.947458  0.305771  0.993288  1
  Ga  Ga9  1  0.052542  0.694229  0.006712  1
  Ga  Ga10  1  0.053525  0.307690  0.361215  1
  Ga  Ga11  1  0.946475  0.692310  0.638785  1
  Ga  Ga12  1  0.553525  0.192310  0.745835  1
  Ga  Ga13  1  0.446475  0.807690  0.254165  1
  Cu  Cu14  1  0.289437  0.294696  0.232774  1
  Cu  Cu15  1  0.710563  0.705304  0.767226  1
  Cu  Cu16  1  0.061921  0.056663  0.767226  1
  Cu  Cu17  1  0.438079  0.205304  0.994741  1
  Cu  Cu18  1  0.938079  0.943337  0.232774  1
  Cu  Cu19  1  0.561921  0.794696  0.005259  1
  Cu  Cu20  1  0.210563  0.443337  0.005259  1
  Cu  Cu21  1  0.789437  0.556663  0.994741  1
  Cu  Cu22  1  0.000000  0.000000  0.000000  1
  Cu  Cu23  1  0.500000  0.500000  0.000000  1
  Cu  Cu24  1  0.289648  0.064065  0.353714  1
  Cu  Cu25  1  0.710352  0.935935  0.646286  1
  Cu  Cu26  1  0.789648  0.435935  0.225584  1
  Cu  Cu27  1  0.210352  0.564065  0.774416  1
