# generated using pymatgen
data_Ac3Yb7Sn8
_symmetry_space_group_name_H-M   'P 1'
_cell_length_a   8.14413700
_cell_length_b   8.60601675
_cell_length_c   16.46244332
_cell_angle_alpha   89.71138753
_cell_angle_beta   90.00000000
_cell_angle_gamma   90.00000000
_symmetry_Int_Tables_number   1
_chemical_formula_structural   Ac3Yb7Sn8
_chemical_formula_sum   'Ac6 Yb14 Sn16'
_cell_volume   1153.81462802
_cell_formula_units_Z   2
loop_
 _symmetry_equiv_pos_site_id
 _symmetry_equiv_pos_as_xyz
  1  'x, y, z'
loop_
 _atom_site_type_symbol
 _atom_site_label
 _atom_site_symmetry_multiplicity
 _atom_site_fract_x
 _atom_site_fract_y
 _atom_site_fract_z
 _atom_site_occupancy
  Ac  Ac0  1  0.509801  0.679849  0.405045  1
  Ac  Ac1  1  0.009801  0.820151  0.094955  1
  Ac  Ac2  1  0.506577  0.679315  0.093012  1
  Ac  Ac3  1  0.006577  0.820685  0.406988  1
  Ac  Ac4  1  0.491898  0.316397  0.596802  1
  Ac  Ac5  1  0.991898  0.183603  0.903198  1
  Yb  Yb6  1  0.332252  0.831563  0.874052  1
  Yb  Yb7  1  0.832252  0.668437  0.625948  1
  Yb  Yb8  1  0.669740  0.168546  0.375398  1
  Yb  Yb9  1  0.169740  0.331454  0.124602  1
  Yb  Yb10  1  0.666698  0.171946  0.121185  1
  Yb  Yb11  1  0.166698  0.328054  0.378815  1
  Yb  Yb12  1  0.329552  0.831683  0.626801  1
  Yb  Yb13  1  0.829552  0.668317  0.873199  1
  Yb  Yb14  1  0.492688  0.311370  0.899314  1
  Yb  Yb15  1  0.992688  0.188630  0.600686  1
  Yb  Yb16  1  0.161456  0.500258  0.750355  1
  Yb  Yb17  1  0.661456  0.999742  0.749645  1
  Yb  Yb18  1  0.839367  0.494579  0.250716  1
  Yb  Yb19  1  0.339367  0.005421  0.249284  1
  Sn  Sn20  1  0.337063  0.043078  0.036344  1
  Sn  Sn21  1  0.837063  0.456922  0.463656  1
  Sn  Sn22  1  0.666983  0.964116  0.540977  1
  Sn  Sn23  1  0.166983  0.535884  0.959023  1
  Sn  Sn24  1  0.661498  0.964015  0.958566  1
  Sn  Sn25  1  0.161498  0.535985  0.541434  1
  Sn  Sn26  1  0.338197  0.035519  0.462278  1
  Sn  Sn27  1  0.838197  0.464481  0.037722  1
  Sn  Sn28  1  0.532645  0.611579  0.749997  1
  Sn  Sn29  1  0.032645  0.888421  0.750003  1
  Sn  Sn30  1  0.466193  0.386713  0.250732  1
  Sn  Sn31  1  0.966193  0.113287  0.249268  1
  Sn  Sn32  1  0.283526  0.133824  0.750584  1
  Sn  Sn33  1  0.783526  0.366176  0.749416  1
  Sn  Sn34  1  0.713865  0.867574  0.248747  1
  Sn  Sn35  1  0.213865  0.632426  0.251253  1
