# generated using pymatgen
data_HoPa3(CoGe)4
_symmetry_space_group_name_H-M   'P 1'
_cell_length_a   4.24485400
_cell_length_b   6.95308909
_cell_length_c   7.20272205
_cell_angle_alpha   89.69564892
_cell_angle_beta   90.00000000
_cell_angle_gamma   90.00000000
_symmetry_Int_Tables_number   1
_chemical_formula_structural   HoPa3(CoGe)4
_chemical_formula_sum   'Ho1 Pa3 Co4 Ge4'
_cell_volume   212.58424773
_cell_formula_units_Z   1
loop_
 _symmetry_equiv_pos_site_id
 _symmetry_equiv_pos_as_xyz
  1  'x, y, z'
loop_
 _atom_site_type_symbol
 _atom_site_label
 _atom_site_symmetry_multiplicity
 _atom_site_fract_x
 _atom_site_fract_y
 _atom_site_fract_z
 _atom_site_occupancy
  Ho  Ho0  1  0.750000  0.512662  0.289424  1
  Pa  Pa1  1  0.250000  0.988106  0.796567  1
  Pa  Pa2  1  0.250000  0.484433  0.714860  1
  Pa  Pa3  1  0.750000  0.009574  0.202609  1
  Co  Co4  1  0.250000  0.198744  0.423486  1
  Co  Co5  1  0.250000  0.743305  0.068773  1
  Co  Co6  1  0.750000  0.796399  0.583777  1
  Co  Co7  1  0.750000  0.276744  0.916441  1
  Ge  Ge8  1  0.250000  0.800644  0.412598  1
  Ge  Ge9  1  0.250000  0.303201  0.095766  1
  Ge  Ge10  1  0.750000  0.197654  0.582202  1
  Ge  Ge11  1  0.750000  0.688533  0.913496  1
