# generated using pymatgen
data_LuHf(B4Ir3)2
_symmetry_space_group_name_H-M   'P 1'
_cell_length_a   7.64913800
_cell_length_b   7.64913852
_cell_length_c   3.52227000
_cell_angle_alpha   90.00000000
_cell_angle_beta   90.00000000
_cell_angle_gamma   119.99998911
_symmetry_Int_Tables_number   1
_chemical_formula_structural   LuHf(B4Ir3)2
_chemical_formula_sum   'Lu1 Hf1 B8 Ir6'
_cell_volume   178.47539218
_cell_formula_units_Z   1
loop_
 _symmetry_equiv_pos_site_id
 _symmetry_equiv_pos_as_xyz
  1  'x, y, z'
loop_
 _atom_site_type_symbol
 _atom_site_label
 _atom_site_symmetry_multiplicity
 _atom_site_fract_x
 _atom_site_fract_y
 _atom_site_fract_z
 _atom_site_occupancy
  Lu  Lu0  1  0.333333  0.666667  0.250000  1
  Hf  Hf1  1  0.666667  0.333333  0.750000  1
  B  B2  1  0.050488  0.602012  0.750000  1
  B  B3  1  0.551523  0.949512  0.750000  1
  B  B4  1  0.397988  0.448477  0.750000  1
  B  B5  1  0.948102  0.397957  0.250000  1
  B  B6  1  0.449856  0.051898  0.250000  1
  B  B7  1  0.602043  0.550144  0.250000  1
  B  B8  1  0.000000  0.000000  0.999412  1
  B  B9  1  0.000000  0.000000  0.500588  1
  Ir  Ir10  1  0.254935  0.927543  0.750000  1
  Ir  Ir11  1  0.672608  0.745065  0.750000  1
  Ir  Ir12  1  0.072457  0.327392  0.750000  1
  Ir  Ir13  1  0.744944  0.076494  0.250000  1
  Ir  Ir14  1  0.331548  0.255056  0.250000  1
  Ir  Ir15  1  0.923506  0.668452  0.250000  1
