# generated using pymatgen
data_YErUAs3
_symmetry_space_group_name_H-M   'P 1'
_cell_length_a   4.07295900
_cell_length_b   4.07295928
_cell_length_c   10.16065800
_cell_angle_alpha   90.00000000
_cell_angle_beta   90.00000000
_cell_angle_gamma   120.00000583
_symmetry_Int_Tables_number   1
_chemical_formula_structural   YErUAs3
_chemical_formula_sum   'Y1 Er1 U1 As3'
_cell_volume   145.97300435
_cell_formula_units_Z   1
loop_
 _symmetry_equiv_pos_site_id
 _symmetry_equiv_pos_as_xyz
  1  'x, y, z'
loop_
 _atom_site_type_symbol
 _atom_site_label
 _atom_site_symmetry_multiplicity
 _atom_site_fract_x
 _atom_site_fract_y
 _atom_site_fract_z
 _atom_site_occupancy
  Y  Y0  1  0.666667  0.333333  0.338342  1
  Er  Er1  1  0.333333  0.666667  0.661931  1
  U  U2  1  0.000000  0.000000  0.999219  1
  As  As3  1  0.333333  0.666667  0.166219  1
  As  As4  1  0.666667  0.333333  0.831569  1
  As  As5  1  0.000000  0.000000  0.502720  1
