# generated using pymatgen
data_Ho8Si16OsW11
_symmetry_space_group_name_H-M   'P 1'
_cell_length_a   6.86495204
_cell_length_b   6.86495226
_cell_length_c   12.70368608
_cell_angle_alpha   89.96386031
_cell_angle_beta   90.03614019
_cell_angle_gamma   89.83951567
_symmetry_Int_Tables_number   1
_chemical_formula_structural   Ho8Si16OsW11
_chemical_formula_sum   'Ho8 Si16 Os1 W11'
_cell_volume   598.69124231
_cell_formula_units_Z   1
loop_
 _symmetry_equiv_pos_site_id
 _symmetry_equiv_pos_as_xyz
  1  'x, y, z'
loop_
 _atom_site_type_symbol
 _atom_site_label
 _atom_site_symmetry_multiplicity
 _atom_site_fract_x
 _atom_site_fract_y
 _atom_site_fract_z
 _atom_site_occupancy
  Ho  Ho0  1  0.338499  0.996642  0.468815  1
  Ho  Ho1  1  0.502027  0.837682  0.718294  1
  Ho  Ho2  1  0.498513  0.162611  0.220111  1
  Ho  Ho3  1  0.837682  0.502027  0.281706  1
  Ho  Ho4  1  0.162611  0.498513  0.779889  1
  Ho  Ho5  1  0.662910  0.001936  0.968864  1
  Ho  Ho6  1  0.996642  0.338499  0.531185  1
  Ho  Ho7  1  0.001936  0.662910  0.031136  1
  Si  Si8  1  0.201655  0.126421  0.683036  1
  Si  Si9  1  0.373671  0.702257  0.933169  1
  Si  Si10  1  0.622704  0.302037  0.434756  1
  Si  Si11  1  0.702257  0.373671  0.066831  1
  Si  Si12  1  0.302037  0.622704  0.565244  1
  Si  Si13  1  0.797024  0.873044  0.184341  1
  Si  Si14  1  0.126421  0.201655  0.316964  1
  Si  Si15  1  0.873044  0.797024  0.815659  1
  Si  Si16  1  0.288986  0.963927  0.064192  1
  Si  Si17  1  0.538262  0.787901  0.316665  1
  Si  Si18  1  0.463021  0.209265  0.814158  1
  Si  Si19  1  0.787901  0.538262  0.683335  1
  Si  Si20  1  0.209265  0.463021  0.185842  1
  Si  Si21  1  0.715154  0.034248  0.562659  1
  Si  Si22  1  0.963927  0.288986  0.935808  1
  Si  Si23  1  0.034248  0.715154  0.437341  1
  Os  Os24  1  0.668891  0.668891  0.500000  1
  W  W25  1  0.332698  0.332698  0.000000  1
  W  W26  1  0.167297  0.833510  0.249799  1
  W  W27  1  0.833510  0.167297  0.750201  1
  W  W28  1  0.163468  0.998087  0.873130  1
  W  W29  1  0.499817  0.663326  0.125186  1
  W  W30  1  0.497641  0.332130  0.624024  1
  W  W31  1  0.663326  0.499817  0.874814  1
  W  W32  1  0.332130  0.497641  0.375976  1
  W  W33  1  0.834783  0.007952  0.372968  1
  W  W34  1  0.998087  0.163468  0.126870  1
  W  W35  1  0.007952  0.834783  0.627032  1
