# generated using pymatgen
data_Ho10GaSi3Sb4
_symmetry_space_group_name_H-M   'P 1'
_cell_length_a   8.50628334
_cell_length_b   8.50628443
_cell_length_c   7.86558769
_cell_angle_alpha   89.83642558
_cell_angle_beta   89.83642673
_cell_angle_gamma   125.01904844
_symmetry_Int_Tables_number   1
_chemical_formula_structural   Ho10GaSi3Sb4
_chemical_formula_sum   'Ho10 Ga1 Si3 Sb4'
_cell_volume   466.08593778
_cell_formula_units_Z   1
loop_
 _symmetry_equiv_pos_site_id
 _symmetry_equiv_pos_as_xyz
  1  'x, y, z'
loop_
 _atom_site_type_symbol
 _atom_site_label
 _atom_site_symmetry_multiplicity
 _atom_site_fract_x
 _atom_site_fract_y
 _atom_site_fract_z
 _atom_site_occupancy
  Ho  Ho0  1  0.038543  0.290556  0.335838  1
  Ho  Ho1  1  0.959663  0.709440  0.664849  1
  Ho  Ho2  1  0.459894  0.207920  0.833691  1
  Ho  Ho3  1  0.792726  0.541220  0.164993  1
  Ho  Ho4  1  0.541220  0.792726  0.164993  1
  Ho  Ho5  1  0.207920  0.459894  0.833691  1
  Ho  Ho6  1  0.709440  0.959663  0.664849  1
  Ho  Ho7  1  0.290556  0.038543  0.335838  1
  Ho  Ho8  1  0.999042  0.999042  0.999178  1
  Ho  Ho9  1  0.500952  0.500952  0.501340  1
  Ga  Ga10  1  0.367501  0.367501  0.131949  1
  Si  Si11  1  0.631588  0.631588  0.868979  1
  Si  Si12  1  0.133589  0.133589  0.632366  1
  Si  Si13  1  0.867237  0.867237  0.366805  1
  Sb  Sb14  1  0.793777  0.205185  0.999968  1
  Sb  Sb15  1  0.205185  0.793777  0.999968  1
  Sb  Sb16  1  0.706254  0.294913  0.500353  1
  Sb  Sb17  1  0.294913  0.706254  0.500353  1
