# generated using pymatgen
data_Sm2NpRu3
_symmetry_space_group_name_H-M   'P 1'
_cell_length_a   5.24877520
_cell_length_b   5.24877488
_cell_length_c   5.24877392
_cell_angle_alpha   68.57408718
_cell_angle_beta   68.57409270
_cell_angle_gamma   68.57408210
_symmetry_Int_Tables_number   1
_chemical_formula_structural   Sm2NpRu3
_chemical_formula_sum   'Sm2 Np1 Ru3'
_cell_volume   120.73733207
_cell_formula_units_Z   1
loop_
 _symmetry_equiv_pos_site_id
 _symmetry_equiv_pos_as_xyz
  1  'x, y, z'
loop_
 _atom_site_type_symbol
 _atom_site_label
 _atom_site_symmetry_multiplicity
 _atom_site_fract_x
 _atom_site_fract_y
 _atom_site_fract_z
 _atom_site_occupancy
  Sm  Sm0  1  0.625985  0.625985  0.625985  1
  Sm  Sm1  1  0.374015  0.374015  0.374015  1
  Np  Np2  1  0.000000  0.000000  0.000000  1
  Ru  Ru3  1  0.000000  0.500000  0.000000  1
  Ru  Ru4  1  0.500000  0.000000  0.000000  1
  Ru  Ru5  1  0.000000  0.000000  0.500000  1
