# generated using pymatgen
data_DyY3ErPb3
_symmetry_space_group_name_H-M   'P 1'
_cell_length_a   9.05858800
_cell_length_b   9.05858771
_cell_length_c   6.63957700
_cell_angle_alpha   90.00000000
_cell_angle_beta   90.00000000
_cell_angle_gamma   120.00000104
_symmetry_Int_Tables_number   1
_chemical_formula_structural   DyY3ErPb3
_chemical_formula_sum   'Dy2 Y6 Er2 Pb6'
_cell_volume   471.83705066
_cell_formula_units_Z   2
loop_
 _symmetry_equiv_pos_site_id
 _symmetry_equiv_pos_as_xyz
  1  'x, y, z'
loop_
 _atom_site_type_symbol
 _atom_site_label
 _atom_site_symmetry_multiplicity
 _atom_site_fract_x
 _atom_site_fract_y
 _atom_site_fract_z
 _atom_site_occupancy
  Dy  Dy0  1  0.666667  0.333333  0.000000  1
  Dy  Dy1  1  0.333333  0.666667  0.000000  1
  Y  Y2  1  0.760612  0.760612  0.749819  1
  Y  Y3  1  0.239388  0.000000  0.749819  1
  Y  Y4  1  0.000000  0.239388  0.749819  1
  Y  Y5  1  0.239388  0.239388  0.250181  1
  Y  Y6  1  0.760612  0.000000  0.250181  1
  Y  Y7  1  0.000000  0.760612  0.250181  1
  Er  Er8  1  0.333333  0.666667  0.500000  1
  Er  Er9  1  0.666667  0.333333  0.500000  1
  Pb  Pb10  1  0.394283  0.394283  0.749459  1
  Pb  Pb11  1  0.605717  0.000000  0.749459  1
  Pb  Pb12  1  0.000000  0.605717  0.749459  1
  Pb  Pb13  1  0.605717  0.605717  0.250541  1
  Pb  Pb14  1  0.394283  0.000000  0.250541  1
  Pb  Pb15  1  0.000000  0.394283  0.250541  1
