# generated using pymatgen
data_MgV3(SiRh5)2
_symmetry_space_group_name_H-M   'P 1'
_cell_length_a   3.93234700
_cell_length_b   5.37831112
_cell_length_c   10.44796815
_cell_angle_alpha   90.22085502
_cell_angle_beta   90.00000000
_cell_angle_gamma   90.00000000
_symmetry_Int_Tables_number   1
_chemical_formula_structural   MgV3(SiRh5)2
_chemical_formula_sum   'Mg1 V3 Si2 Rh10'
_cell_volume   220.96646556
_cell_formula_units_Z   1
loop_
 _symmetry_equiv_pos_site_id
 _symmetry_equiv_pos_as_xyz
  1  'x, y, z'
loop_
 _atom_site_type_symbol
 _atom_site_label
 _atom_site_symmetry_multiplicity
 _atom_site_fract_x
 _atom_site_fract_y
 _atom_site_fract_z
 _atom_site_occupancy
  Mg  Mg0  1  0.500000  0.169382  0.640090  1
  V  V1  1  0.500000  0.837698  0.361612  1
  V  V2  1  0.500000  0.671646  0.851272  1
  V  V3  1  0.500000  0.336393  0.141613  1
  Si  Si4  1  0.000000  0.495294  0.499713  1
  Si  Si5  1  0.000000  0.995212  0.001133  1
  Rh  Rh6  1  0.500000  0.317446  0.387214  1
  Rh  Rh7  1  0.500000  0.674729  0.602069  1
  Rh  Rh8  1  0.500000  0.810297  0.106464  1
  Rh  Rh9  1  0.500000  0.190277  0.905166  1
  Rh  Rh10  1  0.000000  0.431723  0.746371  1
  Rh  Rh11  1  0.000000  0.582173  0.260698  1
  Rh  Rh12  1  0.000000  0.915945  0.767724  1
  Rh  Rh13  1  0.000000  0.082959  0.235277  1
  Rh  Rh14  1  0.000000  0.500846  0.002876  1
  Rh  Rh15  1  0.000000  0.987979  0.490707  1
