# generated using pymatgen
data_Dy4Tm(GaBi)2
_symmetry_space_group_name_H-M   'P 1'
_cell_length_a   8.63819600
_cell_length_b   8.63819701
_cell_length_c   7.88221000
_cell_angle_alpha   90.00000000
_cell_angle_beta   90.00000000
_cell_angle_gamma   125.69702746
_symmetry_Int_Tables_number   1
_chemical_formula_structural   Dy4Tm(GaBi)2
_chemical_formula_sum   'Dy8 Tm2 Ga4 Bi4'
_cell_volume   477.65139490
_cell_formula_units_Z   2
loop_
 _symmetry_equiv_pos_site_id
 _symmetry_equiv_pos_as_xyz
  1  'x, y, z'
loop_
 _atom_site_type_symbol
 _atom_site_label
 _atom_site_symmetry_multiplicity
 _atom_site_fract_x
 _atom_site_fract_y
 _atom_site_fract_z
 _atom_site_occupancy
  Dy  Dy0  1  0.043260  0.297425  0.330867  1
  Dy  Dy1  1  0.956740  0.702575  0.669133  1
  Dy  Dy2  1  0.456740  0.202575  0.830867  1
  Dy  Dy3  1  0.797425  0.543260  0.169133  1
  Dy  Dy4  1  0.543260  0.797425  0.169133  1
  Dy  Dy5  1  0.202575  0.456740  0.830867  1
  Dy  Dy6  1  0.702575  0.956740  0.669133  1
  Dy  Dy7  1  0.297425  0.043260  0.330867  1
  Tm  Tm8  1  0.000000  0.000000  0.000000  1
  Tm  Tm9  1  0.500000  0.500000  0.500000  1
  Ga  Ga10  1  0.374949  0.374949  0.124854  1
  Ga  Ga11  1  0.625051  0.625051  0.875146  1
  Ga  Ga12  1  0.125051  0.125051  0.624854  1
  Ga  Ga13  1  0.874949  0.874949  0.375146  1
  Bi  Bi14  1  0.792279  0.207721  0.000000  1
  Bi  Bi15  1  0.207721  0.792279  0.000000  1
  Bi  Bi16  1  0.707721  0.292279  0.500000  1
  Bi  Bi17  1  0.292279  0.707721  0.500000  1
