# generated using pymatgen
data_Yb4NiSn4Rh3
_symmetry_space_group_name_H-M   'P 1'
_cell_length_a   4.40932900
_cell_length_b   7.23525147
_cell_length_c   7.96452357
_cell_angle_alpha   90.36517060
_cell_angle_beta   90.00000000
_cell_angle_gamma   90.00000000
_symmetry_Int_Tables_number   1
_chemical_formula_structural   Yb4NiSn4Rh3
_chemical_formula_sum   'Yb4 Ni1 Sn4 Rh3'
_cell_volume   254.08388216
_cell_formula_units_Z   1
loop_
 _symmetry_equiv_pos_site_id
 _symmetry_equiv_pos_as_xyz
  1  'x, y, z'
loop_
 _atom_site_type_symbol
 _atom_site_label
 _atom_site_symmetry_multiplicity
 _atom_site_fract_x
 _atom_site_fract_y
 _atom_site_fract_z
 _atom_site_occupancy
  Yb  Yb0  1  0.250000  0.973519  0.817976  1
  Yb  Yb1  1  0.750000  0.030037  0.179005  1
  Yb  Yb2  1  0.250000  0.477537  0.681970  1
  Yb  Yb3  1  0.750000  0.525506  0.321788  1
  Ni  Ni4  1  0.250000  0.711638  0.112891  1
  Sn  Sn5  1  0.250000  0.838601  0.421848  1
  Sn  Sn6  1  0.750000  0.663091  0.938769  1
  Sn  Sn7  1  0.250000  0.347518  0.071046  1
  Sn  Sn8  1  0.750000  0.154684  0.569929  1
  Rh  Rh9  1  0.750000  0.282105  0.886106  1
  Rh  Rh10  1  0.250000  0.218703  0.384534  1
  Rh  Rh11  1  0.750000  0.777061  0.614139  1
