# generated using pymatgen
data_Tm20HgBi11
_symmetry_space_group_name_H-M   'P 1'
_cell_length_a   8.15113151
_cell_length_b   9.41878400
_cell_length_c   11.91089888
_cell_angle_alpha   90.00000000
_cell_angle_beta   89.56223490
_cell_angle_gamma   90.00000000
_symmetry_Int_Tables_number   1
_chemical_formula_structural   Tm20HgBi11
_chemical_formula_sum   'Tm20 Hg1 Bi11'
_cell_volume   914.41764606
_cell_formula_units_Z   1
loop_
 _symmetry_equiv_pos_site_id
 _symmetry_equiv_pos_as_xyz
  1  'x, y, z'
loop_
 _atom_site_type_symbol
 _atom_site_label
 _atom_site_symmetry_multiplicity
 _atom_site_fract_x
 _atom_site_fract_y
 _atom_site_fract_z
 _atom_site_occupancy
  Tm  Tm0  1  0.033560  0.250000  0.508568  1
  Tm  Tm1  1  0.978403  0.750000  0.489454  1
  Tm  Tm2  1  0.475354  0.750000  0.010395  1
  Tm  Tm3  1  0.525192  0.250000  0.989791  1
  Tm  Tm4  1  0.355941  0.250000  0.289695  1
  Tm  Tm5  1  0.646865  0.750000  0.716762  1
  Tm  Tm6  1  0.148805  0.750000  0.783397  1
  Tm  Tm7  1  0.853990  0.250000  0.215522  1
  Tm  Tm8  1  0.191397  0.250000  0.779934  1
  Tm  Tm9  1  0.809805  0.750000  0.217077  1
  Tm  Tm10  1  0.312796  0.750000  0.281671  1
  Tm  Tm11  1  0.679698  0.250000  0.713210  1
  Tm  Tm12  1  0.193183  0.065812  0.060537  1
  Tm  Tm13  1  0.806678  0.934171  0.940641  1
  Tm  Tm14  1  0.307239  0.945484  0.559859  1
  Tm  Tm15  1  0.806678  0.565829  0.940641  1
  Tm  Tm16  1  0.688215  0.069744  0.443760  1
  Tm  Tm17  1  0.193183  0.434188  0.060537  1
  Tm  Tm18  1  0.688215  0.430256  0.443760  1
  Tm  Tm19  1  0.307239  0.554516  0.559859  1
  Hg  Hg20  1  0.406178  0.250000  0.541102  1
  Bi  Bi21  1  0.593886  0.750000  0.457446  1
  Bi  Bi22  1  0.094608  0.750000  0.042993  1
  Bi  Bi23  1  0.906042  0.250000  0.954688  1
  Bi  Bi24  1  0.062825  0.002411  0.323618  1
  Bi  Bi25  1  0.935301  0.997050  0.675513  1
  Bi  Bi26  1  0.435546  0.996772  0.825738  1
  Bi  Bi27  1  0.935301  0.502950  0.675513  1
  Bi  Bi28  1  0.564754  0.003786  0.174482  1
  Bi  Bi29  1  0.062825  0.497589  0.323618  1
  Bi  Bi30  1  0.564754  0.496214  0.174482  1
  Bi  Bi31  1  0.435546  0.503228  0.825738  1
