# generated using pymatgen
data_Er17Sc3Sn16
_symmetry_space_group_name_H-M   'P 1'
_cell_length_a   7.89618470
_cell_length_b   8.04562055
_cell_length_c   15.26541600
_cell_angle_alpha   90.00000000
_cell_angle_beta   90.00000000
_cell_angle_gamma   89.88771875
_symmetry_Int_Tables_number   1
_chemical_formula_structural   Er17Sc3Sn16
_chemical_formula_sum   'Er17 Sc3 Sn16'
_cell_volume   969.80552686
_cell_formula_units_Z   1
loop_
 _symmetry_equiv_pos_site_id
 _symmetry_equiv_pos_as_xyz
  1  'x, y, z'
loop_
 _atom_site_type_symbol
 _atom_site_label
 _atom_site_symmetry_multiplicity
 _atom_site_fract_x
 _atom_site_fract_y
 _atom_site_fract_z
 _atom_site_occupancy
  Er  Er0  1  0.021077  0.179794  0.404282  1
  Er  Er1  1  0.364390  0.839452  0.124388  1
  Er  Er2  1  0.136319  0.338700  0.622844  1
  Er  Er3  1  0.479032  0.679542  0.904904  1
  Er  Er4  1  0.864310  0.660694  0.124978  1
  Er  Er5  1  0.136319  0.338700  0.877156  1
  Er  Er6  1  0.479032  0.679542  0.595096  1
  Er  Er7  1  0.635216  0.160713  0.623101  1
  Er  Er8  1  0.805548  0.496527  0.750000  1
  Er  Er9  1  0.864310  0.660694  0.375022  1
  Er  Er10  1  0.021077  0.179794  0.095718  1
  Er  Er11  1  0.979856  0.820717  0.905010  1
  Er  Er12  1  0.635216  0.160713  0.876899  1
  Er  Er13  1  0.521674  0.320666  0.096758  1
  Er  Er14  1  0.364390  0.839452  0.375612  1
  Er  Er15  1  0.979856  0.820717  0.594990  1
  Er  Er16  1  0.521674  0.320666  0.403242  1
  Sc  Sc17  1  0.194509  0.503869  0.250000  1
  Sc  Sc18  1  0.694195  0.996498  0.250000  1
  Sc  Sc19  1  0.304657  0.004748  0.750000  1
  Sn  Sn20  1  0.795279  0.462236  0.540777  1
  Sn  Sn21  1  0.705099  0.963798  0.455867  1
  Sn  Sn22  1  0.665210  0.850800  0.750000  1
  Sn  Sn23  1  0.205672  0.536471  0.455719  1
  Sn  Sn24  1  0.294991  0.035695  0.956670  1
  Sn  Sn25  1  0.831423  0.344588  0.250000  1
  Sn  Sn26  1  0.795279  0.462236  0.959223  1
  Sn  Sn27  1  0.556700  0.615658  0.250000  1
  Sn  Sn28  1  0.205672  0.536471  0.044281  1
  Sn  Sn29  1  0.437538  0.380388  0.750000  1
  Sn  Sn30  1  0.173152  0.656344  0.750000  1
  Sn  Sn31  1  0.944166  0.113728  0.750000  1
  Sn  Sn32  1  0.294991  0.035695  0.543330  1
  Sn  Sn33  1  0.705099  0.963798  0.044133  1
  Sn  Sn34  1  0.330674  0.154810  0.250000  1
  Sn  Sn35  1  0.056394  0.885087  0.250000  1
