# generated using pymatgen
data_Lu6Ga5Ni12Ir
_symmetry_space_group_name_H-M   'P 1'
_cell_length_a   5.10275400
_cell_length_b   5.10275299
_cell_length_c   15.87929600
_cell_angle_alpha   90.00000000
_cell_angle_beta   90.00000000
_cell_angle_gamma   119.99999361
_symmetry_Int_Tables_number   1
_chemical_formula_structural   Lu6Ga5Ni12Ir
_chemical_formula_sum   'Lu6 Ga5 Ni12 Ir1'
_cell_volume   358.07259309
_cell_formula_units_Z   1
loop_
 _symmetry_equiv_pos_site_id
 _symmetry_equiv_pos_as_xyz
  1  'x, y, z'
loop_
 _atom_site_type_symbol
 _atom_site_label
 _atom_site_symmetry_multiplicity
 _atom_site_fract_x
 _atom_site_fract_y
 _atom_site_fract_z
 _atom_site_occupancy
  Lu  Lu0  1  0.333333  0.666667  0.546711  1
  Lu  Lu1  1  0.666667  0.333333  0.453289  1
  Lu  Lu2  1  0.666667  0.333333  0.033880  1
  Lu  Lu3  1  0.333333  0.666667  0.966120  1
  Lu  Lu4  1  0.333333  0.666667  0.762023  1
  Lu  Lu5  1  0.666667  0.333333  0.237977  1
  Ga  Ga6  1  0.000000  0.000000  0.255482  1
  Ga  Ga7  1  0.000000  0.000000  0.744518  1
  Ga  Ga8  1  0.333333  0.666667  0.255132  1
  Ga  Ga9  1  0.666667  0.333333  0.744868  1
  Ga  Ga10  1  0.000000  0.000000  0.500000  1
  Ni  Ni11  1  0.166541  0.333080  0.130392  1
  Ni  Ni12  1  0.833459  0.666920  0.869608  1
  Ni  Ni13  1  0.666920  0.833459  0.130392  1
  Ni  Ni14  1  0.831088  0.662178  0.622556  1
  Ni  Ni15  1  0.333080  0.166541  0.869608  1
  Ni  Ni16  1  0.168912  0.337822  0.377444  1
  Ni  Ni17  1  0.166541  0.833459  0.130392  1
  Ni  Ni18  1  0.337822  0.168912  0.622556  1
  Ni  Ni19  1  0.833459  0.166541  0.869608  1
  Ni  Ni20  1  0.662178  0.831088  0.377444  1
  Ni  Ni21  1  0.831088  0.168912  0.622556  1
  Ni  Ni22  1  0.168912  0.831088  0.377444  1
  Ir  Ir23  1  0.000000  0.000000  0.000000  1
