# generated using pymatgen
data_NaSiB6
_symmetry_space_group_name_H-M   'P 1'
_cell_length_a   6.43685597
_cell_length_b   6.43685502
_cell_length_c   8.67566400
_cell_angle_alpha   90.00000000
_cell_angle_beta   90.00000000
_cell_angle_gamma   123.05037361
_symmetry_Int_Tables_number   1
_chemical_formula_structural   NaSiB6
_chemical_formula_sum   'Na4 Si4 B24'
_cell_volume   301.29605542
_cell_formula_units_Z   4
loop_
 _symmetry_equiv_pos_site_id
 _symmetry_equiv_pos_as_xyz
  1  'x, y, z'
loop_
 _atom_site_type_symbol
 _atom_site_label
 _atom_site_symmetry_multiplicity
 _atom_site_fract_x
 _atom_site_fract_y
 _atom_site_fract_z
 _atom_site_occupancy
  Na  Na0  1  0.318942  0.681058  0.656310  1
  Na  Na1  1  0.818942  0.181058  0.843690  1
  Na  Na2  1  0.181058  0.818942  0.156310  1
  Na  Na3  1  0.681058  0.318942  0.343690  1
  Si  Si4  1  0.661197  0.338803  0.624300  1
  Si  Si5  1  0.161197  0.838803  0.875701  1
  Si  Si6  1  0.838803  0.161197  0.124300  1
  Si  Si7  1  0.338803  0.661197  0.375701  1
  B  B8  1  0.311089  0.156625  0.532640  1
  B  B9  1  0.843375  0.688911  0.532640  1
  B  B10  1  0.850147  0.149853  0.555531  1
  B  B11  1  0.096080  0.903920  0.649217  1
  B  B12  1  0.121972  0.196636  0.663484  1
  B  B13  1  0.803364  0.878029  0.663484  1
  B  B14  1  0.303364  0.378029  0.836516  1
  B  B15  1  0.621971  0.696636  0.836516  1
  B  B16  1  0.596080  0.403920  0.850784  1
  B  B17  1  0.350147  0.649853  0.944469  1
  B  B18  1  0.343374  0.188911  0.967360  1
  B  B19  1  0.811089  0.656625  0.967360  1
  B  B20  1  0.188911  0.343375  0.032641  1
  B  B21  1  0.656625  0.811089  0.032641  1
  B  B22  1  0.649853  0.350147  0.055531  1
  B  B23  1  0.403920  0.596080  0.149216  1
  B  B24  1  0.378028  0.303365  0.163484  1
  B  B25  1  0.696636  0.621971  0.163484  1
  B  B26  1  0.196635  0.121972  0.336516  1
  B  B27  1  0.878028  0.803365  0.336516  1
  B  B28  1  0.903920  0.096080  0.350784  1
  B  B29  1  0.149853  0.850147  0.444469  1
  B  B30  1  0.156625  0.311089  0.467360  1
  B  B31  1  0.688911  0.843375  0.467360  1
