# generated using pymatgen
data_Tm2Lu6Te
_symmetry_space_group_name_H-M   'P 1'
_cell_length_a   9.08434900
_cell_length_b   9.09520999
_cell_length_c   3.68438200
_cell_angle_alpha   90.00000000
_cell_angle_beta   90.00000000
_cell_angle_gamma   119.96050224
_symmetry_Int_Tables_number   1
_chemical_formula_structural   Tm2Lu6Te
_chemical_formula_sum   'Tm2 Lu6 Te1'
_cell_volume   263.73911155
_cell_formula_units_Z   1
loop_
 _symmetry_equiv_pos_site_id
 _symmetry_equiv_pos_as_xyz
  1  'x, y, z'
loop_
 _atom_site_type_symbol
 _atom_site_label
 _atom_site_symmetry_multiplicity
 _atom_site_fract_x
 _atom_site_fract_y
 _atom_site_fract_z
 _atom_site_occupancy
  Tm  Tm0  1  0.721965  0.721913  0.000000  1
  Tm  Tm1  1  0.000053  0.278087  0.000000  1
  Lu  Lu2  1  0.613007  0.000000  0.500000  1
  Lu  Lu3  1  0.386420  0.386243  0.500000  1
  Lu  Lu4  1  0.000177  0.613757  0.500000  1
  Lu  Lu5  1  0.333186  0.666788  0.000000  1
  Lu  Lu6  1  0.666399  0.333212  0.000000  1
  Lu  Lu7  1  0.278383  0.000000  0.000000  1
  Te  Te8  1  0.000410  0.000000  0.500000  1
