# generated using pymatgen
data_Pa4InTc24
_symmetry_space_group_name_H-M   'P 1'
_cell_length_a   8.50699707
_cell_length_b   8.50699735
_cell_length_c   8.50699600
_cell_angle_alpha   109.47121503
_cell_angle_beta   109.47121570
_cell_angle_gamma   109.47123164
_symmetry_Int_Tables_number   1
_chemical_formula_structural   Pa4InTc24
_chemical_formula_sum   'Pa4 In1 Tc24'
_cell_volume   473.92205089
_cell_formula_units_Z   1
loop_
 _symmetry_equiv_pos_site_id
 _symmetry_equiv_pos_as_xyz
  1  'x, y, z'
loop_
 _atom_site_type_symbol
 _atom_site_label
 _atom_site_symmetry_multiplicity
 _atom_site_fract_x
 _atom_site_fract_y
 _atom_site_fract_z
 _atom_site_occupancy
  Pa  Pa0  1  0.619595  0.000000  0.000000  1
  Pa  Pa1  1  0.000000  0.619595  0.000000  1
  Pa  Pa2  1  0.000000  0.000000  0.619595  1
  Pa  Pa3  1  0.380405  0.380405  0.380405  1
  In  In4  1  0.000000  0.000000  0.000000  1
  Tc  Tc5  1  0.396434  0.679458  0.000000  1
  Tc  Tc6  1  0.716975  0.320542  0.320542  1
  Tc  Tc7  1  0.396434  0.000000  0.679458  1
  Tc  Tc8  1  0.679458  0.396434  0.000000  1
  Tc  Tc9  1  0.000000  0.396434  0.679458  1
  Tc  Tc10  1  0.320542  0.716975  0.320542  1
  Tc  Tc11  1  0.320542  0.320542  0.716975  1
  Tc  Tc12  1  0.000000  0.679458  0.396434  1
  Tc  Tc13  1  0.679458  0.000000  0.396434  1
  Tc  Tc14  1  0.603566  0.603566  0.283025  1
  Tc  Tc15  1  0.283025  0.603566  0.603566  1
  Tc  Tc16  1  0.603566  0.283025  0.603566  1
  Tc  Tc17  1  0.376703  0.198127  0.000000  1
  Tc  Tc18  1  0.178576  0.801873  0.801873  1
  Tc  Tc19  1  0.376703  0.000000  0.198127  1
  Tc  Tc20  1  0.198127  0.376703  0.000000  1
  Tc  Tc21  1  0.000000  0.376703  0.198127  1
  Tc  Tc22  1  0.801873  0.178576  0.801873  1
  Tc  Tc23  1  0.801873  0.801873  0.178576  1
  Tc  Tc24  1  0.000000  0.198127  0.376703  1
  Tc  Tc25  1  0.198127  0.000000  0.376703  1
  Tc  Tc26  1  0.623297  0.623297  0.821424  1
  Tc  Tc27  1  0.821424  0.623297  0.623297  1
  Tc  Tc28  1  0.623297  0.821424  0.623297  1
