# generated using pymatgen
data_Dy6Al24ZnIr2Ru5
_symmetry_space_group_name_H-M   'P 1'
_cell_length_a   8.84534959
_cell_length_b   8.84534977
_cell_length_c   9.50198372
_cell_angle_alpha   90.25641056
_cell_angle_beta   89.74358879
_cell_angle_gamma   119.82603654
_symmetry_Int_Tables_number   1
_chemical_formula_structural   Dy6Al24ZnIr2Ru5
_chemical_formula_sum   'Dy6 Al24 Zn1 Ir2 Ru5'
_cell_volume   644.95253950
_cell_formula_units_Z   1
loop_
 _symmetry_equiv_pos_site_id
 _symmetry_equiv_pos_as_xyz
  1  'x, y, z'
loop_
 _atom_site_type_symbol
 _atom_site_label
 _atom_site_symmetry_multiplicity
 _atom_site_fract_x
 _atom_site_fract_y
 _atom_site_fract_z
 _atom_site_occupancy
  Dy  Dy0  1  0.192803  0.807197  0.246043  1
  Dy  Dy1  1  0.191718  0.384493  0.252236  1
  Dy  Dy2  1  0.615507  0.808282  0.252236  1
  Dy  Dy3  1  0.807197  0.192803  0.753957  1
  Dy  Dy4  1  0.808282  0.615507  0.747764  1
  Dy  Dy5  1  0.384493  0.191718  0.747764  1
  Al  Al6  1  0.564001  0.435999  0.243134  1
  Al  Al7  1  0.561500  0.121866  0.251680  1
  Al  Al8  1  0.878134  0.438500  0.251680  1
  Al  Al9  1  0.435999  0.564001  0.756866  1
  Al  Al10  1  0.438500  0.878134  0.748320  1
  Al  Al11  1  0.121866  0.561500  0.748320  1
  Al  Al12  1  0.322317  0.150199  0.419208  1
  Al  Al13  1  0.837150  0.162850  0.421632  1
  Al  Al14  1  0.849801  0.677683  0.419208  1
  Al  Al15  1  0.677683  0.849801  0.580792  1
  Al  Al16  1  0.162850  0.837150  0.578368  1
  Al  Al17  1  0.150199  0.322317  0.580792  1
  Al  Al18  1  0.674979  0.836285  0.924849  1
  Al  Al19  1  0.162741  0.837259  0.922699  1
  Al  Al20  1  0.163715  0.325021  0.924849  1
  Al  Al21  1  0.325021  0.163715  0.075151  1
  Al  Al22  1  0.837259  0.162741  0.077301  1
  Al  Al23  1  0.836285  0.674979  0.075151  1
  Al  Al24  1  0.671348  0.328652  0.522545  1
  Al  Al25  1  0.328652  0.671348  0.477455  1
  Al  Al26  1  0.334348  0.665652  0.019891  1
  Al  Al27  1  0.665652  0.334348  0.980109  1
  Al  Al28  1  0.998655  0.001345  0.249468  1
  Al  Al29  1  0.001345  0.998655  0.750532  1
  Zn  Zn30  1  0.500000  0.500000  0.500000  1
  Ir  Ir31  1  0.500000  0.000000  0.000000  1
  Ir  Ir32  1  0.000000  0.500000  0.000000  1
  Ru  Ru33  1  0.000000  0.000000  0.500000  1
  Ru  Ru34  1  0.000000  0.000000  0.000000  1
  Ru  Ru35  1  0.500000  0.000000  0.500000  1
  Ru  Ru36  1  0.000000  0.500000  0.500000  1
  Ru  Ru37  1  0.500000  0.500000  0.000000  1
