# generated using pymatgen
data_Y14Ho6CoBi8Ru3
_symmetry_space_group_name_H-M   'P 1'
_cell_length_a   7.99785911
_cell_length_b   8.97668489
_cell_length_c   12.46628062
_cell_angle_alpha   90.00255304
_cell_angle_beta   89.76319555
_cell_angle_gamma   90.05071252
_symmetry_Int_Tables_number   1
_chemical_formula_structural   Y14Ho6CoBi8Ru3
_chemical_formula_sum   'Y14 Ho6 Co1 Bi8 Ru3'
_cell_volume   894.99940878
_cell_formula_units_Z   1
loop_
 _symmetry_equiv_pos_site_id
 _symmetry_equiv_pos_as_xyz
  1  'x, y, z'
loop_
 _atom_site_type_symbol
 _atom_site_label
 _atom_site_symmetry_multiplicity
 _atom_site_fract_x
 _atom_site_fract_y
 _atom_site_fract_z
 _atom_site_occupancy
  Y  Y0  1  0.344821  0.750592  0.702591  1
  Y  Y1  1  0.656915  0.249447  0.292509  1
  Y  Y2  1  0.843472  0.249752  0.791846  1
  Y  Y3  1  0.155070  0.750217  0.206380  1
  Y  Y4  1  0.878096  0.750200  0.805958  1
  Y  Y5  1  0.121177  0.249817  0.193512  1
  Y  Y6  1  0.377993  0.249342  0.693145  1
  Y  Y7  1  0.618128  0.750770  0.310844  1
  Y  Y8  1  0.676688  0.543514  0.564568  1
  Y  Y9  1  0.324662  0.462061  0.436392  1
  Y  Y10  1  0.053798  0.751289  0.497079  1
  Y  Y11  1  0.948485  0.248803  0.503023  1
  Y  Y12  1  0.553673  0.249898  0.003469  1
  Y  Y13  1  0.446263  0.750099  0.995798  1
  Ho  Ho14  1  0.174284  0.458123  0.936163  1
  Ho  Ho15  1  0.326375  0.037961  0.437087  1
  Ho  Ho16  1  0.825123  0.542582  0.064182  1
  Ho  Ho17  1  0.674867  0.956717  0.563881  1
  Ho  Ho18  1  0.825130  0.957406  0.064228  1
  Ho  Ho19  1  0.174217  0.041859  0.936075  1
  Co  Co20  1  0.429572  0.752173  0.490798  1
  Bi  Bi21  1  0.570308  0.508198  0.826993  1
  Bi  Bi22  1  0.429278  0.492417  0.172918  1
  Bi  Bi23  1  0.071976  0.492009  0.671923  1
  Bi  Bi24  1  0.428956  0.007651  0.172878  1
  Bi  Bi25  1  0.928494  0.508585  0.328426  1
  Bi  Bi26  1  0.570618  0.991745  0.827094  1
  Bi  Bi27  1  0.928958  0.991398  0.327996  1
  Bi  Bi28  1  0.071612  0.008082  0.672365  1
  Ru  Ru29  1  0.072007  0.749979  0.989157  1
  Ru  Ru30  1  0.926899  0.249994  0.010482  1
  Ru  Ru31  1  0.572085  0.247319  0.510240  1
