# generated using pymatgen
data_Yb3Ti(FeO4)2
_symmetry_space_group_name_H-M   'P 1'
_cell_length_a   5.45865800
_cell_length_b   5.50766062
_cell_length_c   11.16483125
_cell_angle_alpha   89.98494265
_cell_angle_beta   90.00000000
_cell_angle_gamma   90.00000000
_symmetry_Int_Tables_number   1
_chemical_formula_structural   Yb3Ti(FeO4)2
_chemical_formula_sum   'Yb6 Ti2 Fe4 O16'
_cell_volume   335.66433996
_cell_formula_units_Z   2
loop_
 _symmetry_equiv_pos_site_id
 _symmetry_equiv_pos_as_xyz
  1  'x, y, z'
loop_
 _atom_site_type_symbol
 _atom_site_label
 _atom_site_symmetry_multiplicity
 _atom_site_fract_x
 _atom_site_fract_y
 _atom_site_fract_z
 _atom_site_occupancy
  Yb  Yb0  1  0.963166  0.224291  0.812080  1
  Yb  Yb1  1  0.964039  0.225002  0.187242  1
  Yb  Yb2  1  0.463166  0.775709  0.187920  1
  Yb  Yb3  1  0.464039  0.774998  0.812758  1
  Yb  Yb4  1  0.037870  0.223129  0.500572  1
  Yb  Yb5  1  0.537870  0.776871  0.499428  1
  Ti  Ti6  1  0.497392  0.268664  0.335853  1
  Ti  Ti7  1  0.997392  0.731336  0.664147  1
  Fe  Fe8  1  0.442248  0.312675  0.001071  1
  Fe  Fe9  1  0.942248  0.687325  0.998929  1
  Fe  Fe10  1  0.498355  0.257520  0.670914  1
  Fe  Fe11  1  0.998355  0.742480  0.329086  1
  O  O12  1  0.270703  0.972418  0.643319  1
  O  O13  1  0.276221  0.980433  0.355991  1
  O  O14  1  0.770703  0.027582  0.356681  1
  O  O15  1  0.776221  0.019567  0.644009  1
  O  O16  1  0.219683  0.476339  0.705596  1
  O  O17  1  0.225826  0.468885  0.293002  1
  O  O18  1  0.719683  0.523661  0.294404  1
  O  O19  1  0.725826  0.531115  0.706998  1
  O  O20  1  0.087925  0.365498  0.999529  1
  O  O21  1  0.587925  0.634502  0.000471  1
  O  O22  1  0.537258  0.169060  0.856012  1
  O  O23  1  0.535202  0.170044  0.146011  1
  O  O24  1  0.037258  0.830940  0.143988  1
  O  O25  1  0.035202  0.829956  0.853989  1
  O  O26  1  0.476111  0.348632  0.497904  1
  O  O27  1  0.976111  0.651368  0.502096  1
