# generated using pymatgen
data_MnVClO3
_symmetry_space_group_name_H-M   'P 1'
_cell_length_a   3.64064600
_cell_length_b   6.82345200
_cell_length_c   15.58510600
_cell_angle_alpha   90.00000000
_cell_angle_beta   90.00000000
_cell_angle_gamma   90.00000000
_symmetry_Int_Tables_number   1
_chemical_formula_structural   MnVClO3
_chemical_formula_sum   'Mn4 V4 Cl4 O12'
_cell_volume   387.16166902
_cell_formula_units_Z   4
loop_
 _symmetry_equiv_pos_site_id
 _symmetry_equiv_pos_as_xyz
  1  'x, y, z'
loop_
 _atom_site_type_symbol
 _atom_site_label
 _atom_site_symmetry_multiplicity
 _atom_site_fract_x
 _atom_site_fract_y
 _atom_site_fract_z
 _atom_site_occupancy
  Mn  Mn0  1  0.250000  0.075322  0.166353  1
  Mn  Mn1  1  0.750000  0.575322  0.333647  1
  Mn  Mn2  1  0.250000  0.424678  0.666353  1
  Mn  Mn3  1  0.750000  0.924678  0.833647  1
  V  V4  1  0.750000  0.311917  0.004538  1
  V  V5  1  0.250000  0.811917  0.495462  1
  V  V6  1  0.750000  0.188083  0.504538  1
  V  V7  1  0.250000  0.688083  0.995462  1
  Cl  Cl8  1  0.750000  0.932035  0.264553  1
  Cl  Cl9  1  0.750000  0.567965  0.764553  1
  Cl  Cl10  1  0.250000  0.432035  0.235447  1
  Cl  Cl11  1  0.250000  0.067965  0.735447  1
  O  O12  1  0.250000  0.676477  0.401904  1
  O  O13  1  0.750000  0.323523  0.598096  1
  O  O14  1  0.750000  0.336152  0.419815  1
  O  O15  1  0.250000  0.393307  0.009207  1
  O  O16  1  0.750000  0.606693  0.990793  1
  O  O17  1  0.750000  0.893307  0.490793  1
  O  O18  1  0.750000  0.176477  0.098096  1
  O  O19  1  0.250000  0.823523  0.901904  1
  O  O20  1  0.250000  0.106693  0.509207  1
  O  O21  1  0.250000  0.836152  0.080185  1
  O  O22  1  0.750000  0.163848  0.919815  1
  O  O23  1  0.250000  0.663848  0.580185  1
