# generated using pymatgen
data_Tb(HfS2)4
_symmetry_space_group_name_H-M   'P 1'
_cell_length_a   7.66565772
_cell_length_b   7.66565663
_cell_length_c   7.66565706
_cell_angle_alpha   56.17565371
_cell_angle_beta   56.17565800
_cell_angle_gamma   56.17565710
_symmetry_Int_Tables_number   1
_chemical_formula_structural   Tb(HfS2)4
_chemical_formula_sum   'Tb1 Hf4 S8'
_cell_volume   290.31970865
_cell_formula_units_Z   1
loop_
 _symmetry_equiv_pos_site_id
 _symmetry_equiv_pos_as_xyz
  1  'x, y, z'
loop_
 _atom_site_type_symbol
 _atom_site_label
 _atom_site_symmetry_multiplicity
 _atom_site_fract_x
 _atom_site_fract_y
 _atom_site_fract_z
 _atom_site_occupancy
  Tb  Tb0  1  0.500000  0.500000  0.500000  1
  Hf  Hf1  1  0.000000  0.500000  0.500000  1
  Hf  Hf2  1  0.500000  0.000000  0.500000  1
  Hf  Hf3  1  0.500000  0.500000  0.000000  1
  Hf  Hf4  1  0.000000  0.000000  0.000000  1
  S  S5  1  0.248141  0.757646  0.757646  1
  S  S6  1  0.242354  0.242354  0.751859  1
  S  S7  1  0.751859  0.242354  0.242354  1
  S  S8  1  0.242354  0.751859  0.242354  1
  S  S9  1  0.258168  0.258168  0.258168  1
  S  S10  1  0.741832  0.741832  0.741832  1
  S  S11  1  0.757646  0.248141  0.757646  1
  S  S12  1  0.757646  0.757646  0.248141  1
