# generated using pymatgen
data_LiTb6RuBr12
_symmetry_space_group_name_H-M   'P 1'
_cell_length_a   9.26097107
_cell_length_b   9.26097234
_cell_length_c   9.26097217
_cell_angle_alpha   107.61565710
_cell_angle_beta   107.61565008
_cell_angle_gamma   107.61565679
_symmetry_Int_Tables_number   1
_chemical_formula_structural   LiTb6RuBr12
_chemical_formula_sum   'Li1 Tb6 Ru1 Br12'
_cell_volume   650.04900344
_cell_formula_units_Z   1
loop_
 _symmetry_equiv_pos_site_id
 _symmetry_equiv_pos_as_xyz
  1  'x, y, z'
loop_
 _atom_site_type_symbol
 _atom_site_label
 _atom_site_symmetry_multiplicity
 _atom_site_fract_x
 _atom_site_fract_y
 _atom_site_fract_z
 _atom_site_occupancy
  Li  Li0  1  0.500000  0.500000  0.500000  1
  Tb  Tb1  1  0.320710  0.113226  0.036003  1
  Tb  Tb2  1  0.036003  0.320710  0.113226  1
  Tb  Tb3  1  0.113226  0.036003  0.320710  1
  Tb  Tb4  1  0.679290  0.886774  0.963997  1
  Tb  Tb5  1  0.963997  0.679290  0.886774  1
  Tb  Tb6  1  0.886774  0.963997  0.679290  1
  Ru  Ru7  1  0.000000  0.000000  0.000000  1
  Br  Br8  1  0.684207  0.219574  0.072320  1
  Br  Br9  1  0.072320  0.684207  0.219574  1
  Br  Br10  1  0.219574  0.072320  0.684207  1
  Br  Br11  1  0.315793  0.780426  0.927680  1
  Br  Br12  1  0.927680  0.315793  0.780426  1
  Br  Br13  1  0.780426  0.927680  0.315793  1
  Br  Br14  1  0.461314  0.167741  0.383066  1
  Br  Br15  1  0.383066  0.461314  0.167741  1
  Br  Br16  1  0.167741  0.383066  0.461314  1
  Br  Br17  1  0.538686  0.832259  0.616934  1
  Br  Br18  1  0.616934  0.538686  0.832259  1
  Br  Br19  1  0.832259  0.616934  0.538686  1
