# generated using pymatgen
data_Er4Ga2MoRu5
_symmetry_space_group_name_H-M   'P 1'
_cell_length_a   5.48352414
_cell_length_b   5.22755990
_cell_length_c   8.88548000
_cell_angle_alpha   90.00000000
_cell_angle_beta   90.00000000
_cell_angle_gamma   121.47482374
_symmetry_Int_Tables_number   1
_chemical_formula_structural   Er4Ga2MoRu5
_chemical_formula_sum   'Er4 Ga2 Mo1 Ru5'
_cell_volume   217.23127071
_cell_formula_units_Z   1
loop_
 _symmetry_equiv_pos_site_id
 _symmetry_equiv_pos_as_xyz
  1  'x, y, z'
loop_
 _atom_site_type_symbol
 _atom_site_label
 _atom_site_symmetry_multiplicity
 _atom_site_fract_x
 _atom_site_fract_y
 _atom_site_fract_z
 _atom_site_occupancy
  Er  Er0  1  0.329769  0.667561  0.440139  1
  Er  Er1  1  0.670521  0.342637  0.565581  1
  Er  Er2  1  0.670521  0.342637  0.934419  1
  Er  Er3  1  0.329769  0.667561  0.059861  1
  Ga  Ga4  1  0.339089  0.164307  0.250000  1
  Ga  Ga5  1  0.837966  0.658950  0.250000  1
  Mo  Mo6  1  0.160314  0.319565  0.750000  1
  Ru  Ru7  1  0.170661  0.817863  0.750000  1
  Ru  Ru8  1  0.653425  0.824020  0.750000  1
  Ru  Ru9  1  0.007078  0.016909  0.002972  1
  Ru  Ru10  1  0.823808  0.161083  0.250000  1
  Ru  Ru11  1  0.007078  0.016909  0.497028  1
