# generated using pymatgen
data_Ba4GdMoO8
_symmetry_space_group_name_H-M   'P 1'
_cell_length_a   7.47158900
_cell_length_b   7.47158755
_cell_length_c   6.08735500
_cell_angle_alpha   90.00000000
_cell_angle_beta   90.00000000
_cell_angle_gamma   132.19084792
_symmetry_Int_Tables_number   1
_chemical_formula_structural   Ba4GdMoO8
_chemical_formula_sum   'Ba4 Gd1 Mo1 O8'
_cell_volume   251.77989811
_cell_formula_units_Z   1
loop_
 _symmetry_equiv_pos_site_id
 _symmetry_equiv_pos_as_xyz
  1  'x, y, z'
loop_
 _atom_site_type_symbol
 _atom_site_label
 _atom_site_symmetry_multiplicity
 _atom_site_fract_x
 _atom_site_fract_y
 _atom_site_fract_z
 _atom_site_occupancy
  Ba  Ba0  1  0.353630  0.646370  0.000000  1
  Ba  Ba1  1  0.851766  0.148234  0.500000  1
  Ba  Ba2  1  0.148234  0.851766  0.500000  1
  Ba  Ba3  1  0.646370  0.353630  0.000000  1
  Gd  Gd4  1  0.000000  0.000000  0.000000  1
  Mo  Mo5  1  0.500000  0.500000  0.500000  1
  O  O6  1  0.262478  0.262478  0.727479  1
  O  O7  1  0.737522  0.737522  0.272521  1
  O  O8  1  0.737522  0.737522  0.727479  1
  O  O9  1  0.262478  0.262478  0.272521  1
  O  O10  1  0.166824  0.833176  0.000000  1
  O  O11  1  0.652563  0.347437  0.500000  1
  O  O12  1  0.347437  0.652563  0.500000  1
  O  O13  1  0.833176  0.166824  0.000000  1
