# generated using pymatgen
data_Y4Al24IrPt8
_symmetry_space_group_name_H-M   'P 1'
_cell_length_a   7.52585391
_cell_length_b   7.54888589
_cell_length_c   13.18717512
_cell_angle_alpha   84.62086953
_cell_angle_beta   79.11572879
_cell_angle_gamma   59.92192765
_symmetry_Int_Tables_number   1
_chemical_formula_structural   Y4Al24IrPt8
_chemical_formula_sum   'Y4 Al24 Ir1 Pt8'
_cell_volume   636.64125707
_cell_formula_units_Z   1
loop_
 _symmetry_equiv_pos_site_id
 _symmetry_equiv_pos_as_xyz
  1  'x, y, z'
loop_
 _atom_site_type_symbol
 _atom_site_label
 _atom_site_symmetry_multiplicity
 _atom_site_fract_x
 _atom_site_fract_y
 _atom_site_fract_z
 _atom_site_occupancy
  Y  Y0  1  0.393649  0.168250  0.809189  1
  Y  Y1  1  0.606351  0.831750  0.190811  1
  Y  Y2  1  0.733447  0.498209  0.809182  1
  Y  Y3  1  0.266553  0.501791  0.190818  1
  Al  Al4  1  0.686952  0.830719  0.945872  1
  Al  Al5  1  0.313048  0.169281  0.054128  1
  Al  Al6  1  0.146491  0.832075  0.561557  1
  Al  Al7  1  0.853509  0.167925  0.438443  1
  Al  Al8  1  0.480201  0.166695  0.558938  1
  Al  Al9  1  0.519799  0.833305  0.441062  1
  Al  Al10  1  0.217274  0.165277  0.328365  1
  Al  Al11  1  0.782726  0.834723  0.671635  1
  Al  Al12  1  0.436473  0.506993  0.671488  1
  Al  Al13  1  0.563527  0.493007  0.328512  1
  Al  Al14  1  0.109562  0.159990  0.669270  1
  Al  Al15  1  0.890438  0.840010  0.330730  1
  Al  Al16  1  0.349235  0.499504  0.946008  1
  Al  Al17  1  0.650765  0.500496  0.053992  1
  Al  Al18  1  0.015035  0.170850  0.955246  1
  Al  Al19  1  0.984965  0.829150  0.044754  1
  Al  Al20  1  0.186626  0.499306  0.441262  1
  Al  Al21  1  0.813374  0.500694  0.558738  1
  Al  Al22  1  0.734694  0.163620  0.183131  1
  Al  Al23  1  0.265306  0.836380  0.816869  1
  Al  Al24  1  0.060963  0.629623  0.817481  1
  Al  Al25  1  0.939037  0.370377  0.182519  1
  Al  Al26  1  0.856148  0.041464  0.816437  1
  Al  Al27  1  0.143852  0.958536  0.183563  1
  Ir  Ir28  1  0.000000  0.500000  0.000000  1
  Pt  Pt29  1  0.119969  0.492313  0.638680  1
  Pt  Pt30  1  0.880031  0.507687  0.361320  1
  Pt  Pt31  1  0.657492  0.171273  0.999767  1
  Pt  Pt32  1  0.342508  0.828727  0.000233  1
  Pt  Pt33  1  0.537705  0.166906  0.361745  1
  Pt  Pt34  1  0.462295  0.833094  0.638255  1
  Pt  Pt35  1  0.778913  0.174817  0.636989  1
  Pt  Pt36  1  0.221087  0.825183  0.363011  1
