# generated using pymatgen
data_TbYbGa2(Co3B)2
_symmetry_space_group_name_H-M   'P 1'
_cell_length_a   5.15572800
_cell_length_b   5.14671075
_cell_length_c   6.67443000
_cell_angle_alpha   90.00000000
_cell_angle_beta   90.00000000
_cell_angle_gamma   120.05799973
_symmetry_Int_Tables_number   1
_chemical_formula_structural   TbYbGa2(Co3B)2
_chemical_formula_sum   'Tb1 Yb1 Ga2 Co6 B2'
_cell_volume   153.28881090
_cell_formula_units_Z   1
loop_
 _symmetry_equiv_pos_site_id
 _symmetry_equiv_pos_as_xyz
  1  'x, y, z'
loop_
 _atom_site_type_symbol
 _atom_site_label
 _atom_site_symmetry_multiplicity
 _atom_site_fract_x
 _atom_site_fract_y
 _atom_site_fract_z
 _atom_site_occupancy
  Tb  Tb0  1  0.999987  0.000000  0.500000  1
  Yb  Yb1  1  0.999979  0.000000  0.000000  1
  Ga  Ga2  1  0.333466  0.666970  0.000000  1
  Ga  Ga3  1  0.666496  0.333030  0.000000  1
  Co  Co4  1  0.499985  0.000000  0.295333  1
  Co  Co5  1  0.499984  0.500000  0.295386  1
  Co  Co6  1  0.999983  0.500000  0.295386  1
  Co  Co7  1  0.499985  0.000000  0.704667  1
  Co  Co8  1  0.499984  0.500000  0.704614  1
  Co  Co9  1  0.999983  0.500000  0.704614  1
  B  B10  1  0.333330  0.666692  0.500000  1
  B  B11  1  0.666638  0.333308  0.500000  1
