# generated using pymatgen
data_YHo8ScCd3Ru
_symmetry_space_group_name_H-M   'P 1'
_cell_length_a   9.49012100
_cell_length_b   9.49012070
_cell_length_c   9.73849600
_cell_angle_alpha   90.00000000
_cell_angle_beta   90.00000000
_cell_angle_gamma   119.99752596
_symmetry_Int_Tables_number   1
_chemical_formula_structural   YHo8ScCd3Ru
_chemical_formula_sum   'Y2 Ho16 Sc2 Cd6 Ru2'
_cell_volume   759.58579458
_cell_formula_units_Z   2
loop_
 _symmetry_equiv_pos_site_id
 _symmetry_equiv_pos_as_xyz
  1  'x, y, z'
loop_
 _atom_site_type_symbol
 _atom_site_label
 _atom_site_symmetry_multiplicity
 _atom_site_fract_x
 _atom_site_fract_y
 _atom_site_fract_z
 _atom_site_occupancy
  Y  Y0  1  0.459206  0.918198  0.750000  1
  Y  Y1  1  0.081802  0.540794  0.750000  1
  Ho  Ho2  1  0.208470  0.791530  0.440545  1
  Ho  Ho3  1  0.208631  0.417020  0.440699  1
  Ho  Ho4  1  0.582980  0.791369  0.440699  1
  Ho  Ho5  1  0.791442  0.208558  0.559020  1
  Ho  Ho6  1  0.791248  0.582878  0.559113  1
  Ho  Ho7  1  0.417122  0.208752  0.559113  1
  Ho  Ho8  1  0.791442  0.208558  0.940980  1
  Ho  Ho9  1  0.791248  0.582878  0.940887  1
  Ho  Ho10  1  0.417122  0.208752  0.940887  1
  Ho  Ho11  1  0.208470  0.791530  0.059455  1
  Ho  Ho12  1  0.208631  0.417020  0.059301  1
  Ho  Ho13  1  0.582980  0.791369  0.059301  1
  Ho  Ho14  1  0.540920  0.459080  0.250000  1
  Ho  Ho15  1  0.540920  0.081818  0.250000  1
  Ho  Ho16  1  0.918182  0.459080  0.250000  1
  Ho  Ho17  1  0.459314  0.540686  0.750000  1
  Sc  Sc18  1  0.999982  0.000018  0.500023  1
  Sc  Sc19  1  0.999982  0.000018  0.999977  1
  Cd  Cd20  1  0.888958  0.111042  0.250000  1
  Cd  Cd21  1  0.888946  0.777914  0.250000  1
  Cd  Cd22  1  0.222086  0.111054  0.250000  1
  Cd  Cd23  1  0.110879  0.889121  0.750000  1
  Cd  Cd24  1  0.111109  0.221971  0.750000  1
  Cd  Cd25  1  0.778029  0.888891  0.750000  1
  Ru  Ru26  1  0.333326  0.666674  0.250000  1
  Ru  Ru27  1  0.666575  0.333425  0.750000  1
