# generated using pymatgen
data_Lu3Nb3C5
_symmetry_space_group_name_H-M   'P 1'
_cell_length_a   5.76954604
_cell_length_b   5.72972332
_cell_length_c   5.69862848
_cell_angle_alpha   80.46122968
_cell_angle_beta   82.02619725
_cell_angle_gamma   120.64438525
_symmetry_Int_Tables_number   1
_chemical_formula_structural   Lu3Nb3C5
_chemical_formula_sum   'Lu3 Nb3 C5'
_cell_volume   154.20626520
_cell_formula_units_Z   1
loop_
 _symmetry_equiv_pos_site_id
 _symmetry_equiv_pos_as_xyz
  1  'x, y, z'
loop_
 _atom_site_type_symbol
 _atom_site_label
 _atom_site_symmetry_multiplicity
 _atom_site_fract_x
 _atom_site_fract_y
 _atom_site_fract_z
 _atom_site_occupancy
  Lu  Lu0  1  0.756505  0.749550  0.747922  1
  Lu  Lu1  1  0.246912  0.251702  0.250707  1
  Lu  Lu2  1  0.095715  0.426042  0.750023  1
  Nb  Nb3  1  0.541912  0.906416  0.260514  1
  Nb  Nb4  1  0.902932  0.552328  0.262305  1
  Nb  Nb5  1  0.451982  0.096622  0.738917  1
  C  C6  1  0.518446  0.504256  0.489523  1
  C  C7  1  0.662791  0.317019  0.007903  1
  C  C8  1  0.327805  0.689492  0.007189  1
  C  C9  1  0.812938  0.173263  0.495570  1
  C  C10  1  0.182062  0.833309  0.489428  1
