# generated using pymatgen
data_Tm4Co18Si11POs2
_symmetry_space_group_name_H-M   'P 1'
_cell_length_a   3.70387400
_cell_length_b   10.43241223
_cell_length_c   11.87323126
_cell_angle_alpha   89.97601607
_cell_angle_beta   90.00000000
_cell_angle_gamma   90.00000000
_symmetry_Int_Tables_number   1
_chemical_formula_structural   Tm4Co18Si11POs2
_chemical_formula_sum   'Tm4 Co18 Si11 P1 Os2'
_cell_volume   458.78565747
_cell_formula_units_Z   1
loop_
 _symmetry_equiv_pos_site_id
 _symmetry_equiv_pos_as_xyz
  1  'x, y, z'
loop_
 _atom_site_type_symbol
 _atom_site_label
 _atom_site_symmetry_multiplicity
 _atom_site_fract_x
 _atom_site_fract_y
 _atom_site_fract_z
 _atom_site_occupancy
  Tm  Tm0  1  0.250000  0.582935  0.701172  1
  Tm  Tm1  1  0.250000  0.915872  0.203587  1
  Tm  Tm2  1  0.750000  0.418803  0.295561  1
  Tm  Tm3  1  0.750000  0.080437  0.797633  1
  Co  Co4  1  0.750000  0.292271  0.009636  1
  Co  Co5  1  0.750000  0.206189  0.509514  1
  Co  Co6  1  0.250000  0.404422  0.490644  1
  Co  Co7  1  0.250000  0.090327  0.989052  1
  Co  Co8  1  0.750000  0.592419  0.511935  1
  Co  Co9  1  0.750000  0.907522  0.009274  1
  Co  Co10  1  0.250000  0.213894  0.174761  1
  Co  Co11  1  0.250000  0.285038  0.676632  1
  Co  Co12  1  0.750000  0.786583  0.826027  1
  Co  Co13  1  0.750000  0.715861  0.325322  1
  Co  Co14  1  0.250000  0.888172  0.703525  1
  Co  Co15  1  0.250000  0.613177  0.198757  1
  Co  Co16  1  0.750000  0.117286  0.300785  1
  Co  Co17  1  0.750000  0.381888  0.800638  1
  Co  Co18  1  0.250000  0.467972  0.929524  1
  Co  Co19  1  0.250000  0.033464  0.431344  1
  Co  Co20  1  0.750000  0.529247  0.066148  1
  Co  Co21  1  0.750000  0.972278  0.569498  1
  Si  Si22  1  0.250000  0.413344  0.110055  1
  Si  Si23  1  0.250000  0.087215  0.611683  1
  Si  Si24  1  0.750000  0.582701  0.884860  1
  Si  Si25  1  0.750000  0.917634  0.387745  1
  Si  Si26  1  0.250000  0.268767  0.871326  1
  Si  Si27  1  0.250000  0.231022  0.369722  1
  Si  Si28  1  0.750000  0.727574  0.133019  1
  Si  Si29  1  0.750000  0.772519  0.633602  1
  Si  Si30  1  0.250000  0.597992  0.391871  1
  Si  Si31  1  0.750000  0.397122  0.606742  1
  Si  Si32  1  0.750000  0.101527  0.107178  1
  P  P33  1  0.250000  0.902655  0.891087  1
  Os  Os34  1  0.250000  0.708546  0.988204  1
  Os  Os35  1  0.250000  0.795328  0.491937  1
