# generated using pymatgen
data_La3CeNb4F28
_symmetry_space_group_name_H-M   'P 1'
_cell_length_a   5.87324302
_cell_length_b   9.42288367
_cell_length_c   12.64006500
_cell_angle_alpha   62.95599968
_cell_angle_beta   90.00490696
_cell_angle_gamma   89.97570188
_symmetry_Int_Tables_number   1
_chemical_formula_structural   La3CeNb4F28
_chemical_formula_sum   'La3 Ce1 Nb4 F28'
_cell_volume   623.04847203
_cell_formula_units_Z   1
loop_
 _symmetry_equiv_pos_site_id
 _symmetry_equiv_pos_as_xyz
  1  'x, y, z'
loop_
 _atom_site_type_symbol
 _atom_site_label
 _atom_site_symmetry_multiplicity
 _atom_site_fract_x
 _atom_site_fract_y
 _atom_site_fract_z
 _atom_site_occupancy
  La  La0  1  0.756043  0.808901  0.769130  1
  La  La1  1  0.256035  0.191137  0.730393  1
  La  La2  1  0.244424  0.190034  0.231266  1
  Ce  Ce3  1  0.743953  0.809372  0.269789  1
  Nb  Nb4  1  0.752206  0.272340  0.956151  1
  Nb  Nb5  1  0.252276  0.726836  0.543175  1
  Nb  Nb6  1  0.247269  0.726778  0.045749  1
  Nb  Nb7  1  0.747500  0.275072  0.454781  1
  F  F8  1  0.455627  0.708881  0.923558  1
  F  F9  1  0.955781  0.292145  0.577442  1
  F  F10  1  0.543806  0.290492  0.078297  1
  F  F11  1  0.041072  0.710552  0.421198  1
  F  F12  1  0.466734  0.285957  0.547285  1
  F  F13  1  0.967705  0.714594  0.952753  1
  F  F14  1  0.533043  0.715559  0.450339  1
  F  F15  1  0.033082  0.284186  0.048484  1
  F  F16  1  0.761822  0.505382  0.862306  1
  F  F17  1  0.263009  0.493640  0.637821  1
  F  F18  1  0.238123  0.493744  0.138662  1
  F  F19  1  0.739654  0.508662  0.360975  1
  F  F20  1  0.760636  0.040906  0.051709  1
  F  F21  1  0.259956  0.959157  0.448128  1
  F  F22  1  0.239658  0.958151  0.950824  1
  F  F23  1  0.738998  0.043051  0.549425  1
  F  F24  1  0.980047  0.732387  0.640443  1
  F  F25  1  0.478958  0.267145  0.859002  1
  F  F26  1  0.020558  0.267990  0.357531  1
  F  F27  1  0.520580  0.733277  0.143269  1
  F  F28  1  0.039536  0.749631  0.167800  1
  F  F29  1  0.542390  0.251971  0.332077  1
  F  F30  1  0.957009  0.250502  0.833332  1
  F  F31  1  0.458347  0.747672  0.666193  1
  F  F32  1  0.427297  0.969923  0.232875  1
  F  F33  1  0.921239  0.024679  0.267681  1
  F  F34  1  0.577929  0.027658  0.767970  1
  F  F35  1  0.077705  0.971638  0.732187  1
