# generated using pymatgen
data_LiCeThSi4Ag
_symmetry_space_group_name_H-M   'P 1'
_cell_length_a   9.13776147
_cell_length_b   9.13776182
_cell_length_c   4.17753300
_cell_angle_alpha   90.00000000
_cell_angle_beta   90.00000000
_cell_angle_gamma   153.75043698
_symmetry_Int_Tables_number   1
_chemical_formula_structural   LiCeThSi4Ag
_chemical_formula_sum   'Li1 Ce1 Th1 Si4 Ag1'
_cell_volume   154.27610215
_cell_formula_units_Z   1
loop_
 _symmetry_equiv_pos_site_id
 _symmetry_equiv_pos_as_xyz
  1  'x, y, z'
loop_
 _atom_site_type_symbol
 _atom_site_label
 _atom_site_symmetry_multiplicity
 _atom_site_fract_x
 _atom_site_fract_y
 _atom_site_fract_z
 _atom_site_occupancy
  Li  Li0  1  0.749567  0.250433  0.750000  1
  Ce  Ce1  1  0.405478  0.594522  0.750000  1
  Th  Th2  1  0.595577  0.404423  0.250000  1
  Si  Si3  1  0.967745  0.032255  0.250000  1
  Si  Si4  1  0.030363  0.969637  0.750000  1
  Si  Si5  1  0.838062  0.161938  0.250000  1
  Si  Si6  1  0.161622  0.838378  0.750000  1
  Ag  Ag7  1  0.251584  0.748416  0.250000  1
