# generated using pymatgen
data_Lu2SnRh5
_symmetry_space_group_name_H-M   'P 1'
_cell_length_a   5.66046665
_cell_length_b   5.66046633
_cell_length_c   8.51681200
_cell_angle_alpha   90.00000000
_cell_angle_beta   90.00000000
_cell_angle_gamma   97.25264679
_symmetry_Int_Tables_number   1
_chemical_formula_structural   Lu2SnRh5
_chemical_formula_sum   'Lu4 Sn2 Rh10'
_cell_volume   270.70282901
_cell_formula_units_Z   2
loop_
 _symmetry_equiv_pos_site_id
 _symmetry_equiv_pos_as_xyz
  1  'x, y, z'
loop_
 _atom_site_type_symbol
 _atom_site_label
 _atom_site_symmetry_multiplicity
 _atom_site_fract_x
 _atom_site_fract_y
 _atom_site_fract_z
 _atom_site_occupancy
  Lu  Lu0  1  0.780012  0.219988  0.500000  1
  Lu  Lu1  1  0.219988  0.780012  0.000000  1
  Lu  Lu2  1  0.219988  0.780012  0.500000  1
  Lu  Lu3  1  0.780012  0.219988  0.000000  1
  Sn  Sn4  1  0.501957  0.501957  0.750000  1
  Sn  Sn5  1  0.498043  0.498043  0.250000  1
  Rh  Rh6  1  0.726019  0.726019  0.001011  1
  Rh  Rh7  1  0.726019  0.726019  0.498989  1
  Rh  Rh8  1  0.273981  0.273981  0.998989  1
  Rh  Rh9  1  0.273981  0.273981  0.501011  1
  Rh  Rh10  1  0.499650  0.000559  0.750000  1
  Rh  Rh11  1  0.500350  0.999441  0.250000  1
  Rh  Rh12  1  0.000336  0.000336  0.250000  1
  Rh  Rh13  1  0.999664  0.999664  0.750000  1
  Rh  Rh14  1  0.000559  0.499650  0.750000  1
  Rh  Rh15  1  0.999441  0.500350  0.250000  1
