# generated using pymatgen
data_Dy2Ga4CuPd
_symmetry_space_group_name_H-M   'P 1'
_cell_length_a   5.53069382
_cell_length_b   5.53069382
_cell_length_c   6.59469800
_cell_angle_alpha   90.00000000
_cell_angle_beta   90.00000000
_cell_angle_gamma   133.18829118
_symmetry_Int_Tables_number   1
_chemical_formula_structural   Dy2Ga4CuPd
_chemical_formula_sum   'Dy2 Ga4 Cu1 Pd1'
_cell_volume   147.07752357
_cell_formula_units_Z   1
loop_
 _symmetry_equiv_pos_site_id
 _symmetry_equiv_pos_as_xyz
  1  'x, y, z'
loop_
 _atom_site_type_symbol
 _atom_site_label
 _atom_site_symmetry_multiplicity
 _atom_site_fract_x
 _atom_site_fract_y
 _atom_site_fract_z
 _atom_site_occupancy
  Dy  Dy0  1  0.588709  0.411291  0.250000  1
  Dy  Dy1  1  0.411793  0.588207  0.750000  1
  Ga  Ga2  1  0.872372  0.127628  0.444887  1
  Ga  Ga3  1  0.128166  0.871834  0.549376  1
  Ga  Ga4  1  0.872372  0.127628  0.055113  1
  Ga  Ga5  1  0.128166  0.871834  0.950624  1
  Cu  Cu6  1  0.298007  0.701993  0.250000  1
  Pd  Pd7  1  0.700414  0.299586  0.750000  1
