# generated using pymatgen
data_Y2Ni9P7Pd3
_symmetry_space_group_name_H-M   'P 1'
_cell_length_a   9.18841300
_cell_length_b   9.18841318
_cell_length_c   3.77100000
_cell_angle_alpha   90.00000000
_cell_angle_beta   90.00000000
_cell_angle_gamma   120.00000294
_symmetry_Int_Tables_number   1
_chemical_formula_structural   Y2Ni9P7Pd3
_chemical_formula_sum   'Y2 Ni9 P7 Pd3'
_cell_volume   275.71993980
_cell_formula_units_Z   1
loop_
 _symmetry_equiv_pos_site_id
 _symmetry_equiv_pos_as_xyz
  1  'x, y, z'
loop_
 _atom_site_type_symbol
 _atom_site_label
 _atom_site_symmetry_multiplicity
 _atom_site_fract_x
 _atom_site_fract_y
 _atom_site_fract_z
 _atom_site_occupancy
  Y  Y0  1  0.333333  0.666667  0.000000  1
  Y  Y1  1  0.666667  0.333333  0.500000  1
  Ni  Ni2  1  0.721473  0.879292  0.000000  1
  Ni  Ni3  1  0.157819  0.278527  0.000000  1
  Ni  Ni4  1  0.120708  0.842181  0.000000  1
  Ni  Ni5  1  0.631792  0.569607  0.000000  1
  Ni  Ni6  1  0.937815  0.368208  0.000000  1
  Ni  Ni7  1  0.430393  0.062185  0.000000  1
  Ni  Ni8  1  0.560269  0.948441  0.500000  1
  Ni  Ni9  1  0.388173  0.439731  0.500000  1
  Ni  Ni10  1  0.051559  0.611827  0.500000  1
  P  P11  1  0.587891  0.709242  0.500000  1
  P  P12  1  0.121351  0.412109  0.500000  1
  P  P13  1  0.290758  0.878649  0.500000  1
  P  P14  1  0.000000  0.000000  0.000000  1
  P  P15  1  0.891244  0.583767  0.000000  1
  P  P16  1  0.692523  0.108756  0.000000  1
  P  P17  1  0.416233  0.307477  0.000000  1
  Pd  Pd18  1  0.875108  0.775613  0.500000  1
  Pd  Pd19  1  0.900505  0.124892  0.500000  1
  Pd  Pd20  1  0.224387  0.099495  0.500000  1
