# generated using pymatgen
data_Dy4Ho8Tc3Ir
_symmetry_space_group_name_H-M   'P 1'
_cell_length_a   6.29089900
_cell_length_b   7.39479702
_cell_length_c   9.11999700
_cell_angle_alpha   90.00000000
_cell_angle_beta   90.00000000
_cell_angle_gamma   89.99581764
_symmetry_Int_Tables_number   1
_chemical_formula_structural   Dy4Ho8Tc3Ir
_chemical_formula_sum   'Dy4 Ho8 Tc3 Ir1'
_cell_volume   424.26154029
_cell_formula_units_Z   1
loop_
 _symmetry_equiv_pos_site_id
 _symmetry_equiv_pos_as_xyz
  1  'x, y, z'
loop_
 _atom_site_type_symbol
 _atom_site_label
 _atom_site_symmetry_multiplicity
 _atom_site_fract_x
 _atom_site_fract_y
 _atom_site_fract_z
 _atom_site_occupancy
  Dy  Dy0  1  0.873809  0.540737  0.250000  1
  Dy  Dy1  1  0.625721  0.038654  0.250000  1
  Dy  Dy2  1  0.131156  0.458224  0.750000  1
  Dy  Dy3  1  0.371049  0.959988  0.750000  1
  Ho  Ho4  1  0.333009  0.675978  0.064222  1
  Ho  Ho5  1  0.163400  0.175578  0.436772  1
  Ho  Ho6  1  0.665146  0.322940  0.561804  1
  Ho  Ho7  1  0.835131  0.825217  0.937829  1
  Ho  Ho8  1  0.665146  0.322940  0.938196  1
  Ho  Ho9  1  0.835131  0.825217  0.562171  1
  Ho  Ho10  1  0.333009  0.675978  0.435778  1
  Ho  Ho11  1  0.163400  0.175578  0.063228  1
  Tc  Tc12  1  0.040224  0.883753  0.250000  1
  Tc  Tc13  1  0.461820  0.386315  0.250000  1
  Tc  Tc14  1  0.959695  0.116560  0.750000  1
  Ir  Ir15  1  0.543154  0.616344  0.750000  1
