# generated using pymatgen
data_Ti5Co10GeB4
_symmetry_space_group_name_H-M   'P 1'
_cell_length_a   8.37250900
_cell_length_b   8.37250900
_cell_length_c   3.06563100
_cell_angle_alpha   90.00000000
_cell_angle_beta   90.00000000
_cell_angle_gamma   90.00000000
_symmetry_Int_Tables_number   1
_chemical_formula_structural   Ti5Co10GeB4
_chemical_formula_sum   'Ti5 Co10 Ge1 B4'
_cell_volume   214.89738223
_cell_formula_units_Z   1
loop_
 _symmetry_equiv_pos_site_id
 _symmetry_equiv_pos_as_xyz
  1  'x, y, z'
loop_
 _atom_site_type_symbol
 _atom_site_label
 _atom_site_symmetry_multiplicity
 _atom_site_fract_x
 _atom_site_fract_y
 _atom_site_fract_z
 _atom_site_occupancy
  Ti  Ti0  1  0.500000  0.500000  0.000000  1
  Ti  Ti1  1  0.826604  0.323316  0.000000  1
  Ti  Ti2  1  0.323316  0.173396  0.000000  1
  Ti  Ti3  1  0.676684  0.826604  0.000000  1
  Ti  Ti4  1  0.173396  0.676684  0.000000  1
  Co  Co5  1  0.500000  0.000000  0.500000  1
  Co  Co6  1  0.000000  0.500000  0.500000  1
  Co  Co7  1  0.070355  0.218699  0.500000  1
  Co  Co8  1  0.218699  0.929645  0.500000  1
  Co  Co9  1  0.781301  0.070355  0.500000  1
  Co  Co10  1  0.929645  0.781301  0.500000  1
  Co  Co11  1  0.428652  0.720722  0.500000  1
  Co  Co12  1  0.571348  0.279278  0.500000  1
  Co  Co13  1  0.720722  0.571348  0.500000  1
  Co  Co14  1  0.279278  0.428652  0.500000  1
  Ge  Ge15  1  0.000000  0.000000  0.000000  1
  B  B16  1  0.620017  0.121139  0.000000  1
  B  B17  1  0.121139  0.379983  0.000000  1
  B  B18  1  0.878861  0.620017  0.000000  1
  B  B19  1  0.379983  0.878861  0.000000  1
