# generated using pymatgen
data_Bi3IrRh3PbO14
_symmetry_space_group_name_H-M   'P 1'
_cell_length_a   7.35774331
_cell_length_b   7.35496220
_cell_length_c   7.35809509
_cell_angle_alpha   59.97024439
_cell_angle_beta   60.00158700
_cell_angle_gamma   59.98750070
_symmetry_Int_Tables_number   1
_chemical_formula_structural   Bi3IrRh3PbO14
_chemical_formula_sum   'Bi3 Ir1 Rh3 Pb1 O14'
_cell_volume   281.47634254
_cell_formula_units_Z   1
loop_
 _symmetry_equiv_pos_site_id
 _symmetry_equiv_pos_as_xyz
  1  'x, y, z'
loop_
 _atom_site_type_symbol
 _atom_site_label
 _atom_site_symmetry_multiplicity
 _atom_site_fract_x
 _atom_site_fract_y
 _atom_site_fract_z
 _atom_site_occupancy
  Bi  Bi0  1  0.625000  0.125000  0.125000  1
  Bi  Bi1  1  0.125000  0.625000  0.125000  1
  Bi  Bi2  1  0.125000  0.125000  0.125000  1
  Ir  Ir3  1  0.625000  0.125000  0.625000  1
  Rh  Rh4  1  0.125000  0.625000  0.625000  1
  Rh  Rh5  1  0.625000  0.625000  0.125000  1
  Rh  Rh6  1  0.625000  0.625000  0.625000  1
  Pb  Pb7  1  0.125000  0.125000  0.625000  1
  O  O8  1  0.706326  0.708141  0.292552  1
  O  O9  1  0.297513  0.291789  0.705694  1
  O  O10  1  0.705003  0.291789  0.705694  1
  O  O11  1  0.292981  0.708141  0.292552  1
  O  O12  1  0.293250  0.707330  0.706170  1
  O  O13  1  0.705650  0.291700  0.296999  1
  O  O14  1  0.543674  0.541859  0.957448  1
  O  O15  1  0.952487  0.958211  0.544306  1
  O  O16  1  0.544997  0.958211  0.544306  1
  O  O17  1  0.957019  0.541859  0.957448  1
  O  O18  1  0.956750  0.542670  0.543830  1
  O  O19  1  0.544350  0.958300  0.953001  1
  O  O20  1  0.250402  0.249735  0.249460  1
  O  O21  1  0.999598  0.000265  0.000540  1
