# generated using pymatgen
data_LuZr(SiTc)2
_symmetry_space_group_name_H-M   'P 1'
_cell_length_a   3.49227500
_cell_length_b   7.04747064
_cell_length_c   12.24326757
_cell_angle_alpha   89.96867991
_cell_angle_beta   90.00000000
_cell_angle_gamma   90.00000000
_symmetry_Int_Tables_number   1
_chemical_formula_structural   LuZr(SiTc)2
_chemical_formula_sum   'Lu3 Zr3 Si6 Tc6'
_cell_volume   301.32765118
_cell_formula_units_Z   3
loop_
 _symmetry_equiv_pos_site_id
 _symmetry_equiv_pos_as_xyz
  1  'x, y, z'
loop_
 _atom_site_type_symbol
 _atom_site_label
 _atom_site_symmetry_multiplicity
 _atom_site_fract_x
 _atom_site_fract_y
 _atom_site_fract_z
 _atom_site_occupancy
  Lu  Lu0  1  0.500000  0.398859  0.000973  1
  Lu  Lu1  1  0.500000  0.897746  0.498917  1
  Lu  Lu2  1  0.500000  0.803862  0.801063  1
  Zr  Zr3  1  0.500000  0.299329  0.299684  1
  Zr  Zr4  1  0.500000  0.302719  0.699041  1
  Zr  Zr5  1  0.500000  0.799621  0.200023  1
  Si  Si6  1  0.500000  0.998987  0.000954  1
  Si  Si7  1  0.500000  0.497890  0.499681  1
  Si  Si8  1  0.000000  0.005364  0.666059  1
  Si  Si9  1  0.000000  0.500553  0.169197  1
  Si  Si10  1  0.000000  0.497673  0.831679  1
  Si  Si11  1  0.000000  0.000662  0.331215  1
  Tc  Tc12  1  0.000000  0.248341  0.498607  1
  Tc  Tc13  1  0.000000  0.748534  0.003744  1
  Tc  Tc14  1  0.000000  0.621976  0.626477  1
  Tc  Tc15  1  0.000000  0.124661  0.129480  1
  Tc  Tc16  1  0.000000  0.130742  0.872614  1
  Tc  Tc17  1  0.000000  0.622677  0.370593  1
