# generated using pymatgen
data_Tb8Hg2RuPt
_symmetry_space_group_name_H-M   'P 1'
_cell_length_a   9.65459093
_cell_length_b   9.65459200
_cell_length_c   9.64409000
_cell_angle_alpha   60.03597671
_cell_angle_beta   60.03597304
_cell_angle_gamma   60.15837197
_symmetry_Int_Tables_number   1
_chemical_formula_structural   Tb8Hg2RuPt
_chemical_formula_sum   'Tb16 Hg4 Ru2 Pt2'
_cell_volume   636.74812425
_cell_formula_units_Z   2
loop_
 _symmetry_equiv_pos_site_id
 _symmetry_equiv_pos_as_xyz
  1  'x, y, z'
loop_
 _atom_site_type_symbol
 _atom_site_label
 _atom_site_symmetry_multiplicity
 _atom_site_fract_x
 _atom_site_fract_y
 _atom_site_fract_z
 _atom_site_occupancy
  Tb  Tb0  1  0.601033  0.601033  0.597460  1
  Tb  Tb1  1  0.601033  0.601033  0.200475  1
  Tb  Tb2  1  0.608247  0.191678  0.600037  1
  Tb  Tb3  1  0.191678  0.608247  0.600037  1
  Tb  Tb4  1  0.055095  0.440018  0.441424  1
  Tb  Tb5  1  0.440018  0.055095  0.063463  1
  Tb  Tb6  1  0.440018  0.055095  0.441424  1
  Tb  Tb7  1  0.055095  0.440018  0.063463  1
  Tb  Tb8  1  0.442129  0.442129  0.057871  1
  Tb  Tb9  1  0.060765  0.060765  0.439235  1
  Tb  Tb10  1  0.189278  0.814424  0.809387  1
  Tb  Tb11  1  0.814424  0.189278  0.186911  1
  Tb  Tb12  1  0.814424  0.189278  0.809387  1
  Tb  Tb13  1  0.189278  0.814424  0.186911  1
  Tb  Tb14  1  0.812180  0.812180  0.187820  1
  Tb  Tb15  1  0.187818  0.187818  0.812182  1
  Hg  Hg16  1  0.834830  0.834830  0.835248  1
  Hg  Hg17  1  0.834830  0.834830  0.495093  1
  Hg  Hg18  1  0.834294  0.495413  0.835147  1
  Hg  Hg19  1  0.495413  0.834294  0.835147  1
  Ru  Ru20  1  0.390660  0.824903  0.392219  1
  Ru  Ru21  1  0.824903  0.390660  0.392219  1
  Pt  Pt22  1  0.391279  0.391279  0.394866  1
  Pt  Pt23  1  0.391279  0.391279  0.822577  1
