# generated using pymatgen
data_La2B4Ir2OsRh2
_symmetry_space_group_name_H-M   'P 1'
_cell_length_a   7.62250707
_cell_length_b   6.40299846
_cell_length_c   5.72188173
_cell_angle_alpha   77.67915521
_cell_angle_beta   55.15142599
_cell_angle_gamma   47.19133107
_symmetry_Int_Tables_number   1
_chemical_formula_structural   La2B4Ir2OsRh2
_chemical_formula_sum   'La2 B4 Ir2 Os1 Rh2'
_cell_volume   160.88388150
_cell_formula_units_Z   1
loop_
 _symmetry_equiv_pos_site_id
 _symmetry_equiv_pos_as_xyz
  1  'x, y, z'
loop_
 _atom_site_type_symbol
 _atom_site_label
 _atom_site_symmetry_multiplicity
 _atom_site_fract_x
 _atom_site_fract_y
 _atom_site_fract_z
 _atom_site_occupancy
  La  La0  1  0.858314  0.858314  0.141686  1
  La  La1  1  0.141568  0.141568  0.858432  1
  B  B2  1  0.783179  0.477846  0.540399  1
  B  B3  1  0.198934  0.540066  0.476981  1
  B  B4  1  0.540066  0.198934  0.784020  1
  B  B5  1  0.477846  0.783179  0.198577  1
  Ir  Ir6  1  0.498475  0.498475  0.001525  1
  Ir  Ir7  1  0.500087  0.500087  0.499913  1
  Os  Os8  1  0.750312  0.750312  0.749688  1
  Rh  Rh9  1  0.001437  0.001437  0.498563  1
  Rh  Rh10  1  0.249784  0.249784  0.250216  1
