# generated using pymatgen
data_Er9TmCd3Ni
_symmetry_space_group_name_H-M   'P 1'
_cell_length_a   9.47325000
_cell_length_b   9.47324936
_cell_length_c   9.68061000
_cell_angle_alpha   90.00000000
_cell_angle_beta   90.00000000
_cell_angle_gamma   119.99999524
_symmetry_Int_Tables_number   1
_chemical_formula_structural   Er9TmCd3Ni
_chemical_formula_sum   'Er18 Tm2 Cd6 Ni2'
_cell_volume   752.36978256
_cell_formula_units_Z   2
loop_
 _symmetry_equiv_pos_site_id
 _symmetry_equiv_pos_as_xyz
  1  'x, y, z'
loop_
 _atom_site_type_symbol
 _atom_site_label
 _atom_site_symmetry_multiplicity
 _atom_site_fract_x
 _atom_site_fract_y
 _atom_site_fract_z
 _atom_site_occupancy
  Er  Er0  1  0.543317  0.456683  0.250000  1
  Er  Er1  1  0.543317  0.086635  0.250000  1
  Er  Er2  1  0.913365  0.456683  0.250000  1
  Er  Er3  1  0.456683  0.543317  0.750000  1
  Er  Er4  1  0.456683  0.913365  0.750000  1
  Er  Er5  1  0.086635  0.543317  0.750000  1
  Er  Er6  1  0.211084  0.788916  0.438553  1
  Er  Er7  1  0.211084  0.422168  0.438553  1
  Er  Er8  1  0.577832  0.788916  0.438553  1
  Er  Er9  1  0.788916  0.211084  0.561447  1
  Er  Er10  1  0.788916  0.577832  0.561447  1
  Er  Er11  1  0.422168  0.211084  0.561447  1
  Er  Er12  1  0.788916  0.211084  0.938553  1
  Er  Er13  1  0.788916  0.577832  0.938553  1
  Er  Er14  1  0.422168  0.211084  0.938553  1
  Er  Er15  1  0.211084  0.788916  0.061447  1
  Er  Er16  1  0.211084  0.422168  0.061447  1
  Er  Er17  1  0.577832  0.788916  0.061447  1
  Tm  Tm18  1  0.000000  0.000000  0.500000  1
  Tm  Tm19  1  0.000000  0.000000  0.000000  1
  Cd  Cd20  1  0.885667  0.114333  0.250000  1
  Cd  Cd21  1  0.885667  0.771336  0.250000  1
  Cd  Cd22  1  0.228664  0.114333  0.250000  1
  Cd  Cd23  1  0.114333  0.885667  0.750000  1
  Cd  Cd24  1  0.114333  0.228664  0.750000  1
  Cd  Cd25  1  0.771336  0.885667  0.750000  1
  Ni  Ni26  1  0.333333  0.666667  0.250000  1
  Ni  Ni27  1  0.666667  0.333333  0.750000  1
