# generated using pymatgen
data_La8DyYIr4
_symmetry_space_group_name_H-M   'P 1'
_cell_length_a   6.73033368
_cell_length_b   7.31724703
_cell_length_c   9.15136355
_cell_angle_alpha   95.85537398
_cell_angle_beta   111.57525925
_cell_angle_gamma   90.00000438
_symmetry_Int_Tables_number   1
_chemical_formula_structural   La8DyYIr4
_chemical_formula_sum   'La8 Dy1 Y1 Ir4'
_cell_volume   416.57543998
_cell_formula_units_Z   1
loop_
 _symmetry_equiv_pos_site_id
 _symmetry_equiv_pos_as_xyz
  1  'x, y, z'
loop_
 _atom_site_type_symbol
 _atom_site_label
 _atom_site_symmetry_multiplicity
 _atom_site_fract_x
 _atom_site_fract_y
 _atom_site_fract_z
 _atom_site_occupancy
  La  La0  1  0.799023  0.083916  0.818700  1
  La  La1  1  0.980322  0.416084  0.181300  1
  La  La2  1  0.201049  0.916034  0.181291  1
  La  La3  1  0.019759  0.583966  0.818709  1
  La  La4  1  0.216251  0.184934  0.573653  1
  La  La5  1  0.642598  0.315066  0.426347  1
  La  La6  1  0.783628  0.815000  0.426323  1
  La  La7  1  0.357304  0.685000  0.573677  1
  Dy  Dy8  1  0.565829  0.750000  0.000000  1
  Y  Y9  1  0.433800  0.250000  0.000000  1
  Ir  Ir10  1  0.597068  0.426326  0.787094  1
  Ir  Ir11  1  0.809975  0.073674  0.212906  1
  Ir  Ir12  1  0.403143  0.574318  0.212892  1
  Ir  Ir13  1  0.190251  0.925682  0.787108  1
