# generated using pymatgen
data_YLu3Al18Ir5Pd
_symmetry_space_group_name_H-M   'P 1'
_cell_length_a   7.57868291
_cell_length_b   7.57789521
_cell_length_c   9.48558500
_cell_angle_alpha   89.96402519
_cell_angle_beta   89.97186122
_cell_angle_gamma   119.59487406
_symmetry_Int_Tables_number   1
_chemical_formula_structural   YLu3Al18Ir5Pd
_chemical_formula_sum   'Y1 Lu3 Al18 Ir5 Pd1'
_cell_volume   473.69118811
_cell_formula_units_Z   1
loop_
 _symmetry_equiv_pos_site_id
 _symmetry_equiv_pos_as_xyz
  1  'x, y, z'
loop_
 _atom_site_type_symbol
 _atom_site_label
 _atom_site_symmetry_multiplicity
 _atom_site_fract_x
 _atom_site_fract_y
 _atom_site_fract_z
 _atom_site_occupancy
  Y  Y0  1  0.994664  0.671023  0.250954  1
  Lu  Lu1  1  0.004802  0.328436  0.748818  1
  Lu  Lu2  1  0.671362  0.995417  0.251159  1
  Lu  Lu3  1  0.328286  0.004948  0.748774  1
  Al  Al4  1  0.128165  0.127996  0.250378  1
  Al  Al5  1  0.872951  0.872315  0.749614  1
  Al  Al6  1  0.003751  0.334595  0.075822  1
  Al  Al7  1  0.003255  0.668551  0.922227  1
  Al  Al8  1  0.000584  0.664542  0.575796  1
  Al  Al9  1  0.336232  0.000279  0.426350  1
  Al  Al10  1  0.999740  0.334018  0.425534  1
  Al  Al11  1  0.664979  0.000312  0.575485  1
  Al  Al12  1  0.664434  0.996634  0.923131  1
  Al  Al13  1  0.332512  0.997956  0.075564  1
  Al  Al14  1  0.332357  0.332193  0.552043  1
  Al  Al15  1  0.667026  0.667625  0.449256  1
  Al  Al16  1  0.666168  0.670356  0.055295  1
  Al  Al17  1  0.329815  0.333023  0.943291  1
  Al  Al18  1  0.341456  0.550039  0.250544  1
  Al  Al19  1  0.659584  0.451033  0.747578  1
  Al  Al20  1  0.547087  0.338779  0.252618  1
  Al  Al21  1  0.449885  0.659619  0.749475  1
  Ir  Ir22  1  0.328250  0.671869  0.999719  1
  Ir  Ir23  1  0.328329  0.671749  0.500292  1
  Ir  Ir24  1  0.671902  0.327759  0.500269  1
  Ir  Ir25  1  0.999805  0.000682  0.999642  1
  Ir  Ir26  1  0.000283  0.000268  0.500361  1
  Pd  Pd27  1  0.672333  0.327982  0.000008  1
