# generated using pymatgen
data_Dy2Y2Tm8TlCo5
_symmetry_space_group_name_H-M   'P 1'
_cell_length_a   8.25775697
_cell_length_b   8.25775514
_cell_length_c   8.25032698
_cell_angle_alpha   107.12230418
_cell_angle_beta   110.72573042
_cell_angle_gamma   110.62658268
_symmetry_Int_Tables_number   1
_chemical_formula_structural   Dy2Y2Tm8TlCo5
_chemical_formula_sum   'Dy2 Y2 Tm8 Tl1 Co5'
_cell_volume   432.34677401
_cell_formula_units_Z   1
loop_
 _symmetry_equiv_pos_site_id
 _symmetry_equiv_pos_as_xyz
  1  'x, y, z'
loop_
 _atom_site_type_symbol
 _atom_site_label
 _atom_site_symmetry_multiplicity
 _atom_site_fract_x
 _atom_site_fract_y
 _atom_site_fract_z
 _atom_site_occupancy
  Dy  Dy0  1  0.191874  0.789660  0.982169  1
  Dy  Dy1  1  0.807490  0.209703  0.017831  1
  Y  Y2  1  0.476911  0.291147  0.187316  1
  Y  Y3  1  0.103831  0.289596  0.812684  1
  Tm  Tm4  1  0.894701  0.711302  0.184957  1
  Tm  Tm5  1  0.526347  0.709744  0.815043  1
  Tm  Tm6  1  0.308166  0.622473  0.317048  1
  Tm  Tm7  1  0.305425  0.991120  0.682952  1
  Tm  Tm8  1  0.691238  0.378832  0.684930  1
  Tm  Tm9  1  0.693902  0.006308  0.315070  1
  Tm  Tm10  1  0.192754  0.210315  0.403723  1
  Tm  Tm11  1  0.806593  0.789031  0.596277  1
  Tl  Tl12  1  0.000103  0.500103  0.500000  1
  Co  Co13  1  0.503976  0.615056  0.114235  1
  Co  Co14  1  0.500821  0.389741  0.885765  1
  Co  Co15  1  0.378206  0.000043  0.379712  1
  Co  Co16  1  0.620330  0.998493  0.620288  1
  Co  Co17  1  0.997333  0.997333  0.000000  1
