# generated using pymatgen
data_Er3ThMgIr
_symmetry_space_group_name_H-M   'P 1'
_cell_length_a   9.75558933
_cell_length_b   9.75559002
_cell_length_c   9.75559000
_cell_angle_alpha   60.00000008
_cell_angle_beta   59.99999774
_cell_angle_gamma   60.00000083
_symmetry_Int_Tables_number   1
_chemical_formula_structural   Er3ThMgIr
_chemical_formula_sum   'Er12 Th4 Mg4 Ir4'
_cell_volume   656.51641414
_cell_formula_units_Z   4
loop_
 _symmetry_equiv_pos_site_id
 _symmetry_equiv_pos_as_xyz
  1  'x, y, z'
loop_
 _atom_site_type_symbol
 _atom_site_label
 _atom_site_symmetry_multiplicity
 _atom_site_fract_x
 _atom_site_fract_y
 _atom_site_fract_z
 _atom_site_occupancy
  Er  Er0  1  0.813065  0.186935  0.186935  1
  Er  Er1  1  0.186935  0.813065  0.813065  1
  Er  Er2  1  0.186935  0.813065  0.186935  1
  Er  Er3  1  0.813065  0.186935  0.813065  1
  Er  Er4  1  0.186935  0.186935  0.813065  1
  Er  Er5  1  0.813065  0.813065  0.186935  1
  Er  Er6  1  0.933685  0.566315  0.566315  1
  Er  Er7  1  0.566315  0.933685  0.933685  1
  Er  Er8  1  0.566315  0.933685  0.566315  1
  Er  Er9  1  0.933685  0.566315  0.933685  1
  Er  Er10  1  0.566315  0.566315  0.933685  1
  Er  Er11  1  0.933685  0.933685  0.566315  1
  Th  Th12  1  0.348813  0.348813  0.348813  1
  Th  Th13  1  0.348813  0.348813  0.953559  1
  Th  Th14  1  0.348813  0.953559  0.348813  1
  Th  Th15  1  0.953559  0.348813  0.348813  1
  Mg  Mg16  1  0.581382  0.581382  0.581382  1
  Mg  Mg17  1  0.581382  0.581382  0.255851  1
  Mg  Mg18  1  0.581382  0.255851  0.581382  1
  Mg  Mg19  1  0.255851  0.581382  0.581382  1
  Ir  Ir20  1  0.142683  0.142683  0.142683  1
  Ir  Ir21  1  0.142683  0.142683  0.571950  1
  Ir  Ir22  1  0.142683  0.571950  0.142683  1
  Ir  Ir23  1  0.571950  0.142683  0.142683  1
