# generated using pymatgen
data_Lu10Tl3Bi2Sb
_symmetry_space_group_name_H-M   'P 1'
_cell_length_a   8.85344300
_cell_length_b   8.80176757
_cell_length_c   6.52755300
_cell_angle_alpha   90.00000000
_cell_angle_beta   90.00000000
_cell_angle_gamma   119.67908596
_symmetry_Int_Tables_number   1
_chemical_formula_structural   Lu10Tl3Bi2Sb
_chemical_formula_sum   'Lu10 Tl3 Bi2 Sb1'
_cell_volume   441.93506639
_cell_formula_units_Z   1
loop_
 _symmetry_equiv_pos_site_id
 _symmetry_equiv_pos_as_xyz
  1  'x, y, z'
loop_
 _atom_site_type_symbol
 _atom_site_label
 _atom_site_symmetry_multiplicity
 _atom_site_fract_x
 _atom_site_fract_y
 _atom_site_fract_z
 _atom_site_occupancy
  Lu  Lu0  1  0.674199  0.336132  0.004096  1
  Lu  Lu1  1  0.323492  0.666832  0.004171  1
  Lu  Lu2  1  0.323492  0.666832  0.495829  1
  Lu  Lu3  1  0.674199  0.336132  0.495904  1
  Lu  Lu4  1  0.769089  0.759821  0.750000  1
  Lu  Lu5  1  0.227454  0.988414  0.750000  1
  Lu  Lu6  1  0.998282  0.233739  0.750000  1
  Lu  Lu7  1  0.235972  0.236689  0.250000  1
  Lu  Lu8  1  0.766364  0.006474  0.250000  1
  Lu  Lu9  1  0.005769  0.768758  0.250000  1
  Tl  Tl10  1  0.996127  0.597726  0.750000  1
  Tl  Tl11  1  0.399002  0.006136  0.250000  1
  Tl  Tl12  1  0.002049  0.395596  0.250000  1
  Bi  Bi13  1  0.393140  0.391560  0.750000  1
  Bi  Bi14  1  0.603069  0.996632  0.750000  1
  Sb  Sb15  1  0.608304  0.612531  0.250000  1
