# generated using pymatgen
data_AcLa11(Si2Ni)4
_symmetry_space_group_name_H-M   'P 1'
_cell_length_a   4.33667900
_cell_length_b   11.97058000
_cell_length_c   12.09459800
_cell_angle_alpha   90.31681230
_cell_angle_beta   90.00000000
_cell_angle_gamma   90.00000000
_symmetry_Int_Tables_number   1
_chemical_formula_structural   AcLa11(Si2Ni)4
_chemical_formula_sum   'Ac1 La11 Si8 Ni4'
_cell_volume   627.85198105
_cell_formula_units_Z   1
loop_
 _symmetry_equiv_pos_site_id
 _symmetry_equiv_pos_as_xyz
  1  'x, y, z'
loop_
 _atom_site_type_symbol
 _atom_site_label
 _atom_site_symmetry_multiplicity
 _atom_site_fract_x
 _atom_site_fract_y
 _atom_site_fract_z
 _atom_site_occupancy
  Ac  Ac0  1  0.750000  0.302524  0.788844  1
  La  La1  1  0.250000  0.052866  0.886592  1
  La  La2  1  0.250000  0.444220  0.383344  1
  La  La3  1  0.750000  0.942240  0.117358  1
  La  La4  1  0.750000  0.556238  0.612797  1
  La  La5  1  0.250000  0.124371  0.560143  1
  La  La6  1  0.250000  0.374300  0.062675  1
  La  La7  1  0.750000  0.875505  0.439381  1
  La  La8  1  0.750000  0.626221  0.940231  1
  La  La9  1  0.250000  0.802285  0.713463  1
  La  La10  1  0.250000  0.695544  0.212567  1
  La  La11  1  0.750000  0.193486  0.289615  1
  Si  Si12  1  0.250000  0.813611  0.968292  1
  Si  Si13  1  0.250000  0.687123  0.466554  1
  Si  Si14  1  0.750000  0.183306  0.036667  1
  Si  Si15  1  0.750000  0.314399  0.528557  1
  Si  Si16  1  0.250000  0.499233  0.795291  1
  Si  Si17  1  0.250000  0.008981  0.299296  1
  Si  Si18  1  0.750000  0.510390  0.200691  1
  Si  Si19  1  0.750000  0.988460  0.700677  1
  Ni  Ni20  1  0.250000  0.368552  0.624142  1
  Ni  Ni21  1  0.250000  0.134423  0.131689  1
  Ni  Ni22  1  0.750000  0.636438  0.369625  1
  Ni  Ni23  1  0.750000  0.865285  0.871501  1
