# generated using pymatgen
data_Rb4Pd3Pt3Se8
_symmetry_space_group_name_H-M   'P 1'
_cell_length_a   14.99339837
_cell_length_b   14.27598707
_cell_length_c   6.51462345
_cell_angle_alpha   83.38040169
_cell_angle_beta   71.05028281
_cell_angle_gamma   25.87961228
_symmetry_Int_Tables_number   1
_chemical_formula_structural   Rb4Pd3Pt3Se8
_chemical_formula_sum   'Rb4 Pd3 Pt3 Se8'
_cell_volume   520.12989107
_cell_formula_units_Z   1
loop_
 _symmetry_equiv_pos_site_id
 _symmetry_equiv_pos_as_xyz
  1  'x, y, z'
loop_
 _atom_site_type_symbol
 _atom_site_label
 _atom_site_symmetry_multiplicity
 _atom_site_fract_x
 _atom_site_fract_y
 _atom_site_fract_z
 _atom_site_occupancy
  Rb  Rb0  1  0.572894  0.572894  0.427106  1
  Rb  Rb1  1  0.823446  0.823446  0.676554  1
  Rb  Rb2  1  0.676509  0.676509  0.823491  1
  Rb  Rb3  1  0.427119  0.427119  0.572881  1
  Pd  Pd4  1  0.000008  0.000008  0.999992  1
  Pd  Pd5  1  0.249980  0.249980  0.250020  1
  Pd  Pd6  1  0.249372  0.249372  0.750628  1
  Pt  Pt7  1  0.750595  0.750595  0.249405  1
  Pt  Pt8  1  0.000615  0.000615  0.499385  1
  Pt  Pt9  1  0.499458  0.499458  0.000542  1
  Se  Se10  1  0.232044  0.884384  0.105822  1
  Se  Se11  1  0.366447  0.017130  0.469857  1
  Se  Se12  1  0.140604  0.475729  0.022962  1
  Se  Se13  1  0.475729  0.140604  0.360707  1
  Se  Se14  1  0.774401  0.109266  0.887512  1
  Se  Se15  1  0.109266  0.774401  0.228821  1
  Se  Se16  1  0.884384  0.232044  0.777748  1
  Se  Se17  1  0.017130  0.366447  0.146567  1
