# generated using pymatgen
data_Er3Tm(BeSi3)2
_symmetry_space_group_name_H-M   'P 1'
_cell_length_a   7.81553800
_cell_length_b   7.81617378
_cell_length_c   7.95732800
_cell_angle_alpha   90.00000000
_cell_angle_beta   90.00000000
_cell_angle_gamma   119.99731774
_symmetry_Int_Tables_number   1
_chemical_formula_structural   Er3Tm(BeSi3)2
_chemical_formula_sum   'Er6 Tm2 Be4 Si12'
_cell_volume   420.98121275
_cell_formula_units_Z   2
loop_
 _symmetry_equiv_pos_site_id
 _symmetry_equiv_pos_as_xyz
  1  'x, y, z'
loop_
 _atom_site_type_symbol
 _atom_site_label
 _atom_site_symmetry_multiplicity
 _atom_site_fract_x
 _atom_site_fract_y
 _atom_site_fract_z
 _atom_site_occupancy
  Er  Er0  1  0.499248  0.998494  0.750000  1
  Er  Er1  1  0.001487  0.500736  0.750000  1
  Er  Er2  1  0.499251  0.500736  0.750000  1
  Er  Er3  1  0.500757  0.001517  0.250000  1
  Er  Er4  1  0.000000  0.000001  0.750000  1
  Er  Er5  1  0.999986  0.999973  0.250000  1
  Tm  Tm6  1  0.998603  0.499307  0.250000  1
  Tm  Tm7  1  0.500703  0.499307  0.250000  1
  Be  Be8  1  0.333249  0.666500  0.005563  1
  Be  Be9  1  0.666731  0.333461  0.995221  1
  Be  Be10  1  0.666731  0.333461  0.504779  1
  Be  Be11  1  0.333249  0.666500  0.494437  1
  Si  Si12  1  0.172403  0.827362  0.499337  1
  Si  Si13  1  0.172583  0.345166  0.499236  1
  Si  Si14  1  0.654960  0.827362  0.499337  1
  Si  Si15  1  0.345040  0.172650  0.999995  1
  Si  Si16  1  0.827406  0.654814  0.499902  1
  Si  Si17  1  0.827609  0.172650  0.999995  1
  Si  Si18  1  0.827406  0.654814  0.000098  1
  Si  Si19  1  0.172583  0.345166  0.000764  1
  Si  Si20  1  0.654960  0.827362  0.000663  1
  Si  Si21  1  0.345040  0.172650  0.500005  1
  Si  Si22  1  0.827609  0.172650  0.500005  1
  Si  Si23  1  0.172403  0.827362  0.000663  1
