# generated using pymatgen
data_Sc(PaI4)3
_symmetry_space_group_name_H-M   'P 1'
_cell_length_a   7.22309200
_cell_length_b   8.25196762
_cell_length_c   14.35867000
_cell_angle_alpha   90.00000000
_cell_angle_beta   90.00000000
_cell_angle_gamma   89.94773691
_symmetry_Int_Tables_number   1
_chemical_formula_structural   Sc(PaI4)3
_chemical_formula_sum   'Sc1 Pa3 I12'
_cell_volume   855.84416696
_cell_formula_units_Z   1
loop_
 _symmetry_equiv_pos_site_id
 _symmetry_equiv_pos_as_xyz
  1  'x, y, z'
loop_
 _atom_site_type_symbol
 _atom_site_label
 _atom_site_symmetry_multiplicity
 _atom_site_fract_x
 _atom_site_fract_y
 _atom_site_fract_z
 _atom_site_occupancy
  Sc  Sc0  1  0.250089  0.752099  0.500000  1
  Pa  Pa1  1  0.749914  0.752087  0.500000  1
  Pa  Pa2  1  0.250617  0.247862  0.000000  1
  Pa  Pa3  1  0.749422  0.247844  0.000000  1
  I  I4  1  0.014337  0.606067  0.645791  1
  I  I5  1  0.014636  0.044169  0.500000  1
  I  I6  1  0.999941  0.094344  0.847050  1
  I  I7  1  0.999941  0.094344  0.152950  1
  I  I8  1  0.485662  0.898055  0.354095  1
  I  I9  1  0.500085  0.402140  0.153255  1
  I  I10  1  0.485298  0.459943  0.500000  1
  I  I11  1  0.485662  0.898055  0.645905  1
  I  I12  1  0.500085  0.402140  0.846745  1
  I  I13  1  0.499894  0.940251  0.000000  1
  I  I14  1  0.000080  0.554532  0.000000  1
  I  I15  1  0.014337  0.606067  0.354209  1
