# generated using pymatgen
data_Ac2Th(ZnIr)3
_symmetry_space_group_name_H-M   'P 1'
_cell_length_a   7.62539585
_cell_length_b   7.46436215
_cell_length_c   4.07778400
_cell_angle_alpha   90.00000000
_cell_angle_beta   90.00000000
_cell_angle_gamma   119.30385813
_symmetry_Int_Tables_number   1
_chemical_formula_structural   Ac2Th(ZnIr)3
_chemical_formula_sum   'Ac2 Th1 Zn3 Ir3'
_cell_volume   202.40157396
_cell_formula_units_Z   1
loop_
 _symmetry_equiv_pos_site_id
 _symmetry_equiv_pos_as_xyz
  1  'x, y, z'
loop_
 _atom_site_type_symbol
 _atom_site_label
 _atom_site_symmetry_multiplicity
 _atom_site_fract_x
 _atom_site_fract_y
 _atom_site_fract_z
 _atom_site_occupancy
  Ac  Ac0  1  0.412770  0.411781  0.500000  1
  Ac  Ac1  1  0.587230  0.999010  0.500000  1
  Th  Th2  1  0.000000  0.585545  0.500000  1
  Zn  Zn3  1  0.784034  0.766374  0.000000  1
  Zn  Zn4  1  0.215966  0.982340  0.000000  1
  Zn  Zn5  1  0.000000  0.230161  0.000000  1
  Ir  Ir6  1  0.702052  0.366154  0.000000  1
  Ir  Ir7  1  0.297948  0.664102  0.000000  1
  Ir  Ir8  1  0.000000  0.994534  0.500000  1
