# generated using pymatgen
data_Lu3Nb2B4Ru10W
_symmetry_space_group_name_H-M   'P 1'
_cell_length_a   9.52871221
_cell_length_b   9.53522366
_cell_length_c   3.10076800
_cell_angle_alpha   90.00000000
_cell_angle_beta   90.00000000
_cell_angle_gamma   89.86394924
_symmetry_Int_Tables_number   1
_chemical_formula_structural   Lu3Nb2B4Ru10W
_chemical_formula_sum   'Lu3 Nb2 B4 Ru10 W1'
_cell_volume   281.73003146
_cell_formula_units_Z   1
loop_
 _symmetry_equiv_pos_site_id
 _symmetry_equiv_pos_as_xyz
  1  'x, y, z'
loop_
 _atom_site_type_symbol
 _atom_site_label
 _atom_site_symmetry_multiplicity
 _atom_site_fract_x
 _atom_site_fract_y
 _atom_site_fract_z
 _atom_site_occupancy
  Lu  Lu0  1  0.174778  0.824950  0.000000  1
  Lu  Lu1  1  0.325377  0.324728  0.000000  1
  Lu  Lu2  1  0.675375  0.675164  0.000000  1
  Nb  Nb3  1  0.002218  0.503872  0.000000  1
  Nb  Nb4  1  0.824609  0.176241  0.000000  1
  B  B5  1  0.622888  0.378174  0.000000  1
  B  B6  1  0.380854  0.617314  0.000000  1
  B  B7  1  0.119122  0.124272  0.000000  1
  B  B8  1  0.877171  0.879284  0.000000  1
  Ru  Ru9  1  0.503867  0.496847  0.500000  1
  Ru  Ru10  1  0.991875  0.007761  0.500000  1
  Ru  Ru11  1  0.579596  0.211451  0.500000  1
  Ru  Ru12  1  0.432485  0.783696  0.500000  1
  Ru  Ru13  1  0.061838  0.280121  0.500000  1
  Ru  Ru14  1  0.927576  0.721831  0.500000  1
  Ru  Ru15  1  0.281837  0.069816  0.500000  1
  Ru  Ru16  1  0.716601  0.940622  0.500000  1
  Ru  Ru17  1  0.220316  0.570999  0.500000  1
  Ru  Ru18  1  0.785634  0.415621  0.500000  1
  W  W19  1  0.495983  0.997237  0.000000  1
