# generated using pymatgen
data_Mn21(MoC3)2
_symmetry_space_group_name_H-M   'P 1'
_cell_length_a   7.40326396
_cell_length_b   7.40302761
_cell_length_c   7.40394201
_cell_angle_alpha   59.99851148
_cell_angle_beta   60.00195575
_cell_angle_gamma   59.99800953
_symmetry_Int_Tables_number   1
_chemical_formula_structural   Mn21(MoC3)2
_chemical_formula_sum   'Mn21 Mo2 C6'
_cell_volume   286.92977172
_cell_formula_units_Z   1
loop_
 _symmetry_equiv_pos_site_id
 _symmetry_equiv_pos_as_xyz
  1  'x, y, z'
loop_
 _atom_site_type_symbol
 _atom_site_label
 _atom_site_symmetry_multiplicity
 _atom_site_fract_x
 _atom_site_fract_y
 _atom_site_fract_z
 _atom_site_occupancy
  Mn  Mn0  1  0.616064  0.616023  0.151853  1
  Mn  Mn1  1  0.383887  0.383986  0.383952  1
  Mn  Mn2  1  0.663363  0.999997  0.336634  1
  Mn  Mn3  1  0.999996  0.999978  0.336702  1
  Mn  Mn4  1  0.336662  0.000019  0.663314  1
  Mn  Mn5  1  0.336704  0.000009  0.000009  1
  Mn  Mn6  1  0.999997  0.336697  0.999978  1
  Mn  Mn7  1  0.663376  0.000008  0.999987  1
  Mn  Mn8  1  0.999992  0.336694  0.663318  1
  Mn  Mn9  1  0.336670  0.663265  0.000037  1
  Mn  Mn10  1  0.616051  0.151907  0.616022  1
  Mn  Mn11  1  0.000007  0.663337  0.000007  1
  Mn  Mn12  1  0.616090  0.615996  0.616036  1
  Mn  Mn13  1  0.151868  0.616019  0.616033  1
  Mn  Mn14  1  0.999984  0.999966  0.000061  1
  Mn  Mn15  1  0.999980  0.999997  0.663373  1
  Mn  Mn16  1  0.383914  0.848156  0.383956  1
  Mn  Mn17  1  0.848145  0.383971  0.383960  1
  Mn  Mn18  1  0.663351  0.336646  0.999988  1
  Mn  Mn19  1  0.000015  0.663278  0.336700  1
  Mn  Mn20  1  0.383927  0.383975  0.848144  1
  Mo  Mo21  1  0.249912  0.250078  0.250012  1
  Mo  Mo22  1  0.750089  0.749980  0.749936  1
  C  C23  1  0.274059  0.725908  0.274079  1
  C  C24  1  0.274071  0.274106  0.725912  1
  C  C25  1  0.274087  0.725884  0.725930  1
  C  C26  1  0.725906  0.274107  0.274086  1
  C  C27  1  0.725940  0.725892  0.274085  1
  C  C28  1  0.725896  0.274119  0.725894  1
