# generated using pymatgen
data_Lu3Th2(Cd2Rh)2
_symmetry_space_group_name_H-M   'P 1'
_cell_length_a   3.74360000
_cell_length_b   8.00550500
_cell_length_c   17.94615700
_cell_angle_alpha   90.00000000
_cell_angle_beta   90.00000000
_cell_angle_gamma   90.00000000
_symmetry_Int_Tables_number   1
_chemical_formula_structural   Lu3Th2(Cd2Rh)2
_chemical_formula_sum   'Lu6 Th4 Cd8 Rh4'
_cell_volume   537.83571046
_cell_formula_units_Z   2
loop_
 _symmetry_equiv_pos_site_id
 _symmetry_equiv_pos_as_xyz
  1  'x, y, z'
loop_
 _atom_site_type_symbol
 _atom_site_label
 _atom_site_symmetry_multiplicity
 _atom_site_fract_x
 _atom_site_fract_y
 _atom_site_fract_z
 _atom_site_occupancy
  Lu  Lu0  1  0.000000  0.000000  0.000000  1
  Lu  Lu1  1  0.000000  0.500000  0.500000  1
  Lu  Lu2  1  0.000000  0.894541  0.587760  1
  Lu  Lu3  1  0.000000  0.105459  0.412240  1
  Lu  Lu4  1  0.000000  0.394541  0.912240  1
  Lu  Lu5  1  0.000000  0.605459  0.087760  1
  Th  Th6  1  0.000000  0.764905  0.781430  1
  Th  Th7  1  0.000000  0.235095  0.218570  1
  Th  Th8  1  0.000000  0.264905  0.718570  1
  Th  Th9  1  0.000000  0.735095  0.281430  1
  Cd  Cd10  1  0.500000  0.791197  0.443216  1
  Cd  Cd11  1  0.500000  0.208803  0.556784  1
  Cd  Cd12  1  0.500000  0.291197  0.056784  1
  Cd  Cd13  1  0.500000  0.708803  0.943216  1
  Cd  Cd14  1  0.500000  0.915110  0.140079  1
  Cd  Cd15  1  0.500000  0.084890  0.859921  1
  Cd  Cd16  1  0.500000  0.415110  0.359921  1
  Cd  Cd17  1  0.500000  0.584890  0.640079  1
  Rh  Rh18  1  0.500000  0.984071  0.700067  1
  Rh  Rh19  1  0.500000  0.015929  0.299933  1
  Rh  Rh20  1  0.500000  0.484071  0.799933  1
  Rh  Rh21  1  0.500000  0.515929  0.200067  1
