# generated using pymatgen
data_U7PbCl16
_symmetry_space_group_name_H-M   'P 1'
_cell_length_a   13.31036940
_cell_length_b   9.05256554
_cell_length_c   4.84165913
_cell_angle_alpha   88.58621459
_cell_angle_beta   90.05037593
_cell_angle_gamma   90.64422706
_symmetry_Int_Tables_number   1
_chemical_formula_structural   U7PbCl16
_chemical_formula_sum   'U7 Pb1 Cl16'
_cell_volume   583.17142699
_cell_formula_units_Z   1
loop_
 _symmetry_equiv_pos_site_id
 _symmetry_equiv_pos_as_xyz
  1  'x, y, z'
loop_
 _atom_site_type_symbol
 _atom_site_label
 _atom_site_symmetry_multiplicity
 _atom_site_fract_x
 _atom_site_fract_y
 _atom_site_fract_z
 _atom_site_occupancy
  U  U0  1  0.682314  0.111236  0.249886  1
  U  U1  1  0.909834  0.400216  0.257434  1
  U  U2  1  0.360746  0.348486  0.250336  1
  U  U3  1  0.141094  0.109485  0.241994  1
  U  U4  1  0.837391  0.905535  0.757594  1
  U  U5  1  0.607885  0.630616  0.730845  1
  U  U6  1  0.075414  0.606332  0.748367  1
  Pb  Pb7  1  0.392074  0.833166  0.742624  1
  Cl  Cl8  1  0.729236  0.797108  0.264512  1
  Cl  Cl9  1  0.906262  0.070713  0.252364  1
  Cl  Cl10  1  0.687623  0.434817  0.242960  1
  Cl  Cl11  1  0.482438  0.628626  0.231121  1
  Cl  Cl12  1  0.978893  0.705403  0.244265  1
  Cl  Cl13  1  0.139050  0.436050  0.254682  1
  Cl  Cl14  1  0.464287  0.081835  0.256539  1
  Cl  Cl15  1  0.233259  0.833162  0.265291  1
  Cl  Cl16  1  0.777990  0.218442  0.742969  1
  Cl  Cl17  1  0.622156  0.954414  0.757938  1
  Cl  Cl18  1  0.846644  0.578813  0.751854  1
  Cl  Cl19  1  0.016243  0.299428  0.763752  1
  Cl  Cl20  1  0.497632  0.354093  0.747518  1
  Cl  Cl21  1  0.289183  0.544530  0.752292  1
  Cl  Cl22  1  0.061493  0.935661  0.749855  1
  Cl  Cl23  1  0.260860  0.181836  0.742996  1
