# generated using pymatgen
data_TbP6(Pd10Pb)2
_symmetry_space_group_name_H-M   'P 1'
_cell_length_a   8.71031693
_cell_length_b   8.71031673
_cell_length_c   8.71031700
_cell_angle_alpha   60.00000277
_cell_angle_beta   60.00000352
_cell_angle_gamma   60.00000160
_symmetry_Int_Tables_number   1
_chemical_formula_structural   TbP6(Pd10Pb)2
_chemical_formula_sum   'Tb1 P6 Pd20 Pb2'
_cell_volume   467.29043701
_cell_formula_units_Z   1
loop_
 _symmetry_equiv_pos_site_id
 _symmetry_equiv_pos_as_xyz
  1  'x, y, z'
loop_
 _atom_site_type_symbol
 _atom_site_label
 _atom_site_symmetry_multiplicity
 _atom_site_fract_x
 _atom_site_fract_y
 _atom_site_fract_z
 _atom_site_occupancy
  Tb  Tb0  1  0.000000  0.000000  0.000000  1
  P  P1  1  0.735408  0.264592  0.264592  1
  P  P2  1  0.264592  0.735408  0.735408  1
  P  P3  1  0.264592  0.735408  0.264592  1
  P  P4  1  0.735408  0.264592  0.735408  1
  P  P5  1  0.264592  0.264592  0.735408  1
  P  P6  1  0.735408  0.735408  0.264592  1
  Pd  Pd7  1  0.384511  0.384511  0.384511  1
  Pd  Pd8  1  0.615489  0.615489  0.615489  1
  Pd  Pd9  1  0.384511  0.384511  0.846467  1
  Pd  Pd10  1  0.384511  0.846467  0.384511  1
  Pd  Pd11  1  0.615489  0.615489  0.153533  1
  Pd  Pd12  1  0.615489  0.153533  0.615489  1
  Pd  Pd13  1  0.846467  0.384511  0.384511  1
  Pd  Pd14  1  0.153533  0.615489  0.615489  1
  Pd  Pd15  1  0.343705  0.000000  0.000000  1
  Pd  Pd16  1  0.656295  0.000000  0.000000  1
  Pd  Pd17  1  0.000000  0.343705  0.656295  1
  Pd  Pd18  1  0.000000  0.656295  0.343705  1
  Pd  Pd19  1  0.000000  0.343705  0.000000  1
  Pd  Pd20  1  0.656295  0.000000  0.343705  1
  Pd  Pd21  1  0.000000  0.656295  0.000000  1
  Pd  Pd22  1  0.343705  0.000000  0.656295  1
  Pd  Pd23  1  0.000000  0.000000  0.343705  1
  Pd  Pd24  1  0.000000  0.000000  0.656295  1
  Pd  Pd25  1  0.656295  0.343705  0.000000  1
  Pd  Pd26  1  0.343705  0.656295  0.000000  1
  Pb  Pb27  1  0.250000  0.250000  0.250000  1
  Pb  Pb28  1  0.750000  0.750000  0.750000  1
