# generated using pymatgen
data_LiDy2Er4Co6Sn23
_symmetry_space_group_name_H-M   'P 1'
_cell_length_a   9.66609050
_cell_length_b   9.67265281
_cell_length_c   9.93293726
_cell_angle_alpha   90.00000085
_cell_angle_beta   89.97263939
_cell_angle_gamma   120.02245762
_symmetry_Int_Tables_number   1
_chemical_formula_structural   LiDy2Er4Co6Sn23
_chemical_formula_sum   'Li1 Dy2 Er4 Co6 Sn23'
_cell_volume   804.09320045
_cell_formula_units_Z   1
loop_
 _symmetry_equiv_pos_site_id
 _symmetry_equiv_pos_as_xyz
  1  'x, y, z'
loop_
 _atom_site_type_symbol
 _atom_site_label
 _atom_site_symmetry_multiplicity
 _atom_site_fract_x
 _atom_site_fract_y
 _atom_site_fract_z
 _atom_site_occupancy
  Li  Li0  1  0.000000  0.000000  0.000000  1
  Dy  Dy1  1  0.039761  0.519880  0.305476  1
  Dy  Dy2  1  0.960239  0.480120  0.694524  1
  Er  Er3  1  0.480478  0.519007  0.305193  1
  Er  Er4  1  0.519522  0.480993  0.694807  1
  Er  Er5  1  0.480478  0.961470  0.305193  1
  Er  Er6  1  0.519522  0.038530  0.694807  1
  Co  Co7  1  0.828801  0.169990  0.200930  1
  Co  Co8  1  0.171199  0.830010  0.799070  1
  Co  Co9  1  0.828801  0.658809  0.200930  1
  Co  Co10  1  0.171199  0.341191  0.799070  1
  Co  Co11  1  0.341600  0.170800  0.201241  1
  Co  Co12  1  0.658400  0.829200  0.798759  1
  Sn  Sn13  1  0.342948  0.999941  0.999926  1
  Sn  Sn14  1  0.657052  0.000059  0.000074  1
  Sn  Sn15  1  0.000000  0.343002  0.000000  1
  Sn  Sn16  1  0.000000  0.656998  0.000000  1
  Sn  Sn17  1  0.657052  0.656993  0.000074  1
  Sn  Sn18  1  0.342948  0.343007  0.999926  1
  Sn  Sn19  1  0.333020  0.666511  0.813566  1
  Sn  Sn20  1  0.666980  0.333489  0.186434  1
  Sn  Sn21  1  0.000000  0.000000  0.500000  1
  Sn  Sn22  1  0.781458  0.216704  0.455595  1
  Sn  Sn23  1  0.218542  0.783296  0.544405  1
  Sn  Sn24  1  0.781458  0.564753  0.455595  1
  Sn  Sn25  1  0.218542  0.435247  0.544405  1
  Sn  Sn26  1  0.435241  0.217620  0.456045  1
  Sn  Sn27  1  0.564759  0.782380  0.543955  1
  Sn  Sn28  1  0.335372  0.667686  0.117717  1
  Sn  Sn29  1  0.664628  0.332314  0.882283  1
  Sn  Sn30  1  0.115454  0.884294  0.268214  1
  Sn  Sn31  1  0.884546  0.115706  0.731786  1
  Sn  Sn32  1  0.115454  0.231160  0.268214  1
  Sn  Sn33  1  0.884546  0.768840  0.731786  1
  Sn  Sn34  1  0.767670  0.883835  0.268119  1
  Sn  Sn35  1  0.232330  0.116165  0.731881  1
