# generated using pymatgen
data_Dy16Mg2Cd2RuPt3
_symmetry_space_group_name_H-M   'P 1'
_cell_length_a   9.72942112
_cell_length_b   9.72942039
_cell_length_c   9.74817319
_cell_angle_alpha   59.47823165
_cell_angle_beta   59.47824247
_cell_angle_gamma   59.41796346
_symmetry_Int_Tables_number   1
_chemical_formula_structural   Dy16Mg2Cd2RuPt3
_chemical_formula_sum   'Dy16 Mg2 Cd2 Ru1 Pt3'
_cell_volume   644.45909137
_cell_formula_units_Z   1
loop_
 _symmetry_equiv_pos_site_id
 _symmetry_equiv_pos_as_xyz
  1  'x, y, z'
loop_
 _atom_site_type_symbol
 _atom_site_label
 _atom_site_symmetry_multiplicity
 _atom_site_fract_x
 _atom_site_fract_y
 _atom_site_fract_z
 _atom_site_occupancy
  Dy  Dy0  1  0.350853  0.350853  0.351549  1
  Dy  Dy1  1  0.348630  0.348630  0.949956  1
  Dy  Dy2  1  0.347214  0.953477  0.348058  1
  Dy  Dy3  1  0.953477  0.347214  0.348058  1
  Dy  Dy4  1  0.814826  0.188734  0.188254  1
  Dy  Dy5  1  0.188159  0.810356  0.810551  1
  Dy  Dy6  1  0.188734  0.814826  0.188254  1
  Dy  Dy7  1  0.810356  0.188159  0.810551  1
  Dy  Dy8  1  0.189698  0.189698  0.813787  1
  Dy  Dy9  1  0.811749  0.811749  0.187050  1
  Dy  Dy10  1  0.936637  0.565973  0.566104  1
  Dy  Dy11  1  0.561232  0.937894  0.934468  1
  Dy  Dy12  1  0.565973  0.936637  0.566104  1
  Dy  Dy13  1  0.937894  0.561231  0.934468  1
  Dy  Dy14  1  0.566866  0.566866  0.933746  1
  Dy  Dy15  1  0.936610  0.936610  0.560638  1
  Mg  Mg16  1  0.576112  0.576112  0.579507  1
  Mg  Mg17  1  0.576291  0.576291  0.265109  1
  Cd  Cd18  1  0.581500  0.253744  0.581176  1
  Cd  Cd19  1  0.253744  0.581500  0.581176  1
  Ru  Ru20  1  0.143397  0.143397  0.141814  1
  Pt  Pt21  1  0.143700  0.143700  0.573103  1
  Pt  Pt22  1  0.144273  0.572075  0.143260  1
  Pt  Pt23  1  0.572075  0.144273  0.143260  1
