# generated using pymatgen
data_PrSm3Tc4F28
_symmetry_space_group_name_H-M   'P 1'
_cell_length_a   5.70294142
_cell_length_b   9.12786155
_cell_length_c   12.27476121
_cell_angle_alpha   62.31597373
_cell_angle_beta   89.96336031
_cell_angle_gamma   90.00505106
_symmetry_Int_Tables_number   1
_chemical_formula_structural   PrSm3Tc4F28
_chemical_formula_sum   'Pr1 Sm3 Tc4 F28'
_cell_volume   565.82328363
_cell_formula_units_Z   1
loop_
 _symmetry_equiv_pos_site_id
 _symmetry_equiv_pos_as_xyz
  1  'x, y, z'
loop_
 _atom_site_type_symbol
 _atom_site_label
 _atom_site_symmetry_multiplicity
 _atom_site_fract_x
 _atom_site_fract_y
 _atom_site_fract_z
 _atom_site_occupancy
  Pr  Pr0  1  0.758570  0.812887  0.764810  1
  Sm  Sm1  1  0.259211  0.190979  0.735051  1
  Sm  Sm2  1  0.241077  0.187987  0.235440  1
  Sm  Sm3  1  0.740972  0.813021  0.264576  1
  Tc  Tc4  1  0.756653  0.270927  0.958521  1
  Tc  Tc5  1  0.256139  0.726432  0.540382  1
  Tc  Tc6  1  0.243466  0.725969  0.045085  1
  Tc  Tc7  1  0.742686  0.275052  0.456088  1
  F  F8  1  0.439654  0.706988  0.921081  1
  F  F9  1  0.942463  0.291715  0.579996  1
  F  F10  1  0.556356  0.289774  0.081373  1
  F  F11  1  0.056564  0.708679  0.417011  1
  F  F12  1  0.455929  0.281063  0.544186  1
  F  F13  1  0.956044  0.717545  0.959265  1
  F  F14  1  0.545406  0.720077  0.454176  1
  F  F15  1  0.043853  0.278519  0.045762  1
  F  F16  1  0.769478  0.512569  0.861973  1
  F  F17  1  0.269081  0.484016  0.637651  1
  F  F18  1  0.231982  0.483183  0.140487  1
  F  F19  1  0.730832  0.517632  0.360279  1
  F  F20  1  0.757820  0.029276  0.053134  1
  F  F21  1  0.257575  0.968450  0.446582  1
  F  F22  1  0.241665  0.967647  0.948775  1
  F  F23  1  0.742061  0.033438  0.549474  1
  F  F24  1  0.976816  0.728482  0.633050  1
  F  F25  1  0.478118  0.269122  0.864793  1
  F  F26  1  0.021030  0.270130  0.363083  1
  F  F27  1  0.523271  0.730460  0.137227  1
  F  F28  1  0.048426  0.744874  0.170764  1
  F  F29  1  0.546819  0.256102  0.330425  1
  F  F30  1  0.952004  0.253912  0.832062  1
  F  F31  1  0.447018  0.742843  0.667972  1
  F  F32  1  0.415385  0.970271  0.231514  1
  F  F33  1  0.915736  0.030196  0.268500  1
  F  F34  1  0.585390  0.037192  0.769353  1
  F  F35  1  0.094452  0.972589  0.730100  1
