# generated using pymatgen
data_CaHf(Si7Ir3)2
_symmetry_space_group_name_H-M   'P 1'
_cell_length_a   8.01867891
_cell_length_b   8.01867928
_cell_length_c   8.01867920
_cell_angle_alpha   56.48032746
_cell_angle_beta   56.48033563
_cell_angle_gamma   56.48033201
_symmetry_Int_Tables_number   1
_chemical_formula_structural   CaHf(Si7Ir3)2
_chemical_formula_sum   'Ca1 Hf1 Si14 Ir6'
_cell_volume   334.91841255
_cell_formula_units_Z   1
loop_
 _symmetry_equiv_pos_site_id
 _symmetry_equiv_pos_as_xyz
  1  'x, y, z'
loop_
 _atom_site_type_symbol
 _atom_site_label
 _atom_site_symmetry_multiplicity
 _atom_site_fract_x
 _atom_site_fract_y
 _atom_site_fract_z
 _atom_site_occupancy
  Ca  Ca0  1  0.500000  0.500000  0.500000  1
  Hf  Hf1  1  0.000000  0.000000  0.000000  1
  Si  Si2  1  0.749845  0.749845  0.749845  1
  Si  Si3  1  0.250155  0.250155  0.250155  1
  Si  Si4  1  0.849328  0.063413  0.672820  1
  Si  Si5  1  0.672820  0.849328  0.063413  1
  Si  Si6  1  0.063413  0.672820  0.849328  1
  Si  Si7  1  0.648566  0.827573  0.434611  1
  Si  Si8  1  0.434611  0.648566  0.827573  1
  Si  Si9  1  0.827573  0.434611  0.648566  1
  Si  Si10  1  0.172427  0.565389  0.351434  1
  Si  Si11  1  0.565389  0.351434  0.172427  1
  Si  Si12  1  0.351434  0.172427  0.565389  1
  Si  Si13  1  0.936587  0.327180  0.150672  1
  Si  Si14  1  0.327180  0.150672  0.936587  1
  Si  Si15  1  0.150672  0.936587  0.327180  1
  Ir  Ir16  1  0.066972  0.422537  0.755822  1
  Ir  Ir17  1  0.244178  0.933028  0.577463  1
  Ir  Ir18  1  0.577463  0.244178  0.933028  1
  Ir  Ir19  1  0.933028  0.577463  0.244178  1
  Ir  Ir20  1  0.422537  0.755822  0.066972  1
  Ir  Ir21  1  0.755822  0.066972  0.422537  1
