# generated using pymatgen
data_Tm6Sc4(AlTe)3
_symmetry_space_group_name_H-M   'P 1'
_cell_length_a   8.57094100
_cell_length_b   8.59584351
_cell_length_c   6.14105800
_cell_angle_alpha   90.00000000
_cell_angle_beta   90.00000000
_cell_angle_gamma   119.63608260
_symmetry_Int_Tables_number   1
_chemical_formula_structural   Tm6Sc4(AlTe)3
_chemical_formula_sum   'Tm6 Sc4 Al3 Te3'
_cell_volume   393.25275565
_cell_formula_units_Z   1
loop_
 _symmetry_equiv_pos_site_id
 _symmetry_equiv_pos_as_xyz
  1  'x, y, z'
loop_
 _atom_site_type_symbol
 _atom_site_label
 _atom_site_symmetry_multiplicity
 _atom_site_fract_x
 _atom_site_fract_y
 _atom_site_fract_z
 _atom_site_occupancy
  Tm  Tm0  1  0.235878  0.987879  0.250000  1
  Tm  Tm1  1  0.758161  0.003711  0.750000  1
  Tm  Tm2  1  0.985258  0.235405  0.250000  1
  Tm  Tm3  1  0.761821  0.763459  0.250000  1
  Tm  Tm4  1  0.246621  0.235069  0.750000  1
  Tm  Tm5  1  0.014936  0.769860  0.750000  1
  Sc  Sc6  1  0.331900  0.679589  0.003544  1
  Sc  Sc7  1  0.667126  0.323572  0.496286  1
  Sc  Sc8  1  0.667126  0.323572  0.003714  1
  Sc  Sc9  1  0.331900  0.679589  0.496456  1
  Al  Al10  1  0.594147  0.998553  0.250000  1
  Al  Al11  1  0.408944  0.003896  0.750000  1
  Al  Al12  1  0.994122  0.596212  0.250000  1
  Te  Te13  1  0.390183  0.392779  0.250000  1
  Te  Te14  1  0.607921  0.605685  0.750000  1
  Te  Te15  1  0.003956  0.401165  0.750000  1
