# generated using pymatgen
data_CaPr4Si2Sn
_symmetry_space_group_name_H-M   'P 1'
_cell_length_a   7.92877600
_cell_length_b   9.23723557
_cell_length_c   7.92877600
_cell_angle_alpha   115.41520414
_cell_angle_beta   90.00000000
_cell_angle_gamma   115.41520414
_symmetry_Int_Tables_number   1
_chemical_formula_structural   CaPr4Si2Sn
_chemical_formula_sum   'Ca2 Pr8 Si4 Sn2'
_cell_volume   461.51045283
_cell_formula_units_Z   2
loop_
 _symmetry_equiv_pos_site_id
 _symmetry_equiv_pos_as_xyz
  1  'x, y, z'
loop_
 _atom_site_type_symbol
 _atom_site_label
 _atom_site_symmetry_multiplicity
 _atom_site_fract_x
 _atom_site_fract_y
 _atom_site_fract_z
 _atom_site_occupancy
  Ca  Ca0  1  0.000000  0.000000  0.000000  1
  Ca  Ca1  1  0.500000  0.000000  0.500000  1
  Pr  Pr2  1  0.535462  0.720843  0.685382  1
  Pr  Pr3  1  0.185382  0.720843  0.035462  1
  Pr  Pr4  1  0.685382  0.720843  0.185382  1
  Pr  Pr5  1  0.035462  0.720843  0.535462  1
  Pr  Pr6  1  0.464538  0.279157  0.314618  1
  Pr  Pr7  1  0.814618  0.279157  0.964538  1
  Pr  Pr8  1  0.314618  0.279157  0.814618  1
  Pr  Pr9  1  0.964538  0.279157  0.464538  1
  Si  Si10  1  0.885289  0.000000  0.614711  1
  Si  Si11  1  0.114711  0.000000  0.385289  1
  Si  Si12  1  0.614711  0.000000  0.114711  1
  Si  Si13  1  0.385289  0.000000  0.885289  1
  Sn  Sn14  1  0.750000  0.500000  0.750000  1
  Sn  Sn15  1  0.250000  0.500000  0.250000  1
