# generated using pymatgen
data_Nd2Sm6Sc12Ga11Si5
_symmetry_space_group_name_H-M   'P 1'
_cell_length_a   7.32930750
_cell_length_b   7.58257061
_cell_length_c   14.47823763
_cell_angle_alpha   90.05328015
_cell_angle_beta   89.91017744
_cell_angle_gamma   90.09290348
_symmetry_Int_Tables_number   1
_chemical_formula_structural   Nd2Sm6Sc12Ga11Si5
_chemical_formula_sum   'Nd2 Sm6 Sc12 Ga11 Si5'
_cell_volume   804.62554282
_cell_formula_units_Z   1
loop_
 _symmetry_equiv_pos_site_id
 _symmetry_equiv_pos_as_xyz
  1  'x, y, z'
loop_
 _atom_site_type_symbol
 _atom_site_label
 _atom_site_symmetry_multiplicity
 _atom_site_fract_x
 _atom_site_fract_y
 _atom_site_fract_z
 _atom_site_occupancy
  Nd  Nd0  1  0.013289  0.175314  0.096303  1
  Nd  Nd1  1  0.989517  0.821428  0.904293  1
  Sm  Sm2  1  0.487911  0.679072  0.903690  1
  Sm  Sm3  1  0.988634  0.822539  0.597404  1
  Sm  Sm4  1  0.511309  0.321496  0.097002  1
  Sm  Sm5  1  0.011085  0.177398  0.402352  1
  Sm  Sm6  1  0.511031  0.322461  0.402243  1
  Sm  Sm7  1  0.488757  0.677612  0.597342  1
  Sc  Sc8  1  0.163200  0.506293  0.749561  1
  Sc  Sc9  1  0.837937  0.494375  0.250029  1
  Sc  Sc10  1  0.337051  0.006355  0.248686  1
  Sc  Sc11  1  0.661813  0.993808  0.749602  1
  Sc  Sc12  1  0.329121  0.170855  0.623784  1
  Sc  Sc13  1  0.670197  0.829025  0.375833  1
  Sc  Sc14  1  0.170351  0.671089  0.375892  1
  Sc  Sc15  1  0.667226  0.827960  0.124095  1
  Sc  Sc16  1  0.829206  0.328756  0.624046  1
  Sc  Sc17  1  0.328398  0.171113  0.877499  1
  Sc  Sc18  1  0.828754  0.330394  0.876386  1
  Sc  Sc19  1  0.175031  0.673058  0.122645  1
  Ga  Ga20  1  0.031952  0.118598  0.751021  1
  Ga  Ga21  1  0.967186  0.879855  0.249520  1
  Ga  Ga22  1  0.467274  0.617780  0.249378  1
  Ga  Ga23  1  0.531917  0.381301  0.750581  1
  Ga  Ga24  1  0.158350  0.462881  0.541429  1
  Ga  Ga25  1  0.841262  0.537055  0.458431  1
  Ga  Ga26  1  0.341080  0.963125  0.458215  1
  Ga  Ga27  1  0.841048  0.537087  0.042499  1
  Ga  Ga28  1  0.658555  0.036905  0.541256  1
  Ga  Ga29  1  0.158491  0.463438  0.958680  1
  Ga  Ga30  1  0.656550  0.037148  0.959255  1
  Si  Si31  1  0.285921  0.879560  0.750392  1
  Si  Si32  1  0.714410  0.120590  0.249437  1
  Si  Si33  1  0.214690  0.379701  0.249594  1
  Si  Si34  1  0.784539  0.620239  0.750271  1
  Si  Si35  1  0.346957  0.964340  0.041353  1
