# generated using pymatgen
data_Ce2PaNi3Sb4
_symmetry_space_group_name_H-M   'P 1'
_cell_length_a   8.22398199
_cell_length_b   8.22398296
_cell_length_c   8.22398163
_cell_angle_alpha   109.56115606
_cell_angle_beta   109.29150651
_cell_angle_gamma   109.56115142
_symmetry_Int_Tables_number   1
_chemical_formula_structural   Ce2PaNi3Sb4
_chemical_formula_sum   'Ce4 Pa2 Ni6 Sb8'
_cell_volume   428.17506747
_cell_formula_units_Z   2
loop_
 _symmetry_equiv_pos_site_id
 _symmetry_equiv_pos_as_xyz
  1  'x, y, z'
loop_
 _atom_site_type_symbol
 _atom_site_label
 _atom_site_symmetry_multiplicity
 _atom_site_fract_x
 _atom_site_fract_y
 _atom_site_fract_z
 _atom_site_occupancy
  Ce  Ce0  1  0.250000  0.123567  0.873567  1
  Ce  Ce1  1  0.750000  0.376433  0.626433  1
  Ce  Ce2  1  0.126433  0.876433  0.250000  1
  Ce  Ce3  1  0.373567  0.623567  0.750000  1
  Pa  Pa4  1  0.875000  0.250000  0.125000  1
  Pa  Pa5  1  0.625000  0.750000  0.375000  1
  Ni  Ni6  1  0.375000  0.250000  0.625000  1
  Ni  Ni7  1  0.125000  0.750000  0.875000  1
  Ni  Ni8  1  0.250000  0.621677  0.371677  1
  Ni  Ni9  1  0.750000  0.878323  0.128323  1
  Ni  Ni10  1  0.628323  0.378323  0.250000  1
  Ni  Ni11  1  0.871677  0.121677  0.750000  1
  Sb  Sb12  1  0.663604  0.500230  0.000907  1
  Sb  Sb13  1  0.500677  0.999770  0.663374  1
  Sb  Sb14  1  0.999323  0.662697  0.499093  1
  Sb  Sb15  1  0.836396  0.837303  0.836626  1
  Sb  Sb16  1  0.500907  0.000230  0.163604  1
  Sb  Sb17  1  0.163374  0.499770  0.000677  1
  Sb  Sb18  1  0.999093  0.162697  0.499323  1
  Sb  Sb19  1  0.336626  0.337303  0.336396  1
