# generated using pymatgen
data_CaEu3(Mo2O7)2
_symmetry_space_group_name_H-M   'P 1'
_cell_length_a   7.43143792
_cell_length_b   7.43143841
_cell_length_c   7.48446560
_cell_angle_alpha   60.23409684
_cell_angle_beta   60.23409892
_cell_angle_gamma   59.99999682
_symmetry_Int_Tables_number   1
_chemical_formula_structural   CaEu3(Mo2O7)2
_chemical_formula_sum   'Ca1 Eu3 Mo4 O14'
_cell_volume   293.30481948
_cell_formula_units_Z   1
loop_
 _symmetry_equiv_pos_site_id
 _symmetry_equiv_pos_as_xyz
  1  'x, y, z'
loop_
 _atom_site_type_symbol
 _atom_site_label
 _atom_site_symmetry_multiplicity
 _atom_site_fract_x
 _atom_site_fract_y
 _atom_site_fract_z
 _atom_site_occupancy
  Ca  Ca0  1  0.125000  0.125000  0.625000  1
  Eu  Eu1  1  0.625000  0.125000  0.125000  1
  Eu  Eu2  1  0.125000  0.625000  0.125000  1
  Eu  Eu3  1  0.125000  0.125000  0.125000  1
  Mo  Mo4  1  0.125000  0.625000  0.625000  1
  Mo  Mo5  1  0.625000  0.125000  0.625000  1
  Mo  Mo6  1  0.625000  0.625000  0.125000  1
  Mo  Mo7  1  0.625000  0.625000  0.625000  1
  O  O8  1  0.249503  0.249503  0.251492  1
  O  O9  1  0.000497  0.000497  0.998508  1
  O  O10  1  0.702805  0.702805  0.292981  1
  O  O11  1  0.297917  0.297917  0.707319  1
  O  O12  1  0.696846  0.297917  0.707319  1
  O  O13  1  0.301410  0.702805  0.292981  1
  O  O14  1  0.297917  0.696846  0.707319  1
  O  O15  1  0.702805  0.301410  0.292981  1
  O  O16  1  0.547195  0.547195  0.957019  1
  O  O17  1  0.952083  0.952083  0.542681  1
  O  O18  1  0.553154  0.952083  0.542681  1
  O  O19  1  0.948590  0.547195  0.957019  1
  O  O20  1  0.952083  0.553154  0.542681  1
  O  O21  1  0.547195  0.948590  0.957019  1
