# generated using pymatgen
data_Lu12FeCo3SnRh
_symmetry_space_group_name_H-M   'P 1'
_cell_length_a   8.10602296
_cell_length_b   8.10602339
_cell_length_c   8.10602228
_cell_angle_alpha   111.51484701
_cell_angle_beta   110.97412267
_cell_angle_gamma   105.98057247
_symmetry_Int_Tables_number   1
_chemical_formula_structural   Lu12FeCo3SnRh
_chemical_formula_sum   'Lu12 Fe1 Co3 Sn1 Rh1'
_cell_volume   408.87457952
_cell_formula_units_Z   1
loop_
 _symmetry_equiv_pos_site_id
 _symmetry_equiv_pos_as_xyz
  1  'x, y, z'
loop_
 _atom_site_type_symbol
 _atom_site_label
 _atom_site_symmetry_multiplicity
 _atom_site_fract_x
 _atom_site_fract_y
 _atom_site_fract_z
 _atom_site_occupancy
  Lu  Lu0  1  0.414308  0.216287  0.198020  1
  Lu  Lu1  1  0.586400  0.783578  0.802823  1
  Lu  Lu2  1  0.019245  0.216422  0.802823  1
  Lu  Lu3  1  0.981734  0.783713  0.198020  1
  Lu  Lu4  1  0.186410  0.285095  0.471506  1
  Lu  Lu5  1  0.812567  0.713092  0.525657  1
  Lu  Lu6  1  0.186410  0.714905  0.901315  1
  Lu  Lu7  1  0.812567  0.286908  0.099476  1
  Lu  Lu8  1  0.311204  0.617798  0.303109  1
  Lu  Lu9  1  0.685311  0.382202  0.693406  1
  Lu  Lu10  1  0.311204  0.008095  0.693406  1
  Lu  Lu11  1  0.685311  0.991905  0.303109  1
  Fe  Fe12  1  0.384470  0.000000  0.384470  1
  Co  Co13  1  0.627422  0.000000  0.627422  1
  Co  Co14  1  0.110711  0.612503  0.498208  1
  Co  Co15  1  0.885704  0.387497  0.498208  1
  Sn  Sn16  1  0.499545  0.500000  0.999545  1
  Rh  Rh17  1  0.999477  0.000000  0.999477  1
