# generated using pymatgen
data_Y4BeFeOs6
_symmetry_space_group_name_H-M   'P 1'
_cell_length_a   5.22153900
_cell_length_b   5.26577672
_cell_length_c   8.78351500
_cell_angle_alpha   90.00000000
_cell_angle_beta   90.00000000
_cell_angle_gamma   121.26084248
_symmetry_Int_Tables_number   1
_chemical_formula_structural   Y4BeFeOs6
_chemical_formula_sum   'Y4 Be1 Fe1 Os6'
_cell_volume   206.44329382
_cell_formula_units_Z   1
loop_
 _symmetry_equiv_pos_site_id
 _symmetry_equiv_pos_as_xyz
  1  'x, y, z'
loop_
 _atom_site_type_symbol
 _atom_site_label
 _atom_site_symmetry_multiplicity
 _atom_site_fract_x
 _atom_site_fract_y
 _atom_site_fract_z
 _atom_site_occupancy
  Y  Y0  1  0.331502  0.663266  0.436249  1
  Y  Y1  1  0.661064  0.331215  0.563821  1
  Y  Y2  1  0.661064  0.331215  0.936179  1
  Y  Y3  1  0.331502  0.663266  0.063751  1
  Be  Be4  1  0.341274  0.171076  0.250000  1
  Fe  Fe5  1  0.171860  0.340246  0.750000  1
  Os  Os6  1  0.178032  0.830986  0.750000  1
  Os  Os7  1  0.836311  0.661687  0.250000  1
  Os  Os8  1  0.669370  0.838031  0.750000  1
  Os  Os9  1  0.991595  0.994437  0.002284  1
  Os  Os10  1  0.834828  0.180140  0.250000  1
  Os  Os11  1  0.991595  0.994437  0.497716  1
