# generated using pymatgen
data_DyHo(B2Ir3)3
_symmetry_space_group_name_H-M   'P 1'
_cell_length_a   5.64515700
_cell_length_b   5.64515743
_cell_length_c   8.64307300
_cell_angle_alpha   90.00000000
_cell_angle_beta   90.00000000
_cell_angle_gamma   120.00001506
_symmetry_Int_Tables_number   1
_chemical_formula_structural   DyHo(B2Ir3)3
_chemical_formula_sum   'Dy1 Ho1 B6 Ir9'
_cell_volume   238.53429577
_cell_formula_units_Z   1
loop_
 _symmetry_equiv_pos_site_id
 _symmetry_equiv_pos_as_xyz
  1  'x, y, z'
loop_
 _atom_site_type_symbol
 _atom_site_label
 _atom_site_symmetry_multiplicity
 _atom_site_fract_x
 _atom_site_fract_y
 _atom_site_fract_z
 _atom_site_occupancy
  Dy  Dy0  1  0.000000  0.000000  0.701571  1
  Ho  Ho1  1  0.000000  0.000000  0.297884  1
  B  B2  1  0.666667  0.333333  0.000086  1
  B  B3  1  0.333333  0.666667  0.000086  1
  B  B4  1  0.666667  0.333333  0.667714  1
  B  B5  1  0.333333  0.666667  0.667714  1
  B  B6  1  0.333333  0.666667  0.332318  1
  B  B7  1  0.666667  0.333333  0.332318  1
  Ir  Ir8  1  0.500000  0.500000  0.836016  1
  Ir  Ir9  1  0.500000  0.000000  0.836016  1
  Ir  Ir10  1  0.000000  0.500000  0.836016  1
  Ir  Ir11  1  0.500000  0.500000  0.164171  1
  Ir  Ir12  1  0.500000  0.000000  0.164171  1
  Ir  Ir13  1  0.000000  0.500000  0.164171  1
  Ir  Ir14  1  0.500000  0.500000  0.499914  1
  Ir  Ir15  1  0.500000  0.000000  0.499914  1
  Ir  Ir16  1  0.000000  0.500000  0.499914  1
