# generated using pymatgen
data_Ba6Rh
_symmetry_space_group_name_H-M   'P 1'
_cell_length_a   7.82551608
_cell_length_b   7.82558834
_cell_length_c   14.89467303
_cell_angle_alpha   89.99984954
_cell_angle_beta   90.00972399
_cell_angle_gamma   120.00333443
_symmetry_Int_Tables_number   1
_chemical_formula_structural   Ba6Rh
_chemical_formula_sum   'Ba12 Rh2'
_cell_volume   789.90887063
_cell_formula_units_Z   2
loop_
 _symmetry_equiv_pos_site_id
 _symmetry_equiv_pos_as_xyz
  1  'x, y, z'
loop_
 _atom_site_type_symbol
 _atom_site_label
 _atom_site_symmetry_multiplicity
 _atom_site_fract_x
 _atom_site_fract_y
 _atom_site_fract_z
 _atom_site_occupancy
  Ba  Ba0  1  0.666884  0.012785  0.118778  1
  Ba  Ba1  1  0.987179  0.654110  0.118785  1
  Ba  Ba2  1  0.345981  0.332978  0.118808  1
  Ba  Ba3  1  0.012798  0.345952  0.381158  1
  Ba  Ba4  1  0.653998  0.666999  0.381197  1
  Ba  Ba5  1  0.332995  0.987225  0.381271  1
  Ba  Ba6  1  0.012775  0.666893  0.618785  1
  Ba  Ba7  1  0.654114  0.987185  0.618788  1
  Ba  Ba8  1  0.333006  0.345983  0.618808  1
  Ba  Ba9  1  0.345968  0.012819  0.881162  1
  Ba  Ba10  1  0.667004  0.654025  0.881210  1
  Ba  Ba11  1  0.987210  0.333000  0.881291  1
  Rh  Rh12  1  0.666745  0.333309  0.999991  1
  Rh  Rh13  1  0.333323  0.666717  0.500023  1
