# generated using pymatgen
data_Zr10Al3Cu2Te3
_symmetry_space_group_name_H-M   'P 1'
_cell_length_a   8.53658200
_cell_length_b   8.53658434
_cell_length_c   5.80029100
_cell_angle_alpha   90.00000000
_cell_angle_beta   90.00000000
_cell_angle_gamma   119.99999868
_symmetry_Int_Tables_number   1
_chemical_formula_structural   Zr10Al3Cu2Te3
_chemical_formula_sum   'Zr10 Al3 Cu2 Te3'
_cell_volume   366.05687852
_cell_formula_units_Z   1
loop_
 _symmetry_equiv_pos_site_id
 _symmetry_equiv_pos_as_xyz
  1  'x, y, z'
loop_
 _atom_site_type_symbol
 _atom_site_label
 _atom_site_symmetry_multiplicity
 _atom_site_fract_x
 _atom_site_fract_y
 _atom_site_fract_z
 _atom_site_occupancy
  Zr  Zr0  1  0.741296  0.741296  0.250000  1
  Zr  Zr1  1  0.258704  0.000000  0.250000  1
  Zr  Zr2  1  0.000000  0.258704  0.250000  1
  Zr  Zr3  1  0.278750  0.278750  0.750000  1
  Zr  Zr4  1  0.721250  0.000000  0.750000  1
  Zr  Zr5  1  0.000000  0.721250  0.750000  1
  Zr  Zr6  1  0.666667  0.333333  0.509072  1
  Zr  Zr7  1  0.333333  0.666667  0.509072  1
  Zr  Zr8  1  0.333333  0.666667  0.990928  1
  Zr  Zr9  1  0.666667  0.333333  0.990928  1
  Al  Al10  1  0.625341  0.625341  0.750000  1
  Al  Al11  1  0.374659  0.000000  0.750000  1
  Al  Al12  1  0.000000  0.374659  0.750000  1
  Cu  Cu13  1  0.000000  0.000000  0.529212  1
  Cu  Cu14  1  0.000000  0.000000  0.970788  1
  Te  Te15  1  0.391304  0.391304  0.250000  1
  Te  Te16  1  0.608696  0.000000  0.250000  1
  Te  Te17  1  0.000000  0.608696  0.250000  1
