# generated using pymatgen
data_LiHo3(P3Rh4)2
_symmetry_space_group_name_H-M   'P 1'
_cell_length_a   3.91555400
_cell_length_b   11.24109300
_cell_length_c   12.76995500
_cell_angle_alpha   90.00000000
_cell_angle_beta   90.00000000
_cell_angle_gamma   90.00000000
_symmetry_Int_Tables_number   1
_chemical_formula_structural   LiHo3(P3Rh4)2
_chemical_formula_sum   'Li2 Ho6 P12 Rh16'
_cell_volume   562.07093138
_cell_formula_units_Z   2
loop_
 _symmetry_equiv_pos_site_id
 _symmetry_equiv_pos_as_xyz
  1  'x, y, z'
loop_
 _atom_site_type_symbol
 _atom_site_label
 _atom_site_symmetry_multiplicity
 _atom_site_fract_x
 _atom_site_fract_y
 _atom_site_fract_z
 _atom_site_occupancy
  Li  Li0  1  0.500000  0.500000  0.156838  1
  Li  Li1  1  0.000000  0.000000  0.843162  1
  Ho  Ho2  1  0.000000  0.500000  0.516445  1
  Ho  Ho3  1  0.500000  0.000000  0.483555  1
  Ho  Ho4  1  0.500000  0.818996  0.204521  1
  Ho  Ho5  1  0.500000  0.181004  0.204521  1
  Ho  Ho6  1  0.000000  0.681004  0.795479  1
  Ho  Ho7  1  0.000000  0.318996  0.795479  1
  P  P8  1  0.500000  0.313618  0.618613  1
  P  P9  1  0.500000  0.686382  0.618613  1
  P  P10  1  0.000000  0.186382  0.381387  1
  P  P11  1  0.000000  0.813618  0.381387  1
  P  P12  1  0.500000  0.500000  0.881380  1
  P  P13  1  0.000000  0.000000  0.118620  1
  P  P14  1  0.500000  0.841525  0.891455  1
  P  P15  1  0.500000  0.158475  0.891455  1
  P  P16  1  0.000000  0.658475  0.108545  1
  P  P17  1  0.000000  0.341525  0.108545  1
  P  P18  1  0.500000  0.500000  0.345902  1
  P  P19  1  0.000000  0.000000  0.654098  1
  Rh  Rh20  1  0.000000  0.500000  0.984090  1
  Rh  Rh21  1  0.500000  0.000000  0.015910  1
  Rh  Rh22  1  0.500000  0.291404  0.430649  1
  Rh  Rh23  1  0.500000  0.708596  0.430649  1
  Rh  Rh24  1  0.000000  0.208596  0.569351  1
  Rh  Rh25  1  0.000000  0.791404  0.569351  1
  Rh  Rh26  1  0.500000  0.874646  0.709759  1
  Rh  Rh27  1  0.500000  0.125354  0.709759  1
  Rh  Rh28  1  0.000000  0.625354  0.290241  1
  Rh  Rh29  1  0.000000  0.374646  0.290241  1
  Rh  Rh30  1  0.500000  0.333029  0.997978  1
  Rh  Rh31  1  0.500000  0.666971  0.997978  1
  Rh  Rh32  1  0.000000  0.166971  0.002022  1
  Rh  Rh33  1  0.000000  0.833029  0.002022  1
  Rh  Rh34  1  0.500000  0.500000  0.701323  1
  Rh  Rh35  1  0.000000  0.000000  0.298677  1
