# generated using pymatgen
data_Tb4Ho4Cu3Si12Pd
_symmetry_space_group_name_H-M   'P 1'
_cell_length_a   8.03031322
_cell_length_b   8.03031205
_cell_length_c   8.12382900
_cell_angle_alpha   89.99991770
_cell_angle_beta   90.00008513
_cell_angle_gamma   120.02662112
_symmetry_Int_Tables_number   1
_chemical_formula_structural   Tb4Ho4Cu3Si12Pd
_chemical_formula_sum   'Tb4 Ho4 Cu3 Si12 Pd1'
_cell_volume   453.56522413
_cell_formula_units_Z   1
loop_
 _symmetry_equiv_pos_site_id
 _symmetry_equiv_pos_as_xyz
  1  'x, y, z'
loop_
 _atom_site_type_symbol
 _atom_site_label
 _atom_site_symmetry_multiplicity
 _atom_site_fract_x
 _atom_site_fract_y
 _atom_site_fract_z
 _atom_site_occupancy
  Tb  Tb0  1  0.500573  0.499427  0.249385  1
  Tb  Tb1  1  0.500924  0.499076  0.750758  1
  Tb  Tb2  1  0.999999  0.000001  0.249033  1
  Tb  Tb3  1  0.999999  0.000001  0.750669  1
  Ho  Ho4  1  0.500536  0.001060  0.249450  1
  Ho  Ho5  1  0.500887  0.001770  0.750697  1
  Ho  Ho6  1  0.998940  0.499464  0.249450  1
  Ho  Ho7  1  0.998230  0.499113  0.750697  1
  Cu  Cu8  1  0.333177  0.666823  0.000594  1
  Cu  Cu9  1  0.666827  0.333173  0.999907  1
  Cu  Cu10  1  0.666816  0.333184  0.498688  1
  Si  Si11  1  0.169327  0.338997  0.999133  1
  Si  Si12  1  0.831186  0.662010  0.000846  1
  Si  Si13  1  0.661003  0.830673  0.999133  1
  Si  Si14  1  0.831324  0.662308  0.500586  1
  Si  Si15  1  0.337990  0.168814  0.000846  1
  Si  Si16  1  0.165875  0.332075  0.499120  1
  Si  Si17  1  0.169568  0.830432  0.999133  1
  Si  Si18  1  0.337692  0.168676  0.500586  1
  Si  Si19  1  0.830937  0.169063  0.000850  1
  Si  Si20  1  0.667925  0.834125  0.499120  1
  Si  Si21  1  0.831101  0.168899  0.500591  1
  Si  Si22  1  0.166086  0.833914  0.499117  1
  Pd  Pd23  1  0.333081  0.666919  0.501608  1
