# generated using pymatgen
data_Ho6InCoRu
_symmetry_space_group_name_H-M   'P 1'
_cell_length_a   8.38804993
_cell_length_b   8.38805057
_cell_length_c   8.38805001
_cell_angle_alpha   112.64551547
_cell_angle_beta   110.40895743
_cell_angle_gamma   105.44140822
_symmetry_Int_Tables_number   1
_chemical_formula_structural   Ho6InCoRu
_chemical_formula_sum   'Ho12 In2 Co2 Ru2'
_cell_volume   452.46301961
_cell_formula_units_Z   2
loop_
 _symmetry_equiv_pos_site_id
 _symmetry_equiv_pos_as_xyz
  1  'x, y, z'
loop_
 _atom_site_type_symbol
 _atom_site_label
 _atom_site_symmetry_multiplicity
 _atom_site_fract_x
 _atom_site_fract_y
 _atom_site_fract_z
 _atom_site_occupancy
  Ho  Ho0  1  0.443412  0.241453  0.201960  1
  Ho  Ho1  1  0.556588  0.758547  0.798040  1
  Ho  Ho2  1  0.039492  0.241453  0.798040  1
  Ho  Ho3  1  0.960508  0.758547  0.201960  1
  Ho  Ho4  1  0.184445  0.285911  0.470356  1
  Ho  Ho5  1  0.815555  0.714089  0.529644  1
  Ho  Ho6  1  0.184445  0.714089  0.898534  1
  Ho  Ho7  1  0.815555  0.285911  0.101466  1
  Ho  Ho8  1  0.321891  0.636644  0.314754  1
  Ho  Ho9  1  0.678109  0.363356  0.685246  1
  Ho  Ho10  1  0.321891  0.007136  0.685246  1
  Ho  Ho11  1  0.678109  0.992864  0.314754  1
  In  In12  1  0.500000  0.500000  0.000000  1
  In  In13  1  0.000000  0.000000  0.000000  1
  Co  Co14  1  0.111802  0.611802  0.500000  1
  Co  Co15  1  0.888198  0.388198  0.500000  1
  Ru  Ru16  1  0.331295  0.000000  0.331295  1
  Ru  Ru17  1  0.668705  0.000000  0.668705  1
