# generated using pymatgen
data_Dy2HoZnGa7Ag3
_symmetry_space_group_name_H-M   'P 1'
_cell_length_a   4.31524572
_cell_length_b   8.33454638
_cell_length_c   8.33259700
_cell_angle_alpha   70.21903565
_cell_angle_beta   74.99296062
_cell_angle_gamma   74.99655286
_symmetry_Int_Tables_number   1
_chemical_formula_structural   Dy2HoZnGa7Ag3
_chemical_formula_sum   'Dy2 Ho1 Zn1 Ga7 Ag3'
_cell_volume   267.50711171
_cell_formula_units_Z   1
loop_
 _symmetry_equiv_pos_site_id
 _symmetry_equiv_pos_as_xyz
  1  'x, y, z'
loop_
 _atom_site_type_symbol
 _atom_site_label
 _atom_site_symmetry_multiplicity
 _atom_site_fract_x
 _atom_site_fract_y
 _atom_site_fract_z
 _atom_site_occupancy
  Dy  Dy0  1  0.998835  0.000966  0.001364  1
  Dy  Dy1  1  0.300384  0.696324  0.702908  1
  Ho  Ho2  1  0.700685  0.300341  0.298288  1
  Zn  Zn3  1  0.339054  0.294572  0.027319  1
  Ga  Ga4  1  0.659763  0.709024  0.971449  1
  Ga  Ga5  1  0.341702  0.033183  0.283414  1
  Ga  Ga6  1  0.658762  0.971676  0.710800  1
  Ga  Ga7  1  0.144575  0.573193  0.137657  1
  Ga  Ga8  1  0.857971  0.417268  0.866788  1
  Ga  Ga9  1  0.144044  0.137932  0.573981  1
  Ga  Ga10  1  0.855699  0.863562  0.425036  1
  Ag  Ag11  1  0.499694  0.303768  0.696845  1
  Ag  Ag12  1  0.499541  0.697428  0.303493  1
  Ag  Ag13  1  0.999291  0.500763  0.500657  1
