# generated using pymatgen
data_Th2Al20TcRh3
_symmetry_space_group_name_H-M   'P 1'
_cell_length_a   6.89772614
_cell_length_b   6.89504592
_cell_length_c   9.23650930
_cell_angle_alpha   89.56398013
_cell_angle_beta   89.92432287
_cell_angle_gamma   97.39041616
_symmetry_Int_Tables_number   1
_chemical_formula_structural   Th2Al20TcRh3
_chemical_formula_sum   'Th2 Al20 Tc1 Rh3'
_cell_volume   435.62656116
_cell_formula_units_Z   1
loop_
 _symmetry_equiv_pos_site_id
 _symmetry_equiv_pos_as_xyz
  1  'x, y, z'
loop_
 _atom_site_type_symbol
 _atom_site_label
 _atom_site_symmetry_multiplicity
 _atom_site_fract_x
 _atom_site_fract_y
 _atom_site_fract_z
 _atom_site_occupancy
  Th  Th0  1  0.879538  0.129701  0.751615  1
  Th  Th1  1  0.120462  0.870299  0.248385  1
  Al  Al2  1  0.519507  0.774800  0.750791  1
  Al  Al3  1  0.480493  0.225200  0.249209  1
  Al  Al4  1  0.595616  0.859474  0.250694  1
  Al  Al5  1  0.775433  0.775088  0.000578  1
  Al  Al6  1  0.156922  0.843218  0.602420  1
  Al  Al7  1  0.224567  0.224912  0.999422  1
  Al  Al8  1  0.139537  0.402544  0.250212  1
  Al  Al9  1  0.621541  0.379397  0.947576  1
  Al  Al10  1  0.841295  0.158400  0.103106  1
  Al  Al11  1  0.376166  0.620036  0.451198  1
  Al  Al12  1  0.158705  0.841600  0.896894  1
  Al  Al13  1  0.226107  0.483580  0.746491  1
  Al  Al14  1  0.378459  0.620603  0.052424  1
  Al  Al15  1  0.843078  0.156782  0.397580  1
  Al  Al16  1  0.623834  0.379964  0.548802  1
  Al  Al17  1  0.404384  0.140526  0.749306  1
  Al  Al18  1  0.773893  0.516420  0.253509  1
  Al  Al19  1  0.779477  0.779688  0.499847  1
  Al  Al20  1  0.220523  0.220312  0.500153  1
  Al  Al21  1  0.860463  0.597456  0.749788  1
  Tc  Tc22  1  0.000000  0.500000  0.500000  1
  Rh  Rh23  1  0.000000  0.500000  0.000000  1
  Rh  Rh24  1  0.500000  0.000000  0.000000  1
  Rh  Rh25  1  0.500000  0.000000  0.500000  1
