# generated using pymatgen
data_Er6Tc16O
_symmetry_space_group_name_H-M   'P 1'
_cell_length_a   8.04076317
_cell_length_b   8.04076280
_cell_length_c   8.04076300
_cell_angle_alpha   109.47122617
_cell_angle_beta   109.47122525
_cell_angle_gamma   109.47121694
_symmetry_Int_Tables_number   1
_chemical_formula_structural   Er6Tc16O
_chemical_formula_sum   'Er6 Tc16 O1'
_cell_volume   400.19334078
_cell_formula_units_Z   1
loop_
 _symmetry_equiv_pos_site_id
 _symmetry_equiv_pos_as_xyz
  1  'x, y, z'
loop_
 _atom_site_type_symbol
 _atom_site_label
 _atom_site_symmetry_multiplicity
 _atom_site_fract_x
 _atom_site_fract_y
 _atom_site_fract_z
 _atom_site_occupancy
  Er  Er0  1  0.736156  0.736156  0.000000  1
  Er  Er1  1  0.263843  0.000000  0.263844  1
  Er  Er2  1  0.736156  0.000000  0.736156  1
  Er  Er3  1  0.000000  0.736156  0.736157  1
  Er  Er4  1  0.000000  0.263843  0.263844  1
  Er  Er5  1  0.263843  0.263843  0.000000  1
  Tc  Tc6  1  0.000000  0.500000  0.000000  1
  Tc  Tc7  1  0.500000  0.000000  0.000000  1
  Tc  Tc8  1  0.000000  0.000000  0.500000  1
  Tc  Tc9  1  0.500000  0.500000  0.500000  1
  Tc  Tc10  1  0.340003  0.340003  0.680006  1
  Tc  Tc11  1  0.659997  0.659997  0.319994  1
  Tc  Tc12  1  0.000000  0.340003  0.659997  1
  Tc  Tc13  1  0.319994  0.659997  0.659997  1
  Tc  Tc14  1  0.659997  0.319994  0.659997  1
  Tc  Tc15  1  0.340003  0.000000  0.659997  1
  Tc  Tc16  1  0.659997  0.340003  0.000000  1
  Tc  Tc17  1  0.340003  0.659997  0.000000  1
  Tc  Tc18  1  0.340003  0.680006  0.340003  1
  Tc  Tc19  1  0.000000  0.659997  0.340003  1
  Tc  Tc20  1  0.659997  0.000000  0.340003  1
  Tc  Tc21  1  0.680006  0.340003  0.340003  1
  O  O22  1  0.000000  0.000000  0.000000  1
