# generated using pymatgen
data_Sc4Co19P12Ru
_symmetry_space_group_name_H-M   'P 1'
_cell_length_a   3.59698300
_cell_length_b   10.19348879
_cell_length_c   11.63098106
_cell_angle_alpha   90.06810891
_cell_angle_beta   90.00000000
_cell_angle_gamma   90.00000000
_symmetry_Int_Tables_number   1
_chemical_formula_structural   Sc4Co19P12Ru
_chemical_formula_sum   'Sc4 Co19 P12 Ru1'
_cell_volume   426.45899276
_cell_formula_units_Z   1
loop_
 _symmetry_equiv_pos_site_id
 _symmetry_equiv_pos_as_xyz
  1  'x, y, z'
loop_
 _atom_site_type_symbol
 _atom_site_label
 _atom_site_symmetry_multiplicity
 _atom_site_fract_x
 _atom_site_fract_y
 _atom_site_fract_z
 _atom_site_occupancy
  Sc  Sc0  1  0.250000  0.582609  0.702512  1
  Sc  Sc1  1  0.250000  0.919873  0.201591  1
  Sc  Sc2  1  0.750000  0.417687  0.297724  1
  Sc  Sc3  1  0.750000  0.084573  0.794680  1
  Co  Co4  1  0.250000  0.780530  0.494223  1
  Co  Co5  1  0.750000  0.282256  0.008088  1
  Co  Co6  1  0.750000  0.218721  0.506753  1
  Co  Co7  1  0.250000  0.407565  0.486065  1
  Co  Co8  1  0.250000  0.093018  0.985140  1
  Co  Co9  1  0.750000  0.591437  0.514501  1
  Co  Co10  1  0.750000  0.910469  0.012890  1
  Co  Co11  1  0.250000  0.221153  0.177160  1
  Co  Co12  1  0.250000  0.278017  0.675604  1
  Co  Co13  1  0.750000  0.778410  0.822394  1
  Co  Co14  1  0.750000  0.722736  0.324469  1
  Co  Co15  1  0.250000  0.883794  0.699785  1
  Co  Co16  1  0.250000  0.613247  0.203368  1
  Co  Co17  1  0.750000  0.116136  0.300300  1
  Co  Co18  1  0.750000  0.382509  0.799315  1
  Co  Co19  1  0.250000  0.462830  0.931611  1
  Co  Co20  1  0.250000  0.033131  0.430921  1
  Co  Co21  1  0.750000  0.533669  0.069966  1
  Co  Co22  1  0.750000  0.966756  0.569193  1
  P  P23  1  0.250000  0.417881  0.115914  1
  P  P24  1  0.250000  0.081146  0.614234  1
  P  P25  1  0.750000  0.578371  0.883629  1
  P  P26  1  0.750000  0.919640  0.385257  1
  P  P27  1  0.250000  0.264995  0.867172  1
  P  P28  1  0.250000  0.233666  0.368784  1
  P  P29  1  0.750000  0.734215  0.135337  1
  P  P30  1  0.750000  0.766213  0.630601  1
  P  P31  1  0.250000  0.597853  0.391587  1
  P  P32  1  0.250000  0.907524  0.886858  1
  P  P33  1  0.750000  0.401087  0.609907  1
  P  P34  1  0.750000  0.099805  0.110502  1
  Ru  Ru35  1  0.250000  0.716477  0.991966  1
