# generated using pymatgen
data_Er2(CN2)3
_symmetry_space_group_name_H-M   'P 1'
_cell_length_a   10.56929578
_cell_length_b   10.56929559
_cell_length_c   10.56929459
_cell_angle_alpha   35.42746766
_cell_angle_beta   35.42747072
_cell_angle_gamma   35.42746509
_symmetry_Int_Tables_number   1
_chemical_formula_structural   Er2(CN2)3
_chemical_formula_sum   'Er4 C6 N12'
_cell_volume   354.49893474
_cell_formula_units_Z   2
loop_
 _symmetry_equiv_pos_site_id
 _symmetry_equiv_pos_as_xyz
  1  'x, y, z'
loop_
 _atom_site_type_symbol
 _atom_site_label
 _atom_site_symmetry_multiplicity
 _atom_site_fract_x
 _atom_site_fract_y
 _atom_site_fract_z
 _atom_site_occupancy
  Er  Er0  1  0.663505  0.663505  0.663505  1
  Er  Er1  1  0.163505  0.163505  0.163505  1
  Er  Er2  1  0.336495  0.336495  0.336495  1
  Er  Er3  1  0.836495  0.836495  0.836495  1
  C  C4  1  0.750000  0.457147  0.042853  1
  C  C5  1  0.457147  0.042853  0.750000  1
  C  C6  1  0.042853  0.750000  0.457147  1
  C  C7  1  0.542853  0.957147  0.250000  1
  C  C8  1  0.957147  0.250000  0.542853  1
  C  C9  1  0.250000  0.542853  0.957147  1
  N  N10  1  0.538457  0.959018  0.135607  1
  N  N11  1  0.959018  0.135607  0.538457  1
  N  N12  1  0.135607  0.538457  0.959018  1
  N  N13  1  0.635607  0.459018  0.038457  1
  N  N14  1  0.459018  0.038457  0.635607  1
  N  N15  1  0.038457  0.635607  0.459018  1
  N  N16  1  0.461543  0.040982  0.864393  1
  N  N17  1  0.040982  0.864393  0.461543  1
  N  N18  1  0.864393  0.461543  0.040982  1
  N  N19  1  0.364393  0.540982  0.961543  1
  N  N20  1  0.540982  0.961543  0.364393  1
  N  N21  1  0.961543  0.364393  0.540982  1
