# generated using pymatgen
data_Pr5Nd3Si12(PtRh)2
_symmetry_space_group_name_H-M   'P 1'
_cell_length_a   8.25444300
_cell_length_b   8.25454504
_cell_length_c   8.58120000
_cell_angle_alpha   90.00000000
_cell_angle_beta   90.00000000
_cell_angle_gamma   119.99982231
_symmetry_Int_Tables_number   1
_chemical_formula_structural   Pr5Nd3Si12(PtRh)2
_chemical_formula_sum   'Pr5 Nd3 Si12 Pt2 Rh2'
_cell_volume   506.36111535
_cell_formula_units_Z   1
loop_
 _symmetry_equiv_pos_site_id
 _symmetry_equiv_pos_as_xyz
  1  'x, y, z'
loop_
 _atom_site_type_symbol
 _atom_site_label
 _atom_site_symmetry_multiplicity
 _atom_site_fract_x
 _atom_site_fract_y
 _atom_site_fract_z
 _atom_site_occupancy
  Pr  Pr0  1  0.000002  0.000001  0.750000  1
  Pr  Pr1  1  0.000000  0.000000  0.250000  1
  Pr  Pr2  1  0.498023  0.501980  0.750000  1
  Pr  Pr3  1  0.498017  0.996042  0.750000  1
  Pr  Pr4  1  0.003955  0.501984  0.750000  1
  Nd  Nd5  1  0.498499  0.501491  0.250000  1
  Nd  Nd6  1  0.003006  0.501506  0.250000  1
  Nd  Nd7  1  0.498504  0.997005  0.250000  1
  Si  Si8  1  0.834853  0.165147  0.001490  1
  Si  Si9  1  0.834853  0.669708  0.001490  1
  Si  Si10  1  0.330295  0.165149  0.001490  1
  Si  Si11  1  0.834853  0.165147  0.498510  1
  Si  Si12  1  0.834853  0.669708  0.498510  1
  Si  Si13  1  0.330295  0.165149  0.498510  1
  Si  Si14  1  0.167630  0.832370  0.498943  1
  Si  Si15  1  0.664734  0.832368  0.498942  1
  Si  Si16  1  0.167628  0.335259  0.498943  1
  Si  Si17  1  0.167630  0.832370  0.001057  1
  Si  Si18  1  0.664734  0.832368  0.001058  1
  Si  Si19  1  0.167628  0.335259  0.001057  1
  Pt  Pt20  1  0.666667  0.333334  0.001743  1
  Pt  Pt21  1  0.666667  0.333334  0.498257  1
  Rh  Rh22  1  0.333336  0.666662  0.496494  1
  Rh  Rh23  1  0.333336  0.666662  0.003506  1
