# generated using pymatgen
data_LaPrZnSb4
_symmetry_space_group_name_H-M   'P 1'
_cell_length_a   4.42182800
_cell_length_b   4.41221100
_cell_length_c   10.34816400
_cell_angle_alpha   90.00000000
_cell_angle_beta   90.00000000
_cell_angle_gamma   90.00000000
_symmetry_Int_Tables_number   1
_chemical_formula_structural   LaPrZnSb4
_chemical_formula_sum   'La1 Pr1 Zn1 Sb4'
_cell_volume   201.89307434
_cell_formula_units_Z   1
loop_
 _symmetry_equiv_pos_site_id
 _symmetry_equiv_pos_as_xyz
  1  'x, y, z'
loop_
 _atom_site_type_symbol
 _atom_site_label
 _atom_site_symmetry_multiplicity
 _atom_site_fract_x
 _atom_site_fract_y
 _atom_site_fract_z
 _atom_site_occupancy
  La  La0  1  0.000000  0.500000  0.250900  1
  Pr  Pr1  1  0.500000  0.000000  0.748428  1
  Zn  Zn2  1  0.500000  0.500000  0.999659  1
  Sb  Sb3  1  0.500000  0.000000  0.152148  1
  Sb  Sb4  1  0.000000  0.500000  0.847737  1
  Sb  Sb5  1  0.500000  0.500000  0.500607  1
  Sb  Sb6  1  0.000000  0.000000  0.500521  1
