# generated using pymatgen
data_NdLu(TaS2)6
_symmetry_space_group_name_H-M   'P 1'
_cell_length_a   5.79782200
_cell_length_b   5.79782325
_cell_length_c   13.79586200
_cell_angle_alpha   90.00000000
_cell_angle_beta   90.00000000
_cell_angle_gamma   120.00000430
_symmetry_Int_Tables_number   1
_chemical_formula_structural   NdLu(TaS2)6
_chemical_formula_sum   'Nd1 Lu1 Ta6 S12'
_cell_volume   401.61442519
_cell_formula_units_Z   1
loop_
 _symmetry_equiv_pos_site_id
 _symmetry_equiv_pos_as_xyz
  1  'x, y, z'
loop_
 _atom_site_type_symbol
 _atom_site_label
 _atom_site_symmetry_multiplicity
 _atom_site_fract_x
 _atom_site_fract_y
 _atom_site_fract_z
 _atom_site_occupancy
  Nd  Nd0  1  0.666667  0.333333  0.750000  1
  Lu  Lu1  1  0.333333  0.666667  0.250000  1
  Ta  Ta2  1  0.333333  0.666667  0.007250  1
  Ta  Ta3  1  0.000000  0.000000  0.007638  1
  Ta  Ta4  1  0.666667  0.333333  0.006239  1
  Ta  Ta5  1  0.333333  0.666667  0.492750  1
  Ta  Ta6  1  0.000000  0.000000  0.492362  1
  Ta  Ta7  1  0.666667  0.333333  0.493761  1
  S  S8  1  0.670548  0.665855  0.378647  1
  S  S9  1  0.667076  0.673783  0.606783  1
  S  S10  1  0.006708  0.673783  0.893217  1
  S  S11  1  0.667076  0.993292  0.893217  1
  S  S12  1  0.670548  0.004694  0.121353  1
  S  S13  1  0.334145  0.004694  0.378647  1
  S  S14  1  0.006708  0.332924  0.606783  1
  S  S15  1  0.326217  0.993292  0.606783  1
  S  S16  1  0.995306  0.665855  0.121353  1
  S  S17  1  0.326217  0.332924  0.893217  1
  S  S18  1  0.995306  0.329452  0.378647  1
  S  S19  1  0.334145  0.329452  0.121353  1
