# generated using pymatgen
data_RbPr6OsI12
_symmetry_space_group_name_H-M   'P 1'
_cell_length_a   10.19580473
_cell_length_b   10.19580602
_cell_length_c   10.19580494
_cell_angle_alpha   104.82681758
_cell_angle_beta   104.82682933
_cell_angle_gamma   104.82681996
_symmetry_Int_Tables_number   1
_chemical_formula_structural   RbPr6OsI12
_chemical_formula_sum   'Rb1 Pr6 Os1 I12'
_cell_volume   930.07815562
_cell_formula_units_Z   1
loop_
 _symmetry_equiv_pos_site_id
 _symmetry_equiv_pos_as_xyz
  1  'x, y, z'
loop_
 _atom_site_type_symbol
 _atom_site_label
 _atom_site_symmetry_multiplicity
 _atom_site_fract_x
 _atom_site_fract_y
 _atom_site_fract_z
 _atom_site_occupancy
  Rb  Rb0  1  0.500000  0.500000  0.500000  1
  Pr  Pr1  1  0.091714  0.295321  0.015017  1
  Pr  Pr2  1  0.295320  0.015016  0.091714  1
  Pr  Pr3  1  0.015016  0.091714  0.295321  1
  Pr  Pr4  1  0.984983  0.908286  0.704679  1
  Pr  Pr5  1  0.704680  0.984983  0.908285  1
  Pr  Pr6  1  0.908286  0.704679  0.984983  1
  Os  Os7  1  0.000000  0.000000  0.000000  1
  I  I8  1  0.222737  0.677899  0.075876  1
  I  I9  1  0.427142  0.343078  0.108575  1
  I  I10  1  0.677899  0.075877  0.222737  1
  I  I11  1  0.924124  0.777264  0.322102  1
  I  I12  1  0.108575  0.427142  0.343078  1
  I  I13  1  0.343078  0.108575  0.427143  1
  I  I14  1  0.656922  0.891425  0.572857  1
  I  I15  1  0.891424  0.572858  0.656922  1
  I  I16  1  0.075877  0.222737  0.677899  1
  I  I17  1  0.322102  0.924124  0.777263  1
  I  I18  1  0.572857  0.656921  0.891425  1
  I  I19  1  0.777263  0.322102  0.924124  1
