# generated using pymatgen
data_Tb2Dy6Ti9Si16Mo3
_symmetry_space_group_name_H-M   'P 1'
_cell_length_a   7.01475950
_cell_length_b   7.01520803
_cell_length_c   12.89753014
_cell_angle_alpha   89.98707604
_cell_angle_beta   90.02910468
_cell_angle_gamma   89.96570125
_symmetry_Int_Tables_number   1
_chemical_formula_structural   Tb2Dy6Ti9Si16Mo3
_chemical_formula_sum   'Tb2 Dy6 Ti9 Si16 Mo3'
_cell_volume   634.68720979
_cell_formula_units_Z   1
loop_
 _symmetry_equiv_pos_site_id
 _symmetry_equiv_pos_as_xyz
  1  'x, y, z'
loop_
 _atom_site_type_symbol
 _atom_site_label
 _atom_site_symmetry_multiplicity
 _atom_site_fract_x
 _atom_site_fract_y
 _atom_site_fract_z
 _atom_site_occupancy
  Tb  Tb0  1  0.997763  0.660206  0.033486  1
  Tb  Tb1  1  0.000623  0.340313  0.533043  1
  Dy  Dy2  1  0.660114  0.998007  0.966545  1
  Dy  Dy3  1  0.158532  0.501266  0.781910  1
  Dy  Dy4  1  0.840893  0.499677  0.283326  1
  Dy  Dy5  1  0.501303  0.158511  0.218099  1
  Dy  Dy6  1  0.499741  0.840956  0.716610  1
  Dy  Dy7  1  0.340477  0.000356  0.466831  1
  Ti  Ti8  1  0.347197  0.509192  0.374369  1
  Ti  Ti9  1  0.847161  0.990972  0.376353  1
  Ti  Ti10  1  0.008448  0.152053  0.124829  1
  Ti  Ti11  1  0.991021  0.847154  0.623600  1
  Ti  Ti12  1  0.509151  0.347128  0.625588  1
  Ti  Ti13  1  0.151988  0.008410  0.875204  1
  Ti  Ti14  1  0.326792  0.326748  0.000051  1
  Ti  Ti15  1  0.491767  0.653760  0.127469  1
  Ti  Ti16  1  0.653701  0.491747  0.872565  1
  Si  Si17  1  0.047058  0.708716  0.434878  1
  Si  Si18  1  0.951926  0.291698  0.934045  1
  Si  Si19  1  0.708333  0.046879  0.565017  1
  Si  Si20  1  0.209168  0.453187  0.184947  1
  Si  Si21  1  0.791110  0.547709  0.684631  1
  Si  Si22  1  0.453402  0.209012  0.815122  1
  Si  Si23  1  0.547557  0.791208  0.315440  1
  Si  Si24  1  0.291978  0.952082  0.066007  1
  Si  Si25  1  0.798274  0.870861  0.184779  1
  Si  Si26  1  0.299356  0.629973  0.565268  1
  Si  Si27  1  0.701958  0.369845  0.065304  1
  Si  Si28  1  0.629632  0.299192  0.434621  1
  Si  Si29  1  0.370206  0.702079  0.934759  1
  Si  Si30  1  0.129565  0.201157  0.314866  1
  Si  Si31  1  0.201335  0.129472  0.685129  1
  Si  Si32  1  0.870610  0.798426  0.815232  1
  Mo  Mo33  1  0.672832  0.673026  0.499968  1
  Mo  Mo34  1  0.825997  0.172930  0.749367  1
  Mo  Mo35  1  0.173026  0.826090  0.250744  1
