# generated using pymatgen
data_Y8Hf12Si15P
_symmetry_space_group_name_H-M   'P 1'
_cell_length_a   7.27042004
_cell_length_b   7.27570385
_cell_length_c   13.37362888
_cell_angle_alpha   89.80387305
_cell_angle_beta   89.94170844
_cell_angle_gamma   89.98576070
_symmetry_Int_Tables_number   1
_chemical_formula_structural   Y8Hf12Si15P
_chemical_formula_sum   'Y8 Hf12 Si15 P1'
_cell_volume   707.42597266
_cell_formula_units_Z   1
loop_
 _symmetry_equiv_pos_site_id
 _symmetry_equiv_pos_as_xyz
  1  'x, y, z'
loop_
 _atom_site_type_symbol
 _atom_site_label
 _atom_site_symmetry_multiplicity
 _atom_site_fract_x
 _atom_site_fract_y
 _atom_site_fract_z
 _atom_site_occupancy
  Y  Y0  1  0.998884  0.344650  0.216180  1
  Y  Y1  1  0.004731  0.656346  0.714996  1
  Y  Y2  1  0.155665  0.496360  0.464665  1
  Y  Y3  1  0.506211  0.842486  0.034175  1
  Y  Y4  1  0.844044  0.503165  0.965325  1
  Y  Y5  1  0.495690  0.155607  0.534501  1
  Y  Y6  1  0.345007  0.996146  0.785065  1
  Y  Y7  1  0.652451  0.006271  0.284624  1
  Hf  Hf8  1  0.174824  0.174886  0.000375  1
  Hf  Hf9  1  0.826263  0.826269  0.499590  1
  Hf  Hf10  1  0.324463  0.675015  0.250489  1
  Hf  Hf11  1  0.674661  0.325586  0.750047  1
  Hf  Hf12  1  0.151726  0.999002  0.372773  1
  Hf  Hf13  1  0.851262  0.004017  0.874965  1
  Hf  Hf14  1  0.503665  0.649368  0.624530  1
  Hf  Hf15  1  0.351889  0.496106  0.875466  1
  Hf  Hf16  1  0.493904  0.347957  0.127709  1
  Hf  Hf17  1  0.647865  0.502979  0.375694  1
  Hf  Hf18  1  0.996602  0.149636  0.625330  1
  Hf  Hf19  1  0.001242  0.848920  0.124665  1
  Si  Si20  1  0.637908  0.705140  0.816839  1
  Si  Si21  1  0.203878  0.863216  0.565892  1
  Si  Si22  1  0.137603  0.794608  0.932371  1
  Si  Si23  1  0.794881  0.138812  0.067787  1
  Si  Si24  1  0.862515  0.204477  0.432595  1
  Si  Si25  1  0.295745  0.361888  0.682686  1
  Si  Si26  1  0.703446  0.636041  0.183782  1
  Si  Si27  1  0.293631  0.040295  0.181104  1
  Si  Si28  1  0.705253  0.951165  0.685588  1
  Si  Si29  1  0.451390  0.795638  0.435906  1
  Si  Si30  1  0.204952  0.547943  0.064398  1
  Si  Si31  1  0.549260  0.204972  0.936616  1
  Si  Si32  1  0.795010  0.451463  0.564361  1
  Si  Si33  1  0.049445  0.295348  0.814065  1
  Si  Si34  1  0.950913  0.705933  0.314914  1
  P  P35  1  0.363121  0.302289  0.319925  1
