# generated using pymatgen
data_Yb10Pr8Dy2Si15Pt
_symmetry_space_group_name_H-M   'P 1'
_cell_length_a   7.53892191
_cell_length_b   7.95487425
_cell_length_c   15.08731483
_cell_angle_alpha   89.95353368
_cell_angle_beta   89.93841308
_cell_angle_gamma   90.69346587
_symmetry_Int_Tables_number   1
_chemical_formula_structural   Yb10Pr8Dy2Si15Pt
_chemical_formula_sum   'Yb10 Pr8 Dy2 Si15 Pt1'
_cell_volume   904.73690883
_cell_formula_units_Z   1
loop_
 _symmetry_equiv_pos_site_id
 _symmetry_equiv_pos_as_xyz
  1  'x, y, z'
loop_
 _atom_site_type_symbol
 _atom_site_label
 _atom_site_symmetry_multiplicity
 _atom_site_fract_x
 _atom_site_fract_y
 _atom_site_fract_z
 _atom_site_occupancy
  Yb  Yb0  1  0.319601  0.181699  0.624765  1
  Yb  Yb1  1  0.680567  0.817649  0.377532  1
  Yb  Yb2  1  0.639538  0.997949  0.748943  1
  Yb  Yb3  1  0.180994  0.680284  0.376719  1
  Yb  Yb4  1  0.821474  0.320124  0.876308  1
  Yb  Yb5  1  0.822096  0.318427  0.626093  1
  Yb  Yb6  1  0.852652  0.494341  0.252812  1
  Yb  Yb7  1  0.355125  0.004664  0.253165  1
  Yb  Yb8  1  0.318362  0.181899  0.877661  1
  Yb  Yb9  1  0.150082  0.505272  0.749338  1
  Pr  Pr10  1  0.027423  0.183372  0.402017  1
  Pr  Pr11  1  0.527878  0.316118  0.402156  1
  Pr  Pr12  1  0.463685  0.690935  0.894140  1
  Pr  Pr13  1  0.469933  0.684414  0.601548  1
  Pr  Pr14  1  0.970169  0.815577  0.599301  1
  Pr  Pr15  1  0.964145  0.815083  0.899590  1
  Pr  Pr16  1  0.531273  0.313621  0.098383  1
  Pr  Pr17  1  0.030370  0.185893  0.097908  1
  Dy  Dy18  1  0.179880  0.684015  0.123266  1
  Dy  Dy19  1  0.678724  0.814198  0.121858  1
  Si  Si20  1  0.470444  0.597210  0.244716  1
  Si  Si21  1  0.027216  0.095530  0.752356  1
  Si  Si22  1  0.531090  0.405368  0.751297  1
  Si  Si23  1  0.142570  0.470524  0.536367  1
  Si  Si24  1  0.970271  0.901604  0.244285  1
  Si  Si25  1  0.742773  0.115863  0.246033  1
  Si  Si26  1  0.860530  0.532425  0.040485  1
  Si  Si27  1  0.359197  0.967283  0.040941  1
  Si  Si28  1  0.144167  0.477025  0.966037  1
  Si  Si29  1  0.644812  0.026383  0.537569  1
  Si  Si30  1  0.358064  0.973591  0.462454  1
  Si  Si31  1  0.858041  0.525203  0.462677  1
  Si  Si32  1  0.757432  0.622556  0.750618  1
  Si  Si33  1  0.242350  0.380315  0.246513  1
  Si  Si34  1  0.644659  0.024494  0.965118  1
  Pt  Pt35  1  0.262408  0.879093  0.749027  1
