# generated using pymatgen
data_K6AlCoO6
_symmetry_space_group_name_H-M   'P 1'
_cell_length_a   6.60787977
_cell_length_b   6.64668759
_cell_length_c   6.64668700
_cell_angle_alpha   115.19376067
_cell_angle_beta   96.68796781
_cell_angle_gamma   96.68796627
_symmetry_Int_Tables_number   1
_chemical_formula_structural   K6AlCoO6
_chemical_formula_sum   'K6 Al1 Co1 O6'
_cell_volume   257.84207638
_cell_formula_units_Z   1
loop_
 _symmetry_equiv_pos_site_id
 _symmetry_equiv_pos_as_xyz
  1  'x, y, z'
loop_
 _atom_site_type_symbol
 _atom_site_label
 _atom_site_symmetry_multiplicity
 _atom_site_fract_x
 _atom_site_fract_y
 _atom_site_fract_z
 _atom_site_occupancy
  K  K0  1  0.506012  0.810171  0.196005  1
  K  K1  1  0.997351  0.740764  0.261807  1
  K  K2  1  0.656113  0.374691  0.374691  1
  K  K3  1  0.356302  0.631813  0.631813  1
  K  K4  1  0.997351  0.261807  0.740764  1
  K  K5  1  0.506012  0.196005  0.810171  1
  Al  Al6  1  0.851656  0.835584  0.835584  1
  Co  Co7  1  0.152643  0.171840  0.171840  1
  O  O8  1  0.838355  0.088898  0.088898  1
  O  O9  1  0.266509  0.422014  0.150484  1
  O  O10  1  0.266509  0.150484  0.422014  1
  O  O11  1  0.735393  0.844810  0.583824  1
  O  O12  1  0.735393  0.583824  0.844810  1
  O  O13  1  0.134405  0.887296  0.887296  1
