# generated using pymatgen
data_TbLu2Ga7Cu4
_symmetry_space_group_name_H-M   'P 1'
_cell_length_a   7.95841126
_cell_length_b   7.95841121
_cell_length_c   9.30913700
_cell_angle_alpha   54.49657681
_cell_angle_beta   54.49657707
_cell_angle_gamma   30.60614010
_symmetry_Int_Tables_number   1
_chemical_formula_structural   TbLu2Ga7Cu4
_chemical_formula_sum   'Tb1 Lu2 Ga7 Cu4'
_cell_volume   239.67664868
_cell_formula_units_Z   1
loop_
 _symmetry_equiv_pos_site_id
 _symmetry_equiv_pos_as_xyz
  1  'x, y, z'
loop_
 _atom_site_type_symbol
 _atom_site_label
 _atom_site_symmetry_multiplicity
 _atom_site_fract_x
 _atom_site_fract_y
 _atom_site_fract_z
 _atom_site_occupancy
  Tb  Tb0  1  0.000000  0.000000  0.000000  1
  Lu  Lu1  1  0.301846  0.301846  0.707002  1
  Lu  Lu2  1  0.698154  0.698154  0.292998  1
  Ga  Ga3  1  0.857214  0.857214  0.422237  1
  Ga  Ga4  1  0.142786  0.142786  0.577763  1
  Ga  Ga5  1  0.138692  0.138692  0.134872  1
  Ga  Ga6  1  0.861308  0.861308  0.865128  1
  Ga  Ga7  1  0.000000  0.000000  0.500000  1
  Ga  Ga8  1  0.344075  0.344075  0.275071  1
  Ga  Ga9  1  0.655925  0.655925  0.724929  1
  Cu  Cu10  1  0.495585  0.495585  0.314957  1
  Cu  Cu11  1  0.504415  0.504415  0.685043  1
  Cu  Cu12  1  0.658365  0.658365  0.984860  1
  Cu  Cu13  1  0.341635  0.341635  0.015140  1
