# generated using pymatgen
data_Dy2Sc3(Hg2Pt)2
_symmetry_space_group_name_H-M   'P 1'
_cell_length_a   3.58121100
_cell_length_b   7.83665700
_cell_length_c   17.34011000
_cell_angle_alpha   90.00000000
_cell_angle_beta   90.00000000
_cell_angle_gamma   90.00000000
_symmetry_Int_Tables_number   1
_chemical_formula_structural   Dy2Sc3(Hg2Pt)2
_chemical_formula_sum   'Dy4 Sc6 Hg8 Pt4'
_cell_volume   486.64537096
_cell_formula_units_Z   2
loop_
 _symmetry_equiv_pos_site_id
 _symmetry_equiv_pos_as_xyz
  1  'x, y, z'
loop_
 _atom_site_type_symbol
 _atom_site_label
 _atom_site_symmetry_multiplicity
 _atom_site_fract_x
 _atom_site_fract_y
 _atom_site_fract_z
 _atom_site_occupancy
  Dy  Dy0  1  0.000000  0.236010  0.212653  1
  Dy  Dy1  1  0.000000  0.763990  0.787347  1
  Dy  Dy2  1  0.000000  0.263990  0.712653  1
  Dy  Dy3  1  0.000000  0.736010  0.287347  1
  Sc  Sc4  1  0.000000  0.110966  0.415928  1
  Sc  Sc5  1  0.000000  0.889034  0.584072  1
  Sc  Sc6  1  0.000000  0.389034  0.915928  1
  Sc  Sc7  1  0.000000  0.610966  0.084072  1
  Sc  Sc8  1  0.000000  0.000000  0.000000  1
  Sc  Sc9  1  0.000000  0.500000  0.500000  1
  Hg  Hg10  1  0.500000  0.414992  0.360327  1
  Hg  Hg11  1  0.500000  0.585008  0.639673  1
  Hg  Hg12  1  0.500000  0.085008  0.860327  1
  Hg  Hg13  1  0.500000  0.914992  0.139673  1
  Hg  Hg14  1  0.500000  0.287475  0.053765  1
  Hg  Hg15  1  0.500000  0.712525  0.946235  1
  Hg  Hg16  1  0.500000  0.212525  0.553765  1
  Hg  Hg17  1  0.500000  0.787475  0.446235  1
  Pt  Pt18  1  0.500000  0.029052  0.307307  1
  Pt  Pt19  1  0.500000  0.970948  0.692693  1
  Pt  Pt20  1  0.500000  0.470948  0.807307  1
  Pt  Pt21  1  0.500000  0.529052  0.192693  1
