# generated using pymatgen
data_Ca4YSi12Ir19
_symmetry_space_group_name_H-M   'P 1'
_cell_length_a   12.83020200
_cell_length_b   12.83020398
_cell_length_c   4.01859100
_cell_angle_alpha   90.00000000
_cell_angle_beta   90.00000000
_cell_angle_gamma   120.00000521
_symmetry_Int_Tables_number   1
_chemical_formula_structural   Ca4YSi12Ir19
_chemical_formula_sum   'Ca4 Y1 Si12 Ir19'
_cell_volume   572.89030298
_cell_formula_units_Z   1
loop_
 _symmetry_equiv_pos_site_id
 _symmetry_equiv_pos_as_xyz
  1  'x, y, z'
loop_
 _atom_site_type_symbol
 _atom_site_label
 _atom_site_symmetry_multiplicity
 _atom_site_fract_x
 _atom_site_fract_y
 _atom_site_fract_z
 _atom_site_occupancy
  Ca  Ca0  1  0.999886  0.181378  0.500000  1
  Ca  Ca1  1  0.818622  0.818509  0.500000  1
  Ca  Ca2  1  0.181491  0.000114  0.500000  1
  Ca  Ca3  1  0.333333  0.666667  0.000000  1
  Y  Y4  1  0.666667  0.333333  0.000000  1
  Si  Si5  1  0.479343  0.311659  0.500000  1
  Si  Si6  1  0.816861  0.999709  0.000000  1
  Si  Si7  1  0.182848  0.183139  0.000000  1
  Si  Si8  1  0.000291  0.817152  0.000000  1
  Si  Si9  1  0.367791  0.999205  0.000000  1
  Si  Si10  1  0.688341  0.167685  0.500000  1
  Si  Si11  1  0.832315  0.520657  0.500000  1
  Si  Si12  1  0.519444  0.831720  0.500000  1
  Si  Si13  1  0.168280  0.687723  0.500000  1
  Si  Si14  1  0.312277  0.480556  0.500000  1
  Si  Si15  1  0.000795  0.368586  0.000000  1
  Si  Si16  1  0.631414  0.632209  0.000000  1
  Ir  Ir17  1  0.805130  0.184177  0.000000  1
  Ir  Ir18  1  0.379047  0.194870  0.000000  1
  Ir  Ir19  1  0.638581  0.511045  0.500000  1
  Ir  Ir20  1  0.872465  0.361419  0.500000  1
  Ir  Ir21  1  0.361308  0.875517  0.500000  1
  Ir  Ir22  1  0.514209  0.638692  0.500000  1
  Ir  Ir23  1  0.124483  0.485791  0.500000  1
  Ir  Ir24  1  0.815823  0.620953  0.000000  1
  Ir  Ir25  1  0.621193  0.816717  0.000000  1
  Ir  Ir26  1  0.183283  0.804475  0.000000  1
  Ir  Ir27  1  0.195525  0.378807  0.000000  1
  Ir  Ir28  1  0.000024  0.716089  0.500000  1
  Ir  Ir29  1  0.283911  0.283935  0.500000  1
  Ir  Ir30  1  0.716065  0.999976  0.500000  1
  Ir  Ir31  1  0.998775  0.551371  0.000000  1
  Ir  Ir32  1  0.448629  0.447404  0.000000  1
  Ir  Ir33  1  0.552596  0.001225  0.000000  1
  Ir  Ir34  1  0.000000  0.000000  0.000000  1
  Ir  Ir35  1  0.488955  0.127535  0.500000  1
