# generated using pymatgen
data_Ho12Os3Rh
_symmetry_space_group_name_H-M   'P 1'
_cell_length_a   6.33156424
_cell_length_b   7.33201445
_cell_length_c   9.04020800
_cell_angle_alpha   90.00000000
_cell_angle_beta   90.00000000
_cell_angle_gamma   90.22643634
_symmetry_Int_Tables_number   1
_chemical_formula_structural   Ho12Os3Rh
_chemical_formula_sum   'Ho12 Os3 Rh1'
_cell_volume   419.67138826
_cell_formula_units_Z   1
loop_
 _symmetry_equiv_pos_site_id
 _symmetry_equiv_pos_as_xyz
  1  'x, y, z'
loop_
 _atom_site_type_symbol
 _atom_site_label
 _atom_site_symmetry_multiplicity
 _atom_site_fract_x
 _atom_site_fract_y
 _atom_site_fract_z
 _atom_site_occupancy
  Ho  Ho0  1  0.334127  0.673844  0.061719  1
  Ho  Ho1  1  0.169126  0.177770  0.438059  1
  Ho  Ho2  1  0.668904  0.324326  0.563379  1
  Ho  Ho3  1  0.828129  0.823675  0.933796  1
  Ho  Ho4  1  0.668904  0.324326  0.936621  1
  Ho  Ho5  1  0.828129  0.823675  0.566204  1
  Ho  Ho6  1  0.334127  0.673844  0.438281  1
  Ho  Ho7  1  0.169126  0.177770  0.061941  1
  Ho  Ho8  1  0.868995  0.538162  0.250000  1
  Ho  Ho9  1  0.630219  0.040346  0.250000  1
  Ho  Ho10  1  0.130357  0.461148  0.750000  1
  Ho  Ho11  1  0.369089  0.961173  0.750000  1
  Os  Os12  1  0.459484  0.383602  0.250000  1
  Os  Os13  1  0.961173  0.115415  0.750000  1
  Os  Os14  1  0.539335  0.616743  0.750000  1
  Rh  Rh15  1  0.040776  0.884184  0.250000  1
