# generated using pymatgen
data_Tb2MoOsF14
_symmetry_space_group_name_H-M   'P 1'
_cell_length_a   5.60800635
_cell_length_b   8.99297888
_cell_length_c   12.03320700
_cell_angle_alpha   63.39855368
_cell_angle_beta   89.15674787
_cell_angle_gamma   90.32646868
_symmetry_Int_Tables_number   1
_chemical_formula_structural   Tb2MoOsF14
_chemical_formula_sum   'Tb4 Mo2 Os2 F28'
_cell_volume   542.51574418
_cell_formula_units_Z   2
loop_
 _symmetry_equiv_pos_site_id
 _symmetry_equiv_pos_as_xyz
  1  'x, y, z'
loop_
 _atom_site_type_symbol
 _atom_site_label
 _atom_site_symmetry_multiplicity
 _atom_site_fract_x
 _atom_site_fract_y
 _atom_site_fract_z
 _atom_site_occupancy
  Tb  Tb0  1  0.254577  0.809484  0.267295  1
  Tb  Tb1  1  0.745423  0.190516  0.732705  1
  Tb  Tb2  1  0.757163  0.184897  0.230432  1
  Tb  Tb3  1  0.242837  0.815103  0.769568  1
  Mo  Mo4  1  0.254846  0.272759  0.455138  1
  Mo  Mo5  1  0.745154  0.727241  0.544862  1
  Os  Os6  1  0.753445  0.726874  0.044595  1
  Os  Os7  1  0.246555  0.273126  0.955405  1
  F  F8  1  0.960690  0.703171  0.417031  1
  F  F9  1  0.039310  0.296829  0.582969  1
  F  F10  1  0.453915  0.290529  0.081578  1
  F  F11  1  0.546085  0.709471  0.918422  1
  F  F12  1  0.464298  0.731899  0.139339  1
  F  F13  1  0.535702  0.268101  0.860661  1
  F  F14  1  0.976694  0.267617  0.356775  1
  F  F15  1  0.023306  0.732383  0.643225  1
  F  F16  1  0.956894  0.746422  0.172266  1
  F  F17  1  0.043106  0.253578  0.827734  1
  F  F18  1  0.461306  0.249557  0.323941  1
  F  F19  1  0.538694  0.750443  0.676059  1
  F  F20  1  0.762445  0.488113  0.139901  1
  F  F21  1  0.237555  0.511887  0.860099  1
  F  F22  1  0.275198  0.517023  0.358198  1
  F  F23  1  0.724802  0.482977  0.641802  1
  F  F24  1  0.951889  0.284441  0.046082  1
  F  F25  1  0.048111  0.715559  0.953918  1
  F  F26  1  0.457457  0.716405  0.453044  1
  F  F27  1  0.542543  0.283595  0.546956  1
  F  F28  1  0.743270  0.970866  0.446189  1
  F  F29  1  0.256730  0.029134  0.553811  1
  F  F30  1  0.244130  0.034760  0.047822  1
  F  F31  1  0.755870  0.965240  0.952178  1
  F  F32  1  0.577621  0.968599  0.232719  1
  F  F33  1  0.422379  0.031401  0.767281  1
  F  F34  1  0.078031  0.027528  0.264833  1
  F  F35  1  0.921969  0.972472  0.735167  1
