# generated using pymatgen
data_Ni5Sn8Pd5Rh2
_symmetry_space_group_name_H-M   'P 1'
_cell_length_a   5.53375703
_cell_length_b   7.37064319
_cell_length_c   8.43169377
_cell_angle_alpha   90.36083339
_cell_angle_beta   90.30832006
_cell_angle_gamma   90.01604600
_symmetry_Int_Tables_number   1
_chemical_formula_structural   Ni5Sn8Pd5Rh2
_chemical_formula_sum   'Ni5 Sn8 Pd5 Rh2'
_cell_volume   343.89461695
_cell_formula_units_Z   1
loop_
 _symmetry_equiv_pos_site_id
 _symmetry_equiv_pos_as_xyz
  1  'x, y, z'
loop_
 _atom_site_type_symbol
 _atom_site_label
 _atom_site_symmetry_multiplicity
 _atom_site_fract_x
 _atom_site_fract_y
 _atom_site_fract_z
 _atom_site_occupancy
  Ni  Ni0  1  0.243885  0.903981  0.368012  1
  Ni  Ni1  1  0.741949  0.086755  0.628371  1
  Ni  Ni2  1  0.246885  0.406372  0.127634  1
  Ni  Ni3  1  0.007242  0.739701  0.122512  1
  Ni  Ni4  1  0.758392  0.593228  0.874541  1
  Sn  Sn5  1  0.245236  0.564954  0.391727  1
  Sn  Sn6  1  0.249824  0.094522  0.631615  1
  Sn  Sn7  1  0.757248  0.907269  0.356569  1
  Sn  Sn8  1  0.754782  0.419278  0.142059  1
  Sn  Sn9  1  0.249956  0.599684  0.871472  1
  Sn  Sn10  1  0.240569  0.060420  0.103090  1
  Sn  Sn11  1  0.754749  0.430642  0.604519  1
  Sn  Sn12  1  0.751589  0.933590  0.903069  1
  Pd  Pd13  1  0.497050  0.237215  0.371657  1
  Pd  Pd14  1  0.998586  0.761421  0.625682  1
  Pd  Pd15  1  0.501331  0.262814  0.878550  1
  Pd  Pd16  1  0.998389  0.258167  0.873582  1
  Pd  Pd17  1  0.501419  0.753741  0.622611  1
  Rh  Rh18  1  0.000327  0.243118  0.379204  1
  Rh  Rh19  1  0.500595  0.743128  0.123523  1
