# generated using pymatgen
data_Y6MnFe3(Co7P6)2
_symmetry_space_group_name_H-M   'P 1'
_cell_length_a   3.70346800
_cell_length_b   10.56630400
_cell_length_c   12.13268700
_cell_angle_alpha   90.00000000
_cell_angle_beta   90.00000000
_cell_angle_gamma   90.00000000
_symmetry_Int_Tables_number   1
_chemical_formula_structural   Y6MnFe3(Co7P6)2
_chemical_formula_sum   'Y6 Mn1 Fe3 Co14 P12'
_cell_volume   474.77592844
_cell_formula_units_Z   1
loop_
 _symmetry_equiv_pos_site_id
 _symmetry_equiv_pos_as_xyz
  1  'x, y, z'
loop_
 _atom_site_type_symbol
 _atom_site_label
 _atom_site_symmetry_multiplicity
 _atom_site_fract_x
 _atom_site_fract_y
 _atom_site_fract_z
 _atom_site_occupancy
  Y  Y0  1  0.000000  0.500000  0.522971  1
  Y  Y1  1  0.500000  0.000000  0.478213  1
  Y  Y2  1  0.500000  0.819177  0.204479  1
  Y  Y3  1  0.500000  0.180823  0.204479  1
  Y  Y4  1  0.000000  0.680753  0.795930  1
  Y  Y5  1  0.000000  0.319247  0.795930  1
  Mn  Mn6  1  0.500000  0.500000  0.155903  1
  Fe  Fe7  1  0.000000  0.000000  0.844965  1
  Fe  Fe8  1  0.000000  0.500000  0.988394  1
  Fe  Fe9  1  0.500000  0.000000  0.011468  1
  Co  Co10  1  0.500000  0.500000  0.700763  1
  Co  Co11  1  0.000000  0.000000  0.298648  1
  Co  Co12  1  0.500000  0.332183  0.994759  1
  Co  Co13  1  0.500000  0.667817  0.994759  1
  Co  Co14  1  0.000000  0.168399  0.005474  1
  Co  Co15  1  0.000000  0.831601  0.005474  1
  Co  Co16  1  0.500000  0.296486  0.429921  1
  Co  Co17  1  0.500000  0.703514  0.429921  1
  Co  Co18  1  0.000000  0.203793  0.569075  1
  Co  Co19  1  0.000000  0.796207  0.569075  1
  Co  Co20  1  0.500000  0.878926  0.708923  1
  Co  Co21  1  0.500000  0.121074  0.708923  1
  Co  Co22  1  0.000000  0.620523  0.290398  1
  Co  Co23  1  0.000000  0.379477  0.290398  1
  P  P24  1  0.500000  0.500000  0.884183  1
  P  P25  1  0.000000  0.000000  0.115172  1
  P  P26  1  0.500000  0.500000  0.343727  1
  P  P27  1  0.000000  0.000000  0.658956  1
  P  P28  1  0.500000  0.309720  0.616362  1
  P  P29  1  0.500000  0.690280  0.616362  1
  P  P30  1  0.000000  0.189639  0.383647  1
  P  P31  1  0.000000  0.810361  0.383647  1
  P  P32  1  0.500000  0.847679  0.893411  1
  P  P33  1  0.500000  0.152321  0.893411  1
  P  P34  1  0.000000  0.652880  0.105939  1
  P  P35  1  0.000000  0.347120  0.105939  1
