# generated using pymatgen
data_MgNi20(B3Sb)2
_symmetry_space_group_name_H-M   'P 1'
_cell_length_a   7.51003913
_cell_length_b   7.51003928
_cell_length_c   7.51003900
_cell_angle_alpha   60.00000564
_cell_angle_beta   60.00000499
_cell_angle_gamma   60.00000906
_symmetry_Int_Tables_number   1
_chemical_formula_structural   MgNi20(B3Sb)2
_chemical_formula_sum   'Mg1 Ni20 B6 Sb2'
_cell_volume   299.51023490
_cell_formula_units_Z   1
loop_
 _symmetry_equiv_pos_site_id
 _symmetry_equiv_pos_as_xyz
  1  'x, y, z'
loop_
 _atom_site_type_symbol
 _atom_site_label
 _atom_site_symmetry_multiplicity
 _atom_site_fract_x
 _atom_site_fract_y
 _atom_site_fract_z
 _atom_site_occupancy
  Mg  Mg0  1  0.000000  0.000000  0.000000  1
  Ni  Ni1  1  0.000000  0.000000  0.660335  1
  Ni  Ni2  1  0.384425  0.846725  0.384425  1
  Ni  Ni3  1  0.660335  0.339665  0.000000  1
  Ni  Ni4  1  0.000000  0.339665  0.660335  1
  Ni  Ni5  1  0.660335  0.000000  0.000000  1
  Ni  Ni6  1  0.000000  0.000000  0.339665  1
  Ni  Ni7  1  0.660335  0.000000  0.339665  1
  Ni  Ni8  1  0.000000  0.339665  0.000000  1
  Ni  Ni9  1  0.000000  0.660335  0.339665  1
  Ni  Ni10  1  0.339665  0.000000  0.000000  1
  Ni  Ni11  1  0.000000  0.660335  0.000000  1
  Ni  Ni12  1  0.339665  0.000000  0.660335  1
  Ni  Ni13  1  0.384425  0.384425  0.384425  1
  Ni  Ni14  1  0.339665  0.660335  0.000000  1
  Ni  Ni15  1  0.615575  0.153275  0.615575  1
  Ni  Ni16  1  0.384425  0.384425  0.846725  1
  Ni  Ni17  1  0.846725  0.384425  0.384425  1
  Ni  Ni18  1  0.615575  0.615575  0.615575  1
  Ni  Ni19  1  0.153275  0.615575  0.615575  1
  Ni  Ni20  1  0.615575  0.615575  0.153275  1
  B  B21  1  0.730233  0.730233  0.269767  1
  B  B22  1  0.730233  0.269767  0.730233  1
  B  B23  1  0.269767  0.730233  0.269767  1
  B  B24  1  0.730233  0.269767  0.269767  1
  B  B25  1  0.269767  0.730233  0.730233  1
  B  B26  1  0.269767  0.269767  0.730233  1
  Sb  Sb27  1  0.250000  0.250000  0.250000  1
  Sb  Sb28  1  0.750000  0.750000  0.750000  1
