# generated using pymatgen
data_DyHfB6Os
_symmetry_space_group_name_H-M   'P 1'
_cell_length_a   3.55935900
_cell_length_b   9.01139900
_cell_length_c   11.38290200
_cell_angle_alpha   90.00000000
_cell_angle_beta   90.00000000
_cell_angle_gamma   90.00000000
_symmetry_Int_Tables_number   1
_chemical_formula_structural   DyHfB6Os
_chemical_formula_sum   'Dy4 Hf4 B24 Os4'
_cell_volume   365.10435212
_cell_formula_units_Z   4
loop_
 _symmetry_equiv_pos_site_id
 _symmetry_equiv_pos_as_xyz
  1  'x, y, z'
loop_
 _atom_site_type_symbol
 _atom_site_label
 _atom_site_symmetry_multiplicity
 _atom_site_fract_x
 _atom_site_fract_y
 _atom_site_fract_z
 _atom_site_occupancy
  Dy  Dy0  1  0.000000  0.321386  0.413483  1
  Dy  Dy1  1  0.000000  0.678614  0.586517  1
  Dy  Dy2  1  0.000000  0.821386  0.086517  1
  Dy  Dy3  1  0.000000  0.178614  0.913483  1
  Hf  Hf4  1  0.000000  0.944943  0.374613  1
  Hf  Hf5  1  0.000000  0.055057  0.625388  1
  Hf  Hf6  1  0.000000  0.444943  0.125387  1
  Hf  Hf7  1  0.000000  0.555057  0.874612  1
  B  B8  1  0.500000  0.554508  0.433768  1
  B  B9  1  0.500000  0.445492  0.566232  1
  B  B10  1  0.500000  0.054508  0.066232  1
  B  B11  1  0.500000  0.945492  0.933768  1
  B  B12  1  0.500000  0.752297  0.418985  1
  B  B13  1  0.500000  0.247703  0.581015  1
  B  B14  1  0.500000  0.252297  0.081015  1
  B  B15  1  0.500000  0.747703  0.918985  1
  B  B16  1  0.500000  0.795096  0.264185  1
  B  B17  1  0.500000  0.204904  0.735815  1
  B  B18  1  0.500000  0.295095  0.235815  1
  B  B19  1  0.500000  0.704904  0.764185  1
  B  B20  1  0.500000  0.629770  0.182642  1
  B  B21  1  0.500000  0.370230  0.817358  1
  B  B22  1  0.500000  0.129770  0.317358  1
  B  B23  1  0.500000  0.870230  0.682642  1
  B  B24  1  0.500000  0.981541  0.213855  1
  B  B25  1  0.500000  0.018459  0.786145  1
  B  B26  1  0.500000  0.481541  0.286145  1
  B  B27  1  0.500000  0.518459  0.713855  1
  B  B28  1  0.500000  0.601259  0.027424  1
  B  B29  1  0.500000  0.398741  0.972576  1
  B  B30  1  0.500000  0.101259  0.472576  1
  B  B31  1  0.500000  0.898741  0.527424  1
  Os  Os32  1  0.000000  0.641362  0.319167  1
  Os  Os33  1  0.000000  0.358638  0.680833  1
  Os  Os34  1  0.000000  0.141362  0.180833  1
  Os  Os35  1  0.000000  0.858638  0.819167  1
