# generated using pymatgen
data_TmLu3(Co4P3)2
_symmetry_space_group_name_H-M   'P 1'
_cell_length_a   12.26195700
_cell_length_b   12.26195739
_cell_length_c   3.70774100
_cell_angle_alpha   90.00000000
_cell_angle_beta   90.00000000
_cell_angle_gamma   119.99999625
_symmetry_Int_Tables_number   1
_chemical_formula_structural   TmLu3(Co4P3)2
_chemical_formula_sum   'Tm2 Lu6 Co16 P12'
_cell_volume   482.79151509
_cell_formula_units_Z   2
loop_
 _symmetry_equiv_pos_site_id
 _symmetry_equiv_pos_as_xyz
  1  'x, y, z'
loop_
 _atom_site_type_symbol
 _atom_site_label
 _atom_site_symmetry_multiplicity
 _atom_site_fract_x
 _atom_site_fract_y
 _atom_site_fract_z
 _atom_site_occupancy
  Tm  Tm0  1  0.333333  0.666667  0.000000  1
  Tm  Tm1  1  0.666667  0.333333  0.000000  1
  Lu  Lu2  1  0.818087  0.000000  0.500000  1
  Lu  Lu3  1  0.000000  0.818087  0.500000  1
  Lu  Lu4  1  0.181913  0.181913  0.500000  1
  Lu  Lu5  1  0.441692  0.000000  0.000000  1
  Lu  Lu6  1  0.000000  0.441692  0.000000  1
  Lu  Lu7  1  0.558308  0.558308  0.000000  1
  Co  Co8  1  0.274893  0.000000  0.500000  1
  Co  Co9  1  0.000000  0.274893  0.500000  1
  Co  Co10  1  0.725107  0.725107  0.500000  1
  Co  Co11  1  0.628974  0.807468  0.000000  1
  Co  Co12  1  0.192532  0.821507  0.000000  1
  Co  Co13  1  0.178493  0.371026  0.000000  1
  Co  Co14  1  0.371026  0.178493  0.000000  1
  Co  Co15  1  0.807468  0.628974  0.000000  1
  Co  Co16  1  0.821507  0.192532  0.000000  1
  Co  Co17  1  0.521815  0.875995  0.500000  1
  Co  Co18  1  0.124005  0.645821  0.500000  1
  Co  Co19  1  0.354179  0.478185  0.500000  1
  Co  Co20  1  0.478185  0.354179  0.500000  1
  Co  Co21  1  0.875995  0.521815  0.500000  1
  Co  Co22  1  0.645821  0.124005  0.500000  1
  Co  Co23  1  0.000000  0.000000  0.000000  1
  P  P24  1  0.177116  0.000000  0.000000  1
  P  P25  1  0.000000  0.177116  0.000000  1
  P  P26  1  0.822884  0.822884  0.000000  1
  P  P27  1  0.521669  0.695815  0.500000  1
  P  P28  1  0.304185  0.825853  0.500000  1
  P  P29  1  0.174147  0.478331  0.500000  1
  P  P30  1  0.478331  0.174147  0.500000  1
  P  P31  1  0.695815  0.521669  0.500000  1
  P  P32  1  0.825853  0.304185  0.500000  1
  P  P33  1  0.651798  0.000000  0.000000  1
  P  P34  1  0.000000  0.651798  0.000000  1
  P  P35  1  0.348202  0.348202  0.000000  1
