# generated using pymatgen
data_Y7HoHg4
_symmetry_space_group_name_H-M   'P 1'
_cell_length_a   7.07651163
_cell_length_b   5.11671600
_cell_length_c   9.28595283
_cell_angle_alpha   90.00000000
_cell_angle_beta   90.04835926
_cell_angle_gamma   90.00000000
_symmetry_Int_Tables_number   1
_chemical_formula_structural   Y7HoHg4
_chemical_formula_sum   'Y7 Ho1 Hg4'
_cell_volume   336.23030579
_cell_formula_units_Z   1
loop_
 _symmetry_equiv_pos_site_id
 _symmetry_equiv_pos_as_xyz
  1  'x, y, z'
loop_
 _atom_site_type_symbol
 _atom_site_label
 _atom_site_symmetry_multiplicity
 _atom_site_fract_x
 _atom_site_fract_y
 _atom_site_fract_z
 _atom_site_occupancy
  Y  Y0  1  0.830622  0.750000  0.074794  1
  Y  Y1  1  0.516359  0.250000  0.193561  1
  Y  Y2  1  0.016856  0.250000  0.305830  1
  Y  Y3  1  0.330191  0.750000  0.425040  1
  Y  Y4  1  0.669755  0.250000  0.574880  1
  Y  Y5  1  0.983530  0.750000  0.694494  1
  Y  Y6  1  0.482792  0.750000  0.806173  1
  Ho  Ho7  1  0.169118  0.250000  0.925060  1
  Hg  Hg8  1  0.263387  0.750000  0.100901  1
  Hg  Hg9  1  0.763583  0.750000  0.398348  1
  Hg  Hg10  1  0.236267  0.250000  0.602479  1
  Hg  Hg11  1  0.737545  0.250000  0.898439  1
