# generated using pymatgen
data_CeSm3(B4Mo)4
_symmetry_space_group_name_H-M   'P 1'
_cell_length_a   3.68106600
_cell_length_b   6.08074200
_cell_length_c   11.76570104
_cell_angle_alpha   90.00109385
_cell_angle_beta   90.00000000
_cell_angle_gamma   90.00000000
_symmetry_Int_Tables_number   1
_chemical_formula_structural   CeSm3(B4Mo)4
_chemical_formula_sum   'Ce1 Sm3 B16 Mo4'
_cell_volume   263.35889427
_cell_formula_units_Z   1
loop_
 _symmetry_equiv_pos_site_id
 _symmetry_equiv_pos_as_xyz
  1  'x, y, z'
loop_
 _atom_site_type_symbol
 _atom_site_label
 _atom_site_symmetry_multiplicity
 _atom_site_fract_x
 _atom_site_fract_y
 _atom_site_fract_z
 _atom_site_occupancy
  Ce  Ce0  1  0.000000  0.874472  0.849103  1
  Sm  Sm1  1  0.000000  0.625881  0.349729  1
  Sm  Sm2  1  0.000000  0.374298  0.649943  1
  Sm  Sm3  1  0.000000  0.125930  0.150904  1
  B  B4  1  0.500000  0.783843  0.185327  1
  B  B5  1  0.500000  0.213632  0.815299  1
  B  B6  1  0.500000  0.284464  0.314943  1
  B  B7  1  0.500000  0.715908  0.685789  1
  B  B8  1  0.500000  0.864186  0.031404  1
  B  B9  1  0.500000  0.135537  0.966726  1
  B  B10  1  0.500000  0.364750  0.467983  1
  B  B11  1  0.500000  0.635277  0.532457  1
  B  B12  1  0.500000  0.886649  0.453567  1
  B  B13  1  0.500000  0.112883  0.546780  1
  B  B14  1  0.500000  0.386872  0.046339  1
  B  B15  1  0.500000  0.613694  0.952774  1
  B  B16  1  0.500000  0.975626  0.308215  1
  B  B17  1  0.500000  0.022788  0.692376  1
  B  B18  1  0.500000  0.476173  0.191882  1
  B  B19  1  0.500000  0.526473  0.808154  1
  Mo  Mo20  1  0.000000  0.629268  0.082785  1
  Mo  Mo21  1  0.000000  0.370748  0.915858  1
  Mo  Mo22  1  0.000000  0.128584  0.417097  1
  Mo  Mo23  1  0.000000  0.872061  0.584566  1
