# generated using pymatgen
data_HoScMn2C3
_symmetry_space_group_name_H-M   'P 1'
_cell_length_a   5.70215208
_cell_length_b   5.70215193
_cell_length_c   5.42103890
_cell_angle_alpha   114.42547363
_cell_angle_beta   114.42547336
_cell_angle_gamma   32.69291407
_symmetry_Int_Tables_number   1
_chemical_formula_structural   HoScMn2C3
_chemical_formula_sum   'Ho1 Sc1 Mn2 C3'
_cell_volume   85.91239063
_cell_formula_units_Z   1
loop_
 _symmetry_equiv_pos_site_id
 _symmetry_equiv_pos_as_xyz
  1  'x, y, z'
loop_
 _atom_site_type_symbol
 _atom_site_label
 _atom_site_symmetry_multiplicity
 _atom_site_fract_x
 _atom_site_fract_y
 _atom_site_fract_z
 _atom_site_occupancy
  Ho  Ho0  1  0.601868  0.601868  0.815589  1
  Sc  Sc1  1  0.388003  0.388003  0.162613  1
  Mn  Mn2  1  0.165366  0.165366  0.323030  1
  Mn  Mn3  1  0.838215  0.838215  0.681966  1
  C  C4  1  0.998211  0.998211  0.013453  1
  C  C5  1  0.762713  0.762713  0.283944  1
  C  C6  1  0.245625  0.245625  0.719406  1
