# generated using pymatgen
data_Cs4Li20Mn3Fe(P2O7)8
_symmetry_space_group_name_H-M   'P 1'
_cell_length_a   5.17244500
_cell_length_b   12.73003800
_cell_length_c   19.99365700
_cell_angle_alpha   90.00000000
_cell_angle_beta   90.00000000
_cell_angle_gamma   90.00000000
_symmetry_Int_Tables_number   1
_chemical_formula_structural   Cs4Li20Mn3Fe(P2O7)8
_chemical_formula_sum   'Cs4 Li20 Mn3 Fe1 P16 O56'
_cell_volume   1316.49077055
_cell_formula_units_Z   1
loop_
 _symmetry_equiv_pos_site_id
 _symmetry_equiv_pos_as_xyz
  1  'x, y, z'
loop_
 _atom_site_type_symbol
 _atom_site_label
 _atom_site_symmetry_multiplicity
 _atom_site_fract_x
 _atom_site_fract_y
 _atom_site_fract_z
 _atom_site_occupancy
  Cs  Cs0  1  0.000000  0.750000  0.805541  1
  Cs  Cs1  1  0.500000  0.250000  0.694933  1
  Cs  Cs2  1  0.000000  0.250000  0.194553  1
  Cs  Cs3  1  0.500000  0.750000  0.305353  1
  Li  Li4  1  0.967113  0.998434  0.700072  1
  Li  Li5  1  0.532449  0.498597  0.800173  1
  Li  Li6  1  0.467551  0.001403  0.800173  1
  Li  Li7  1  0.032887  0.501566  0.700072  1
  Li  Li8  1  0.032354  0.001418  0.299591  1
  Li  Li9  1  0.467578  0.501395  0.199739  1
  Li  Li10  1  0.532422  0.998605  0.199739  1
  Li  Li11  1  0.967646  0.498582  0.299591  1
  Li  Li12  1  0.977590  0.901171  0.591300  1
  Li  Li13  1  0.522021  0.401432  0.908873  1
  Li  Li14  1  0.477979  0.098568  0.908873  1
  Li  Li15  1  0.022410  0.598829  0.591300  1
  Li  Li16  1  0.022377  0.098798  0.408715  1
  Li  Li17  1  0.476739  0.599946  0.090818  1
  Li  Li18  1  0.523261  0.900054  0.090818  1
  Li  Li19  1  0.977623  0.401202  0.408715  1
  Li  Li20  1  0.997539  0.501958  0.999972  1
  Li  Li21  1  0.500076  0.999990  0.500095  1
  Li  Li22  1  0.499924  0.500010  0.500095  1
  Li  Li23  1  0.002461  0.998042  0.999972  1
  Mn  Mn24  1  0.500000  0.250000  0.474088  1
  Mn  Mn25  1  0.000000  0.250000  0.974131  1
  Mn  Mn26  1  0.500000  0.750000  0.525913  1
  Fe  Fe27  1  0.000000  0.750000  0.027059  1
  P  P28  1  0.480714  0.635898  0.946033  1
  P  P29  1  0.017354  0.135014  0.554583  1
  P  P30  1  0.982646  0.364986  0.554583  1
  P  P31  1  0.519286  0.864102  0.946033  1
  P  P32  1  0.517358  0.365077  0.054595  1
  P  P33  1  0.982593  0.865012  0.445352  1
  P  P34  1  0.017407  0.634988  0.445352  1
  P  P35  1  0.482642  0.134923  0.054595  1
  P  P36  1  0.481618  0.865290  0.674874  1
  P  P37  1  0.018369  0.365286  0.825105  1
  P  P38  1  0.981631  0.134714  0.825105  1
  P  P39  1  0.518382  0.634710  0.674874  1
  P  P40  1  0.518314  0.134675  0.325059  1
  P  P41  1  0.980879  0.635324  0.174590  1
  P  P42  1  0.019121  0.864676  0.174590  1
  P  P43  1  0.481686  0.365325  0.325059  1
  O  O44  1  0.662182  0.640453  0.007581  1
  O  O45  1  0.839004  0.140280  0.492422  1
  O  O46  1  0.160996  0.359720  0.492422  1
  O  O47  1  0.337818  0.859547  0.007581  1
  O  O48  1  0.339089  0.359664  0.992462  1
  O  O49  1  0.160949  0.859773  0.507504  1
  O  O50  1  0.839051  0.640227  0.507504  1
  O  O51  1  0.660911  0.140336  0.992462  1
  O  O52  1  0.194362  0.626533  0.967229  1
  O  O53  1  0.303113  0.123602  0.533794  1
  O  O54  1  0.696887  0.376398  0.533794  1
  O  O55  1  0.805638  0.873467  0.967229  1
  O  O56  1  0.803214  0.376593  0.033908  1
  O  O57  1  0.696826  0.876395  0.466117  1
  O  O58  1  0.303174  0.623605  0.466117  1
  O  O59  1  0.196786  0.123407  0.033908  1
  O  O60  1  0.192892  0.886924  0.669226  1
  O  O61  1  0.307132  0.386831  0.830663  1
  O  O62  1  0.692868  0.113169  0.830663  1
  O  O63  1  0.807108  0.613076  0.669226  1
  O  O64  1  0.807056  0.112936  0.330644  1
  O  O65  1  0.692382  0.613486  0.169087  1
  O  O66  1  0.307618  0.886514  0.169087  1
  O  O67  1  0.192944  0.387064  0.330644  1
  O  O68  1  0.882382  0.852181  0.106384  1
  O  O69  1  0.619270  0.354734  0.393152  1
  O  O70  1  0.380730  0.145266  0.393152  1
  O  O71  1  0.117618  0.647819  0.106384  1
  O  O72  1  0.119406  0.145196  0.893164  1
  O  O73  1  0.380687  0.645253  0.606790  1
  O  O74  1  0.619313  0.854747  0.606790  1
  O  O75  1  0.880594  0.354804  0.893164  1
  O  O76  1  0.125597  0.061711  0.777110  1
  O  O77  1  0.374615  0.561799  0.722931  1
  O  O78  1  0.625385  0.938201  0.722931  1
  O  O79  1  0.874403  0.438289  0.777110  1
  O  O80  1  0.874291  0.938456  0.221823  1
  O  O81  1  0.625559  0.438267  0.277026  1
  O  O82  1  0.374441  0.061733  0.277026  1
  O  O83  1  0.125709  0.561544  0.221823  1
  O  O84  1  0.500000  0.750000  0.907722  1
  O  O85  1  0.000000  0.250000  0.592196  1
  O  O86  1  0.500000  0.250000  0.092279  1
  O  O87  1  0.000000  0.750000  0.407745  1
  O  O88  1  0.564728  0.556855  0.893830  1
  O  O89  1  0.928868  0.057101  0.606938  1
  O  O90  1  0.071132  0.442899  0.606938  1
  O  O91  1  0.435272  0.943145  0.893830  1
  O  O92  1  0.428563  0.443146  0.106872  1
  O  O93  1  0.070981  0.942820  0.392911  1
  O  O94  1  0.929019  0.557180  0.392911  1
  O  O95  1  0.571437  0.056854  0.106872  1
  O  O96  1  0.500000  0.750000  0.712026  1
  O  O97  1  0.000000  0.250000  0.787901  1
  O  O98  1  0.500000  0.250000  0.287915  1
  O  O99  1  0.000000  0.750000  0.212429  1
