# generated using pymatgen
data_Dy4Ga20PdPt10
_symmetry_space_group_name_H-M   'P 1'
_cell_length_a   4.17721431
_cell_length_b   11.00393448
_cell_length_c   13.72998500
_cell_angle_alpha   82.20227702
_cell_angle_beta   81.25019410
_cell_angle_gamma   79.05856884
_symmetry_Int_Tables_number   1
_chemical_formula_structural   Dy4Ga20PdPt10
_chemical_formula_sum   'Dy4 Ga20 Pd1 Pt10'
_cell_volume   608.70522374
_cell_formula_units_Z   1
loop_
 _symmetry_equiv_pos_site_id
 _symmetry_equiv_pos_as_xyz
  1  'x, y, z'
loop_
 _atom_site_type_symbol
 _atom_site_label
 _atom_site_symmetry_multiplicity
 _atom_site_fract_x
 _atom_site_fract_y
 _atom_site_fract_z
 _atom_site_occupancy
  Dy  Dy0  1  0.877101  0.910132  0.335664  1
  Dy  Dy1  1  0.122899  0.089868  0.664336  1
  Dy  Dy2  1  0.226786  0.368095  0.178333  1
  Dy  Dy3  1  0.773214  0.631905  0.821667  1
  Ga  Ga4  1  0.991243  0.929196  0.088317  1
  Ga  Ga5  1  0.008757  0.070804  0.911683  1
  Ga  Ga6  1  0.935171  0.324726  0.804931  1
  Ga  Ga7  1  0.064829  0.675274  0.195069  1
  Ga  Ga8  1  0.896943  0.660017  0.546095  1
  Ga  Ga9  1  0.103057  0.339983  0.453905  1
  Ga  Ga10  1  0.799200  0.393474  0.008127  1
  Ga  Ga11  1  0.200800  0.606526  0.991873  1
  Ga  Ga12  1  0.741848  0.217256  0.299049  1
  Ga  Ga13  1  0.258152  0.782744  0.700951  1
  Ga  Ga14  1  0.697538  0.099698  0.505223  1
  Ga  Ga15  1  0.302462  0.900302  0.494777  1
  Ga  Ga16  1  0.613457  0.473695  0.299394  1
  Ga  Ga17  1  0.386543  0.526305  0.700606  1
  Ga  Ga18  1  0.602895  0.794612  0.999597  1
  Ga  Ga19  1  0.397105  0.205388  0.000403  1
  Ga  Ga20  1  0.457117  0.715252  0.370512  1
  Ga  Ga21  1  0.542883  0.284748  0.629488  1
  Ga  Ga22  1  0.364320  0.064479  0.206882  1
  Ga  Ga23  1  0.635680  0.935521  0.793118  1
  Pd  Pd24  1  0.500000  0.500000  0.500000  1
  Pt  Pt25  1  0.972431  0.426227  0.628910  1
  Pt  Pt26  1  0.027569  0.573773  0.371090  1
  Pt  Pt27  1  0.861392  0.165115  0.112100  1
  Pt  Pt28  1  0.138608  0.834885  0.887900  1
  Pt  Pt29  1  0.758484  0.874133  0.608901  1
  Pt  Pt30  1  0.241516  0.125867  0.391099  1
  Pt  Pt31  1  0.656377  0.578617  0.108630  1
  Pt  Pt32  1  0.343623  0.421383  0.891370  1
  Pt  Pt33  1  0.493366  0.830032  0.183235  1
  Pt  Pt34  1  0.506634  0.169968  0.816765  1
