# generated using pymatgen
data_Nd8Cu2Si12PdPt
_symmetry_space_group_name_H-M   'P 1'
_cell_length_a   8.18632300
_cell_length_b   8.18632439
_cell_length_c   8.55259400
_cell_angle_alpha   90.00000000
_cell_angle_beta   90.00000000
_cell_angle_gamma   119.99999842
_symmetry_Int_Tables_number   1
_chemical_formula_structural   Nd8Cu2Si12PdPt
_chemical_formula_sum   'Nd8 Cu2 Si12 Pd1 Pt1'
_cell_volume   496.37090931
_cell_formula_units_Z   1
loop_
 _symmetry_equiv_pos_site_id
 _symmetry_equiv_pos_as_xyz
  1  'x, y, z'
loop_
 _atom_site_type_symbol
 _atom_site_label
 _atom_site_symmetry_multiplicity
 _atom_site_fract_x
 _atom_site_fract_y
 _atom_site_fract_z
 _atom_site_occupancy
  Nd  Nd0  1  0.500327  0.499673  0.749814  1
  Nd  Nd1  1  0.500872  0.499128  0.250207  1
  Nd  Nd2  1  0.999347  0.499673  0.749814  1
  Nd  Nd3  1  0.998255  0.499128  0.250207  1
  Nd  Nd4  1  0.500327  0.000653  0.749814  1
  Nd  Nd5  1  0.500872  0.001745  0.250207  1
  Nd  Nd6  1  0.000000  0.000000  0.748927  1
  Nd  Nd7  1  0.000000  0.000000  0.251000  1
  Cu  Cu8  1  0.333333  0.666667  0.498618  1
  Cu  Cu9  1  0.666667  0.333333  0.501082  1
  Si  Si10  1  0.834128  0.165872  0.999205  1
  Si  Si11  1  0.166105  0.833895  0.000687  1
  Si  Si12  1  0.331744  0.165872  0.999205  1
  Si  Si13  1  0.169005  0.830995  0.499619  1
  Si  Si14  1  0.667790  0.833895  0.000687  1
  Si  Si15  1  0.831013  0.168987  0.500415  1
  Si  Si16  1  0.834128  0.668256  0.999205  1
  Si  Si17  1  0.661990  0.830995  0.499619  1
  Si  Si18  1  0.166105  0.332210  0.000687  1
  Si  Si19  1  0.337973  0.168987  0.500415  1
  Si  Si20  1  0.169005  0.338010  0.499619  1
  Si  Si21  1  0.831013  0.662027  0.500415  1
  Pd  Pd22  1  0.333333  0.666667  0.000974  1
  Pt  Pt23  1  0.666667  0.333333  0.999556  1
