# generated using pymatgen
data_Yb2PrPt9
_symmetry_space_group_name_H-M   'P 1'
_cell_length_a   9.38845352
_cell_length_b   9.38845426
_cell_length_c   9.38845274
_cell_angle_alpha   33.55074869
_cell_angle_beta   33.55075130
_cell_angle_gamma   33.55074617
_symmetry_Int_Tables_number   1
_chemical_formula_structural   Yb2PrPt9
_chemical_formula_sum   'Yb2 Pr1 Pt9'
_cell_volume   225.14413806
_cell_formula_units_Z   1
loop_
 _symmetry_equiv_pos_site_id
 _symmetry_equiv_pos_as_xyz
  1  'x, y, z'
loop_
 _atom_site_type_symbol
 _atom_site_label
 _atom_site_symmetry_multiplicity
 _atom_site_fract_x
 _atom_site_fract_y
 _atom_site_fract_z
 _atom_site_occupancy
  Yb  Yb0  1  0.142130  0.142130  0.142130  1
  Yb  Yb1  1  0.857870  0.857870  0.857870  1
  Pr  Pr2  1  0.000000  0.000000  0.000000  1
  Pt  Pt3  1  0.586574  0.586574  0.082238  1
  Pt  Pt4  1  0.332603  0.332603  0.332603  1
  Pt  Pt5  1  0.917761  0.413426  0.413427  1
  Pt  Pt6  1  0.413426  0.917761  0.413427  1
  Pt  Pt7  1  0.500000  0.500000  0.500000  1
  Pt  Pt8  1  0.586574  0.082239  0.586573  1
  Pt  Pt9  1  0.082239  0.586574  0.586573  1
  Pt  Pt10  1  0.667397  0.667397  0.667397  1
  Pt  Pt11  1  0.413426  0.413426  0.917762  1
