# generated using pymatgen
data_Ca6ZnFe5(SbO6)4
_symmetry_space_group_name_H-M   'P 1'
_cell_length_a   11.09182127
_cell_length_b   11.09182030
_cell_length_c   11.09182016
_cell_angle_alpha   108.87098328
_cell_angle_beta   109.77217251
_cell_angle_gamma   109.77217334
_symmetry_Int_Tables_number   1
_chemical_formula_structural   Ca6ZnFe5(SbO6)4
_chemical_formula_sum   'Ca12 Zn2 Fe10 Sb8 O48'
_cell_volume   1050.39074226
_cell_formula_units_Z   2
loop_
 _symmetry_equiv_pos_site_id
 _symmetry_equiv_pos_as_xyz
  1  'x, y, z'
loop_
 _atom_site_type_symbol
 _atom_site_label
 _atom_site_symmetry_multiplicity
 _atom_site_fract_x
 _atom_site_fract_y
 _atom_site_fract_z
 _atom_site_occupancy
  Ca  Ca0  1  0.250000  0.376882  0.126882  1
  Ca  Ca1  1  0.750000  0.623118  0.873118  1
  Ca  Ca2  1  0.750000  0.126882  0.376882  1
  Ca  Ca3  1  0.124197  0.249845  0.375201  1
  Ca  Ca4  1  0.375803  0.751003  0.125648  1
  Ca  Ca5  1  0.250000  0.873118  0.623118  1
  Ca  Ca6  1  0.875803  0.750155  0.624799  1
  Ca  Ca7  1  0.624197  0.248997  0.874352  1
  Ca  Ca8  1  0.374645  0.125648  0.249845  1
  Ca  Ca9  1  0.625355  0.874352  0.750155  1
  Ca  Ca10  1  0.125355  0.375201  0.751003  1
  Ca  Ca11  1  0.874645  0.624799  0.248997  1
  Zn  Zn12  1  0.250000  0.625000  0.375000  1
  Zn  Zn13  1  0.750000  0.375000  0.625000  1
  Fe  Fe14  1  0.750000  0.875000  0.125000  1
  Fe  Fe15  1  0.375541  0.249336  0.624727  1
  Fe  Fe16  1  0.624459  0.750664  0.375273  1
  Fe  Fe17  1  0.250000  0.125000  0.875000  1
  Fe  Fe18  1  0.124459  0.749187  0.873795  1
  Fe  Fe19  1  0.875541  0.250813  0.126205  1
  Fe  Fe20  1  0.624609  0.375273  0.250813  1
  Fe  Fe21  1  0.375391  0.624727  0.749187  1
  Fe  Fe22  1  0.875391  0.126205  0.750664  1
  Fe  Fe23  1  0.124609  0.873795  0.249336  1
  Sb  Sb24  1  0.000000  0.000000  0.000000  1
  Sb  Sb25  1  0.500000  0.000000  0.500000  1
  Sb  Sb26  1  0.000000  0.500000  0.500000  1
  Sb  Sb27  1  0.500000  0.000000  0.000000  1
  Sb  Sb28  1  0.500000  0.500000  0.000000  1
  Sb  Sb29  1  0.500000  0.500000  0.500000  1
  Sb  Sb30  1  0.000000  0.000000  0.500000  1
  Sb  Sb31  1  0.000000  0.500000  0.000000  1
  O  O32  1  0.481459  0.381958  0.304874  1
  O  O33  1  0.518541  0.618042  0.695126  1
  O  O34  1  0.575493  0.177497  0.194625  1
  O  O35  1  0.924507  0.119133  0.602004  1
  O  O36  1  0.303380  0.471961  0.378469  1
  O  O37  1  0.322459  0.920235  0.301266  1
  O  O38  1  0.424507  0.822503  0.805375  1
  O  O39  1  0.075493  0.880867  0.397996  1
  O  O40  1  0.696620  0.528039  0.621531  1
  O  O41  1  0.677541  0.079765  0.698734  1
  O  O42  1  0.018541  0.323414  0.900498  1
  O  O43  1  0.196620  0.575089  0.168581  1
  O  O44  1  0.116775  0.019541  0.198444  1
  O  O45  1  0.981459  0.676586  0.099502  1
  O  O46  1  0.803380  0.424911  0.831419  1
  O  O47  1  0.883225  0.980459  0.801556  1
  O  O48  1  0.592542  0.927342  0.124815  1
  O  O49  1  0.177541  0.478806  0.597777  1
  O  O50  1  0.407458  0.072658  0.875185  1
  O  O51  1  0.822459  0.521194  0.402223  1
  O  O52  1  0.907458  0.032274  0.334800  1
  O  O53  1  0.383225  0.581669  0.902765  1
  O  O54  1  0.092542  0.967726  0.665200  1
  O  O55  1  0.616775  0.418331  0.097235  1
  O  O56  1  0.381030  0.301266  0.478806  1
  O  O57  1  0.577085  0.900498  0.381958  1
  O  O58  1  0.618970  0.698734  0.521194  1
  O  O59  1  0.422915  0.099502  0.618042  1
  O  O60  1  0.118970  0.597777  0.920235  1
  O  O61  1  0.017129  0.194625  0.119133  1
  O  O62  1  0.881030  0.402223  0.079765  1
  O  O63  1  0.982871  0.805375  0.880867  1
  O  O64  1  0.321096  0.902765  0.019541  1
  O  O65  1  0.922915  0.304874  0.323414  1
  O  O66  1  0.678904  0.097235  0.980459  1
  O  O67  1  0.077085  0.695126  0.676586  1
  O  O68  1  0.178904  0.198444  0.581669  1
  O  O69  1  0.482871  0.602004  0.177497  1
  O  O70  1  0.821096  0.801556  0.418331  1
  O  O71  1  0.517129  0.397996  0.822503  1
  O  O72  1  0.302527  0.334800  0.927342  1
  O  O73  1  0.697473  0.665200  0.072658  1
  O  O74  1  0.197473  0.124815  0.032274  1
  O  O75  1  0.802527  0.875185  0.967726  1
  O  O76  1  0.906507  0.378469  0.575089  1
  O  O77  1  0.093493  0.621531  0.424911  1
  O  O78  1  0.593493  0.168581  0.471961  1
  O  O79  1  0.406507  0.831419  0.528039  1
