# generated using pymatgen
data_Dy4CuSi8Au15
_symmetry_space_group_name_H-M   'P 1'
_cell_length_a   4.36547300
_cell_length_b   4.39371900
_cell_length_c   27.03803100
_cell_angle_alpha   90.00000000
_cell_angle_beta   90.00000000
_cell_angle_gamma   90.00000000
_symmetry_Int_Tables_number   1
_chemical_formula_structural   Dy4CuSi8Au15
_chemical_formula_sum   'Dy4 Cu1 Si8 Au15'
_cell_volume   518.60732467
_cell_formula_units_Z   1
loop_
 _symmetry_equiv_pos_site_id
 _symmetry_equiv_pos_as_xyz
  1  'x, y, z'
loop_
 _atom_site_type_symbol
 _atom_site_label
 _atom_site_symmetry_multiplicity
 _atom_site_fract_x
 _atom_site_fract_y
 _atom_site_fract_z
 _atom_site_occupancy
  Dy  Dy0  1  0.000000  0.500000  0.746457  1
  Dy  Dy1  1  0.500000  0.000000  0.250555  1
  Dy  Dy2  1  0.500000  0.500000  0.999549  1
  Dy  Dy3  1  0.500000  0.500000  0.502546  1
  Cu  Cu4  1  0.000000  0.000000  0.661531  1
  Si  Si5  1  0.000000  0.000000  0.956377  1
  Si  Si6  1  0.000000  0.000000  0.459348  1
  Si  Si7  1  0.500000  0.000000  0.790485  1
  Si  Si8  1  0.500000  0.000000  0.703526  1
  Si  Si9  1  0.000000  0.500000  0.207707  1
  Si  Si10  1  0.000000  0.500000  0.293644  1
  Si  Si11  1  0.000000  0.000000  0.042150  1
  Si  Si12  1  0.000000  0.000000  0.545412  1
  Au  Au13  1  0.500000  0.000000  0.085558  1
  Au  Au14  1  0.500000  0.500000  0.663053  1
  Au  Au15  1  0.500000  0.500000  0.833429  1
  Au  Au16  1  0.000000  0.500000  0.085093  1
  Au  Au17  1  0.500000  0.000000  0.913051  1
  Au  Au18  1  0.000000  0.500000  0.416369  1
  Au  Au19  1  0.500000  0.500000  0.337591  1
  Au  Au20  1  0.500000  0.000000  0.415710  1
  Au  Au21  1  0.000000  0.000000  0.336200  1
  Au  Au22  1  0.000000  0.000000  0.164995  1
  Au  Au23  1  0.500000  0.000000  0.588279  1
  Au  Au24  1  0.000000  0.000000  0.834273  1
  Au  Au25  1  0.500000  0.500000  0.163894  1
  Au  Au26  1  0.000000  0.500000  0.589639  1
  Au  Au27  1  0.000000  0.500000  0.913582  1
