# generated using pymatgen
data_LaNd3Ga4Pd3Rh
_symmetry_space_group_name_H-M   'P 1'
_cell_length_a   4.54399200
_cell_length_b   7.15582152
_cell_length_c   7.82360866
_cell_angle_alpha   89.57880195
_cell_angle_beta   90.00000000
_cell_angle_gamma   90.00000000
_symmetry_Int_Tables_number   1
_chemical_formula_structural   LaNd3Ga4Pd3Rh
_chemical_formula_sum   'La1 Nd3 Ga4 Pd3 Rh1'
_cell_volume   254.38555223
_cell_formula_units_Z   1
loop_
 _symmetry_equiv_pos_site_id
 _symmetry_equiv_pos_as_xyz
  1  'x, y, z'
loop_
 _atom_site_type_symbol
 _atom_site_label
 _atom_site_symmetry_multiplicity
 _atom_site_fract_x
 _atom_site_fract_y
 _atom_site_fract_z
 _atom_site_occupancy
  La  La0  1  0.250000  0.033593  0.685397  1
  Nd  Nd1  1  0.250000  0.528456  0.806862  1
  Nd  Nd2  1  0.750000  0.977583  0.302156  1
  Nd  Nd3  1  0.750000  0.472165  0.197712  1
  Ga  Ga4  1  0.250000  0.171287  0.078228  1
  Ga  Ga5  1  0.250000  0.657708  0.425973  1
  Ga  Ga6  1  0.750000  0.830911  0.927902  1
  Ga  Ga7  1  0.750000  0.334714  0.570115  1
  Pd  Pd8  1  0.250000  0.782940  0.102423  1
  Pd  Pd9  1  0.750000  0.716145  0.601209  1
  Pd  Pd10  1  0.750000  0.217357  0.899675  1
  Rh  Rh11  1  0.250000  0.277142  0.402351  1
