# generated using pymatgen
data_Tb13Lu3(InNi)4
_symmetry_space_group_name_H-M   'P 1'
_cell_length_a   9.59923039
_cell_length_b   9.62408543
_cell_length_c   9.61158243
_cell_angle_alpha   59.87203120
_cell_angle_beta   59.93316426
_cell_angle_gamma   59.99930952
_symmetry_Int_Tables_number   1
_chemical_formula_structural   Tb13Lu3(InNi)4
_chemical_formula_sum   'Tb13 Lu3 In4 Ni4'
_cell_volume   626.94915361
_cell_formula_units_Z   1
loop_
 _symmetry_equiv_pos_site_id
 _symmetry_equiv_pos_as_xyz
  1  'x, y, z'
loop_
 _atom_site_type_symbol
 _atom_site_label
 _atom_site_symmetry_multiplicity
 _atom_site_fract_x
 _atom_site_fract_y
 _atom_site_fract_z
 _atom_site_occupancy
  Tb  Tb0  1  0.652382  0.044140  0.653131  1
  Tb  Tb1  1  0.062179  0.063077  0.437961  1
  Tb  Tb2  1  0.437961  0.436783  0.062179  1
  Tb  Tb3  1  0.653131  0.650346  0.652382  1
  Tb  Tb4  1  0.812753  0.187791  0.184627  1
  Tb  Tb5  1  0.184627  0.814828  0.812753  1
  Tb  Tb6  1  0.044978  0.650621  0.653187  1
  Tb  Tb7  1  0.438527  0.063528  0.061565  1
  Tb  Tb8  1  0.437622  0.062378  0.437622  1
  Tb  Tb9  1  0.062569  0.437431  0.062569  1
  Tb  Tb10  1  0.653187  0.651215  0.044978  1
  Tb  Tb11  1  0.187311  0.812689  0.187311  1
  Tb  Tb12  1  0.061565  0.436381  0.438527  1
  Lu  Lu13  1  0.810954  0.813056  0.187231  1
  Lu  Lu14  1  0.812906  0.187094  0.812906  1
  Lu  Lu15  1  0.187231  0.188758  0.810954  1
  In  In16  1  0.418116  0.416732  0.418132  1
  In  In17  1  0.418676  0.417411  0.745630  1
  In  In18  1  0.418132  0.747019  0.418116  1
  In  In19  1  0.745630  0.418281  0.418676  1
  Ni  Ni20  1  0.860240  0.424553  0.855911  1
  Ni  Ni21  1  0.855911  0.859298  0.860240  1
  Ni  Ni22  1  0.857278  0.856490  0.426134  1
  Ni  Ni23  1  0.426134  0.860100  0.857278  1
