# generated using pymatgen
data_Hf6Zn14Cu9S
_symmetry_space_group_name_H-M   'P 1'
_cell_length_a   8.58002262
_cell_length_b   8.58013688
_cell_length_c   8.58015100
_cell_angle_alpha   59.95916645
_cell_angle_beta   59.96028345
_cell_angle_gamma   59.96018410
_symmetry_Int_Tables_number   1
_chemical_formula_structural   Hf6Zn14Cu9S
_chemical_formula_sum   'Hf6 Zn14 Cu9 S1'
_cell_volume   446.23870811
_cell_formula_units_Z   1
loop_
 _symmetry_equiv_pos_site_id
 _symmetry_equiv_pos_as_xyz
  1  'x, y, z'
loop_
 _atom_site_type_symbol
 _atom_site_label
 _atom_site_symmetry_multiplicity
 _atom_site_fract_x
 _atom_site_fract_y
 _atom_site_fract_z
 _atom_site_occupancy
  Hf  Hf0  1  0.711709  0.292547  0.292545  1
  Hf  Hf1  1  0.288291  0.707454  0.707453  1
  Hf  Hf2  1  0.292541  0.711730  0.292523  1
  Hf  Hf3  1  0.707459  0.288271  0.707476  1
  Hf  Hf4  1  0.292542  0.292525  0.711728  1
  Hf  Hf5  1  0.707459  0.707478  0.288269  1
  Zn  Zn6  1  0.118402  0.118389  0.641238  1
  Zn  Zn7  1  0.118403  0.641234  0.118389  1
  Zn  Zn8  1  0.881597  0.881609  0.358768  1
  Zn  Zn9  1  0.881600  0.358764  0.881610  1
  Zn  Zn10  1  0.641235  0.118399  0.118398  1
  Zn  Zn11  1  0.358762  0.881603  0.881602  1
  Zn  Zn12  1  0.334381  0.334390  0.334389  1
  Zn  Zn13  1  0.665619  0.665611  0.665610  1
  Zn  Zn14  1  0.330992  0.330982  0.003205  1
  Zn  Zn15  1  0.330990  0.003210  0.330980  1
  Zn  Zn16  1  0.669009  0.669020  0.996790  1
  Zn  Zn17  1  0.669009  0.996792  0.669019  1
  Zn  Zn18  1  0.003218  0.330987  0.330987  1
  Zn  Zn19  1  0.996783  0.669013  0.669013  1
  Cu  Cu20  1  0.119638  0.119648  0.119647  1
  Cu  Cu21  1  0.880364  0.880353  0.880353  1
  Cu  Cu22  1  0.499999  0.000001  0.000000  1
  Cu  Cu23  1  0.000001  0.499998  0.500001  1
  Cu  Cu24  1  0.000000  0.500001  0.000000  1
  Cu  Cu25  1  0.499999  0.999999  0.500001  1
  Cu  Cu26  1  0.000001  0.000000  0.500001  1
  Cu  Cu27  1  0.499999  0.500000  0.000000  1
  Cu  Cu28  1  0.999999  0.999995  0.000006  1
  S  S29  1  0.500001  0.500000  0.499997  1
