# generated using pymatgen
data_Ag4Ru3PtO14
_symmetry_space_group_name_H-M   'P 1'
_cell_length_a   7.19568359
_cell_length_b   7.19568225
_cell_length_c   7.19568273
_cell_angle_alpha   60.42616852
_cell_angle_beta   60.42617463
_cell_angle_gamma   60.42618117
_symmetry_Int_Tables_number   1
_chemical_formula_structural   Ag4Ru3PtO14
_chemical_formula_sum   'Ag4 Ru3 Pt1 O14'
_cell_volume   265.99038041
_cell_formula_units_Z   1
loop_
 _symmetry_equiv_pos_site_id
 _symmetry_equiv_pos_as_xyz
  1  'x, y, z'
loop_
 _atom_site_type_symbol
 _atom_site_label
 _atom_site_symmetry_multiplicity
 _atom_site_fract_x
 _atom_site_fract_y
 _atom_site_fract_z
 _atom_site_occupancy
  Ag  Ag0  1  0.125000  0.125000  0.125000  1
  Ag  Ag1  1  0.625000  0.125000  0.125000  1
  Ag  Ag2  1  0.125000  0.625000  0.125000  1
  Ag  Ag3  1  0.125000  0.125000  0.625000  1
  Ru  Ru4  1  0.625000  0.625000  0.125000  1
  Ru  Ru5  1  0.625000  0.125000  0.625000  1
  Ru  Ru6  1  0.125000  0.625000  0.625000  1
  Pt  Pt7  1  0.625000  0.625000  0.625000  1
  O  O8  1  0.697260  0.314289  0.314289  1
  O  O9  1  0.707242  0.288452  0.707242  1
  O  O10  1  0.001629  0.001629  0.001629  1
  O  O11  1  0.314289  0.697260  0.314289  1
  O  O12  1  0.707242  0.707242  0.288452  1
  O  O13  1  0.961548  0.542758  0.542758  1
  O  O14  1  0.288452  0.707242  0.707242  1
  O  O15  1  0.248371  0.248371  0.248371  1
  O  O16  1  0.935711  0.552740  0.935711  1
  O  O17  1  0.542758  0.961548  0.542758  1
  O  O18  1  0.542758  0.542758  0.961548  1
  O  O19  1  0.935711  0.935711  0.552740  1
  O  O20  1  0.552740  0.935711  0.935711  1
  O  O21  1  0.314289  0.314289  0.697260  1
