# generated using pymatgen
data_Np2VIr3
_symmetry_space_group_name_H-M   'P 1'
_cell_length_a   5.08927380
_cell_length_b   5.59234822
_cell_length_c   5.59234800
_cell_angle_alpha   60.00000131
_cell_angle_beta   56.67242894
_cell_angle_gamma   56.67242425
_symmetry_Int_Tables_number   1
_chemical_formula_structural   Np2VIr3
_chemical_formula_sum   'Np2 V1 Ir3'
_cell_volume   106.54848619
_cell_formula_units_Z   1
loop_
 _symmetry_equiv_pos_site_id
 _symmetry_equiv_pos_as_xyz
  1  'x, y, z'
loop_
 _atom_site_type_symbol
 _atom_site_label
 _atom_site_symmetry_multiplicity
 _atom_site_fract_x
 _atom_site_fract_y
 _atom_site_fract_z
 _atom_site_occupancy
  Np  Np0  1  0.981294  0.006235  0.006235  1
  Np  Np1  1  0.268706  0.243765  0.243765  1
  V  V2  1  0.125000  0.625000  0.625000  1
  Ir  Ir3  1  0.625000  0.625000  0.625000  1
  Ir  Ir4  1  0.625000  0.125000  0.625000  1
  Ir  Ir5  1  0.625000  0.625000  0.125000  1
