# generated using pymatgen
data_EuV(Sb4Pt)3
_symmetry_space_group_name_H-M   'P 1'
_cell_length_a   8.29322366
_cell_length_b   8.29322420
_cell_length_c   8.24124000
_cell_angle_alpha   109.34429309
_cell_angle_beta   109.34429439
_cell_angle_gamma   109.59785024
_symmetry_Int_Tables_number   1
_chemical_formula_structural   EuV(Sb4Pt)3
_chemical_formula_sum   'Eu1 V1 Sb12 Pt3'
_cell_volume   437.01400051
_cell_formula_units_Z   1
loop_
 _symmetry_equiv_pos_site_id
 _symmetry_equiv_pos_as_xyz
  1  'x, y, z'
loop_
 _atom_site_type_symbol
 _atom_site_label
 _atom_site_symmetry_multiplicity
 _atom_site_fract_x
 _atom_site_fract_y
 _atom_site_fract_z
 _atom_site_occupancy
  Eu  Eu0  1  0.000000  0.000000  0.000000  1
  V  V1  1  0.000000  0.000000  0.500000  1
  Sb  Sb2  1  0.331523  0.150874  0.494762  1
  Sb  Sb3  1  0.342231  0.845458  0.189404  1
  Sb  Sb4  1  0.657769  0.154542  0.810596  1
  Sb  Sb5  1  0.819350  0.668477  0.163241  1
  Sb  Sb6  1  0.154542  0.496773  0.343946  1
  Sb  Sb7  1  0.503227  0.657769  0.847172  1
  Sb  Sb8  1  0.849126  0.180650  0.343888  1
  Sb  Sb9  1  0.668477  0.849126  0.505238  1
  Sb  Sb10  1  0.180650  0.331523  0.836759  1
  Sb  Sb11  1  0.150874  0.819350  0.656112  1
  Sb  Sb12  1  0.496773  0.342231  0.152828  1
  Sb  Sb13  1  0.845458  0.503227  0.656054  1
  Pt  Pt14  1  0.500000  0.500000  0.500000  1
  Pt  Pt15  1  0.000000  0.500000  0.000000  1
  Pt  Pt16  1  0.500000  0.000000  0.000000  1
