# generated using pymatgen
data_Pr2Ho4Co17TcP12
_symmetry_space_group_name_H-M   'P 1'
_cell_length_a   3.72768200
_cell_length_b   10.57925700
_cell_length_c   12.28855600
_cell_angle_alpha   90.00000000
_cell_angle_beta   90.00000000
_cell_angle_gamma   90.00000000
_symmetry_Int_Tables_number   1
_chemical_formula_structural   Pr2Ho4Co17TcP12
_chemical_formula_sum   'Pr2 Ho4 Co17 Tc1 P12'
_cell_volume   484.61279568
_cell_formula_units_Z   1
loop_
 _symmetry_equiv_pos_site_id
 _symmetry_equiv_pos_as_xyz
  1  'x, y, z'
loop_
 _atom_site_type_symbol
 _atom_site_label
 _atom_site_symmetry_multiplicity
 _atom_site_fract_x
 _atom_site_fract_y
 _atom_site_fract_z
 _atom_site_occupancy
  Pr  Pr0  1  0.000000  0.500000  0.524678  1
  Pr  Pr1  1  0.500000  0.000000  0.477790  1
  Ho  Ho2  1  0.500000  0.817493  0.205148  1
  Ho  Ho3  1  0.500000  0.182507  0.205148  1
  Ho  Ho4  1  0.000000  0.682918  0.796392  1
  Ho  Ho5  1  0.000000  0.317082  0.796392  1
  Co  Co6  1  0.000000  0.000000  0.842760  1
  Co  Co7  1  0.500000  0.500000  0.706743  1
  Co  Co8  1  0.000000  0.000000  0.292372  1
  Co  Co9  1  0.000000  0.500000  0.987463  1
  Co  Co10  1  0.500000  0.000000  0.014119  1
  Co  Co11  1  0.500000  0.331874  0.991289  1
  Co  Co12  1  0.500000  0.668126  0.991289  1
  Co  Co13  1  0.000000  0.166634  0.005616  1
  Co  Co14  1  0.000000  0.833366  0.005616  1
  Co  Co15  1  0.500000  0.296190  0.428553  1
  Co  Co16  1  0.500000  0.703810  0.428553  1
  Co  Co17  1  0.000000  0.204161  0.570801  1
  Co  Co18  1  0.000000  0.795839  0.570801  1
  Co  Co19  1  0.500000  0.879480  0.712680  1
  Co  Co20  1  0.500000  0.120520  0.712680  1
  Co  Co21  1  0.000000  0.620443  0.288317  1
  Co  Co22  1  0.000000  0.379557  0.288317  1
  Tc  Tc23  1  0.500000  0.500000  0.154170  1
  P  P24  1  0.500000  0.500000  0.882769  1
  P  P25  1  0.000000  0.000000  0.115868  1
  P  P26  1  0.500000  0.500000  0.343844  1
  P  P27  1  0.000000  0.000000  0.661223  1
  P  P28  1  0.500000  0.306968  0.618805  1
  P  P29  1  0.500000  0.693032  0.618805  1
  P  P30  1  0.000000  0.192251  0.382041  1
  P  P31  1  0.000000  0.807749  0.382041  1
  P  P32  1  0.500000  0.848542  0.893362  1
  P  P33  1  0.500000  0.151458  0.893362  1
  P  P34  1  0.000000  0.655947  0.105095  1
  P  P35  1  0.000000  0.344053  0.105095  1
