# generated using pymatgen
data_Ac12Si13Au11
_symmetry_space_group_name_H-M   'P 1'
_cell_length_a   4.43949000
_cell_length_b   7.65529103
_cell_length_c   26.75914153
_cell_angle_alpha   90.01653814
_cell_angle_beta   90.00000000
_cell_angle_gamma   90.00000000
_symmetry_Int_Tables_number   1
_chemical_formula_structural   Ac12Si13Au11
_chemical_formula_sum   'Ac12 Si13 Au11'
_cell_volume   909.42512072
_cell_formula_units_Z   1
loop_
 _symmetry_equiv_pos_site_id
 _symmetry_equiv_pos_as_xyz
  1  'x, y, z'
loop_
 _atom_site_type_symbol
 _atom_site_label
 _atom_site_symmetry_multiplicity
 _atom_site_fract_x
 _atom_site_fract_y
 _atom_site_fract_z
 _atom_site_occupancy
  Ac  Ac0  1  0.250000  0.751529  0.332970  1
  Ac  Ac1  1  0.750000  0.243939  0.667957  1
  Ac  Ac2  1  0.750000  0.250346  0.166402  1
  Ac  Ac3  1  0.250000  0.748876  0.833632  1
  Ac  Ac4  1  0.250000  0.751391  0.166308  1
  Ac  Ac5  1  0.750000  0.248205  0.833840  1
  Ac  Ac6  1  0.750000  0.252045  0.332841  1
  Ac  Ac7  1  0.250000  0.752946  0.668026  1
  Ac  Ac8  1  0.250000  0.748768  0.000212  1
  Ac  Ac9  1  0.750000  0.249249  0.000154  1
  Ac  Ac10  1  0.750000  0.246729  0.499131  1
  Ac  Ac11  1  0.250000  0.755887  0.498201  1
  Si  Si12  1  0.250000  0.082835  0.082150  1
  Si  Si13  1  0.750000  0.915317  0.917163  1
  Si  Si14  1  0.750000  0.584558  0.416092  1
  Si  Si15  1  0.250000  0.410043  0.581945  1
  Si  Si16  1  0.250000  0.084786  0.249339  1
  Si  Si17  1  0.750000  0.913740  0.750452  1
  Si  Si18  1  0.750000  0.584760  0.249997  1
  Si  Si19  1  0.250000  0.415367  0.751474  1
  Si  Si20  1  0.250000  0.085472  0.415841  1
  Si  Si21  1  0.750000  0.921735  0.581943  1
  Si  Si22  1  0.750000  0.582821  0.083016  1
  Si  Si23  1  0.250000  0.416088  0.917858  1
  Si  Si24  1  0.250000  0.087107  0.585543  1
  Au  Au25  1  0.250000  0.418403  0.249342  1
  Au  Au26  1  0.750000  0.579753  0.749348  1
  Au  Au27  1  0.750000  0.917707  0.249714  1
  Au  Au28  1  0.250000  0.082355  0.750070  1
  Au  Au29  1  0.250000  0.418628  0.417592  1
  Au  Au30  1  0.750000  0.583371  0.584118  1
  Au  Au31  1  0.750000  0.916755  0.083477  1
  Au  Au32  1  0.250000  0.081898  0.916956  1
  Au  Au33  1  0.250000  0.416705  0.083500  1
  Au  Au34  1  0.750000  0.581690  0.916719  1
  Au  Au35  1  0.750000  0.918199  0.416681  1
