# generated using pymatgen
data_Nb12ReMo6Ru5
_symmetry_space_group_name_H-M   'P 1'
_cell_length_a   4.52272400
_cell_length_b   6.41327800
_cell_length_c   13.69627500
_cell_angle_alpha   90.00000000
_cell_angle_beta   90.00032772
_cell_angle_gamma   90.00000000
_symmetry_Int_Tables_number   1
_chemical_formula_structural   Nb12ReMo6Ru5
_chemical_formula_sum   'Nb12 Re1 Mo6 Ru5'
_cell_volume   397.26711727
_cell_formula_units_Z   1
loop_
 _symmetry_equiv_pos_site_id
 _symmetry_equiv_pos_as_xyz
  1  'x, y, z'
loop_
 _atom_site_type_symbol
 _atom_site_label
 _atom_site_symmetry_multiplicity
 _atom_site_fract_x
 _atom_site_fract_y
 _atom_site_fract_z
 _atom_site_occupancy
  Nb  Nb0  1  0.500000  0.248691  0.000000  1
  Nb  Nb1  1  0.500000  0.751308  0.000000  1
  Nb  Nb2  1  0.999980  0.249173  0.165850  1
  Nb  Nb3  1  0.999980  0.750826  0.165850  1
  Nb  Nb4  1  0.499975  0.249949  0.333158  1
  Nb  Nb5  1  0.499975  0.750050  0.333158  1
  Nb  Nb6  1  0.000000  0.249971  0.500000  1
  Nb  Nb7  1  0.000000  0.750030  0.500000  1
  Nb  Nb8  1  0.500023  0.249949  0.666842  1
  Nb  Nb9  1  0.500023  0.750050  0.666842  1
  Nb  Nb10  1  0.000020  0.249173  0.834150  1
  Nb  Nb11  1  0.000020  0.750826  0.834150  1
  Re  Re12  1  0.000000  0.000000  0.000000  1
  Mo  Mo13  1  0.000000  0.500000  0.000000  1
  Mo  Mo14  1  0.499987  0.000000  0.167828  1
  Mo  Mo15  1  0.999975  0.500000  0.333902  1
  Mo  Mo16  1  0.499999  0.000000  0.500000  1
  Mo  Mo17  1  0.000025  0.500000  0.666097  1
  Mo  Mo18  1  0.500014  0.000000  0.832172  1
  Ru  Ru19  1  0.500011  0.500000  0.167170  1
  Ru  Ru20  1  0.999977  0.000000  0.333576  1
  Ru  Ru21  1  0.499999  0.500000  0.500000  1
  Ru  Ru22  1  0.000023  0.000000  0.666424  1
  Ru  Ru23  1  0.499987  0.500000  0.832830  1
