# generated using pymatgen
data_Nd6ZnHgSb14
_symmetry_space_group_name_H-M   'P 1'
_cell_length_a   12.55529461
_cell_length_b   12.55529590
_cell_length_c   4.26161900
_cell_angle_alpha   80.25896022
_cell_angle_beta   80.25895922
_cell_angle_gamma   101.98928745
_symmetry_Int_Tables_number   1
_chemical_formula_structural   Nd6ZnHgSb14
_chemical_formula_sum   'Nd6 Zn1 Hg1 Sb14'
_cell_volume   632.93905799
_cell_formula_units_Z   1
loop_
 _symmetry_equiv_pos_site_id
 _symmetry_equiv_pos_as_xyz
  1  'x, y, z'
loop_
 _atom_site_type_symbol
 _atom_site_label
 _atom_site_symmetry_multiplicity
 _atom_site_fract_x
 _atom_site_fract_y
 _atom_site_fract_z
 _atom_site_occupancy
  Nd  Nd0  1  0.323812  0.676265  0.933084  1
  Nd  Nd1  1  0.676265  0.323812  0.933084  1
  Nd  Nd2  1  0.267463  0.001131  0.800355  1
  Nd  Nd3  1  0.721970  0.996774  0.073053  1
  Nd  Nd4  1  0.996774  0.721970  0.073053  1
  Nd  Nd5  1  0.001131  0.267463  0.800355  1
  Zn  Zn6  1  0.256800  0.256800  0.676560  1
  Hg  Hg7  1  0.422308  0.422308  0.012461  1
  Sb  Sb8  1  0.609291  0.609291  0.821065  1
  Sb  Sb9  1  0.469925  0.257618  0.568295  1
  Sb  Sb10  1  0.541042  0.752202  0.285735  1
  Sb  Sb11  1  0.752202  0.541042  0.285735  1
  Sb  Sb12  1  0.257618  0.469925  0.568295  1
  Sb  Sb13  1  0.507646  0.918276  0.719234  1
  Sb  Sb14  1  0.483105  0.084768  0.150421  1
  Sb  Sb15  1  0.084768  0.483105  0.150421  1
  Sb  Sb16  1  0.918276  0.507646  0.719234  1
  Sb  Sb17  1  0.143597  0.143597  0.291266  1
  Sb  Sb18  1  0.844507  0.844507  0.588804  1
  Sb  Sb19  1  0.197493  0.799008  0.435327  1
  Sb  Sb20  1  0.799008  0.197493  0.435327  1
  Sb  Sb21  1  0.985603  0.985603  0.946137  1
