# generated using pymatgen
data_HfSc3(CoIr)2
_symmetry_space_group_name_H-M   'P 1'
_cell_length_a   6.45391900
_cell_length_b   4.53448900
_cell_length_c   9.04871900
_cell_angle_alpha   90.00000000
_cell_angle_beta   89.99776066
_cell_angle_gamma   90.00000000
_symmetry_Int_Tables_number   1
_chemical_formula_structural   HfSc3(CoIr)2
_chemical_formula_sum   'Hf2 Sc6 Co4 Ir4'
_cell_volume   264.81279479
_cell_formula_units_Z   2
loop_
 _symmetry_equiv_pos_site_id
 _symmetry_equiv_pos_as_xyz
  1  'x, y, z'
loop_
 _atom_site_type_symbol
 _atom_site_label
 _atom_site_symmetry_multiplicity
 _atom_site_fract_x
 _atom_site_fract_y
 _atom_site_fract_z
 _atom_site_occupancy
  Hf  Hf0  1  0.500245  0.750001  0.124993  1
  Hf  Hf1  1  0.999728  0.750001  0.124999  1
  Sc  Sc2  1  0.500054  0.249999  0.378732  1
  Sc  Sc3  1  0.999926  0.249999  0.378730  1
  Sc  Sc4  1  0.000587  0.750001  0.625029  1
  Sc  Sc5  1  0.499433  0.750001  0.625032  1
  Sc  Sc6  1  0.999892  0.249999  0.871278  1
  Sc  Sc7  1  0.500137  0.249999  0.871282  1
  Co  Co8  1  0.749996  0.249999  0.124976  1
  Co  Co9  1  0.249997  0.750001  0.367978  1
  Co  Co10  1  0.750008  0.249999  0.624985  1
  Co  Co11  1  0.250005  0.750001  0.881992  1
  Ir  Ir12  1  0.250004  0.249999  0.125091  1
  Ir  Ir13  1  0.749996  0.750001  0.370296  1
  Ir  Ir14  1  0.250001  0.249999  0.624900  1
  Ir  Ir15  1  0.749993  0.750001  0.879707  1
