# generated using pymatgen
data_Hf6Al16Ni6Ir
_symmetry_space_group_name_H-M   'P 1'
_cell_length_a   8.52541416
_cell_length_b   8.52514091
_cell_length_c   8.52535600
_cell_angle_alpha   60.00140886
_cell_angle_beta   59.99900207
_cell_angle_gamma   59.99997421
_symmetry_Int_Tables_number   1
_chemical_formula_structural   Hf6Al16Ni6Ir
_chemical_formula_sum   'Hf6 Al16 Ni6 Ir1'
_cell_volume   438.14296382
_cell_formula_units_Z   1
loop_
 _symmetry_equiv_pos_site_id
 _symmetry_equiv_pos_as_xyz
  1  'x, y, z'
loop_
 _atom_site_type_symbol
 _atom_site_label
 _atom_site_symmetry_multiplicity
 _atom_site_fract_x
 _atom_site_fract_y
 _atom_site_fract_z
 _atom_site_occupancy
  Hf  Hf0  1  0.687938  0.687932  0.312060  1
  Hf  Hf1  1  0.312064  0.687938  0.312058  1
  Hf  Hf2  1  0.687933  0.312074  0.312063  1
  Hf  Hf3  1  0.312062  0.312068  0.687940  1
  Hf  Hf4  1  0.687936  0.312062  0.687942  1
  Hf  Hf5  1  0.312067  0.687926  0.687937  1
  Al  Al6  1  0.879100  0.879097  0.362705  1
  Al  Al7  1  0.879097  0.362707  0.879094  1
  Al  Al8  1  0.362706  0.879099  0.879099  1
  Al  Al9  1  0.879095  0.879103  0.879096  1
  Al  Al10  1  0.120900  0.120903  0.637295  1
  Al  Al11  1  0.120903  0.637293  0.120906  1
  Al  Al12  1  0.637294  0.120901  0.120901  1
  Al  Al13  1  0.120905  0.120897  0.120904  1
  Al  Al14  1  0.665117  0.665148  0.004602  1
  Al  Al15  1  0.665134  0.004605  0.665134  1
  Al  Al16  1  0.004604  0.665141  0.665111  1
  Al  Al17  1  0.665140  0.665131  0.665123  1
  Al  Al18  1  0.334883  0.334852  0.995398  1
  Al  Al19  1  0.334866  0.995395  0.334866  1
  Al  Al20  1  0.995396  0.334859  0.334889  1
  Al  Al21  1  0.334860  0.334869  0.334877  1
  Ni  Ni22  1  0.000000  0.000000  0.500000  1
  Ni  Ni23  1  0.500000  0.000000  0.500000  1
  Ni  Ni24  1  0.000000  0.500000  0.500000  1
  Ni  Ni25  1  0.500000  0.500000  0.000000  1
  Ni  Ni26  1  0.000000  0.500000  0.000000  1
  Ni  Ni27  1  0.500000  0.000000  0.000000  1
  Ir  Ir28  1  0.000000  0.000000  0.000000  1
