# generated using pymatgen
data_Li4Tb3DySi8
_symmetry_space_group_name_H-M   'P 1'
_cell_length_a   3.80790600
_cell_length_b   7.59397204
_cell_length_c   10.21786660
_cell_angle_alpha   89.98746173
_cell_angle_beta   90.00000000
_cell_angle_gamma   90.00000000
_symmetry_Int_Tables_number   1
_chemical_formula_structural   Li4Tb3DySi8
_chemical_formula_sum   'Li4 Tb3 Dy1 Si8'
_cell_volume   295.47138709
_cell_formula_units_Z   1
loop_
 _symmetry_equiv_pos_site_id
 _symmetry_equiv_pos_as_xyz
  1  'x, y, z'
loop_
 _atom_site_type_symbol
 _atom_site_label
 _atom_site_symmetry_multiplicity
 _atom_site_fract_x
 _atom_site_fract_y
 _atom_site_fract_z
 _atom_site_occupancy
  Li  Li0  1  0.250000  0.989021  0.391846  1
  Li  Li1  1  0.250000  0.490630  0.108229  1
  Li  Li2  1  0.750000  0.009916  0.607908  1
  Li  Li3  1  0.750000  0.509467  0.891528  1
  Tb  Tb4  1  0.250000  0.140190  0.864329  1
  Tb  Tb5  1  0.250000  0.639432  0.635709  1
  Tb  Tb6  1  0.750000  0.860601  0.136147  1
  Dy  Dy7  1  0.750000  0.360701  0.364179  1
  Si  Si8  1  0.250000  0.232305  0.567706  1
  Si  Si9  1  0.250000  0.731984  0.931375  1
  Si  Si10  1  0.750000  0.767259  0.431391  1
  Si  Si11  1  0.750000  0.268783  0.069406  1
  Si  Si12  1  0.250000  0.656163  0.320522  1
  Si  Si13  1  0.250000  0.157507  0.180323  1
  Si  Si14  1  0.750000  0.342871  0.678882  1
  Si  Si15  1  0.750000  0.843168  0.820519  1
