# generated using pymatgen
data_Ca8Tc7O20
_symmetry_space_group_name_H-M   'P 1'
_cell_length_a   8.52131477
_cell_length_b   8.52131499
_cell_length_c   8.52131508
_cell_angle_alpha   119.82661177
_cell_angle_beta   119.82661363
_cell_angle_gamma   90.30057758
_symmetry_Int_Tables_number   1
_chemical_formula_structural   Ca8Tc7O20
_chemical_formula_sum   'Ca8 Tc7 O20'
_cell_volume   438.66710979
_cell_formula_units_Z   1
loop_
 _symmetry_equiv_pos_site_id
 _symmetry_equiv_pos_as_xyz
  1  'x, y, z'
loop_
 _atom_site_type_symbol
 _atom_site_label
 _atom_site_symmetry_multiplicity
 _atom_site_fract_x
 _atom_site_fract_y
 _atom_site_fract_z
 _atom_site_occupancy
  Ca  Ca0  1  0.551722  0.918732  0.772522  1
  Ca  Ca1  1  0.448278  0.081268  0.227478  1
  Ca  Ca2  1  0.146209  0.779199  0.227478  1
  Ca  Ca3  1  0.779199  0.551722  0.632990  1
  Ca  Ca4  1  0.853791  0.220801  0.772522  1
  Ca  Ca5  1  0.220801  0.448278  0.367010  1
  Ca  Ca6  1  0.918732  0.146209  0.367010  1
  Ca  Ca7  1  0.081268  0.853791  0.632990  1
  Tc  Tc8  1  0.689739  0.371764  0.061502  1
  Tc  Tc9  1  0.310261  0.628236  0.938498  1
  Tc  Tc10  1  0.628236  0.689739  0.317975  1
  Tc  Tc11  1  0.371764  0.310261  0.682025  1
  Tc  Tc12  1  0.660309  0.660309  0.000000  1
  Tc  Tc13  1  0.339691  0.339691  0.000000  1
  Tc  Tc14  1  0.000000  0.000000  0.000000  1
  O  O15  1  0.558617  0.170585  0.729202  1
  O  O16  1  0.441383  0.829415  0.270798  1
  O  O17  1  0.829415  0.558617  0.388032  1
  O  O18  1  0.170585  0.441383  0.611968  1
  O  O19  1  0.484107  0.813878  0.961578  1
  O  O20  1  0.515893  0.186122  0.038422  1
  O  O21  1  0.852300  0.522529  0.038422  1
  O  O22  1  0.522529  0.484107  0.670229  1
  O  O23  1  0.147700  0.477471  0.961578  1
  O  O24  1  0.477471  0.515893  0.329771  1
  O  O25  1  0.813878  0.852300  0.329771  1
  O  O26  1  0.186122  0.147700  0.670229  1
  O  O27  1  0.250000  0.750000  0.500000  1
  O  O28  1  0.750000  0.250000  0.500000  1
  O  O29  1  0.885023  0.213695  0.098717  1
  O  O30  1  0.114977  0.786305  0.901283  1
  O  O31  1  0.786305  0.885023  0.671328  1
  O  O32  1  0.213695  0.114977  0.328672  1
  O  O33  1  0.833761  0.833761  0.000000  1
  O  O34  1  0.166239  0.166239  0.000000  1
