# generated using pymatgen
data_TbHo2Co(P3Rh4)2
_symmetry_space_group_name_H-M   'P 1'
_cell_length_a   3.86091500
_cell_length_b   11.12989100
_cell_length_c   12.77690300
_cell_angle_alpha   90.00000000
_cell_angle_beta   90.00000000
_cell_angle_gamma   90.00000000
_symmetry_Int_Tables_number   1
_chemical_formula_structural   TbHo2Co(P3Rh4)2
_chemical_formula_sum   'Tb2 Ho4 Co2 P12 Rh16'
_cell_volume   549.04349362
_cell_formula_units_Z   2
loop_
 _symmetry_equiv_pos_site_id
 _symmetry_equiv_pos_as_xyz
  1  'x, y, z'
loop_
 _atom_site_type_symbol
 _atom_site_label
 _atom_site_symmetry_multiplicity
 _atom_site_fract_x
 _atom_site_fract_y
 _atom_site_fract_z
 _atom_site_occupancy
  Tb  Tb0  1  0.000000  0.500000  0.521542  1
  Tb  Tb1  1  0.500000  0.000000  0.478458  1
  Ho  Ho2  1  0.500000  0.815543  0.202075  1
  Ho  Ho3  1  0.500000  0.184457  0.202075  1
  Ho  Ho4  1  0.000000  0.684457  0.797925  1
  Ho  Ho5  1  0.000000  0.315543  0.797925  1
  Co  Co6  1  0.000000  0.500000  0.980329  1
  Co  Co7  1  0.500000  0.000000  0.019671  1
  P  P8  1  0.500000  0.500000  0.881768  1
  P  P9  1  0.000000  0.000000  0.118232  1
  P  P10  1  0.500000  0.500000  0.350701  1
  P  P11  1  0.000000  0.000000  0.649299  1
  P  P12  1  0.500000  0.315647  0.619501  1
  P  P13  1  0.500000  0.684353  0.619501  1
  P  P14  1  0.000000  0.184353  0.380499  1
  P  P15  1  0.000000  0.815647  0.380499  1
  P  P16  1  0.500000  0.852723  0.895624  1
  P  P17  1  0.500000  0.147277  0.895624  1
  P  P18  1  0.000000  0.647277  0.104376  1
  P  P19  1  0.000000  0.352723  0.104376  1
  Rh  Rh20  1  0.500000  0.500000  0.167668  1
  Rh  Rh21  1  0.000000  0.000000  0.832332  1
  Rh  Rh22  1  0.500000  0.500000  0.703783  1
  Rh  Rh23  1  0.000000  0.000000  0.296217  1
  Rh  Rh24  1  0.500000  0.336567  0.993893  1
  Rh  Rh25  1  0.500000  0.663433  0.993893  1
  Rh  Rh26  1  0.000000  0.163433  0.006107  1
  Rh  Rh27  1  0.000000  0.836567  0.006107  1
  Rh  Rh28  1  0.500000  0.293916  0.430077  1
  Rh  Rh29  1  0.500000  0.706084  0.430077  1
  Rh  Rh30  1  0.000000  0.206084  0.569923  1
  Rh  Rh31  1  0.000000  0.793916  0.569923  1
  Rh  Rh32  1  0.500000  0.873250  0.712401  1
  Rh  Rh33  1  0.500000  0.126750  0.712401  1
  Rh  Rh34  1  0.000000  0.626750  0.287599  1
  Rh  Rh35  1  0.000000  0.373250  0.287599  1
