# generated using pymatgen
data_Dy8Y7Er(InRh)4
_symmetry_space_group_name_H-M   'P 1'
_cell_length_a   9.69662365
_cell_length_b   9.67249636
_cell_length_c   9.69710331
_cell_angle_alpha   59.86687588
_cell_angle_beta   59.81528547
_cell_angle_gamma   59.87510705
_symmetry_Int_Tables_number   1
_chemical_formula_structural   Dy8Y7Er(InRh)4
_chemical_formula_sum   'Dy8 Y7 Er1 In4 Rh4'
_cell_volume   640.95708204
_cell_formula_units_Z   1
loop_
 _symmetry_equiv_pos_site_id
 _symmetry_equiv_pos_as_xyz
  1  'x, y, z'
loop_
 _atom_site_type_symbol
 _atom_site_label
 _atom_site_symmetry_multiplicity
 _atom_site_fract_x
 _atom_site_fract_y
 _atom_site_fract_z
 _atom_site_occupancy
  Dy  Dy0  1  0.812117  0.189389  0.188573  1
  Dy  Dy1  1  0.810967  0.810345  0.190650  1
  Dy  Dy2  1  0.648260  0.647985  0.051539  1
  Dy  Dy3  1  0.651780  0.652189  0.650708  1
  Dy  Dy4  1  0.060941  0.440122  0.437161  1
  Dy  Dy5  1  0.048978  0.649273  0.648476  1
  Dy  Dy6  1  0.810468  0.191085  0.810376  1
  Dy  Dy7  1  0.438570  0.439879  0.060435  1
  Y  Y8  1  0.189816  0.189075  0.811521  1
  Y  Y9  1  0.437914  0.060798  0.061353  1
  Y  Y10  1  0.437725  0.062817  0.436002  1
  Y  Y11  1  0.060719  0.438733  0.061101  1
  Y  Y12  1  0.648763  0.050350  0.647742  1
  Y  Y13  1  0.191803  0.809863  0.810353  1
  Y  Y14  1  0.061693  0.061483  0.436599  1
  Er  Er15  1  0.190368  0.810944  0.188873  1
  In  In16  1  0.416587  0.749200  0.418317  1
  In  In17  1  0.416792  0.417363  0.749048  1
  In  In18  1  0.748468  0.417037  0.418041  1
  In  In19  1  0.416422  0.416222  0.417903  1
  Rh  Rh20  1  0.855276  0.428283  0.858633  1
  Rh  Rh21  1  0.861106  0.856277  0.424459  1
  Rh  Rh22  1  0.427897  0.854090  0.862176  1
  Rh  Rh23  1  0.856571  0.857197  0.859962  1
