# generated using pymatgen
data_Th2Cr2Co10As7
_symmetry_space_group_name_H-M   'P 1'
_cell_length_a   9.44596382
_cell_length_b   9.43044566
_cell_length_c   3.83165500
_cell_angle_alpha   90.00000000
_cell_angle_beta   90.00000000
_cell_angle_gamma   119.91555051
_symmetry_Int_Tables_number   1
_chemical_formula_structural   Th2Cr2Co10As7
_chemical_formula_sum   'Th2 Cr2 Co10 As7'
_cell_volume   295.84515900
_cell_formula_units_Z   1
loop_
 _symmetry_equiv_pos_site_id
 _symmetry_equiv_pos_as_xyz
  1  'x, y, z'
loop_
 _atom_site_type_symbol
 _atom_site_label
 _atom_site_symmetry_multiplicity
 _atom_site_fract_x
 _atom_site_fract_y
 _atom_site_fract_z
 _atom_site_occupancy
  Th  Th0  1  0.332366  0.662815  0.000000  1
  Th  Th1  1  0.998561  0.999986  0.500000  1
  Cr  Cr2  1  0.776422  0.547346  0.500000  1
  Cr  Cr3  1  0.447668  0.221032  0.500000  1
  Co  Co4  1  0.036044  0.271468  0.000000  1
  Co  Co5  1  0.731052  0.769311  0.000000  1
  Co  Co6  1  0.234001  0.965425  0.000000  1
  Co  Co7  1  0.538844  0.052599  0.000000  1
  Co  Co8  1  0.943477  0.484176  0.000000  1
  Co  Co9  1  0.513177  0.457500  0.000000  1
  Co  Co10  1  0.612644  0.900372  0.500000  1
  Co  Co11  1  0.101260  0.714446  0.500000  1
  Co  Co12  1  0.286982  0.388222  0.500000  1
  Co  Co13  1  0.783703  0.233973  0.500000  1
  As  As14  1  0.772136  0.038078  0.000000  1
  As  As15  1  0.965895  0.738693  0.000000  1
  As  As16  1  0.260521  0.227934  0.000000  1
  As  As17  1  0.372777  0.929695  0.500000  1
  As  As18  1  0.063536  0.439076  0.500000  1
  As  As19  1  0.562479  0.627713  0.500000  1
  As  As20  1  0.666454  0.330139  0.000000  1
