# generated using pymatgen
data_Lu8CdInNi2
_symmetry_space_group_name_H-M   'P 1'
_cell_length_a   9.36197296
_cell_length_b   9.36184640
_cell_length_c   9.35928400
_cell_angle_alpha   60.00897591
_cell_angle_beta   60.00657709
_cell_angle_gamma   60.07276794
_symmetry_Int_Tables_number   1
_chemical_formula_structural   Lu8CdInNi2
_chemical_formula_sum   'Lu16 Cd2 In2 Ni4'
_cell_volume   580.42469730
_cell_formula_units_Z   2
loop_
 _symmetry_equiv_pos_site_id
 _symmetry_equiv_pos_as_xyz
  1  'x, y, z'
loop_
 _atom_site_type_symbol
 _atom_site_label
 _atom_site_symmetry_multiplicity
 _atom_site_fract_x
 _atom_site_fract_y
 _atom_site_fract_z
 _atom_site_occupancy
  Lu  Lu0  1  0.348039  0.348034  0.347303  1
  Lu  Lu1  1  0.348053  0.348045  0.956618  1
  Lu  Lu2  1  0.348720  0.955793  0.347760  1
  Lu  Lu3  1  0.955787  0.348717  0.347762  1
  Lu  Lu4  1  0.812071  0.187404  0.187879  1
  Lu  Lu5  1  0.187392  0.812104  0.812633  1
  Lu  Lu6  1  0.187403  0.812087  0.187871  1
  Lu  Lu7  1  0.812103  0.187397  0.812634  1
  Lu  Lu8  1  0.186541  0.186541  0.813431  1
  Lu  Lu9  1  0.811356  0.811368  0.188639  1
  Lu  Lu10  1  0.938044  0.564291  0.562521  1
  Lu  Lu11  1  0.564278  0.938050  0.935145  1
  Lu  Lu12  1  0.564303  0.938031  0.562513  1
  Lu  Lu13  1  0.938043  0.564286  0.935154  1
  Lu  Lu14  1  0.563627  0.563642  0.936367  1
  Lu  Lu15  1  0.936893  0.936875  0.563114  1
  Cd  Cd16  1  0.581301  0.252677  0.583004  1
  Cd  Cd17  1  0.252675  0.581314  0.582996  1
  In  In18  1  0.581787  0.581800  0.583764  1
  In  In19  1  0.581790  0.581788  0.252643  1
  Ni  Ni20  1  0.142339  0.142348  0.142823  1
  Ni  Ni21  1  0.142353  0.142334  0.572502  1
  Ni  Ni22  1  0.142174  0.572914  0.142465  1
  Ni  Ni23  1  0.572930  0.142159  0.142459  1
