# generated using pymatgen
data_Sc8Ti4V3Si16W5
_symmetry_space_group_name_H-M   'P 1'
_cell_length_a   6.74552235
_cell_length_b   6.74877451
_cell_length_c   12.44919403
_cell_angle_alpha   90.03485427
_cell_angle_beta   89.96492894
_cell_angle_gamma   89.97203771
_symmetry_Int_Tables_number   1
_chemical_formula_structural   Sc8Ti4V3Si16W5
_chemical_formula_sum   'Sc8 Ti4 V3 Si16 W5'
_cell_volume   566.73694655
_cell_formula_units_Z   1
loop_
 _symmetry_equiv_pos_site_id
 _symmetry_equiv_pos_as_xyz
  1  'x, y, z'
loop_
 _atom_site_type_symbol
 _atom_site_label
 _atom_site_symmetry_multiplicity
 _atom_site_fract_x
 _atom_site_fract_y
 _atom_site_fract_z
 _atom_site_occupancy
  Sc  Sc0  1  0.002888  0.662038  0.029759  1
  Sc  Sc1  1  0.838041  0.501980  0.280407  1
  Sc  Sc2  1  0.162332  0.496729  0.779816  1
  Sc  Sc3  1  0.503824  0.838185  0.719570  1
  Sc  Sc4  1  0.496872  0.162055  0.219611  1
  Sc  Sc5  1  0.996963  0.337545  0.530159  1
  Sc  Sc6  1  0.663983  0.002723  0.970234  1
  Sc  Sc7  1  0.337431  0.996609  0.470649  1
  Ti  Ti8  1  0.345182  0.506391  0.377375  1
  Ti  Ti9  1  0.654918  0.493643  0.875961  1
  Ti  Ti10  1  0.506976  0.344509  0.623054  1
  Ti  Ti11  1  0.492606  0.656000  0.123341  1
  V  V12  1  0.993981  0.846204  0.626810  1
  V  V13  1  0.153151  0.006205  0.873603  1
  V  V14  1  0.846306  0.994377  0.372671  1
  Si  Si15  1  0.297884  0.960025  0.062464  1
  Si  Si16  1  0.545160  0.800086  0.316151  1
  Si  Si17  1  0.453891  0.200079  0.815127  1
  Si  Si18  1  0.799962  0.545951  0.684599  1
  Si  Si19  1  0.202800  0.457030  0.186087  1
  Si  Si20  1  0.706792  0.037660  0.563171  1
  Si  Si21  1  0.961052  0.296229  0.934112  1
  Si  Si22  1  0.037889  0.706973  0.436922  1
  Si  Si23  1  0.706415  0.368894  0.071398  1
  Si  Si24  1  0.129410  0.203924  0.323223  1
  Si  Si25  1  0.872470  0.797025  0.820236  1
  Si  Si26  1  0.202793  0.127635  0.679499  1
  Si  Si27  1  0.794452  0.865925  0.180142  1
  Si  Si28  1  0.289580  0.634536  0.572931  1
  Si  Si29  1  0.365364  0.709848  0.926546  1
  Si  Si30  1  0.634862  0.289701  0.427479  1
  W  W31  1  0.329804  0.330350  0.999612  1
  W  W32  1  0.168212  0.831732  0.250624  1
  W  W33  1  0.832131  0.167339  0.749596  1
  W  W34  1  0.670114  0.669814  0.500244  1
  W  W35  1  0.003509  0.154052  0.126815  1
