# generated using pymatgen
data_Ce3PuFe4(Co4P3)4
_symmetry_space_group_name_H-M   'P 1'
_cell_length_a   3.69671600
_cell_length_b   10.34309686
_cell_length_c   11.78972600
_cell_angle_alpha   90.02315108
_cell_angle_beta   90.00000000
_cell_angle_gamma   90.00000000
_symmetry_Int_Tables_number   1
_chemical_formula_structural   Ce3PuFe4(Co4P3)4
_chemical_formula_sum   'Ce3 Pu1 Fe4 Co16 P12'
_cell_volume   450.78593337
_cell_formula_units_Z   1
loop_
 _symmetry_equiv_pos_site_id
 _symmetry_equiv_pos_as_xyz
  1  'x, y, z'
loop_
 _atom_site_type_symbol
 _atom_site_label
 _atom_site_symmetry_multiplicity
 _atom_site_fract_x
 _atom_site_fract_y
 _atom_site_fract_z
 _atom_site_occupancy
  Ce  Ce0  1  0.250000  0.918612  0.201660  1
  Ce  Ce1  1  0.750000  0.419068  0.297537  1
  Ce  Ce2  1  0.750000  0.080975  0.799199  1
  Pu  Pu3  1  0.250000  0.582546  0.700036  1
  Fe  Fe4  1  0.250000  0.707143  0.987723  1
  Fe  Fe5  1  0.250000  0.792353  0.488125  1
  Fe  Fe6  1  0.750000  0.292251  0.013243  1
  Fe  Fe7  1  0.750000  0.208683  0.513938  1
  Co  Co8  1  0.250000  0.405950  0.484471  1
  Co  Co9  1  0.250000  0.094598  0.985031  1
  Co  Co10  1  0.750000  0.594251  0.512487  1
  Co  Co11  1  0.750000  0.906883  0.016247  1
  Co  Co12  1  0.250000  0.221153  0.175865  1
  Co  Co13  1  0.250000  0.279203  0.674995  1
  Co  Co14  1  0.750000  0.780541  0.826169  1
  Co  Co15  1  0.750000  0.721414  0.323682  1
  Co  Co16  1  0.250000  0.883304  0.699296  1
  Co  Co17  1  0.250000  0.616203  0.197677  1
  Co  Co18  1  0.750000  0.117042  0.302490  1
  Co  Co19  1  0.750000  0.380164  0.801658  1
  Co  Co20  1  0.250000  0.468432  0.931947  1
  Co  Co21  1  0.250000  0.032033  0.433720  1
  Co  Co22  1  0.750000  0.532580  0.065099  1
  Co  Co23  1  0.750000  0.966095  0.567991  1
  P  P24  1  0.250000  0.418497  0.110593  1
  P  P25  1  0.250000  0.080912  0.612646  1
  P  P26  1  0.750000  0.580281  0.883193  1
  P  P27  1  0.750000  0.918366  0.388609  1
  P  P28  1  0.250000  0.274635  0.866650  1
  P  P29  1  0.250000  0.225837  0.367581  1
  P  P30  1  0.750000  0.725555  0.132347  1
  P  P31  1  0.750000  0.770505  0.635129  1
  P  P32  1  0.250000  0.606905  0.393338  1
  P  P33  1  0.250000  0.893007  0.894472  1
  P  P34  1  0.750000  0.397209  0.608052  1
  P  P35  1  0.750000  0.106817  0.107103  1
