# generated using pymatgen
data_Er5Lu7Ni4
_symmetry_space_group_name_H-M   'P 1'
_cell_length_a   6.21684386
_cell_length_b   6.69418756
_cell_length_c   9.39391692
_cell_angle_alpha   89.97638979
_cell_angle_beta   89.89781552
_cell_angle_gamma   90.04017346
_symmetry_Int_Tables_number   1
_chemical_formula_structural   Er5Lu7Ni4
_chemical_formula_sum   'Er5 Lu7 Ni4'
_cell_volume   390.94324784
_cell_formula_units_Z   1
loop_
 _symmetry_equiv_pos_site_id
 _symmetry_equiv_pos_as_xyz
  1  'x, y, z'
loop_
 _atom_site_type_symbol
 _atom_site_label
 _atom_site_symmetry_multiplicity
 _atom_site_fract_x
 _atom_site_fract_y
 _atom_site_fract_z
 _atom_site_occupancy
  Er  Er0  1  0.180999  0.178172  0.065102  1
  Er  Er1  1  0.864352  0.530032  0.249883  1
  Er  Er2  1  0.635816  0.029747  0.250693  1
  Er  Er3  1  0.134577  0.470726  0.749788  1
  Er  Er4  1  0.364945  0.969769  0.749259  1
  Lu  Lu5  1  0.319923  0.678508  0.065153  1
  Lu  Lu6  1  0.180742  0.178438  0.435321  1
  Lu  Lu7  1  0.680662  0.322061  0.565263  1
  Lu  Lu8  1  0.818340  0.821436  0.933925  1
  Lu  Lu9  1  0.680179  0.321578  0.933585  1
  Lu  Lu10  1  0.819289  0.821608  0.565281  1
  Lu  Lu11  1  0.319145  0.678604  0.434910  1
  Ni  Ni12  1  0.054210  0.891432  0.251089  1
  Ni  Ni13  1  0.446753  0.394606  0.251298  1
  Ni  Ni14  1  0.946200  0.106355  0.749000  1
  Ni  Ni15  1  0.553868  0.606927  0.750449  1
