# generated using pymatgen
data_Ho4CrRe3B16
_symmetry_space_group_name_H-M   'P 1'
_cell_length_a   3.57601600
_cell_length_b   5.95925083
_cell_length_c   11.51937800
_cell_angle_alpha   89.91986015
_cell_angle_beta   90.00000000
_cell_angle_gamma   90.00000000
_symmetry_Int_Tables_number   1
_chemical_formula_structural   Ho4CrRe3B16
_chemical_formula_sum   'Ho4 Cr1 Re3 B16'
_cell_volume   245.48203989
_cell_formula_units_Z   1
loop_
 _symmetry_equiv_pos_site_id
 _symmetry_equiv_pos_as_xyz
  1  'x, y, z'
loop_
 _atom_site_type_symbol
 _atom_site_label
 _atom_site_symmetry_multiplicity
 _atom_site_fract_x
 _atom_site_fract_y
 _atom_site_fract_z
 _atom_site_occupancy
  Ho  Ho0  1  0.000000  0.626118  0.351569  1
  Ho  Ho1  1  0.000000  0.375673  0.648879  1
  Ho  Ho2  1  0.000000  0.126864  0.150886  1
  Ho  Ho3  1  0.000000  0.872697  0.847329  1
  Cr  Cr4  1  0.000000  0.871803  0.583196  1
  Re  Re5  1  0.000000  0.632794  0.087069  1
  Re  Re6  1  0.000000  0.367001  0.912759  1
  Re  Re7  1  0.000000  0.127417  0.416476  1
  B  B8  1  0.500000  0.786977  0.185957  1
  B  B9  1  0.500000  0.212658  0.813664  1
  B  B10  1  0.500000  0.286435  0.315903  1
  B  B11  1  0.500000  0.715485  0.683200  1
  B  B12  1  0.500000  0.864564  0.031331  1
  B  B13  1  0.500000  0.135705  0.968269  1
  B  B14  1  0.500000  0.364161  0.468954  1
  B  B15  1  0.500000  0.637087  0.532993  1
  B  B16  1  0.500000  0.884509  0.454028  1
  B  B17  1  0.500000  0.112516  0.548453  1
  B  B18  1  0.500000  0.385949  0.047432  1
  B  B19  1  0.500000  0.614693  0.952088  1
  B  B20  1  0.500000  0.976878  0.308254  1
  B  B21  1  0.500000  0.020994  0.691753  1
  B  B22  1  0.500000  0.476252  0.193118  1
  B  B23  1  0.500000  0.524769  0.806441  1
