# generated using pymatgen
data_Er2HfZr(NiP)6
_symmetry_space_group_name_H-M   'P 1'
_cell_length_a   3.71733100
_cell_length_b   10.12397731
_cell_length_c   12.31045439
_cell_angle_alpha   90.02874534
_cell_angle_beta   90.00000000
_cell_angle_gamma   90.00000000
_symmetry_Int_Tables_number   1
_chemical_formula_structural   Er2HfZr(NiP)6
_chemical_formula_sum   'Er4 Hf2 Zr2 Ni12 P12'
_cell_volume   463.29373311
_cell_formula_units_Z   2
loop_
 _symmetry_equiv_pos_site_id
 _symmetry_equiv_pos_as_xyz
  1  'x, y, z'
loop_
 _atom_site_type_symbol
 _atom_site_label
 _atom_site_symmetry_multiplicity
 _atom_site_fract_x
 _atom_site_fract_y
 _atom_site_fract_z
 _atom_site_occupancy
  Er  Er0  1  0.250000  0.071413  0.208451  1
  Er  Er1  1  0.750000  0.928587  0.791549  1
  Er  Er2  1  0.750000  0.571150  0.293164  1
  Er  Er3  1  0.250000  0.428850  0.706836  1
  Hf  Hf4  1  0.250000  0.159894  0.497354  1
  Hf  Hf5  1  0.750000  0.840106  0.502646  1
  Zr  Zr6  1  0.750000  0.659434  0.002772  1
  Zr  Zr7  1  0.250000  0.340566  0.997228  1
  Ni  Ni8  1  0.250000  0.728600  0.663467  1
  Ni  Ni9  1  0.750000  0.271400  0.336533  1
  Ni  Ni10  1  0.750000  0.227499  0.834798  1
  Ni  Ni11  1  0.250000  0.772501  0.165202  1
  Ni  Ni12  1  0.250000  0.365386  0.220020  1
  Ni  Ni13  1  0.750000  0.634614  0.779980  1
  Ni  Ni14  1  0.750000  0.865837  0.282241  1
  Ni  Ni15  1  0.250000  0.134163  0.717759  1
  Ni  Ni16  1  0.250000  0.598167  0.483083  1
  Ni  Ni17  1  0.750000  0.401833  0.516917  1
  Ni  Ni18  1  0.750000  0.097752  0.016945  1
  Ni  Ni19  1  0.250000  0.902248  0.983055  1
  P  P20  1  0.250000  0.945417  0.621972  1
  P  P21  1  0.750000  0.054583  0.378028  1
  P  P22  1  0.750000  0.445303  0.874752  1
  P  P23  1  0.250000  0.554697  0.125248  1
  P  P24  1  0.250000  0.393924  0.402372  1
  P  P25  1  0.750000  0.606076  0.597628  1
  P  P26  1  0.750000  0.895000  0.099052  1
  P  P27  1  0.250000  0.105000  0.900948  1
  P  P28  1  0.250000  0.769713  0.355826  1
  P  P29  1  0.750000  0.230287  0.644174  1
  P  P30  1  0.750000  0.269171  0.146152  1
  P  P31  1  0.250000  0.730829  0.853848  1
