# generated using pymatgen
data_Li2Ho3ZnIr2Pd
_symmetry_space_group_name_H-M   'P 1'
_cell_length_a   7.10269692
_cell_length_b   7.11986788
_cell_length_c   3.94773500
_cell_angle_alpha   90.00000000
_cell_angle_beta   90.00000000
_cell_angle_gamma   120.07999745
_symmetry_Int_Tables_number   1
_chemical_formula_structural   Li2Ho3ZnIr2Pd
_chemical_formula_sum   'Li2 Ho3 Zn1 Ir2 Pd1'
_cell_volume   172.75204190
_cell_formula_units_Z   1
loop_
 _symmetry_equiv_pos_site_id
 _symmetry_equiv_pos_as_xyz
  1  'x, y, z'
loop_
 _atom_site_type_symbol
 _atom_site_label
 _atom_site_symmetry_multiplicity
 _atom_site_fract_x
 _atom_site_fract_y
 _atom_site_fract_z
 _atom_site_occupancy
  Li  Li0  1  0.758492  0.759467  0.500000  1
  Li  Li1  1  0.241508  0.000975  0.500000  1
  Ho  Ho2  1  0.412338  0.414528  0.000000  1
  Ho  Ho3  1  0.587662  0.002191  0.000000  1
  Ho  Ho4  1  0.000000  0.581716  0.000000  1
  Zn  Zn5  1  0.000000  0.243885  0.500000  1
  Ir  Ir6  1  0.669042  0.331840  0.500000  1
  Ir  Ir7  1  0.330958  0.662799  0.500000  1
  Pd  Pd8  1  0.000000  0.002597  0.000000  1
