# generated using pymatgen
data_Na3Tb(PrPb)16
_symmetry_space_group_name_H-M   'P 1'
_cell_length_a   8.34107200
_cell_length_b   8.58650070
_cell_length_c   16.36283100
_cell_angle_alpha   90.00000000
_cell_angle_beta   90.00000000
_cell_angle_gamma   89.86257409
_symmetry_Int_Tables_number   1
_chemical_formula_structural   Na3Tb(PrPb)16
_chemical_formula_sum   'Na3 Tb1 Pr16 Pb16'
_cell_volume   1171.91273931
_cell_formula_units_Z   1
loop_
 _symmetry_equiv_pos_site_id
 _symmetry_equiv_pos_as_xyz
  1  'x, y, z'
loop_
 _atom_site_type_symbol
 _atom_site_label
 _atom_site_symmetry_multiplicity
 _atom_site_fract_x
 _atom_site_fract_y
 _atom_site_fract_z
 _atom_site_occupancy
  Na  Na0  1  0.325107  0.993287  0.750000  1
  Na  Na1  1  0.175102  0.497039  0.250000  1
  Na  Na2  1  0.672743  0.002442  0.250000  1
  Tb  Tb3  1  0.824778  0.501502  0.750000  1
  Pr  Pr4  1  0.652474  0.164565  0.625808  1
  Pr  Pr5  1  0.157354  0.328978  0.875723  1
  Pr  Pr6  1  0.346843  0.829393  0.127472  1
  Pr  Pr7  1  0.848468  0.663838  0.377127  1
  Pr  Pr8  1  0.346843  0.829393  0.372528  1
  Pr  Pr9  1  0.848468  0.663838  0.122873  1
  Pr  Pr10  1  0.652474  0.164565  0.874192  1
  Pr  Pr11  1  0.157354  0.328978  0.624277  1
  Pr  Pr12  1  0.495269  0.686740  0.597976  1
  Pr  Pr13  1  0.004031  0.820744  0.903922  1
  Pr  Pr14  1  0.497161  0.316550  0.095348  1
  Pr  Pr15  1  0.996904  0.186584  0.404673  1
  Pr  Pr16  1  0.497161  0.316550  0.404652  1
  Pr  Pr17  1  0.996904  0.186584  0.095327  1
  Pr  Pr18  1  0.495269  0.686740  0.902024  1
  Pr  Pr19  1  0.004031  0.820744  0.596078  1
  Pb  Pb20  1  0.685389  0.958046  0.462053  1
  Pb  Pb21  1  0.191204  0.541114  0.036724  1
  Pb  Pb22  1  0.317668  0.040229  0.965211  1
  Pb  Pb23  1  0.811437  0.467762  0.545517  1
  Pb  Pb24  1  0.317668  0.040229  0.534789  1
  Pb  Pb25  1  0.811437  0.467762  0.954483  1
  Pb  Pb26  1  0.685389  0.958046  0.037947  1
  Pb  Pb27  1  0.191204  0.541114  0.463276  1
  Pb  Pb28  1  0.461538  0.397684  0.750000  1
  Pb  Pb29  1  0.962491  0.108965  0.750000  1
  Pb  Pb30  1  0.541309  0.598231  0.250000  1
  Pb  Pb31  1  0.034950  0.898364  0.250000  1
  Pb  Pb32  1  0.697730  0.849071  0.750000  1
  Pb  Pb33  1  0.183825  0.645932  0.750000  1
  Pb  Pb34  1  0.302984  0.146789  0.250000  1
  Pb  Pb35  1  0.809044  0.351605  0.250000  1
