# generated using pymatgen
data_SmPuTh(B2C)3
_symmetry_space_group_name_H-M   'P 1'
_cell_length_a   5.33446044
_cell_length_b   5.33446064
_cell_length_c   5.33446088
_cell_angle_alpha   76.69628419
_cell_angle_beta   76.69629024
_cell_angle_gamma   76.69627120
_symmetry_Int_Tables_number   1
_chemical_formula_structural   SmPuTh(B2C)3
_chemical_formula_sum   'Sm1 Pu1 Th1 B6 C3'
_cell_volume   141.22403068
_cell_formula_units_Z   1
loop_
 _symmetry_equiv_pos_site_id
 _symmetry_equiv_pos_as_xyz
  1  'x, y, z'
loop_
 _atom_site_type_symbol
 _atom_site_label
 _atom_site_symmetry_multiplicity
 _atom_site_fract_x
 _atom_site_fract_y
 _atom_site_fract_z
 _atom_site_occupancy
  Sm  Sm0  1  0.311615  0.311615  0.311615  1
  Pu  Pu1  1  0.687878  0.687878  0.687878  1
  Th  Th2  1  0.997920  0.997920  0.997920  1
  B  B3  1  0.502754  0.775129  0.228097  1
  B  B4  1  0.228097  0.502754  0.775129  1
  B  B5  1  0.775129  0.228097  0.502754  1
  B  B6  1  0.502754  0.228097  0.775129  1
  B  B7  1  0.228097  0.775129  0.502754  1
  B  B8  1  0.775129  0.502754  0.228097  1
  C  C9  1  0.994230  0.994230  0.502164  1
  C  C10  1  0.994230  0.502164  0.994230  1
  C  C11  1  0.502164  0.994230  0.994230  1
