# generated using pymatgen
data_Np2TiIr3
_symmetry_space_group_name_H-M   'P 1'
_cell_length_a   5.63101976
_cell_length_b   5.63101944
_cell_length_c   5.12629189
_cell_angle_alpha   56.68584074
_cell_angle_beta   56.68584026
_cell_angle_gamma   59.99999901
_symmetry_Int_Tables_number   1
_chemical_formula_structural   Np2TiIr3
_chemical_formula_sum   'Np2 Ti1 Ir3'
_cell_volume   108.83901361
_cell_formula_units_Z   1
loop_
 _symmetry_equiv_pos_site_id
 _symmetry_equiv_pos_as_xyz
  1  'x, y, z'
loop_
 _atom_site_type_symbol
 _atom_site_label
 _atom_site_symmetry_multiplicity
 _atom_site_fract_x
 _atom_site_fract_y
 _atom_site_fract_z
 _atom_site_occupancy
  Np  Np0  1  0.742361  0.742361  0.772918  1
  Np  Np1  1  0.507639  0.507639  0.477082  1
  Ti  Ti2  1  0.125000  0.125000  0.625000  1
  Ir  Ir3  1  0.125000  0.625000  0.125000  1
  Ir  Ir4  1  0.625000  0.125000  0.125000  1
  Ir  Ir5  1  0.125000  0.125000  0.125000  1
