# generated using pymatgen
data_PrHo(Si7Ir3)2
_symmetry_space_group_name_H-M   'P 1'
_cell_length_a   8.08769323
_cell_length_b   8.08769375
_cell_length_c   8.08769401
_cell_angle_alpha   56.50619706
_cell_angle_beta   56.50619036
_cell_angle_gamma   56.50619829
_symmetry_Int_Tables_number   1
_chemical_formula_structural   PrHo(Si7Ir3)2
_chemical_formula_sum   'Pr1 Ho1 Si14 Ir6'
_cell_volume   343.86803876
_cell_formula_units_Z   1
loop_
 _symmetry_equiv_pos_site_id
 _symmetry_equiv_pos_as_xyz
  1  'x, y, z'
loop_
 _atom_site_type_symbol
 _atom_site_label
 _atom_site_symmetry_multiplicity
 _atom_site_fract_x
 _atom_site_fract_y
 _atom_site_fract_z
 _atom_site_occupancy
  Pr  Pr0  1  0.500000  0.500000  0.500000  1
  Ho  Ho1  1  0.000000  0.000000  0.000000  1
  Si  Si2  1  0.749360  0.749360  0.749360  1
  Si  Si3  1  0.250640  0.250640  0.250640  1
  Si  Si4  1  0.851967  0.061947  0.673593  1
  Si  Si5  1  0.673593  0.851967  0.061947  1
  Si  Si6  1  0.061947  0.673593  0.851967  1
  Si  Si7  1  0.651149  0.828173  0.434538  1
  Si  Si8  1  0.434538  0.651149  0.828173  1
  Si  Si9  1  0.828173  0.434538  0.651149  1
  Si  Si10  1  0.171827  0.565462  0.348851  1
  Si  Si11  1  0.565462  0.348851  0.171827  1
  Si  Si12  1  0.348851  0.171827  0.565462  1
  Si  Si13  1  0.938053  0.326407  0.148033  1
  Si  Si14  1  0.326407  0.148033  0.938053  1
  Si  Si15  1  0.148033  0.938053  0.326407  1
  Ir  Ir16  1  0.067364  0.429147  0.752326  1
  Ir  Ir17  1  0.247674  0.932636  0.570853  1
  Ir  Ir18  1  0.570853  0.247674  0.932636  1
  Ir  Ir19  1  0.932636  0.570853  0.247674  1
  Ir  Ir20  1  0.429147  0.752326  0.067364  1
  Ir  Ir21  1  0.752326  0.067364  0.429147  1
