# generated using pymatgen
data_Lu3Zn3RuPt2
_symmetry_space_group_name_H-M   'P 1'
_cell_length_a   7.19584500
_cell_length_b   7.19584512
_cell_length_c   3.79424200
_cell_angle_alpha   90.00000000
_cell_angle_beta   90.00000000
_cell_angle_gamma   119.99999485
_symmetry_Int_Tables_number   1
_chemical_formula_structural   Lu3Zn3RuPt2
_chemical_formula_sum   'Lu3 Zn3 Ru1 Pt2'
_cell_volume   170.14503819
_cell_formula_units_Z   1
loop_
 _symmetry_equiv_pos_site_id
 _symmetry_equiv_pos_as_xyz
  1  'x, y, z'
loop_
 _atom_site_type_symbol
 _atom_site_label
 _atom_site_symmetry_multiplicity
 _atom_site_fract_x
 _atom_site_fract_y
 _atom_site_fract_z
 _atom_site_occupancy
  Lu  Lu0  1  0.604546  0.604546  0.000000  1
  Lu  Lu1  1  0.395454  0.000000  0.000000  1
  Lu  Lu2  1  0.000000  0.395454  0.000000  1
  Zn  Zn3  1  0.252738  0.252738  0.500000  1
  Zn  Zn4  1  0.747262  0.000000  0.500000  1
  Zn  Zn5  1  0.000000  0.747262  0.500000  1
  Ru  Ru6  1  0.000000  0.000000  0.000000  1
  Pt  Pt7  1  0.666667  0.333333  0.500000  1
  Pt  Pt8  1  0.333333  0.666667  0.500000  1
