# generated using pymatgen
data_Ho10Cd3Co
_symmetry_space_group_name_H-M   'P 1'
_cell_length_a   9.52744700
_cell_length_b   9.52744750
_cell_length_c   9.71941200
_cell_angle_alpha   90.00000000
_cell_angle_beta   90.00000000
_cell_angle_gamma   119.99999480
_symmetry_Int_Tables_number   1
_chemical_formula_structural   Ho10Cd3Co
_chemical_formula_sum   'Ho20 Cd6 Co2'
_cell_volume   764.05346968
_cell_formula_units_Z   2
loop_
 _symmetry_equiv_pos_site_id
 _symmetry_equiv_pos_as_xyz
  1  'x, y, z'
loop_
 _atom_site_type_symbol
 _atom_site_label
 _atom_site_symmetry_multiplicity
 _atom_site_fract_x
 _atom_site_fract_y
 _atom_site_fract_z
 _atom_site_occupancy
  Ho  Ho0  1  0.000000  0.000000  0.500000  1
  Ho  Ho1  1  0.000000  0.000000  0.000000  1
  Ho  Ho2  1  0.542688  0.457312  0.250000  1
  Ho  Ho3  1  0.542688  0.085376  0.250000  1
  Ho  Ho4  1  0.914624  0.457312  0.250000  1
  Ho  Ho5  1  0.457312  0.542688  0.750000  1
  Ho  Ho6  1  0.457312  0.914624  0.750000  1
  Ho  Ho7  1  0.085376  0.542688  0.750000  1
  Ho  Ho8  1  0.211749  0.788251  0.436278  1
  Ho  Ho9  1  0.211749  0.423499  0.436278  1
  Ho  Ho10  1  0.576501  0.788251  0.436278  1
  Ho  Ho11  1  0.788251  0.211749  0.563722  1
  Ho  Ho12  1  0.788251  0.576501  0.563722  1
  Ho  Ho13  1  0.423499  0.211749  0.563722  1
  Ho  Ho14  1  0.788251  0.211749  0.936278  1
  Ho  Ho15  1  0.788251  0.576501  0.936278  1
  Ho  Ho16  1  0.423499  0.211749  0.936278  1
  Ho  Ho17  1  0.211749  0.788251  0.063722  1
  Ho  Ho18  1  0.211749  0.423499  0.063722  1
  Ho  Ho19  1  0.576501  0.788251  0.063722  1
  Cd  Cd20  1  0.884791  0.115209  0.250000  1
  Cd  Cd21  1  0.884791  0.769582  0.250000  1
  Cd  Cd22  1  0.230418  0.115209  0.250000  1
  Cd  Cd23  1  0.115209  0.884791  0.750000  1
  Cd  Cd24  1  0.115209  0.230418  0.750000  1
  Cd  Cd25  1  0.769582  0.884791  0.750000  1
  Co  Co26  1  0.333333  0.666667  0.250000  1
  Co  Co27  1  0.666667  0.333333  0.750000  1
