# generated using pymatgen
data_Ca2In2Si2Ir3Ru
_symmetry_space_group_name_H-M   'P 1'
_cell_length_a   4.27861600
_cell_length_b   4.27861600
_cell_length_c   10.45075300
_cell_angle_alpha   90.00000000
_cell_angle_beta   90.00000000
_cell_angle_gamma   90.00000000
_symmetry_Int_Tables_number   1
_chemical_formula_structural   Ca2In2Si2Ir3Ru
_chemical_formula_sum   'Ca2 In2 Si2 Ir3 Ru1'
_cell_volume   191.31728328
_cell_formula_units_Z   1
loop_
 _symmetry_equiv_pos_site_id
 _symmetry_equiv_pos_as_xyz
  1  'x, y, z'
loop_
 _atom_site_type_symbol
 _atom_site_label
 _atom_site_symmetry_multiplicity
 _atom_site_fract_x
 _atom_site_fract_y
 _atom_site_fract_z
 _atom_site_occupancy
  Ca  Ca0  1  0.000000  0.500000  0.230728  1
  Ca  Ca1  1  0.500000  0.000000  0.769272  1
  In  In2  1  0.000000  0.000000  0.500000  1
  In  In3  1  0.500000  0.500000  0.500000  1
  Si  Si4  1  0.000000  0.500000  0.892371  1
  Si  Si5  1  0.500000  0.000000  0.107629  1
  Ir  Ir6  1  0.500000  0.500000  0.000000  1
  Ir  Ir7  1  0.000000  0.500000  0.665831  1
  Ir  Ir8  1  0.500000  0.000000  0.334169  1
  Ru  Ru9  1  0.000000  0.000000  0.000000  1
