# generated using pymatgen
data_PrFe3P12Rh
_symmetry_space_group_name_H-M   'P 1'
_cell_length_a   6.84392747
_cell_length_b   6.84392795
_cell_length_c   6.84392693
_cell_angle_alpha   109.52415941
_cell_angle_beta   109.52416039
_cell_angle_gamma   109.52416246
_symmetry_Int_Tables_number   1
_chemical_formula_structural   PrFe3P12Rh
_chemical_formula_sum   'Pr1 Fe3 P12 Rh1'
_cell_volume   246.28622930
_cell_formula_units_Z   1
loop_
 _symmetry_equiv_pos_site_id
 _symmetry_equiv_pos_as_xyz
  1  'x, y, z'
loop_
 _atom_site_type_symbol
 _atom_site_label
 _atom_site_symmetry_multiplicity
 _atom_site_fract_x
 _atom_site_fract_y
 _atom_site_fract_z
 _atom_site_occupancy
  Pr  Pr0  1  0.000000  0.000000  0.000000  1
  Fe  Fe1  1  0.000000  0.000000  0.500000  1
  Fe  Fe2  1  0.000000  0.500000  0.000000  1
  Fe  Fe3  1  0.500000  0.000000  0.000000  1
  P  P4  1  0.863849  0.654683  0.497913  1
  P  P5  1  0.848571  0.350117  0.199321  1
  P  P6  1  0.151429  0.649883  0.800679  1
  P  P7  1  0.345317  0.502087  0.136151  1
  P  P8  1  0.502087  0.136151  0.345317  1
  P  P9  1  0.136151  0.345317  0.502087  1
  P  P10  1  0.649883  0.800679  0.151429  1
  P  P11  1  0.199321  0.848571  0.350117  1
  P  P12  1  0.654683  0.497913  0.863849  1
  P  P13  1  0.800679  0.151429  0.649883  1
  P  P14  1  0.350117  0.199321  0.848571  1
  P  P15  1  0.497913  0.863849  0.654683  1
  Rh  Rh16  1  0.500000  0.500000  0.500000  1
