# generated using pymatgen
data_Li6Ca4MgCd
_symmetry_space_group_name_H-M   'P 1'
_cell_length_a   6.14306000
_cell_length_b   6.14305912
_cell_length_c   9.80557200
_cell_angle_alpha   90.00000000
_cell_angle_beta   90.00000000
_cell_angle_gamma   120.00000474
_symmetry_Int_Tables_number   1
_chemical_formula_structural   Li6Ca4MgCd
_chemical_formula_sum   'Li6 Ca4 Mg1 Cd1'
_cell_volume   320.45938576
_cell_formula_units_Z   1
loop_
 _symmetry_equiv_pos_site_id
 _symmetry_equiv_pos_as_xyz
  1  'x, y, z'
loop_
 _atom_site_type_symbol
 _atom_site_label
 _atom_site_symmetry_multiplicity
 _atom_site_fract_x
 _atom_site_fract_y
 _atom_site_fract_z
 _atom_site_occupancy
  Li  Li0  1  0.835653  0.164347  0.252621  1
  Li  Li1  1  0.835653  0.671305  0.252621  1
  Li  Li2  1  0.328695  0.164347  0.252621  1
  Li  Li3  1  0.164347  0.835653  0.747379  1
  Li  Li4  1  0.164347  0.328695  0.747379  1
  Li  Li5  1  0.671305  0.835653  0.747379  1
  Ca  Ca6  1  0.333333  0.666667  0.441685  1
  Ca  Ca7  1  0.666667  0.333333  0.558315  1
  Ca  Ca8  1  0.666667  0.333333  0.941540  1
  Ca  Ca9  1  0.333333  0.666667  0.058460  1
  Mg  Mg10  1  0.000000  0.000000  0.000000  1
  Cd  Cd11  1  0.000000  0.000000  0.500000  1
