# generated using pymatgen
data_HoEr4IrRu
_symmetry_space_group_name_H-M   'P 1'
_cell_length_a   6.33149620
_cell_length_b   7.27173161
_cell_length_c   8.42249537
_cell_angle_alpha   96.87092030
_cell_angle_beta   112.07797381
_cell_angle_gamma   90.00000436
_symmetry_Int_Tables_number   1
_chemical_formula_structural   HoEr4IrRu
_chemical_formula_sum   'Ho2 Er8 Ir2 Ru2'
_cell_volume   356.33784904
_cell_formula_units_Z   2
loop_
 _symmetry_equiv_pos_site_id
 _symmetry_equiv_pos_as_xyz
  1  'x, y, z'
loop_
 _atom_site_type_symbol
 _atom_site_label
 _atom_site_symmetry_multiplicity
 _atom_site_fract_x
 _atom_site_fract_y
 _atom_site_fract_z
 _atom_site_occupancy
  Ho  Ho0  1  0.791948  0.582648  0.813354  1
  Ho  Ho1  1  0.978592  0.917352  0.186646  1
  Er  Er2  1  0.209648  0.414660  0.185509  1
  Er  Er3  1  0.024139  0.085340  0.814491  1
  Er  Er4  1  0.206201  0.683457  0.564843  1
  Er  Er5  1  0.641358  0.816543  0.435157  1
  Er  Er6  1  0.793265  0.314453  0.436271  1
  Er  Er7  1  0.356994  0.185547  0.563729  1
  Er  Er8  1  0.420438  0.750000  0.000000  1
  Er  Er9  1  0.577959  0.250000  0.000000  1
  Ir  Ir10  1  0.601935  0.923216  0.778742  1
  Ir  Ir11  1  0.823191  0.576784  0.221258  1
  Ru  Ru12  1  0.397380  0.075765  0.220426  1
  Ru  Ru13  1  0.176954  0.424235  0.779574  1
