# generated using pymatgen
data_Cs3KSnO4
_symmetry_space_group_name_H-M   'P 1'
_cell_length_a   11.50397434
_cell_length_b   7.15080100
_cell_length_c   11.72935800
_cell_angle_alpha   90.00000000
_cell_angle_beta   112.07567667
_cell_angle_gamma   90.00000000
_symmetry_Int_Tables_number   1
_chemical_formula_structural   Cs3KSnO4
_chemical_formula_sum   'Cs12 K4 Sn4 O16'
_cell_volume   894.15024724
_cell_formula_units_Z   4
loop_
 _symmetry_equiv_pos_site_id
 _symmetry_equiv_pos_as_xyz
  1  'x, y, z'
loop_
 _atom_site_type_symbol
 _atom_site_label
 _atom_site_symmetry_multiplicity
 _atom_site_fract_x
 _atom_site_fract_y
 _atom_site_fract_z
 _atom_site_occupancy
  Cs  Cs0  1  0.669912  0.382694  0.103582  1
  Cs  Cs1  1  0.046754  0.161185  0.181247  1
  Cs  Cs2  1  0.546919  0.892325  0.191528  1
  Cs  Cs3  1  0.453081  0.392325  0.308472  1
  Cs  Cs4  1  0.953247  0.661185  0.318753  1
  Cs  Cs5  1  0.330088  0.882694  0.396418  1
  Cs  Cs6  1  0.669912  0.117306  0.603582  1
  Cs  Cs7  1  0.046754  0.338815  0.681247  1
  Cs  Cs8  1  0.546919  0.607675  0.691528  1
  Cs  Cs9  1  0.453081  0.107675  0.808472  1
  Cs  Cs10  1  0.953247  0.838815  0.818753  1
  Cs  Cs11  1  0.330088  0.617306  0.896418  1
  K  K12  1  0.134460  0.627107  0.109605  1
  K  K13  1  0.865540  0.127107  0.390395  1
  K  K14  1  0.134460  0.872893  0.609605  1
  K  K15  1  0.865540  0.372893  0.890395  1
  Sn  Sn16  1  0.752444  0.864090  0.006309  1
  Sn  Sn17  1  0.247555  0.364090  0.493691  1
  Sn  Sn18  1  0.752444  0.635910  0.506309  1
  Sn  Sn19  1  0.247555  0.135910  0.993691  1
  O  O20  1  0.884603  0.667370  0.035482  1
  O  O21  1  0.416872  0.255672  0.043596  1
  O  O22  1  0.250644  0.955603  0.125442  1
  O  O23  1  0.791724  0.999307  0.165970  1
  O  O24  1  0.208276  0.499307  0.334030  1
  O  O25  1  0.749356  0.455603  0.374558  1
  O  O26  1  0.583128  0.755672  0.456404  1
  O  O27  1  0.115397  0.167370  0.464518  1
  O  O28  1  0.884603  0.832630  0.535482  1
  O  O29  1  0.416872  0.244328  0.543596  1
  O  O30  1  0.250644  0.544398  0.625442  1
  O  O31  1  0.791724  0.500693  0.665970  1
  O  O32  1  0.208276  0.000693  0.834030  1
  O  O33  1  0.749356  0.044398  0.874558  1
  O  O34  1  0.583127  0.744328  0.956403  1
  O  O35  1  0.115397  0.332630  0.964518  1
