# generated using pymatgen
data_Y2Si3Tc14C3
_symmetry_space_group_name_H-M   'P 1'
_cell_length_a   6.89721246
_cell_length_b   6.89721196
_cell_length_c   6.89721230
_cell_angle_alpha   82.16746100
_cell_angle_beta   82.16746546
_cell_angle_gamma   82.16744315
_symmetry_Int_Tables_number   1
_chemical_formula_structural   Y2Si3Tc14C3
_chemical_formula_sum   'Y2 Si3 Tc14 C3'
_cell_volume   319.69302270
_cell_formula_units_Z   1
loop_
 _symmetry_equiv_pos_site_id
 _symmetry_equiv_pos_as_xyz
  1  'x, y, z'
loop_
 _atom_site_type_symbol
 _atom_site_label
 _atom_site_symmetry_multiplicity
 _atom_site_fract_x
 _atom_site_fract_y
 _atom_site_fract_z
 _atom_site_occupancy
  Y  Y0  1  0.651589  0.651589  0.651589  1
  Y  Y1  1  0.348411  0.348411  0.348411  1
  Si  Si2  1  0.000000  0.000000  0.500000  1
  Si  Si3  1  0.500000  0.000000  0.000000  1
  Si  Si4  1  0.000000  0.500000  0.000000  1
  Tc  Tc5  1  0.722755  0.277245  0.000000  1
  Tc  Tc6  1  0.000000  0.722755  0.277245  1
  Tc  Tc7  1  0.277245  0.000000  0.722755  1
  Tc  Tc8  1  0.000000  0.277245  0.722755  1
  Tc  Tc9  1  0.722755  0.000000  0.277245  1
  Tc  Tc10  1  0.277245  0.722755  0.000000  1
  Tc  Tc11  1  0.346312  0.346312  0.860442  1
  Tc  Tc12  1  0.860442  0.346312  0.346312  1
  Tc  Tc13  1  0.346312  0.860442  0.346312  1
  Tc  Tc14  1  0.653688  0.653688  0.139558  1
  Tc  Tc15  1  0.139558  0.653688  0.653688  1
  Tc  Tc16  1  0.653688  0.139558  0.653688  1
  Tc  Tc17  1  0.900902  0.900902  0.900902  1
  Tc  Tc18  1  0.099098  0.099098  0.099098  1
  C  C19  1  0.500000  0.500000  0.000000  1
  C  C20  1  0.000000  0.500000  0.500000  1
  C  C21  1  0.500000  0.000000  0.500000  1
