# generated using pymatgen
data_Li4La4(SiGe)3
_symmetry_space_group_name_H-M   'P 1'
_cell_length_a   9.73399680
_cell_length_b   9.73399625
_cell_length_c   6.93856016
_cell_angle_alpha   90.13554778
_cell_angle_beta   89.86445289
_cell_angle_gamma   153.04189840
_symmetry_Int_Tables_number   1
_chemical_formula_structural   Li4La4(SiGe)3
_chemical_formula_sum   'Li4 La4 Si3 Ge3'
_cell_volume   298.03917536
_cell_formula_units_Z   1
loop_
 _symmetry_equiv_pos_site_id
 _symmetry_equiv_pos_as_xyz
  1  'x, y, z'
loop_
 _atom_site_type_symbol
 _atom_site_label
 _atom_site_symmetry_multiplicity
 _atom_site_fract_x
 _atom_site_fract_y
 _atom_site_fract_z
 _atom_site_occupancy
  Li  Li0  1  0.812798  0.187202  0.438848  1
  Li  Li1  1  0.186825  0.813175  0.559930  1
  Li  Li2  1  0.811549  0.188451  0.059924  1
  Li  Li3  1  0.187612  0.812388  0.940111  1
  La  La4  1  0.552221  0.447779  0.750189  1
  La  La5  1  0.448980  0.551020  0.252212  1
  La  La6  1  0.341531  0.658469  0.746544  1
  La  La7  1  0.657942  0.342058  0.250408  1
  Si  Si8  1  0.058738  0.941262  0.078607  1
  Si  Si9  1  0.942965  0.057035  0.571796  1
  Si  Si10  1  0.057237  0.942763  0.424400  1
  Ge  Ge11  1  0.941255  0.058745  0.927084  1
  Ge  Ge12  1  0.720133  0.279867  0.749774  1
  Ge  Ge13  1  0.280214  0.719786  0.250173  1
