# generated using pymatgen
data_YAlGaPd5
_symmetry_space_group_name_H-M   'P 1'
_cell_length_a   8.13870938
_cell_length_b   8.13870937
_cell_length_c   8.13870971
_cell_angle_alpha   150.56622183
_cell_angle_beta   150.56622161
_cell_angle_gamma   42.11088085
_symmetry_Int_Tables_number   1
_chemical_formula_structural   YAlGaPd5
_chemical_formula_sum   'Y1 Al1 Ga1 Pd5'
_cell_volume   129.87677051
_cell_formula_units_Z   1
loop_
 _symmetry_equiv_pos_site_id
 _symmetry_equiv_pos_as_xyz
  1  'x, y, z'
loop_
 _atom_site_type_symbol
 _atom_site_label
 _atom_site_symmetry_multiplicity
 _atom_site_fract_x
 _atom_site_fract_y
 _atom_site_fract_z
 _atom_site_occupancy
  Y  Y0  1  0.999939  0.999939  0.000000  1
  Al  Al1  1  0.253691  0.253691  0.000000  1
  Ga  Ga2  1  0.746478  0.746478  0.000000  1
  Pd  Pd3  1  0.500260  0.500260  0.000000  1
  Pd  Pd4  1  0.856283  0.356283  0.500000  1
  Pd  Pd5  1  0.356283  0.856283  0.500000  1
  Pd  Pd6  1  0.143533  0.643533  0.500000  1
  Pd  Pd7  1  0.643533  0.143533  0.500000  1
