# generated using pymatgen
data_Nd4CuB4Rh9
_symmetry_space_group_name_H-M   'P 1'
_cell_length_a   5.54323401
_cell_length_b   5.54323504
_cell_length_c   20.99392800
_cell_angle_alpha   90.00000000
_cell_angle_beta   90.00000000
_cell_angle_gamma   120.00403857
_symmetry_Int_Tables_number   1
_chemical_formula_structural   Nd4CuB4Rh9
_chemical_formula_sum   'Nd8 Cu2 B8 Rh18'
_cell_volume   558.64146304
_cell_formula_units_Z   2
loop_
 _symmetry_equiv_pos_site_id
 _symmetry_equiv_pos_as_xyz
  1  'x, y, z'
loop_
 _atom_site_type_symbol
 _atom_site_label
 _atom_site_symmetry_multiplicity
 _atom_site_fract_x
 _atom_site_fract_y
 _atom_site_fract_z
 _atom_site_occupancy
  Nd  Nd0  1  0.666668  0.333332  0.523430  1
  Nd  Nd1  1  0.333332  0.666668  0.476570  1
  Nd  Nd2  1  0.333332  0.666668  0.023430  1
  Nd  Nd3  1  0.666668  0.333332  0.976570  1
  Nd  Nd4  1  0.666654  0.333346  0.674552  1
  Nd  Nd5  1  0.333346  0.666654  0.325448  1
  Nd  Nd6  1  0.333346  0.666654  0.174552  1
  Nd  Nd7  1  0.666654  0.333346  0.825448  1
  Cu  Cu8  1  0.000000  0.000000  0.500000  1
  Cu  Cu9  1  0.000000  0.000000  0.000000  1
  B  B10  1  0.999969  0.000031  0.675272  1
  B  B11  1  0.000031  0.999969  0.324728  1
  B  B12  1  0.000031  0.999969  0.175272  1
  B  B13  1  0.999969  0.000031  0.824728  1
  B  B14  1  0.666695  0.333305  0.326550  1
  B  B15  1  0.333305  0.666695  0.673450  1
  B  B16  1  0.333305  0.666695  0.826550  1
  B  B17  1  0.666695  0.333305  0.173450  1
  Rh  Rh18  1  0.166603  0.333270  0.750000  1
  Rh  Rh19  1  0.166608  0.833392  0.750000  1
  Rh  Rh20  1  0.666730  0.833397  0.750000  1
  Rh  Rh21  1  0.833397  0.666730  0.250000  1
  Rh  Rh22  1  0.833392  0.166608  0.250000  1
  Rh  Rh23  1  0.333270  0.166603  0.250000  1
  Rh  Rh24  1  0.165626  0.331347  0.606331  1
  Rh  Rh25  1  0.165632  0.834368  0.606338  1
  Rh  Rh26  1  0.668653  0.834374  0.606331  1
  Rh  Rh27  1  0.834374  0.668653  0.393669  1
  Rh  Rh28  1  0.834368  0.165632  0.393662  1
  Rh  Rh29  1  0.331347  0.165626  0.393669  1
  Rh  Rh30  1  0.834374  0.668653  0.106331  1
  Rh  Rh31  1  0.834368  0.165632  0.106338  1
  Rh  Rh32  1  0.331347  0.165626  0.106331  1
  Rh  Rh33  1  0.165626  0.331347  0.893669  1
  Rh  Rh34  1  0.165632  0.834368  0.893662  1
  Rh  Rh35  1  0.668653  0.834374  0.893669  1
