# generated using pymatgen
data_Ce3EuBi8Pd3
_symmetry_space_group_name_H-M   'P 1'
_cell_length_a   4.66294100
_cell_length_b   4.68698600
_cell_length_c   19.24079700
_cell_angle_alpha   90.00000000
_cell_angle_beta   90.00000000
_cell_angle_gamma   90.00000000
_symmetry_Int_Tables_number   1
_chemical_formula_structural   Ce3EuBi8Pd3
_chemical_formula_sum   'Ce3 Eu1 Bi8 Pd3'
_cell_volume   420.51029648
_cell_formula_units_Z   1
loop_
 _symmetry_equiv_pos_site_id
 _symmetry_equiv_pos_as_xyz
  1  'x, y, z'
loop_
 _atom_site_type_symbol
 _atom_site_label
 _atom_site_symmetry_multiplicity
 _atom_site_fract_x
 _atom_site_fract_y
 _atom_site_fract_z
 _atom_site_occupancy
  Ce  Ce0  1  0.500000  0.000000  0.612622  1
  Ce  Ce1  1  0.000000  0.500000  0.887294  1
  Ce  Ce2  1  0.000000  0.500000  0.385756  1
  Eu  Eu3  1  0.500000  0.000000  0.114644  1
  Bi  Bi4  1  0.500000  0.000000  0.920430  1
  Bi  Bi5  1  0.500000  0.000000  0.410506  1
  Bi  Bi6  1  0.000000  0.500000  0.078957  1
  Bi  Bi7  1  0.000000  0.500000  0.585183  1
  Bi  Bi8  1  0.500000  0.500000  0.750590  1
  Bi  Bi9  1  0.500000  0.500000  0.251661  1
  Bi  Bi10  1  0.000000  0.000000  0.750608  1
  Bi  Bi11  1  0.000000  0.000000  0.251633  1
  Pd  Pd12  1  0.500000  0.500000  0.500706  1
  Pd  Pd13  1  0.000000  0.000000  0.998607  1
  Pd  Pd14  1  0.000000  0.000000  0.500803  1
