# generated using pymatgen
data_La3Pr(NdIn5)2
_symmetry_space_group_name_H-M   'P 1'
_cell_length_a   6.67134206
_cell_length_b   6.67128718
_cell_length_c   10.69302229
_cell_angle_alpha   90.05657751
_cell_angle_beta   90.05681765
_cell_angle_gamma   101.68429321
_symmetry_Int_Tables_number   1
_chemical_formula_structural   La3Pr(NdIn5)2
_chemical_formula_sum   'La3 Pr1 Nd2 In10'
_cell_volume   466.04617012
_cell_formula_units_Z   1
loop_
 _symmetry_equiv_pos_site_id
 _symmetry_equiv_pos_as_xyz
  1  'x, y, z'
loop_
 _atom_site_type_symbol
 _atom_site_label
 _atom_site_symmetry_multiplicity
 _atom_site_fract_x
 _atom_site_fract_y
 _atom_site_fract_z
 _atom_site_occupancy
  La  La0  1  0.203569  0.796416  0.499997  1
  La  La1  1  0.203893  0.796135  0.000004  1
  La  La2  1  0.796023  0.204011  0.500001  1
  Pr  Pr3  1  0.796558  0.203431  0.000002  1
  Nd  Nd4  1  0.632870  0.632340  0.249947  1
  Nd  Nd5  1  0.367658  0.367124  0.750055  1
  In  In6  1  0.012302  0.013237  0.249059  1
  In  In7  1  0.986760  0.987693  0.750937  1
  In  In8  1  0.309858  0.310046  0.050482  1
  In  In9  1  0.689949  0.690138  0.949517  1
  In  In10  1  0.310761  0.310457  0.449149  1
  In  In11  1  0.689539  0.689237  0.550853  1
  In  In12  1  0.500543  0.075040  0.249146  1
  In  In13  1  0.924957  0.499454  0.750853  1
  In  In14  1  0.500253  0.925493  0.750575  1
  In  In15  1  0.074508  0.499746  0.249425  1
