# generated using pymatgen
data_Y11ErPb10
_symmetry_space_group_name_H-M   'P 1'
_cell_length_a   11.76969024
_cell_length_b   11.76968920
_cell_length_c   11.77043454
_cell_angle_alpha   146.83907173
_cell_angle_beta   132.72284336
_cell_angle_gamma   58.95666450
_symmetry_Int_Tables_number   1
_chemical_formula_structural   Y11ErPb10
_chemical_formula_sum   'Y11 Er1 Pb10'
_cell_volume   649.64361546
_cell_formula_units_Z   1
loop_
 _symmetry_equiv_pos_site_id
 _symmetry_equiv_pos_as_xyz
  1  'x, y, z'
loop_
 _atom_site_type_symbol
 _atom_site_label
 _atom_site_symmetry_multiplicity
 _atom_site_fract_x
 _atom_site_fract_y
 _atom_site_fract_z
 _atom_site_occupancy
  Y  Y0  1  0.696445  0.946445  0.250000  1
  Y  Y1  1  0.249979  0.637154  0.612662  1
  Y  Y2  1  0.681164  0.941458  0.739787  1
  Y  Y3  1  0.024493  0.137316  0.887338  1
  Y  Y4  1  0.975400  0.862479  0.112584  1
  Y  Y5  1  0.798322  0.558596  0.239541  1
  Y  Y6  1  0.201669  0.441377  0.760213  1
  Y  Y7  1  0.303497  0.053497  0.750000  1
  Y  Y8  1  0.319054  0.058781  0.260459  1
  Y  Y9  1  0.303572  0.553572  0.250000  1
  Y  Y10  1  0.749893  0.362816  0.387416  1
  Er  Er11  1  0.696353  0.446353  0.750000  1
  Pb  Pb12  1  0.481690  0.573427  0.905898  1
  Pb  Pb13  1  0.599028  0.792918  0.803614  1
  Pb  Pb14  1  0.667528  0.075791  0.594102  1
  Pb  Pb15  1  0.000036  0.750036  0.750000  1
  Pb  Pb16  1  0.989304  0.295414  0.696386  1
  Pb  Pb17  1  0.518807  0.425529  0.092958  1
  Pb  Pb18  1  0.009461  0.704752  0.302994  1
  Pb  Pb19  1  0.401759  0.206468  0.197006  1
  Pb  Pb20  1  0.332572  0.925849  0.407042  1
  Pb  Pb21  1  0.999973  0.249973  0.250000  1
