# generated using pymatgen
data_Zr6Co17P12Ru
_symmetry_space_group_name_H-M   'P 1'
_cell_length_a   3.64611400
_cell_length_b   10.31796100
_cell_length_c   11.98214400
_cell_angle_alpha   90.00000000
_cell_angle_beta   90.00000000
_cell_angle_gamma   90.00000000
_symmetry_Int_Tables_number   1
_chemical_formula_structural   Zr6Co17P12Ru
_chemical_formula_sum   'Zr6 Co17 P12 Ru1'
_cell_volume   450.77379367
_cell_formula_units_Z   1
loop_
 _symmetry_equiv_pos_site_id
 _symmetry_equiv_pos_as_xyz
  1  'x, y, z'
loop_
 _atom_site_type_symbol
 _atom_site_label
 _atom_site_symmetry_multiplicity
 _atom_site_fract_x
 _atom_site_fract_y
 _atom_site_fract_z
 _atom_site_occupancy
  Zr  Zr0  1  0.000000  0.500000  0.529591  1
  Zr  Zr1  1  0.500000  0.000000  0.474151  1
  Zr  Zr2  1  0.500000  0.820395  0.208068  1
  Zr  Zr3  1  0.500000  0.179605  0.208068  1
  Zr  Zr4  1  0.000000  0.680699  0.791784  1
  Zr  Zr5  1  0.000000  0.319301  0.791784  1
  Co  Co6  1  0.000000  0.000000  0.835744  1
  Co  Co7  1  0.500000  0.500000  0.702789  1
  Co  Co8  1  0.000000  0.000000  0.296907  1
  Co  Co9  1  0.000000  0.500000  0.986283  1
  Co  Co10  1  0.500000  0.000000  0.014741  1
  Co  Co11  1  0.500000  0.332084  0.990199  1
  Co  Co12  1  0.500000  0.667916  0.990199  1
  Co  Co13  1  0.000000  0.166727  0.005698  1
  Co  Co14  1  0.000000  0.833273  0.005698  1
  Co  Co15  1  0.500000  0.299711  0.432516  1
  Co  Co16  1  0.500000  0.700289  0.432516  1
  Co  Co17  1  0.000000  0.200302  0.567471  1
  Co  Co18  1  0.000000  0.799698  0.567471  1
  Co  Co19  1  0.500000  0.876526  0.707482  1
  Co  Co20  1  0.500000  0.123474  0.707482  1
  Co  Co21  1  0.000000  0.624073  0.294002  1
  Co  Co22  1  0.000000  0.375927  0.294002  1
  P  P23  1  0.500000  0.500000  0.878222  1
  P  P24  1  0.000000  0.000000  0.120699  1
  P  P25  1  0.500000  0.500000  0.356453  1
  P  P26  1  0.000000  0.000000  0.649029  1
  P  P27  1  0.500000  0.315744  0.617555  1
  P  P28  1  0.500000  0.684256  0.617555  1
  P  P29  1  0.000000  0.182802  0.383374  1
  P  P30  1  0.000000  0.817198  0.383374  1
  P  P31  1  0.500000  0.847347  0.889293  1
  P  P32  1  0.500000  0.152653  0.889293  1
  P  P33  1  0.000000  0.657622  0.108965  1
  P  P34  1  0.000000  0.342378  0.108965  1
  Ru  Ru35  1  0.500000  0.500000  0.162577  1
