# generated using pymatgen
data_ErTiNbGa4
_symmetry_space_group_name_H-M   'P 1'
_cell_length_a   5.51125314
_cell_length_b   5.51131911
_cell_length_c   5.51125290
_cell_angle_alpha   104.33475322
_cell_angle_beta   104.32972365
_cell_angle_gamma   120.32489850
_symmetry_Int_Tables_number   1
_chemical_formula_structural   ErTiNbGa4
_chemical_formula_sum   'Er1 Ti1 Nb1 Ga4'
_cell_volume   125.34225151
_cell_formula_units_Z   1
loop_
 _symmetry_equiv_pos_site_id
 _symmetry_equiv_pos_as_xyz
  1  'x, y, z'
loop_
 _atom_site_type_symbol
 _atom_site_label
 _atom_site_symmetry_multiplicity
 _atom_site_fract_x
 _atom_site_fract_y
 _atom_site_fract_z
 _atom_site_occupancy
  Er  Er0  1  0.999985  0.999977  0.999992  1
  Ti  Ti1  1  0.750001  0.250002  0.500001  1
  Nb  Nb2  1  0.250006  0.750005  0.499999  1
  Ga  Ga3  1  0.303710  0.303712  0.607419  1
  Ga  Ga4  1  0.696294  0.696296  0.392586  1
  Ga  Ga5  1  0.696292  0.303712  0.000002  1
  Ga  Ga6  1  0.303711  0.696296  0.000002  1
