# generated using pymatgen
data_La3Sm2P12Pd2Ru17
_symmetry_space_group_name_H-M   'P 1'
_cell_length_a   12.66643246
_cell_length_b   12.78507366
_cell_length_c   4.02611700
_cell_angle_alpha   90.00000000
_cell_angle_beta   90.00000000
_cell_angle_gamma   120.31033630
_symmetry_Int_Tables_number   1
_chemical_formula_structural   La3Sm2P12Pd2Ru17
_chemical_formula_sum   'La3 Sm2 P12 Pd2 Ru17'
_cell_volume   562.86980503
_cell_formula_units_Z   1
loop_
 _symmetry_equiv_pos_site_id
 _symmetry_equiv_pos_as_xyz
  1  'x, y, z'
loop_
 _atom_site_type_symbol
 _atom_site_label
 _atom_site_symmetry_multiplicity
 _atom_site_fract_x
 _atom_site_fract_y
 _atom_site_fract_z
 _atom_site_occupancy
  La  La0  1  0.182066  0.180666  0.500000  1
  La  La1  1  0.817934  0.998601  0.500000  1
  La  La2  1  0.000000  0.816327  0.500000  1
  Sm  Sm3  1  0.327512  0.663803  0.000000  1
  Sm  Sm4  1  0.672488  0.336290  0.000000  1
  P  P5  1  0.806834  0.808196  0.000000  1
  P  P6  1  0.193166  0.001361  0.000000  1
  P  P7  1  0.000000  0.187746  0.000000  1
  P  P8  1  0.171362  0.476985  0.500000  1
  P  P9  1  0.517165  0.700776  0.500000  1
  P  P10  1  0.297892  0.820960  0.500000  1
  P  P11  1  0.702108  0.523069  0.500000  1
  P  P12  1  0.828638  0.305623  0.500000  1
  P  P13  1  0.482835  0.183612  0.500000  1
  P  P14  1  0.369468  0.369452  0.000000  1
  P  P15  1  0.630532  0.999984  0.000000  1
  P  P16  1  0.000000  0.622559  0.000000  1
  Pd  Pd17  1  0.552363  0.553300  0.000000  1
  Pd  Pd18  1  0.447637  0.000938  0.000000  1
  Ru  Ru19  1  0.000000  0.444540  0.000000  1
  Ru  Ru20  1  0.706835  0.709027  0.500000  1
  Ru  Ru21  1  0.293165  0.002192  0.500000  1
  Ru  Ru22  1  0.000000  0.286098  0.500000  1
  Ru  Ru23  1  0.185562  0.379842  0.000000  1
  Ru  Ru24  1  0.614979  0.803183  0.000000  1
  Ru  Ru25  1  0.194465  0.814794  0.000000  1
  Ru  Ru26  1  0.805535  0.620329  0.000000  1
  Ru  Ru27  1  0.814438  0.194280  0.000000  1
  Ru  Ru28  1  0.385021  0.188204  0.000000  1
  Ru  Ru29  1  0.367280  0.494584  0.500000  1
  Ru  Ru30  1  0.506407  0.878359  0.500000  1
  Ru  Ru31  1  0.123264  0.630533  0.500000  1
  Ru  Ru32  1  0.876736  0.507269  0.500000  1
  Ru  Ru33  1  0.632720  0.127304  0.500000  1
  Ru  Ru34  1  0.493593  0.371952  0.500000  1
  Ru  Ru35  1  0.000000  0.997262  0.000000  1
