# generated using pymatgen
data_Ta2Hg4BiSbO14
_symmetry_space_group_name_H-M   'P 1'
_cell_length_a   7.60602462
_cell_length_b   7.60602326
_cell_length_c   7.57667488
_cell_angle_alpha   59.35926800
_cell_angle_beta   59.35927727
_cell_angle_gamma   59.47932047
_symmetry_Int_Tables_number   1
_chemical_formula_structural   Ta2Hg4BiSbO14
_chemical_formula_sum   'Ta2 Hg4 Bi1 Sb1 O14'
_cell_volume   305.70316172
_cell_formula_units_Z   1
loop_
 _symmetry_equiv_pos_site_id
 _symmetry_equiv_pos_as_xyz
  1  'x, y, z'
loop_
 _atom_site_type_symbol
 _atom_site_label
 _atom_site_symmetry_multiplicity
 _atom_site_fract_x
 _atom_site_fract_y
 _atom_site_fract_z
 _atom_site_occupancy
  Ta  Ta0  1  0.125000  0.625000  0.125000  1
  Ta  Ta1  1  0.625000  0.125000  0.125000  1
  Hg  Hg2  1  0.625000  0.625000  0.625000  1
  Hg  Hg3  1  0.625000  0.125000  0.625000  1
  Hg  Hg4  1  0.625000  0.625000  0.125000  1
  Hg  Hg5  1  0.125000  0.625000  0.625000  1
  Bi  Bi6  1  0.125000  0.125000  0.125000  1
  Sb  Sb7  1  0.125000  0.125000  0.625000  1
  O  O8  1  0.821711  0.821711  0.188467  1
  O  O9  1  0.816055  0.196296  0.815849  1
  O  O10  1  0.041553  0.041553  0.470758  1
  O  O11  1  0.787001  0.202453  0.203580  1
  O  O12  1  0.428289  0.428289  0.061533  1
  O  O13  1  0.047547  0.462999  0.046420  1
  O  O14  1  0.196296  0.816055  0.815849  1
  O  O15  1  0.433945  0.053704  0.434151  1
  O  O16  1  0.506098  0.506098  0.498518  1
  O  O17  1  0.202453  0.787001  0.203580  1
  O  O18  1  0.208447  0.208447  0.779242  1
  O  O19  1  0.743902  0.743902  0.751482  1
  O  O20  1  0.462999  0.047547  0.046420  1
  O  O21  1  0.053704  0.433945  0.434151  1
