# generated using pymatgen
data_HoCo4TcP3
_symmetry_space_group_name_H-M   'P 1'
_cell_length_a   3.71117900
_cell_length_b   10.35215500
_cell_length_c   11.80987800
_cell_angle_alpha   90.00000000
_cell_angle_beta   90.00000000
_cell_angle_gamma   90.00000000
_symmetry_Int_Tables_number   1
_chemical_formula_structural   HoCo4TcP3
_chemical_formula_sum   'Ho4 Co16 Tc4 P12'
_cell_volume   453.72016276
_cell_formula_units_Z   4
loop_
 _symmetry_equiv_pos_site_id
 _symmetry_equiv_pos_as_xyz
  1  'x, y, z'
loop_
 _atom_site_type_symbol
 _atom_site_label
 _atom_site_symmetry_multiplicity
 _atom_site_fract_x
 _atom_site_fract_y
 _atom_site_fract_z
 _atom_site_occupancy
  Ho  Ho0  1  0.250000  0.584023  0.704581  1
  Ho  Ho1  1  0.250000  0.915977  0.204581  1
  Ho  Ho2  1  0.750000  0.415977  0.295419  1
  Ho  Ho3  1  0.750000  0.084023  0.795419  1
  Co  Co4  1  0.250000  0.407001  0.488689  1
  Co  Co5  1  0.250000  0.092999  0.988689  1
  Co  Co6  1  0.750000  0.592999  0.511311  1
  Co  Co7  1  0.750000  0.907001  0.011311  1
  Co  Co8  1  0.250000  0.221783  0.176853  1
  Co  Co9  1  0.250000  0.278217  0.676853  1
  Co  Co10  1  0.750000  0.778217  0.823147  1
  Co  Co11  1  0.750000  0.721783  0.323147  1
  Co  Co12  1  0.250000  0.885788  0.702265  1
  Co  Co13  1  0.250000  0.614212  0.202265  1
  Co  Co14  1  0.750000  0.114212  0.297735  1
  Co  Co15  1  0.750000  0.385788  0.797735  1
  Co  Co16  1  0.250000  0.463947  0.931701  1
  Co  Co17  1  0.250000  0.036053  0.431701  1
  Co  Co18  1  0.750000  0.536053  0.068299  1
  Co  Co19  1  0.750000  0.963947  0.568299  1
  Tc  Tc20  1  0.250000  0.711036  0.989307  1
  Tc  Tc21  1  0.250000  0.788964  0.489307  1
  Tc  Tc22  1  0.750000  0.288964  0.010693  1
  Tc  Tc23  1  0.750000  0.211036  0.510693  1
  P  P24  1  0.250000  0.420652  0.113145  1
  P  P25  1  0.250000  0.079348  0.613145  1
  P  P26  1  0.750000  0.579348  0.886855  1
  P  P27  1  0.750000  0.920652  0.386855  1
  P  P28  1  0.250000  0.269291  0.865758  1
  P  P29  1  0.250000  0.230709  0.365758  1
  P  P30  1  0.750000  0.730709  0.134242  1
  P  P31  1  0.750000  0.769291  0.634242  1
  P  P32  1  0.250000  0.596450  0.390717  1
  P  P33  1  0.250000  0.903550  0.890717  1
  P  P34  1  0.750000  0.403550  0.609283  1
  P  P35  1  0.750000  0.096450  0.109283  1
