# generated using pymatgen
data_Eu6TiAl23Os8
_symmetry_space_group_name_H-M   'P 1'
_cell_length_a   8.86087200
_cell_length_b   8.86087265
_cell_length_c   9.64220500
_cell_angle_alpha   90.00000000
_cell_angle_beta   90.00000000
_cell_angle_gamma   119.99999758
_symmetry_Int_Tables_number   1
_chemical_formula_structural   Eu6TiAl23Os8
_chemical_formula_sum   'Eu6 Ti1 Al23 Os8'
_cell_volume   655.63172565
_cell_formula_units_Z   1
loop_
 _symmetry_equiv_pos_site_id
 _symmetry_equiv_pos_as_xyz
  1  'x, y, z'
loop_
 _atom_site_type_symbol
 _atom_site_label
 _atom_site_symmetry_multiplicity
 _atom_site_fract_x
 _atom_site_fract_y
 _atom_site_fract_z
 _atom_site_occupancy
  Eu  Eu0  1  0.193341  0.386681  0.249371  1
  Eu  Eu1  1  0.806782  0.613563  0.749367  1
  Eu  Eu2  1  0.613319  0.806659  0.249371  1
  Eu  Eu3  1  0.386437  0.193218  0.749367  1
  Eu  Eu4  1  0.193341  0.806659  0.249371  1
  Eu  Eu5  1  0.806782  0.193218  0.749367  1
  Ti  Ti6  1  0.333333  0.666667  0.985957  1
  Al  Al7  1  0.666667  0.333333  0.003017  1
  Al  Al8  1  0.666667  0.333333  0.504646  1
  Al  Al9  1  0.333333  0.666667  0.490126  1
  Al  Al10  1  0.161623  0.323247  0.573804  1
  Al  Al11  1  0.838055  0.676111  0.424477  1
  Al  Al12  1  0.676753  0.838377  0.573804  1
  Al  Al13  1  0.838485  0.676970  0.078092  1
  Al  Al14  1  0.323889  0.161945  0.424477  1
  Al  Al15  1  0.159112  0.318225  0.925642  1
  Al  Al16  1  0.161623  0.838377  0.573804  1
  Al  Al17  1  0.323030  0.161515  0.078092  1
  Al  Al18  1  0.838055  0.161945  0.424477  1
  Al  Al19  1  0.681775  0.840888  0.925642  1
  Al  Al20  1  0.838485  0.161515  0.078092  1
  Al  Al21  1  0.159112  0.840888  0.925642  1
  Al  Al22  1  0.561856  0.123712  0.251617  1
  Al  Al23  1  0.439339  0.878678  0.749157  1
  Al  Al24  1  0.876288  0.438144  0.251617  1
  Al  Al25  1  0.121322  0.560661  0.749157  1
  Al  Al26  1  0.561856  0.438144  0.251617  1
  Al  Al27  1  0.439339  0.560661  0.749157  1
  Al  Al28  1  0.000000  0.000000  0.251474  1
  Al  Al29  1  0.000000  0.000000  0.751137  1
  Os  Os30  1  0.498893  0.997787  0.000779  1
  Os  Os31  1  0.002213  0.501107  0.000779  1
  Os  Os32  1  0.499661  0.999322  0.501434  1
  Os  Os33  1  0.498893  0.501107  0.000779  1
  Os  Os34  1  0.000678  0.500339  0.501434  1
  Os  Os35  1  0.499661  0.500339  0.501434  1
  Os  Os36  1  0.000000  0.000000  0.002077  1
  Os  Os37  1  0.000000  0.000000  0.500345  1
