# generated using pymatgen
data_Tb16Zn3InRh4
_symmetry_space_group_name_H-M   'P 1'
_cell_length_a   9.57780107
_cell_length_b   9.57575102
_cell_length_c   9.57575100
_cell_angle_alpha   60.00000352
_cell_angle_beta   60.00708370
_cell_angle_gamma   60.00707907
_symmetry_Int_Tables_number   1
_chemical_formula_structural   Tb16Zn3InRh4
_chemical_formula_sum   'Tb16 Zn3 In1 Rh4'
_cell_volume   621.07349030
_cell_formula_units_Z   1
loop_
 _symmetry_equiv_pos_site_id
 _symmetry_equiv_pos_as_xyz
  1  'x, y, z'
loop_
 _atom_site_type_symbol
 _atom_site_label
 _atom_site_symmetry_multiplicity
 _atom_site_fract_x
 _atom_site_fract_y
 _atom_site_fract_z
 _atom_site_occupancy
  Tb  Tb0  1  0.809719  0.809356  0.190462  1
  Tb  Tb1  1  0.809719  0.190462  0.809356  1
  Tb  Tb2  1  0.189314  0.190525  0.810081  1
  Tb  Tb3  1  0.646856  0.057256  0.647944  1
  Tb  Tb4  1  0.069550  0.059396  0.435527  1
  Tb  Tb5  1  0.436869  0.435193  0.063969  1
  Tb  Tb6  1  0.646856  0.647944  0.647944  1
  Tb  Tb7  1  0.809719  0.190462  0.190462  1
  Tb  Tb8  1  0.189314  0.810081  0.810081  1
  Tb  Tb9  1  0.061179  0.646274  0.646274  1
  Tb  Tb10  1  0.436869  0.063969  0.063969  1
  Tb  Tb11  1  0.436869  0.063969  0.435193  1
  Tb  Tb12  1  0.069550  0.435527  0.059396  1
  Tb  Tb13  1  0.646856  0.647944  0.057256  1
  Tb  Tb14  1  0.189314  0.810081  0.190525  1
  Tb  Tb15  1  0.069550  0.435527  0.435527  1
  Zn  Zn16  1  0.417169  0.420610  0.420610  1
  Zn  Zn17  1  0.417169  0.420610  0.741609  1
  Zn  Zn18  1  0.417169  0.741609  0.420610  1
  In  In19  1  0.731500  0.422833  0.422833  1
  Rh  Rh20  1  0.856746  0.430451  0.856402  1
  Rh  Rh21  1  0.856746  0.856402  0.856402  1
  Rh  Rh22  1  0.856746  0.856402  0.430451  1
  Rh  Rh23  1  0.428651  0.857117  0.857117  1
