# generated using pymatgen
data_Tb3Ho9Co4BiOs
_symmetry_space_group_name_H-M   'P 1'
_cell_length_a   8.29481350
_cell_length_b   8.29436865
_cell_length_c   8.29114204
_cell_angle_alpha   111.30269129
_cell_angle_beta   110.34890595
_cell_angle_gamma   106.81461138
_symmetry_Int_Tables_number   1
_chemical_formula_structural   Tb3Ho9Co4BiOs
_chemical_formula_sum   'Tb3 Ho9 Co4 Bi1 Os1'
_cell_volume   438.27894172
_cell_formula_units_Z   1
loop_
 _symmetry_equiv_pos_site_id
 _symmetry_equiv_pos_as_xyz
  1  'x, y, z'
loop_
 _atom_site_type_symbol
 _atom_site_label
 _atom_site_symmetry_multiplicity
 _atom_site_fract_x
 _atom_site_fract_y
 _atom_site_fract_z
 _atom_site_occupancy
  Tb  Tb0  1  0.818343  0.717631  0.535970  1
  Tb  Tb1  1  0.181206  0.282299  0.463489  1
  Tb  Tb2  1  0.181896  0.717786  0.899667  1
  Ho  Ho3  1  0.818642  0.281854  0.100486  1
  Ho  Ho4  1  0.687645  0.378403  0.691365  1
  Ho  Ho5  1  0.312092  0.621251  0.308836  1
  Ho  Ho6  1  0.687574  0.996708  0.308800  1
  Ho  Ho7  1  0.312915  0.003697  0.691369  1
  Ho  Ho8  1  0.590270  0.786856  0.804127  1
  Ho  Ho9  1  0.410208  0.213787  0.196110  1
  Ho  Ho10  1  0.982332  0.785922  0.196116  1
  Ho  Ho11  1  0.017258  0.213805  0.804102  1
  Co  Co12  1  0.624559  0.000203  0.624753  1
  Co  Co13  1  0.375675  0.000056  0.375746  1
  Co  Co14  1  0.111165  0.611021  0.499385  1
  Co  Co15  1  0.888407  0.388226  0.499386  1
  Bi  Bi16  1  0.500069  0.499968  0.000038  1
  Os  Os17  1  0.999744  0.000526  0.000255  1
