# generated using pymatgen
data_Nd9Ho3In20
_symmetry_space_group_name_H-M   'P 1'
_cell_length_a   6.68418815
_cell_length_b   10.56735900
_cell_length_c   12.46999801
_cell_angle_alpha   90.00000000
_cell_angle_beta   89.95162895
_cell_angle_gamma   90.00000000
_symmetry_Int_Tables_number   1
_chemical_formula_structural   Nd9Ho3In20
_chemical_formula_sum   'Nd9 Ho3 In20'
_cell_volume   880.80821659
_cell_formula_units_Z   1
loop_
 _symmetry_equiv_pos_site_id
 _symmetry_equiv_pos_as_xyz
  1  'x, y, z'
loop_
 _atom_site_type_symbol
 _atom_site_label
 _atom_site_symmetry_multiplicity
 _atom_site_fract_x
 _atom_site_fract_y
 _atom_site_fract_z
 _atom_site_occupancy
  Nd  Nd0  1  0.349768  0.750000  0.059852  1
  Nd  Nd1  1  0.887956  0.490486  0.143742  1
  Nd  Nd2  1  0.612267  0.011235  0.643163  1
  Nd  Nd3  1  0.110091  0.991312  0.855543  1
  Nd  Nd4  1  0.389535  0.509298  0.356344  1
  Nd  Nd5  1  0.110091  0.508688  0.855543  1
  Nd  Nd6  1  0.389535  0.990702  0.356344  1
  Nd  Nd7  1  0.887956  0.009514  0.143742  1
  Nd  Nd8  1  0.612267  0.488765  0.643163  1
  Ho  Ho9  1  0.150729  0.750000  0.558788  1
  Ho  Ho10  1  0.649735  0.250000  0.940111  1
  Ho  Ho11  1  0.849732  0.250000  0.440837  1
  In  In12  1  0.617192  0.750000  0.505453  1
  In  In13  1  0.876727  0.750000  0.002259  1
  In  In14  1  0.384470  0.250000  0.496579  1
  In  In15  1  0.113436  0.250000  0.996443  1
  In  In16  1  0.659654  0.750000  0.246280  1
  In  In17  1  0.846586  0.750000  0.743218  1
  In  In18  1  0.346671  0.250000  0.755382  1
  In  In19  1  0.153505  0.250000  0.255982  1
  In  In20  1  0.112064  0.750000  0.287833  1
  In  In21  1  0.389013  0.750000  0.782319  1
  In  In22  1  0.889912  0.250000  0.715757  1
  In  In23  1  0.612732  0.250000  0.216609  1
  In  In24  1  0.874487  0.544665  0.404567  1
  In  In25  1  0.624564  0.956306  0.902375  1
  In  In26  1  0.126484  0.044974  0.596017  1
  In  In27  1  0.373651  0.451393  0.096396  1
  In  In28  1  0.126484  0.455026  0.596017  1
  In  In29  1  0.373651  0.048607  0.096396  1
  In  In30  1  0.874487  0.955335  0.404567  1
  In  In31  1  0.624564  0.543694  0.902375  1
