# generated using pymatgen
data_Li6Y2PaN6
_symmetry_space_group_name_H-M   'P 1'
_cell_length_a   6.07452400
_cell_length_b   6.07452441
_cell_length_c   5.48798500
_cell_angle_alpha   90.00000000
_cell_angle_beta   90.00000000
_cell_angle_gamma   120.00000864
_symmetry_Int_Tables_number   1
_chemical_formula_structural   Li6Y2PaN6
_chemical_formula_sum   'Li6 Y2 Pa1 N6'
_cell_volume   175.37514522
_cell_formula_units_Z   1
loop_
 _symmetry_equiv_pos_site_id
 _symmetry_equiv_pos_as_xyz
  1  'x, y, z'
loop_
 _atom_site_type_symbol
 _atom_site_label
 _atom_site_symmetry_multiplicity
 _atom_site_fract_x
 _atom_site_fract_y
 _atom_site_fract_z
 _atom_site_occupancy
  Li  Li0  1  0.987498  0.656938  0.605294  1
  Li  Li1  1  0.343062  0.330560  0.605294  1
  Li  Li2  1  0.669440  0.012502  0.605294  1
  Li  Li3  1  0.010700  0.336488  0.393925  1
  Li  Li4  1  0.663512  0.674213  0.393925  1
  Li  Li5  1  0.325787  0.989300  0.393925  1
  Y  Y6  1  0.000000  0.000000  0.996378  1
  Y  Y7  1  0.333333  0.666667  0.992747  1
  Pa  Pa8  1  0.666667  0.333333  0.007500  1
  N  N9  1  0.986699  0.653324  0.230093  1
  N  N10  1  0.346676  0.333374  0.230093  1
  N  N11  1  0.666626  0.013301  0.230093  1
  N  N12  1  0.984178  0.333467  0.771812  1
  N  N13  1  0.666533  0.650711  0.771812  1
  N  N14  1  0.349289  0.015822  0.771812  1
