# generated using pymatgen
data_U4CuTe7I5
_symmetry_space_group_name_H-M   'P 1'
_cell_length_a   7.69010876
_cell_length_b   7.69010880
_cell_length_c   11.49993384
_cell_angle_alpha   70.52068589
_cell_angle_beta   70.52068573
_cell_angle_gamma   67.18067997
_symmetry_Int_Tables_number   1
_chemical_formula_structural   U4CuTe7I5
_chemical_formula_sum   'U4 Cu1 Te7 I5'
_cell_volume   574.43390074
_cell_formula_units_Z   1
loop_
 _symmetry_equiv_pos_site_id
 _symmetry_equiv_pos_as_xyz
  1  'x, y, z'
loop_
 _atom_site_type_symbol
 _atom_site_label
 _atom_site_symmetry_multiplicity
 _atom_site_fract_x
 _atom_site_fract_y
 _atom_site_fract_z
 _atom_site_occupancy
  U  U0  1  0.812803  0.812803  0.842649  1
  U  U1  1  0.316461  0.316461  0.843356  1
  U  U2  1  0.689998  0.193829  0.154359  1
  U  U3  1  0.193829  0.689998  0.154359  1
  Cu  Cu4  1  0.803793  0.803793  0.527292  1
  Te  Te5  1  0.757704  0.757704  0.325116  1
  Te  Te6  1  0.234412  0.733904  0.677204  1
  Te  Te7  1  0.733904  0.234412  0.677204  1
  Te  Te8  1  0.024681  0.024681  0.943204  1
  Te  Te9  1  0.523615  0.523615  0.942004  1
  Te  Te10  1  0.480683  0.982049  0.056415  1
  Te  Te11  1  0.982049  0.480683  0.056415  1
  I  I12  1  0.000801  0.000801  0.332691  1
  I  I13  1  0.522654  0.522654  0.326463  1
  I  I14  1  0.484729  0.985303  0.671878  1
  I  I15  1  0.985303  0.484729  0.671878  1
  I  I16  1  0.263880  0.263880  0.331912  1
