# generated using pymatgen
data_EuSb12(OsRh)2
_symmetry_space_group_name_H-M   'P 1'
_cell_length_a   8.14360666
_cell_length_b   8.16977316
_cell_length_c   8.16848196
_cell_angle_alpha   109.62134056
_cell_angle_beta   109.42681405
_cell_angle_gamma   109.44349535
_symmetry_Int_Tables_number   1
_chemical_formula_structural   EuSb12(OsRh)2
_chemical_formula_sum   'Eu1 Sb12 Os2 Rh2'
_cell_volume   417.95198568
_cell_formula_units_Z   1
loop_
 _symmetry_equiv_pos_site_id
 _symmetry_equiv_pos_as_xyz
  1  'x, y, z'
loop_
 _atom_site_type_symbol
 _atom_site_label
 _atom_site_symmetry_multiplicity
 _atom_site_fract_x
 _atom_site_fract_y
 _atom_site_fract_z
 _atom_site_occupancy
  Eu  Eu0  1  0.000000  0.000000  0.000000  1
  Sb  Sb1  1  0.658273  0.842378  0.502904  1
  Sb  Sb2  1  0.341727  0.157622  0.497096  1
  Sb  Sb3  1  0.842957  0.183630  0.340185  1
  Sb  Sb4  1  0.813442  0.658323  0.155445  1
  Sb  Sb5  1  0.843698  0.503360  0.659257  1
  Sb  Sb6  1  0.186558  0.341677  0.844555  1
  Sb  Sb7  1  0.157043  0.816370  0.659815  1
  Sb  Sb8  1  0.503267  0.661162  0.842106  1
  Sb  Sb9  1  0.496733  0.338838  0.157894  1
  Sb  Sb10  1  0.156302  0.496640  0.340743  1
  Sb  Sb11  1  0.341293  0.844009  0.183781  1
  Sb  Sb12  1  0.658707  0.155991  0.816219  1
  Os  Os13  1  0.500000  0.500000  0.500000  1
  Os  Os14  1  0.500000  0.000000  0.000000  1
  Rh  Rh15  1  0.000000  0.000000  0.500000  1
  Rh  Rh16  1  0.000000  0.500000  0.000000  1
