# generated using pymatgen
data_HfZrAsP
_symmetry_space_group_name_H-M   'P 1'
_cell_length_a   3.73807000
_cell_length_b   3.73806900
_cell_length_c   12.71478500
_cell_angle_alpha   90.00000000
_cell_angle_beta   90.00000000
_cell_angle_gamma   119.99999118
_symmetry_Int_Tables_number   1
_chemical_formula_structural   HfZrAsP
_chemical_formula_sum   'Hf2 Zr2 As2 P2'
_cell_volume   153.86308442
_cell_formula_units_Z   2
loop_
 _symmetry_equiv_pos_site_id
 _symmetry_equiv_pos_as_xyz
  1  'x, y, z'
loop_
 _atom_site_type_symbol
 _atom_site_label
 _atom_site_symmetry_multiplicity
 _atom_site_fract_x
 _atom_site_fract_y
 _atom_site_fract_z
 _atom_site_occupancy
  Hf  Hf0  1  0.666667  0.333333  0.611181  1
  Hf  Hf1  1  0.333333  0.666667  0.111181  1
  Zr  Zr2  1  0.666667  0.333333  0.888710  1
  Zr  Zr3  1  0.333333  0.666667  0.388710  1
  As  As4  1  0.333333  0.666667  0.747875  1
  As  As5  1  0.666667  0.333333  0.247875  1
  P  P6  1  0.000000  0.000000  0.002234  1
  P  P7  1  0.000000  0.000000  0.502234  1
