# generated using pymatgen
data_Tb16Sc4IrRh11
_symmetry_space_group_name_H-M   'P 1'
_cell_length_a   10.84064790
_cell_length_b   10.84064790
_cell_length_c   6.28893433
_cell_angle_alpha   90.02625780
_cell_angle_beta   90.02625780
_cell_angle_gamma   90.03869576
_symmetry_Int_Tables_number   1
_chemical_formula_structural   Tb16Sc4IrRh11
_chemical_formula_sum   'Tb16 Sc4 Ir1 Rh11'
_cell_volume   739.07301833
_cell_formula_units_Z   1
loop_
 _symmetry_equiv_pos_site_id
 _symmetry_equiv_pos_as_xyz
  1  'x, y, z'
loop_
 _atom_site_type_symbol
 _atom_site_label
 _atom_site_symmetry_multiplicity
 _atom_site_fract_x
 _atom_site_fract_y
 _atom_site_fract_z
 _atom_site_occupancy
  Tb  Tb0  1  0.287126  0.086165  0.378814  1
  Tb  Tb1  1  0.287379  0.912448  0.878600  1
  Tb  Tb2  1  0.712845  0.085924  0.878810  1
  Tb  Tb3  1  0.712814  0.913810  0.378796  1
  Tb  Tb4  1  0.584735  0.786550  0.878551  1
  Tb  Tb5  1  0.586060  0.213022  0.379356  1
  Tb  Tb6  1  0.413768  0.786638  0.379406  1
  Tb  Tb7  1  0.413856  0.212761  0.878773  1
  Tb  Tb8  1  0.213450  0.415265  0.621449  1
  Tb  Tb9  1  0.213362  0.586232  0.120594  1
  Tb  Tb10  1  0.786978  0.413940  0.120644  1
  Tb  Tb11  1  0.787239  0.586144  0.621227  1
  Tb  Tb12  1  0.913835  0.712874  0.121186  1
  Tb  Tb13  1  0.914076  0.287155  0.621190  1
  Tb  Tb14  1  0.087552  0.712621  0.621400  1
  Tb  Tb15  1  0.086190  0.287186  0.121204  1
  Sc  Sc16  1  0.999969  0.999918  0.500215  1
  Sc  Sc17  1  0.000082  0.000031  0.999785  1
  Sc  Sc18  1  0.499391  0.500423  0.999309  1
  Sc  Sc19  1  0.499577  0.500609  0.500691  1
  Ir  Ir20  1  0.352882  0.647118  0.750000  1
  Rh  Rh21  1  0.852826  0.147174  0.250000  1
  Rh  Rh22  1  0.852900  0.852999  0.749983  1
  Rh  Rh23  1  0.147001  0.147100  0.750017  1
  Rh  Rh24  1  0.146618  0.853382  0.250000  1
  Rh  Rh25  1  0.647463  0.352537  0.750000  1
  Rh  Rh26  1  0.648085  0.647190  0.249963  1
  Rh  Rh27  1  0.352810  0.351915  0.250037  1
  Rh  Rh28  1  0.500138  0.000526  0.122460  1
  Rh  Rh29  1  0.500205  0.000689  0.622012  1
  Rh  Rh30  1  0.999311  0.499795  0.877988  1
  Rh  Rh31  1  0.999474  0.499862  0.377540  1
