# generated using pymatgen
data_NaPdF6
_symmetry_space_group_name_H-M   'P 1'
_cell_length_a   5.79869740
_cell_length_b   5.79824970
_cell_length_c   5.79817229
_cell_angle_alpha   54.64010692
_cell_angle_beta   54.63503513
_cell_angle_gamma   54.63751641
_symmetry_Int_Tables_number   1
_chemical_formula_structural   NaPdF6
_chemical_formula_sum   'Na1 Pd1 F6'
_cell_volume   120.62475608
_cell_formula_units_Z   1
loop_
 _symmetry_equiv_pos_site_id
 _symmetry_equiv_pos_as_xyz
  1  'x, y, z'
loop_
 _atom_site_type_symbol
 _atom_site_label
 _atom_site_symmetry_multiplicity
 _atom_site_fract_x
 _atom_site_fract_y
 _atom_site_fract_z
 _atom_site_occupancy
  Na  Na0  1  0.000000  0.000000  0.000000  1
  Pd  Pd1  1  0.500000  0.500000  0.500000  1
  F  F2  1  0.130673  0.718670  0.426203  1
  F  F3  1  0.426196  0.130667  0.718677  1
  F  F4  1  0.281317  0.573809  0.869346  1
  F  F5  1  0.573804  0.869333  0.281323  1
  F  F6  1  0.869327  0.281330  0.573797  1
  F  F7  1  0.718683  0.426191  0.130654  1
