# generated using pymatgen
data_TbCe(ScIr)2
_symmetry_space_group_name_H-M   'P 1'
_cell_length_a   4.38875100
_cell_length_b   7.08597116
_cell_length_c   8.58548045
_cell_angle_alpha   86.09761338
_cell_angle_beta   90.00000000
_cell_angle_gamma   90.00000000
_symmetry_Int_Tables_number   1
_chemical_formula_structural   TbCe(ScIr)2
_chemical_formula_sum   'Tb2 Ce2 Sc4 Ir4'
_cell_volume   266.37705945
_cell_formula_units_Z   2
loop_
 _symmetry_equiv_pos_site_id
 _symmetry_equiv_pos_as_xyz
  1  'x, y, z'
loop_
 _atom_site_type_symbol
 _atom_site_label
 _atom_site_symmetry_multiplicity
 _atom_site_fract_x
 _atom_site_fract_y
 _atom_site_fract_z
 _atom_site_occupancy
  Tb  Tb0  1  0.250000  0.518095  0.170385  1
  Tb  Tb1  1  0.750000  0.481905  0.829615  1
  Ce  Ce2  1  0.750000  0.977959  0.685399  1
  Ce  Ce3  1  0.250000  0.022041  0.314601  1
  Sc  Sc4  1  0.250000  0.629992  0.567610  1
  Sc  Sc5  1  0.750000  0.370008  0.432390  1
  Sc  Sc6  1  0.750000  0.851510  0.067750  1
  Sc  Sc7  1  0.250000  0.148490  0.932250  1
  Ir  Ir8  1  0.250000  0.764193  0.889396  1
  Ir  Ir9  1  0.750000  0.235807  0.110604  1
  Ir  Ir10  1  0.750000  0.753048  0.404311  1
  Ir  Ir11  1  0.250000  0.246952  0.595689  1
