# generated using pymatgen
data_Np3Sc5Mn2(B12Ir)2
_symmetry_space_group_name_H-M   'P 1'
_cell_length_a   3.47385000
_cell_length_b   8.96044671
_cell_length_c   11.32159586
_cell_angle_alpha   90.19692611
_cell_angle_beta   90.00000000
_cell_angle_gamma   90.00000000
_symmetry_Int_Tables_number   1
_chemical_formula_structural   Np3Sc5Mn2(B12Ir)2
_chemical_formula_sum   'Np3 Sc5 Mn2 B24 Ir2'
_cell_volume   352.40803821
_cell_formula_units_Z   1
loop_
 _symmetry_equiv_pos_site_id
 _symmetry_equiv_pos_as_xyz
  1  'x, y, z'
loop_
 _atom_site_type_symbol
 _atom_site_label
 _atom_site_symmetry_multiplicity
 _atom_site_fract_x
 _atom_site_fract_y
 _atom_site_fract_z
 _atom_site_occupancy
  Np  Np0  1  0.500000  0.319601  0.410247  1
  Np  Np1  1  0.500000  0.681501  0.588677  1
  Np  Np2  1  0.500000  0.171577  0.918079  1
  Sc  Sc3  1  0.500000  0.823180  0.082082  1
  Sc  Sc4  1  0.500000  0.441727  0.124658  1
  Sc  Sc5  1  0.500000  0.560755  0.876584  1
  Sc  Sc6  1  0.500000  0.050743  0.628583  1
  Sc  Sc7  1  0.500000  0.948923  0.370568  1
  Mn  Mn8  1  0.500000  0.140381  0.181198  1
  Mn  Mn9  1  0.500000  0.859223  0.819066  1
  B  B10  1  0.000000  0.099984  0.472438  1
  B  B11  1  0.000000  0.900121  0.526384  1
  B  B12  1  0.000000  0.399240  0.973284  1
  B  B13  1  0.000000  0.603931  0.027788  1
  B  B14  1  0.000000  0.130608  0.314351  1
  B  B15  1  0.000000  0.868498  0.685181  1
  B  B16  1  0.000000  0.368640  0.820997  1
  B  B17  1  0.000000  0.632895  0.178702  1
  B  B18  1  0.000000  0.052620  0.068429  1
  B  B19  1  0.000000  0.943246  0.934190  1
  B  B20  1  0.000000  0.446509  0.566189  1
  B  B21  1  0.000000  0.554392  0.433124  1
  B  B22  1  0.000000  0.481416  0.283646  1
  B  B23  1  0.000000  0.520077  0.716434  1
  B  B24  1  0.000000  0.014628  0.788091  1
  B  B25  1  0.000000  0.982809  0.211560  1
  B  B26  1  0.000000  0.249724  0.081455  1
  B  B27  1  0.000000  0.749851  0.921118  1
  B  B28  1  0.000000  0.244755  0.579489  1
  B  B29  1  0.000000  0.755340  0.419557  1
  B  B30  1  0.000000  0.292990  0.232705  1
  B  B31  1  0.000000  0.707267  0.768459  1
  B  B32  1  0.000000  0.202235  0.736993  1
  B  B33  1  0.000000  0.798076  0.261094  1
  Ir  Ir34  1  0.500000  0.358008  0.683088  1
  Ir  Ir35  1  0.500000  0.644524  0.315511  1
