# generated using pymatgen
data_CaDy3(Si4Tc3)2
_symmetry_space_group_name_H-M   'P 1'
_cell_length_a   6.81113354
_cell_length_b   6.73413150
_cell_length_c   6.79399396
_cell_angle_alpha   70.17817273
_cell_angle_beta   90.01755701
_cell_angle_gamma   89.84608725
_symmetry_Int_Tables_number   1
_chemical_formula_structural   CaDy3(Si4Tc3)2
_chemical_formula_sum   'Ca1 Dy3 Si8 Tc6'
_cell_volume   293.15628171
_cell_formula_units_Z   1
loop_
 _symmetry_equiv_pos_site_id
 _symmetry_equiv_pos_as_xyz
  1  'x, y, z'
loop_
 _atom_site_type_symbol
 _atom_site_label
 _atom_site_symmetry_multiplicity
 _atom_site_fract_x
 _atom_site_fract_y
 _atom_site_fract_z
 _atom_site_occupancy
  Ca  Ca0  1  0.667084  0.443773  0.186355  1
  Dy  Dy1  1  0.167570  0.058421  0.807589  1
  Dy  Dy2  1  0.332964  0.557408  0.809305  1
  Dy  Dy3  1  0.831529  0.941501  0.192999  1
  Si  Si4  1  0.449979  0.120144  0.104312  1
  Si  Si5  1  0.949309  0.379754  0.896737  1
  Si  Si6  1  0.550154  0.878966  0.897751  1
  Si  Si7  1  0.048691  0.619464  0.104744  1
  Si  Si8  1  0.856938  0.134794  0.509863  1
  Si  Si9  1  0.360473  0.368953  0.485432  1
  Si  Si10  1  0.141396  0.867740  0.488099  1
  Si  Si11  1  0.642004  0.629356  0.511760  1
  Tc  Tc12  1  0.499348  0.997604  0.502060  1
  Tc  Tc13  1  0.003245  0.499764  0.503491  1
  Tc  Tc14  1  0.152927  0.242239  0.239342  1
  Tc  Tc15  1  0.653547  0.255283  0.761694  1
  Tc  Tc16  1  0.848661  0.760131  0.759624  1
  Tc  Tc17  1  0.344180  0.744703  0.238844  1
