# generated using pymatgen
data_Y4Ho2Al24Os7Au
_symmetry_space_group_name_H-M   'P 1'
_cell_length_a   8.85754919
_cell_length_b   8.85754943
_cell_length_c   9.55543257
_cell_angle_alpha   89.79907265
_cell_angle_beta   90.20092535
_cell_angle_gamma   119.94812985
_symmetry_Int_Tables_number   1
_chemical_formula_structural   Y4Ho2Al24Os7Au
_chemical_formula_sum   'Y4 Ho2 Al24 Os7 Au1'
_cell_volume   649.57804496
_cell_formula_units_Z   1
loop_
 _symmetry_equiv_pos_site_id
 _symmetry_equiv_pos_as_xyz
  1  'x, y, z'
loop_
 _atom_site_type_symbol
 _atom_site_label
 _atom_site_symmetry_multiplicity
 _atom_site_fract_x
 _atom_site_fract_y
 _atom_site_fract_z
 _atom_site_occupancy
  Y  Y0  1  0.190446  0.386781  0.251257  1
  Y  Y1  1  0.809554  0.613219  0.748743  1
  Y  Y2  1  0.613219  0.809554  0.251257  1
  Y  Y3  1  0.386781  0.190446  0.748743  1
  Ho  Ho4  1  0.194813  0.805187  0.253375  1
  Ho  Ho5  1  0.805187  0.194813  0.746625  1
  Al  Al6  1  0.328486  0.671514  0.021388  1
  Al  Al7  1  0.671514  0.328486  0.978612  1
  Al  Al8  1  0.666312  0.333688  0.518015  1
  Al  Al9  1  0.333688  0.666312  0.481985  1
  Al  Al10  1  0.162652  0.325792  0.575514  1
  Al  Al11  1  0.837348  0.674208  0.424486  1
  Al  Al12  1  0.674208  0.837348  0.575514  1
  Al  Al13  1  0.848474  0.677664  0.079427  1
  Al  Al14  1  0.325792  0.162652  0.424486  1
  Al  Al15  1  0.151526  0.322336  0.920573  1
  Al  Al16  1  0.163252  0.836748  0.574986  1
  Al  Al17  1  0.322336  0.151526  0.079427  1
  Al  Al18  1  0.836748  0.163252  0.425014  1
  Al  Al19  1  0.677664  0.848474  0.920573  1
  Al  Al20  1  0.836738  0.163262  0.075687  1
  Al  Al21  1  0.163262  0.836738  0.924313  1
  Al  Al22  1  0.560671  0.121361  0.249294  1
  Al  Al23  1  0.439329  0.878639  0.750706  1
  Al  Al24  1  0.878639  0.439329  0.249294  1
  Al  Al25  1  0.121361  0.560671  0.750706  1
  Al  Al26  1  0.563660  0.436340  0.255841  1
  Al  Al27  1  0.436340  0.563660  0.744159  1
  Al  Al28  1  0.999682  0.000318  0.250370  1
  Al  Al29  1  0.000318  0.999682  0.749630  1
  Os  Os30  1  0.500000  0.000000  0.000000  1
  Os  Os31  1  0.000000  0.500000  0.000000  1
  Os  Os32  1  0.500000  0.000000  0.500000  1
  Os  Os33  1  0.000000  0.500000  0.500000  1
  Os  Os34  1  0.500000  0.500000  0.500000  1
  Os  Os35  1  0.000000  0.000000  0.000000  1
  Os  Os36  1  0.000000  0.000000  0.500000  1
  Au  Au37  1  0.500000  0.500000  0.000000  1
