# generated using pymatgen
data_NdLuTe2Se
_symmetry_space_group_name_H-M   'P 1'
_cell_length_a   7.27631803
_cell_length_b   7.27631820
_cell_length_c   10.10816600
_cell_angle_alpha   90.00000000
_cell_angle_beta   90.00000000
_cell_angle_gamma   145.56573613
_symmetry_Int_Tables_number   1
_chemical_formula_structural   NdLuTe2Se
_chemical_formula_sum   'Nd2 Lu2 Te4 Se2'
_cell_volume   302.62016730
_cell_formula_units_Z   2
loop_
 _symmetry_equiv_pos_site_id
 _symmetry_equiv_pos_as_xyz
  1  'x, y, z'
loop_
 _atom_site_type_symbol
 _atom_site_label
 _atom_site_symmetry_multiplicity
 _atom_site_fract_x
 _atom_site_fract_y
 _atom_site_fract_z
 _atom_site_occupancy
  Nd  Nd0  1  0.267568  0.732432  0.750000  1
  Nd  Nd1  1  0.732432  0.267568  0.250000  1
  Lu  Lu2  1  0.000000  0.000000  0.000000  1
  Lu  Lu3  1  0.000000  0.000000  0.500000  1
  Te  Te4  1  0.646057  0.353943  0.561661  1
  Te  Te5  1  0.353943  0.646057  0.438339  1
  Te  Te6  1  0.646057  0.353943  0.938339  1
  Te  Te7  1  0.353943  0.646057  0.061661  1
  Se  Se8  1  0.083887  0.916113  0.250000  1
  Se  Se9  1  0.916113  0.083887  0.750000  1
