# generated using pymatgen
data_Y(Al5Os)2
_symmetry_space_group_name_H-M   'P 1'
_cell_length_a   6.86329837
_cell_length_b   6.86329819
_cell_length_c   9.17055500
_cell_angle_alpha   90.00000000
_cell_angle_beta   90.00000000
_cell_angle_gamma   96.47078603
_symmetry_Int_Tables_number   1
_chemical_formula_structural   Y(Al5Os)2
_chemical_formula_sum   'Y2 Al20 Os4'
_cell_volume   429.22580212
_cell_formula_units_Z   2
loop_
 _symmetry_equiv_pos_site_id
 _symmetry_equiv_pos_as_xyz
  1  'x, y, z'
loop_
 _atom_site_type_symbol
 _atom_site_label
 _atom_site_symmetry_multiplicity
 _atom_site_fract_x
 _atom_site_fract_y
 _atom_site_fract_z
 _atom_site_occupancy
  Y  Y0  1  0.870130  0.129870  0.750000  1
  Y  Y1  1  0.129870  0.870130  0.250000  1
  Al  Al2  1  0.622987  0.377013  0.548789  1
  Al  Al3  1  0.377013  0.622987  0.451211  1
  Al  Al4  1  0.377013  0.622987  0.048789  1
  Al  Al5  1  0.622987  0.377013  0.951211  1
  Al  Al6  1  0.223967  0.223967  0.500000  1
  Al  Al7  1  0.776033  0.776033  0.500000  1
  Al  Al8  1  0.776033  0.776033  0.000000  1
  Al  Al9  1  0.223967  0.223967  0.000000  1
  Al  Al10  1  0.843003  0.156997  0.100633  1
  Al  Al11  1  0.156997  0.843003  0.899367  1
  Al  Al12  1  0.156997  0.843003  0.600633  1
  Al  Al13  1  0.843003  0.156997  0.399367  1
  Al  Al14  1  0.855507  0.586429  0.750000  1
  Al  Al15  1  0.144493  0.413571  0.250000  1
  Al  Al16  1  0.413571  0.144493  0.750000  1
  Al  Al17  1  0.586429  0.855507  0.250000  1
  Al  Al18  1  0.218667  0.481122  0.750000  1
  Al  Al19  1  0.781333  0.518878  0.250000  1
  Al  Al20  1  0.518878  0.781333  0.750000  1
  Al  Al21  1  0.481122  0.218667  0.250000  1
  Os  Os22  1  0.000000  0.500000  0.500000  1
  Os  Os23  1  0.000000  0.500000  0.000000  1
  Os  Os24  1  0.500000  0.000000  0.000000  1
  Os  Os25  1  0.500000  0.000000  0.500000  1
