# generated using pymatgen
data_P12Os3Ru
_symmetry_space_group_name_H-M   'P 1'
_cell_length_a   5.94097333
_cell_length_b   5.99192312
_cell_length_c   8.14986964
_cell_angle_alpha   68.67639048
_cell_angle_beta   70.29209670
_cell_angle_gamma   72.61549509
_symmetry_Int_Tables_number   1
_chemical_formula_structural   P12Os3Ru
_chemical_formula_sum   'P12 Os3 Ru1'
_cell_volume   249.24067631
_cell_formula_units_Z   1
loop_
 _symmetry_equiv_pos_site_id
 _symmetry_equiv_pos_as_xyz
  1  'x, y, z'
loop_
 _atom_site_type_symbol
 _atom_site_label
 _atom_site_symmetry_multiplicity
 _atom_site_fract_x
 _atom_site_fract_y
 _atom_site_fract_z
 _atom_site_occupancy
  P  P0  1  0.831630  0.080868  0.317743  1
  P  P1  1  0.170347  0.919323  0.681019  1
  P  P2  1  0.190985  0.528060  0.449547  1
  P  P3  1  0.806004  0.471576  0.551952  1
  P  P4  1  0.339533  0.217988  0.658227  1
  P  P5  1  0.660262  0.782672  0.341832  1
  P  P6  1  0.677364  0.664253  0.764643  1
  P  P7  1  0.321808  0.335499  0.236158  1
  P  P8  1  0.682139  0.053302  0.940585  1
  P  P9  1  0.320236  0.946491  0.057944  1
  P  P10  1  0.153348  0.316905  0.916103  1
  P  P11  1  0.846749  0.683271  0.083730  1
  Os  Os12  1  0.276502  0.634705  0.955719  1
  Os  Os13  1  0.723520  0.364978  0.044639  1
  Os  Os14  1  0.227728  0.929061  0.372388  1
  Ru  Ru15  1  0.771844  0.071048  0.627770  1
