# generated using pymatgen
data_TbY(P2Pd7)3
_symmetry_space_group_name_H-M   'P 1'
_cell_length_a   8.64000202
_cell_length_b   8.64000527
_cell_length_c   8.63984300
_cell_angle_alpha   60.00063276
_cell_angle_beta   60.00062033
_cell_angle_gamma   59.99826554
_symmetry_Int_Tables_number   1
_chemical_formula_structural   TbY(P2Pd7)3
_chemical_formula_sum   'Tb1 Y1 P6 Pd21'
_cell_volume   456.05489755
_cell_formula_units_Z   1
loop_
 _symmetry_equiv_pos_site_id
 _symmetry_equiv_pos_as_xyz
  1  'x, y, z'
loop_
 _atom_site_type_symbol
 _atom_site_label
 _atom_site_symmetry_multiplicity
 _atom_site_fract_x
 _atom_site_fract_y
 _atom_site_fract_z
 _atom_site_occupancy
  Tb  Tb0  1  0.749999  0.749997  0.750002  1
  Y  Y1  1  0.250001  0.250003  0.249998  1
  P  P2  1  0.739429  0.260571  0.260575  1
  P  P3  1  0.260571  0.739429  0.739425  1
  P  P4  1  0.260571  0.739429  0.260575  1
  P  P5  1  0.739429  0.260571  0.739425  1
  P  P6  1  0.260576  0.260576  0.739424  1
  P  P7  1  0.739423  0.739423  0.260577  1
  Pd  Pd8  1  0.000000  0.000000  0.000000  1
  Pd  Pd9  1  0.385149  0.385152  0.385173  1
  Pd  Pd10  1  0.614877  0.614874  0.614853  1
  Pd  Pd11  1  0.385149  0.385152  0.844526  1
  Pd  Pd12  1  0.385167  0.844530  0.385151  1
  Pd  Pd13  1  0.614877  0.614874  0.155395  1
  Pd  Pd14  1  0.614859  0.155391  0.614876  1
  Pd  Pd15  1  0.844530  0.385169  0.385151  1
  Pd  Pd16  1  0.155391  0.614857  0.614876  1
  Pd  Pd17  1  0.344986  0.999981  0.999984  1
  Pd  Pd18  1  0.655050  0.999983  0.999982  1
  Pd  Pd19  1  0.999980  0.344988  0.655049  1
  Pd  Pd20  1  0.999984  0.655048  0.344986  1
  Pd  Pd21  1  0.999980  0.344988  0.999983  1
  Pd  Pd22  1  0.655050  0.999983  0.344986  1
  Pd  Pd23  1  0.999984  0.655048  0.999983  1
  Pd  Pd24  1  0.344986  0.999981  0.655049  1
  Pd  Pd25  1  0.999983  0.999983  0.344975  1
  Pd  Pd26  1  0.999983  0.999983  0.655058  1
  Pd  Pd27  1  0.655056  0.344981  0.999982  1
  Pd  Pd28  1  0.344978  0.655053  0.999984  1
