# generated using pymatgen
data_Sr15La(NdPt4)4
_symmetry_space_group_name_H-M   'P 1'
_cell_length_a   7.92992834
_cell_length_b   8.08842683
_cell_length_c   15.57629000
_cell_angle_alpha   90.08852471
_cell_angle_beta   90.08796033
_cell_angle_gamma   90.05806350
_symmetry_Int_Tables_number   1
_chemical_formula_structural   Sr15La(NdPt4)4
_chemical_formula_sum   'Sr15 La1 Nd4 Pt16'
_cell_volume   999.07040458
_cell_formula_units_Z   1
loop_
 _symmetry_equiv_pos_site_id
 _symmetry_equiv_pos_as_xyz
  1  'x, y, z'
loop_
 _atom_site_type_symbol
 _atom_site_label
 _atom_site_symmetry_multiplicity
 _atom_site_fract_x
 _atom_site_fract_y
 _atom_site_fract_z
 _atom_site_occupancy
  Sr  Sr0  1  0.164450  0.328249  0.379765  1
  Sr  Sr1  1  0.336930  0.827947  0.619075  1
  Sr  Sr2  1  0.837651  0.671392  0.882095  1
  Sr  Sr3  1  0.492174  0.323338  0.903961  1
  Sr  Sr4  1  0.990231  0.178681  0.597424  1
  Sr  Sr5  1  0.509121  0.679743  0.402057  1
  Sr  Sr6  1  0.008860  0.821110  0.096395  1
  Sr  Sr7  1  0.505877  0.678554  0.095724  1
  Sr  Sr8  1  0.005677  0.819447  0.407079  1
  Sr  Sr9  1  0.494985  0.319566  0.593675  1
  Sr  Sr10  1  0.993403  0.180787  0.905804  1
  Sr  Sr11  1  0.174464  0.487072  0.749657  1
  Sr  Sr12  1  0.676115  0.013878  0.750956  1
  Sr  Sr13  1  0.827615  0.515997  0.249974  1
  Sr  Sr14  1  0.321352  0.985418  0.250403  1
  La  La15  1  0.336038  0.833204  0.878361  1
  Nd  Nd16  1  0.834392  0.670252  0.623975  1
  Nd  Nd17  1  0.665033  0.170155  0.374896  1
  Nd  Nd18  1  0.163663  0.329251  0.122463  1
  Nd  Nd19  1  0.662380  0.171097  0.121629  1
  Pt  Pt20  1  0.329642  0.043571  0.039389  1
  Pt  Pt21  1  0.819002  0.459088  0.463675  1
  Pt  Pt22  1  0.680870  0.958467  0.534892  1
  Pt  Pt23  1  0.176265  0.541899  0.965190  1
  Pt  Pt24  1  0.651430  0.973962  0.961559  1
  Pt  Pt25  1  0.139053  0.531379  0.543868  1
  Pt  Pt26  1  0.359607  0.031474  0.455039  1
  Pt  Pt27  1  0.845791  0.453406  0.044773  1
  Pt  Pt28  1  0.543975  0.625668  0.754055  1
  Pt  Pt29  1  0.044548  0.876928  0.748851  1
  Pt  Pt30  1  0.461156  0.370513  0.244798  1
  Pt  Pt31  1  0.950261  0.126486  0.243298  1
  Pt  Pt32  1  0.288064  0.120248  0.756080  1
  Pt  Pt33  1  0.785654  0.381642  0.744737  1
  Pt  Pt34  1  0.707246  0.884710  0.249654  1
  Pt  Pt35  1  0.217023  0.615421  0.244776  1
