# generated using pymatgen
data_Y3Er7CoBi5
_symmetry_space_group_name_H-M   'P 1'
_cell_length_a   8.03610600
_cell_length_b   9.34774500
_cell_length_c   12.09468300
_cell_angle_alpha   90.00000000
_cell_angle_beta   90.00000000
_cell_angle_gamma   90.00000000
_symmetry_Int_Tables_number   1
_chemical_formula_structural   Y3Er7CoBi5
_chemical_formula_sum   'Y6 Er14 Co2 Bi10'
_cell_volume   908.54617292
_cell_formula_units_Z   2
loop_
 _symmetry_equiv_pos_site_id
 _symmetry_equiv_pos_as_xyz
  1  'x, y, z'
loop_
 _atom_site_type_symbol
 _atom_site_label
 _atom_site_symmetry_multiplicity
 _atom_site_fract_x
 _atom_site_fract_y
 _atom_site_fract_z
 _atom_site_occupancy
  Y  Y0  1  0.575262  0.500000  0.773174  1
  Y  Y1  1  0.424738  0.500000  0.273174  1
  Y  Y2  1  0.259350  0.500000  0.994272  1
  Y  Y3  1  0.740650  0.500000  0.494272  1
  Y  Y4  1  0.089366  0.500000  0.717788  1
  Y  Y5  1  0.910634  0.500000  0.217788  1
  Er  Er6  1  0.430694  0.177112  0.563155  1
  Er  Er7  1  0.569306  0.822888  0.063155  1
  Er  Er8  1  0.072798  0.731522  0.436354  1
  Er  Er9  1  0.927202  0.268478  0.936354  1
  Er  Er10  1  0.072798  0.268478  0.436354  1
  Er  Er11  1  0.927202  0.731522  0.936354  1
  Er  Er12  1  0.430694  0.822888  0.563155  1
  Er  Er13  1  0.569306  0.177112  0.063155  1
  Er  Er14  1  0.906158  0.000000  0.200167  1
  Er  Er15  1  0.093842  0.000000  0.700167  1
  Er  Er16  1  0.198484  0.000000  0.996287  1
  Er  Er17  1  0.801516  0.000000  0.496287  1
  Er  Er18  1  0.371308  0.000000  0.309258  1
  Er  Er19  1  0.628692  0.000000  0.809258  1
  Co  Co20  1  0.175947  0.000000  0.489082  1
  Co  Co21  1  0.824053  0.000000  0.989082  1
  Bi  Bi22  1  0.814811  0.743912  0.671658  1
  Bi  Bi23  1  0.185189  0.256088  0.171658  1
  Bi  Bi24  1  0.680035  0.240503  0.324990  1
  Bi  Bi25  1  0.319965  0.759497  0.824990  1
  Bi  Bi26  1  0.680035  0.759497  0.324990  1
  Bi  Bi27  1  0.319965  0.240503  0.824990  1
  Bi  Bi28  1  0.814811  0.256088  0.671658  1
  Bi  Bi29  1  0.185189  0.743912  0.171658  1
  Bi  Bi30  1  0.345626  0.500000  0.527659  1
  Bi  Bi31  1  0.654374  0.500000  0.027659  1
