# generated using pymatgen
data_TbDyGa9Co2Pt
_symmetry_space_group_name_H-M   'P 1'
_cell_length_a   7.49529328
_cell_length_b   7.49529171
_cell_length_c   9.42657200
_cell_angle_alpha   90.09430208
_cell_angle_beta   90.09429803
_cell_angle_gamma   119.70021922
_symmetry_Int_Tables_number   1
_chemical_formula_structural   TbDyGa9Co2Pt
_chemical_formula_sum   'Tb2 Dy2 Ga18 Co4 Pt2'
_cell_volume   460.00575171
_cell_formula_units_Z   2
loop_
 _symmetry_equiv_pos_site_id
 _symmetry_equiv_pos_as_xyz
  1  'x, y, z'
loop_
 _atom_site_type_symbol
 _atom_site_label
 _atom_site_symmetry_multiplicity
 _atom_site_fract_x
 _atom_site_fract_y
 _atom_site_fract_z
 _atom_site_occupancy
  Tb  Tb0  1  0.325255  0.998907  0.250620  1
  Tb  Tb1  1  0.001093  0.674745  0.749380  1
  Dy  Dy2  1  0.668023  0.991390  0.748694  1
  Dy  Dy3  1  0.008610  0.331977  0.251306  1
  Ga  Ga4  1  0.346234  0.014769  0.919813  1
  Ga  Ga5  1  0.985231  0.653766  0.080187  1
  Ga  Ga6  1  0.335903  0.997902  0.571719  1
  Ga  Ga7  1  0.002098  0.664097  0.428281  1
  Ga  Ga8  1  0.665634  0.013891  0.080151  1
  Ga  Ga9  1  0.986109  0.334366  0.919849  1
  Ga  Ga10  1  0.665443  0.005678  0.428483  1
  Ga  Ga11  1  0.994322  0.334557  0.571517  1
  Ga  Ga12  1  0.663670  0.654602  0.931465  1
  Ga  Ga13  1  0.345398  0.336330  0.068535  1
  Ga  Ga14  1  0.670410  0.668795  0.557083  1
  Ga  Ga15  1  0.331205  0.329590  0.442917  1
  Ga  Ga16  1  0.127704  0.129842  0.740040  1
  Ga  Ga17  1  0.870158  0.872296  0.259960  1
  Ga  Ga18  1  0.456332  0.663914  0.260675  1
  Ga  Ga19  1  0.336086  0.543668  0.739325  1
  Ga  Ga20  1  0.557717  0.337254  0.745718  1
  Ga  Ga21  1  0.662746  0.442283  0.254282  1
  Co  Co22  1  0.999716  0.000284  0.500000  1
  Co  Co23  1  0.328432  0.671568  0.500000  1
  Co  Co24  1  0.668911  0.331089  0.000000  1
  Co  Co25  1  0.670481  0.329519  0.500000  1
  Pt  Pt26  1  0.999177  0.000823  0.000000  1
  Pt  Pt27  1  0.327900  0.672100  0.000000  1
