# generated using pymatgen
data_Ba4NbNiO7F
_symmetry_space_group_name_H-M   'P 1'
_cell_length_a   7.47159779
_cell_length_b   7.47159712
_cell_length_c   5.80754100
_cell_angle_alpha   90.00000000
_cell_angle_beta   90.00000000
_cell_angle_gamma   134.40646823
_symmetry_Int_Tables_number   1
_chemical_formula_structural   Ba4NbNiO7F
_chemical_formula_sum   'Ba4 Nb1 Ni1 O7 F1'
_cell_volume   231.60974288
_cell_formula_units_Z   1
loop_
 _symmetry_equiv_pos_site_id
 _symmetry_equiv_pos_as_xyz
  1  'x, y, z'
loop_
 _atom_site_type_symbol
 _atom_site_label
 _atom_site_symmetry_multiplicity
 _atom_site_fract_x
 _atom_site_fract_y
 _atom_site_fract_z
 _atom_site_occupancy
  Ba  Ba0  1  0.636517  0.363483  0.000000  1
  Ba  Ba1  1  0.144744  0.855256  0.500000  1
  Ba  Ba2  1  0.860588  0.139412  0.500000  1
  Ba  Ba3  1  0.356570  0.643430  0.000000  1
  Nb  Nb4  1  0.499490  0.500510  0.500000  1
  Ni  Ni5  1  0.017744  0.982256  0.000000  1
  O  O6  1  0.348750  0.651250  0.500000  1
  O  O7  1  0.648984  0.351016  0.500000  1
  O  O8  1  0.166780  0.833220  0.000000  1
  O  O9  1  0.745126  0.749934  0.745210  1
  O  O10  1  0.250066  0.254874  0.254790  1
  O  O11  1  0.250066  0.254874  0.745210  1
  O  O12  1  0.745126  0.749934  0.254790  1
  F  F13  1  0.829450  0.170550  0.000000  1
