# generated using pymatgen
data_YTmSc3P12Ru19
_symmetry_space_group_name_H-M   'P 1'
_cell_length_a   12.45734000
_cell_length_b   12.45733908
_cell_length_c   3.94942300
_cell_angle_alpha   90.00000000
_cell_angle_beta   90.00000000
_cell_angle_gamma   119.99999181
_symmetry_Int_Tables_number   1
_chemical_formula_structural   YTmSc3P12Ru19
_chemical_formula_sum   'Y1 Tm1 Sc3 P12 Ru19'
_cell_volume   530.78045492
_cell_formula_units_Z   1
loop_
 _symmetry_equiv_pos_site_id
 _symmetry_equiv_pos_as_xyz
  1  'x, y, z'
loop_
 _atom_site_type_symbol
 _atom_site_label
 _atom_site_symmetry_multiplicity
 _atom_site_fract_x
 _atom_site_fract_y
 _atom_site_fract_z
 _atom_site_occupancy
  Y  Y0  1  0.333333  0.666667  0.000000  1
  Tm  Tm1  1  0.666667  0.333333  0.000000  1
  Sc  Sc2  1  0.999974  0.182036  0.500000  1
  Sc  Sc3  1  0.817964  0.817938  0.500000  1
  Sc  Sc4  1  0.182062  0.000026  0.500000  1
  P  P5  1  0.999928  0.819090  0.000000  1
  P  P6  1  0.180910  0.180839  0.000000  1
  P  P7  1  0.819161  0.000072  0.000000  1
  P  P8  1  0.693340  0.169960  0.500000  1
  P  P9  1  0.830040  0.523379  0.500000  1
  P  P10  1  0.476621  0.306660  0.500000  1
  P  P11  1  0.169422  0.693454  0.500000  1
  P  P12  1  0.524032  0.830578  0.500000  1
  P  P13  1  0.306546  0.475968  0.500000  1
  P  P14  1  0.000044  0.373077  0.000000  1
  P  P15  1  0.626923  0.626968  0.000000  1
  P  P16  1  0.373032  0.999956  0.000000  1
  Ru  Ru17  1  0.999959  0.556678  0.000000  1
  Ru  Ru18  1  0.443322  0.443281  0.000000  1
  Ru  Ru19  1  0.556719  0.000041  0.000000  1
  Ru  Ru20  1  0.999806  0.721641  0.500000  1
  Ru  Ru21  1  0.278359  0.278165  0.500000  1
  Ru  Ru22  1  0.721835  0.000194  0.500000  1
  Ru  Ru23  1  0.812476  0.185057  0.000000  1
  Ru  Ru24  1  0.814943  0.627419  0.000000  1
  Ru  Ru25  1  0.372581  0.187524  0.000000  1
  Ru  Ru26  1  0.184694  0.812709  0.000000  1
  Ru  Ru27  1  0.628016  0.815306  0.000000  1
  Ru  Ru28  1  0.187291  0.371984  0.000000  1
  Ru  Ru29  1  0.873260  0.365204  0.500000  1
  Ru  Ru30  1  0.634796  0.508057  0.500000  1
  Ru  Ru31  1  0.491943  0.126740  0.500000  1
  Ru  Ru32  1  0.365333  0.874452  0.500000  1
  Ru  Ru33  1  0.509120  0.634667  0.500000  1
  Ru  Ru34  1  0.125548  0.490880  0.500000  1
  Ru  Ru35  1  0.000000  0.000000  0.000000  1
