# generated using pymatgen
data_Ho4Cu5Ni9
_symmetry_space_group_name_H-M   'P 1'
_cell_length_a   4.97674302
_cell_length_b   4.97674452
_cell_length_c   12.35413851
_cell_angle_alpha   78.83075215
_cell_angle_beta   78.83074840
_cell_angle_gamma   60.28932396
_symmetry_Int_Tables_number   1
_chemical_formula_structural   Ho4Cu5Ni9
_chemical_formula_sum   'Ho4 Cu5 Ni9'
_cell_volume   259.00838738
_cell_formula_units_Z   1
loop_
 _symmetry_equiv_pos_site_id
 _symmetry_equiv_pos_as_xyz
  1  'x, y, z'
loop_
 _atom_site_type_symbol
 _atom_site_label
 _atom_site_symmetry_multiplicity
 _atom_site_fract_x
 _atom_site_fract_y
 _atom_site_fract_z
 _atom_site_occupancy
  Ho  Ho0  1  0.950052  0.950052  0.152057  1
  Ho  Ho1  1  0.049948  0.049948  0.847943  1
  Ho  Ho2  1  0.851798  0.851798  0.441216  1
  Ho  Ho3  1  0.148202  0.148202  0.558784  1
  Cu  Cu4  1  0.723904  0.723904  0.833013  1
  Cu  Cu5  1  0.276096  0.276096  0.166987  1
  Cu  Cu6  1  0.613692  0.613692  0.167529  1
  Cu  Cu7  1  0.386308  0.386308  0.832471  1
  Cu  Cu8  1  0.500000  0.500000  0.000000  1
  Ni  Ni9  1  0.500000  0.500000  0.500000  1
  Ni  Ni10  1  0.000000  0.500000  0.000000  1
  Ni  Ni11  1  0.500000  0.000000  0.000000  1
  Ni  Ni12  1  0.387669  0.387669  0.332260  1
  Ni  Ni13  1  0.890397  0.385464  0.333106  1
  Ni  Ni14  1  0.385464  0.890397  0.333106  1
  Ni  Ni15  1  0.612331  0.612331  0.667740  1
  Ni  Ni16  1  0.109603  0.614536  0.666894  1
  Ni  Ni17  1  0.614536  0.109603  0.666894  1
