# generated using pymatgen
data_Y8Lu2Ir3Ru
_symmetry_space_group_name_H-M   'P 1'
_cell_length_a   6.44655783
_cell_length_b   7.25495185
_cell_length_c   8.52461078
_cell_angle_alpha   96.61946201
_cell_angle_beta   112.76050703
_cell_angle_gamma   89.98442561
_symmetry_Int_Tables_number   1
_chemical_formula_structural   Y8Lu2Ir3Ru
_chemical_formula_sum   'Y8 Lu2 Ir3 Ru1'
_cell_volume   364.76671972
_cell_formula_units_Z   1
loop_
 _symmetry_equiv_pos_site_id
 _symmetry_equiv_pos_as_xyz
  1  'x, y, z'
loop_
 _atom_site_type_symbol
 _atom_site_label
 _atom_site_symmetry_multiplicity
 _atom_site_fract_x
 _atom_site_fract_y
 _atom_site_fract_z
 _atom_site_occupancy
  Y  Y0  1  0.527734  0.080578  0.818103  1
  Y  Y1  1  0.474586  0.919364  0.184076  1
  Y  Y2  1  0.711891  0.416362  0.183873  1
  Y  Y3  1  0.289904  0.581369  0.816989  1
  Y  Y4  1  0.290111  0.315211  0.437842  1
  Y  Y5  1  0.707248  0.684661  0.561305  1
  Y  Y6  1  0.854623  0.186092  0.562671  1
  Y  Y7  1  0.143020  0.816193  0.435742  1
  Lu  Lu8  1  0.071942  0.250893  0.999731  1
  Lu  Lu9  1  0.928787  0.749677  0.000183  1
  Ir  Ir10  1  0.318221  0.574292  0.215495  1
  Ir  Ir11  1  0.683804  0.426596  0.784775  1
  Ir  Ir12  1  0.101885  0.925010  0.786443  1
  Ru  Ru13  1  0.896244  0.073703  0.212769  1
