# generated using pymatgen
data_SrLa(Si2Rh3)2
_symmetry_space_group_name_H-M   'P 1'
_cell_length_a   5.69404240
_cell_length_b   6.75484795
_cell_length_c   6.75484789
_cell_angle_alpha   64.19175834
_cell_angle_beta   65.07204263
_cell_angle_gamma   65.07205656
_symmetry_Int_Tables_number   1
_chemical_formula_structural   SrLa(Si2Rh3)2
_chemical_formula_sum   'Sr1 La1 Si4 Rh6'
_cell_volume   202.89154491
_cell_formula_units_Z   1
loop_
 _symmetry_equiv_pos_site_id
 _symmetry_equiv_pos_as_xyz
  1  'x, y, z'
loop_
 _atom_site_type_symbol
 _atom_site_label
 _atom_site_symmetry_multiplicity
 _atom_site_fract_x
 _atom_site_fract_y
 _atom_site_fract_z
 _atom_site_occupancy
  Sr  Sr0  1  0.530310  0.750000  0.750000  1
  La  La1  1  0.459262  0.250000  0.250000  1
  Si  Si2  1  0.222831  0.577946  0.577946  1
  Si  Si3  1  0.774574  0.423755  0.423755  1
  Si  Si4  1  0.122083  0.076245  0.076245  1
  Si  Si5  1  0.878724  0.922054  0.922054  1
  Rh  Rh6  1  0.500561  0.217339  0.784528  1
  Rh  Rh7  1  0.002428  0.715472  0.282661  1
  Rh  Rh8  1  0.500561  0.784528  0.217339  1
  Rh  Rh9  1  0.002428  0.282661  0.715472  1
  Rh  Rh10  1  0.003119  0.498284  0.001716  1
  Rh  Rh11  1  0.003119  0.001716  0.498284  1
