# generated using pymatgen
data_Zr9Nb(OsO)3
_symmetry_space_group_name_H-M   'P 1'
_cell_length_a   8.56296200
_cell_length_b   8.56296283
_cell_length_c   8.65173900
_cell_angle_alpha   90.00000000
_cell_angle_beta   90.00000000
_cell_angle_gamma   120.00000454
_symmetry_Int_Tables_number   1
_chemical_formula_structural   Zr9Nb(OsO)3
_chemical_formula_sum   'Zr18 Nb2 Os6 O6'
_cell_volume   549.39170343
_cell_formula_units_Z   2
loop_
 _symmetry_equiv_pos_site_id
 _symmetry_equiv_pos_as_xyz
  1  'x, y, z'
loop_
 _atom_site_type_symbol
 _atom_site_label
 _atom_site_symmetry_multiplicity
 _atom_site_fract_x
 _atom_site_fract_y
 _atom_site_fract_z
 _atom_site_occupancy
  Zr  Zr0  1  0.452545  0.905090  0.250000  1
  Zr  Zr1  1  0.547455  0.094910  0.750000  1
  Zr  Zr2  1  0.094910  0.547455  0.250000  1
  Zr  Zr3  1  0.905090  0.452545  0.750000  1
  Zr  Zr4  1  0.452545  0.547455  0.250000  1
  Zr  Zr5  1  0.547455  0.452545  0.750000  1
  Zr  Zr6  1  0.204301  0.408602  0.563640  1
  Zr  Zr7  1  0.795699  0.591398  0.436360  1
  Zr  Zr8  1  0.591398  0.795699  0.563640  1
  Zr  Zr9  1  0.795699  0.591398  0.063640  1
  Zr  Zr10  1  0.408602  0.204301  0.436360  1
  Zr  Zr11  1  0.204301  0.408602  0.936360  1
  Zr  Zr12  1  0.204301  0.795699  0.563640  1
  Zr  Zr13  1  0.408602  0.204301  0.063640  1
  Zr  Zr14  1  0.795699  0.204301  0.436360  1
  Zr  Zr15  1  0.591398  0.795699  0.936360  1
  Zr  Zr16  1  0.795699  0.204301  0.063640  1
  Zr  Zr17  1  0.204301  0.795699  0.936360  1
  Nb  Nb18  1  0.000000  0.000000  0.000000  1
  Nb  Nb19  1  0.000000  0.000000  0.500000  1
  Os  Os20  1  0.111765  0.223529  0.250000  1
  Os  Os21  1  0.888235  0.776471  0.750000  1
  Os  Os22  1  0.776471  0.888235  0.250000  1
  Os  Os23  1  0.223529  0.111765  0.750000  1
  Os  Os24  1  0.111765  0.888235  0.250000  1
  Os  Os25  1  0.888235  0.111765  0.750000  1
  O  O26  1  0.500000  0.000000  0.000000  1
  O  O27  1  0.000000  0.500000  0.000000  1
  O  O28  1  0.500000  0.000000  0.500000  1
  O  O29  1  0.500000  0.500000  0.000000  1
  O  O30  1  0.000000  0.500000  0.500000  1
  O  O31  1  0.500000  0.500000  0.500000  1
