# generated using pymatgen
data_Tb4Ga3Os4W
_symmetry_space_group_name_H-M   'P 1'
_cell_length_a   5.32403942
_cell_length_b   5.32404057
_cell_length_c   8.98742200
_cell_angle_alpha   90.00000000
_cell_angle_beta   90.00000000
_cell_angle_gamma   117.89864463
_symmetry_Int_Tables_number   1
_chemical_formula_structural   Tb4Ga3Os4W
_chemical_formula_sum   'Tb4 Ga3 Os4 W1'
_cell_volume   225.14395964
_cell_formula_units_Z   1
loop_
 _symmetry_equiv_pos_site_id
 _symmetry_equiv_pos_as_xyz
  1  'x, y, z'
loop_
 _atom_site_type_symbol
 _atom_site_label
 _atom_site_symmetry_multiplicity
 _atom_site_fract_x
 _atom_site_fract_y
 _atom_site_fract_z
 _atom_site_occupancy
  Tb  Tb0  1  0.330701  0.669299  0.439033  1
  Tb  Tb1  1  0.665741  0.334259  0.557537  1
  Tb  Tb2  1  0.665741  0.334259  0.942463  1
  Tb  Tb3  1  0.330701  0.669299  0.060967  1
  Ga  Ga4  1  0.166530  0.833470  0.750000  1
  Ga  Ga5  1  0.166272  0.328998  0.750000  1
  Ga  Ga6  1  0.671002  0.833728  0.750000  1
  Os  Os7  1  0.994555  0.005445  0.499859  1
  Os  Os8  1  0.994555  0.005445  0.000141  1
  Os  Os9  1  0.827745  0.651933  0.250000  1
  Os  Os10  1  0.348067  0.172255  0.250000  1
  W  W11  1  0.838392  0.161608  0.250000  1
