# generated using pymatgen
data_Pu2Be25Ni
_symmetry_space_group_name_H-M   'P 1'
_cell_length_a   7.22795149
_cell_length_b   7.21566391
_cell_length_c   7.27173826
_cell_angle_alpha   59.85470368
_cell_angle_beta   59.68740822
_cell_angle_gamma   59.93812054
_symmetry_Int_Tables_number   1
_chemical_formula_structural   Pu2Be25Ni
_chemical_formula_sum   'Pu2 Be25 Ni1'
_cell_volume   267.11559649
_cell_formula_units_Z   1
loop_
 _symmetry_equiv_pos_site_id
 _symmetry_equiv_pos_as_xyz
  1  'x, y, z'
loop_
 _atom_site_type_symbol
 _atom_site_label
 _atom_site_symmetry_multiplicity
 _atom_site_fract_x
 _atom_site_fract_y
 _atom_site_fract_z
 _atom_site_occupancy
  Pu  Pu0  1  0.250538  0.248495  0.249094  1
  Pu  Pu1  1  0.751505  0.749462  0.748128  1
  Be  Be2  1  0.497956  0.502044  0.499395  1
  Be  Be3  1  0.000082  0.999918  0.998104  1
  Be  Be4  1  0.937031  0.289350  0.710614  1
  Be  Be5  1  0.710650  0.062969  0.936996  1
  Be  Be6  1  0.933300  0.066700  0.284076  1
  Be  Be7  1  0.064398  0.935602  0.714029  1
  Be  Be8  1  0.062138  0.290018  0.936175  1
  Be  Be9  1  0.709982  0.937862  0.288332  1
  Be  Be10  1  0.440209  0.790146  0.563709  1
  Be  Be11  1  0.563369  0.793062  0.206268  1
  Be  Be12  1  0.793637  0.559423  0.439061  1
  Be  Be13  1  0.560338  0.207431  0.438331  1
  Be  Be14  1  0.792569  0.439662  0.206100  1
  Be  Be15  1  0.440577  0.206363  0.792121  1
  Be  Be16  1  0.209854  0.559791  0.794064  1
  Be  Be17  1  0.206938  0.436631  0.562699  1
  Be  Be18  1  0.708783  0.291217  0.062612  1
  Be  Be19  1  0.288751  0.938082  0.062353  1
  Be  Be20  1  0.290161  0.062898  0.712719  1
  Be  Be21  1  0.937102  0.709839  0.065777  1
  Be  Be22  1  0.061918  0.711249  0.289186  1
  Be  Be23  1  0.292098  0.707902  0.937820  1
  Be  Be24  1  0.435083  0.564917  0.210932  1
  Be  Be25  1  0.797096  0.202904  0.557985  1
  Be  Be26  1  0.563989  0.436011  0.792122  1
  Ni  Ni27  1  0.199945  0.800055  0.441198  1
