# generated using pymatgen
data_BeV3Ir3Rh
_symmetry_space_group_name_H-M   'P 1'
_cell_length_a   6.53675456
_cell_length_b   6.54317080
_cell_length_c   2.80425200
_cell_angle_alpha   90.00000000
_cell_angle_beta   90.00000000
_cell_angle_gamma   118.89800731
_symmetry_Int_Tables_number   1
_chemical_formula_structural   BeV3Ir3Rh
_chemical_formula_sum   'Be1 V3 Ir3 Rh1'
_cell_volume   105.00606045
_cell_formula_units_Z   1
loop_
 _symmetry_equiv_pos_site_id
 _symmetry_equiv_pos_as_xyz
  1  'x, y, z'
loop_
 _atom_site_type_symbol
 _atom_site_label
 _atom_site_symmetry_multiplicity
 _atom_site_fract_x
 _atom_site_fract_y
 _atom_site_fract_z
 _atom_site_occupancy
  Be  Be0  1  0.499829  0.499937  0.500000  1
  V  V1  1  0.223777  0.776956  0.500000  1
  V  V2  1  0.999028  0.000728  0.500000  1
  V  V3  1  0.777072  0.222559  0.500000  1
  Ir  Ir4  1  0.404488  0.160493  0.000000  1
  Ir  Ir5  1  0.160621  0.404918  0.000000  1
  Ir  Ir6  1  0.596413  0.838996  0.000000  1
  Rh  Rh7  1  0.838772  0.595412  0.000000  1
