# generated using pymatgen
data_Pr3Tm2Mg(P2Ru3)6
_symmetry_space_group_name_H-M   'P 1'
_cell_length_a   12.51514200
_cell_length_b   12.69514226
_cell_length_c   4.00921200
_cell_angle_alpha   90.00000000
_cell_angle_beta   90.00000000
_cell_angle_gamma   119.53206609
_symmetry_Int_Tables_number   1
_chemical_formula_structural   Pr3Tm2Mg(P2Ru3)6
_chemical_formula_sum   'Pr3 Tm2 Mg1 P12 Ru18'
_cell_volume   554.23193471
_cell_formula_units_Z   1
loop_
 _symmetry_equiv_pos_site_id
 _symmetry_equiv_pos_as_xyz
  1  'x, y, z'
loop_
 _atom_site_type_symbol
 _atom_site_label
 _atom_site_symmetry_multiplicity
 _atom_site_fract_x
 _atom_site_fract_y
 _atom_site_fract_z
 _atom_site_occupancy
  Pr  Pr0  1  0.818852  0.000000  0.500000  1
  Pr  Pr1  1  0.000919  0.815987  0.500000  1
  Pr  Pr2  1  0.184932  0.184013  0.500000  1
  Tm  Tm3  1  0.331277  0.659302  0.000000  1
  Tm  Tm4  1  0.671976  0.340698  0.000000  1
  Mg  Mg5  1  0.438711  0.000000  0.000000  1
  P  P6  1  0.193813  0.000000  0.000000  1
  P  P7  1  0.999793  0.187799  0.000000  1
  P  P8  1  0.811995  0.812201  0.000000  1
  P  P9  1  0.517771  0.693109  0.500000  1
  P  P10  1  0.298575  0.814756  0.500000  1
  P  P11  1  0.170210  0.476038  0.500000  1
  P  P12  1  0.483819  0.185244  0.500000  1
  P  P13  1  0.694172  0.523962  0.500000  1
  P  P14  1  0.824662  0.306891  0.500000  1
  P  P15  1  0.636859  0.000000  0.000000  1
  P  P16  1  0.999256  0.623466  0.000000  1
  P  P17  1  0.375791  0.376534  0.000000  1
  Ru  Ru18  1  0.998408  0.444670  0.000000  1
  Ru  Ru19  1  0.553738  0.555330  0.000000  1
  Ru  Ru20  1  0.290337  0.000000  0.500000  1
  Ru  Ru21  1  0.997843  0.285669  0.500000  1
  Ru  Ru22  1  0.712174  0.714331  0.500000  1
  Ru  Ru23  1  0.615803  0.801980  0.000000  1
  Ru  Ru24  1  0.197289  0.811699  0.000000  1
  Ru  Ru25  1  0.184596  0.378810  0.000000  1
  Ru  Ru26  1  0.385590  0.188301  0.000000  1
  Ru  Ru27  1  0.805786  0.621190  0.000000  1
  Ru  Ru28  1  0.813823  0.198020  0.000000  1
  Ru  Ru29  1  0.506361  0.874054  0.500000  1
  Ru  Ru30  1  0.121282  0.628647  0.500000  1
  Ru  Ru31  1  0.365523  0.495226  0.500000  1
  Ru  Ru32  1  0.492634  0.371353  0.500000  1
  Ru  Ru33  1  0.870296  0.504774  0.500000  1
  Ru  Ru34  1  0.632308  0.125946  0.500000  1
  Ru  Ru35  1  0.002825  0.000000  0.000000  1
