# generated using pymatgen
data_YErFe7
_symmetry_space_group_name_H-M   'P 1'
_cell_length_a   5.06723325
_cell_length_b   5.06723221
_cell_length_c   12.27520737
_cell_angle_alpha   78.08846862
_cell_angle_beta   78.08846818
_cell_angle_gamma   59.99999982
_symmetry_Int_Tables_number   1
_chemical_formula_structural   YErFe7
_chemical_formula_sum   'Y2 Er2 Fe14'
_cell_volume   265.09566742
_cell_formula_units_Z   2
loop_
 _symmetry_equiv_pos_site_id
 _symmetry_equiv_pos_as_xyz
  1  'x, y, z'
loop_
 _atom_site_type_symbol
 _atom_site_label
 _atom_site_symmetry_multiplicity
 _atom_site_fract_x
 _atom_site_fract_y
 _atom_site_fract_z
 _atom_site_occupancy
  Y  Y0  1  0.947827  0.947827  0.156519  1
  Y  Y1  1  0.052173  0.052173  0.843481  1
  Er  Er2  1  0.850469  0.850469  0.448595  1
  Er  Er3  1  0.149531  0.149531  0.551405  1
  Fe  Fe4  1  0.500000  0.500000  0.500000  1
  Fe  Fe5  1  0.721512  0.721512  0.835465  1
  Fe  Fe6  1  0.278488  0.278488  0.164535  1
  Fe  Fe7  1  0.612240  0.612240  0.163281  1
  Fe  Fe8  1  0.387760  0.387760  0.836719  1
  Fe  Fe9  1  0.000000  0.500000  0.000000  1
  Fe  Fe10  1  0.500000  0.000000  0.000000  1
  Fe  Fe11  1  0.500000  0.500000  0.000000  1
  Fe  Fe12  1  0.390177  0.390177  0.329109  1
  Fe  Fe13  1  0.890537  0.390177  0.329109  1
  Fe  Fe14  1  0.390177  0.890537  0.329109  1
  Fe  Fe15  1  0.609823  0.609823  0.670891  1
  Fe  Fe16  1  0.109463  0.609823  0.670891  1
  Fe  Fe17  1  0.609823  0.109463  0.670891  1
