# generated using pymatgen
data_Dy7ErSc11Si16Os
_symmetry_space_group_name_H-M   'P 1'
_cell_length_a   7.01627702
_cell_length_b   7.35361466
_cell_length_c   13.87251334
_cell_angle_alpha   89.97501215
_cell_angle_beta   90.00548713
_cell_angle_gamma   90.11337841
_symmetry_Int_Tables_number   1
_chemical_formula_structural   Dy7ErSc11Si16Os
_chemical_formula_sum   'Dy7 Er1 Sc11 Si16 Os1'
_cell_volume   715.75081989
_cell_formula_units_Z   1
loop_
 _symmetry_equiv_pos_site_id
 _symmetry_equiv_pos_as_xyz
  1  'x, y, z'
loop_
 _atom_site_type_symbol
 _atom_site_label
 _atom_site_symmetry_multiplicity
 _atom_site_fract_x
 _atom_site_fract_y
 _atom_site_fract_z
 _atom_site_occupancy
  Dy  Dy0  1  0.013096  0.177611  0.092618  1
  Dy  Dy1  1  0.992746  0.819839  0.899836  1
  Dy  Dy2  1  0.488549  0.672855  0.902427  1
  Dy  Dy3  1  0.992758  0.819816  0.599712  1
  Dy  Dy4  1  0.512913  0.323784  0.094753  1
  Dy  Dy5  1  0.013147  0.177512  0.407656  1
  Dy  Dy6  1  0.512785  0.323510  0.405631  1
  Er  Er7  1  0.488304  0.673025  0.597930  1
  Sc  Sc8  1  0.844593  0.496544  0.250152  1
  Sc  Sc9  1  0.343982  0.002569  0.250192  1
  Sc  Sc10  1  0.656296  0.995744  0.749857  1
  Sc  Sc11  1  0.324564  0.175349  0.627018  1
  Sc  Sc12  1  0.673855  0.824168  0.374296  1
  Sc  Sc13  1  0.174203  0.672693  0.377379  1
  Sc  Sc14  1  0.673771  0.824492  0.125992  1
  Sc  Sc15  1  0.821305  0.333035  0.628054  1
  Sc  Sc16  1  0.324236  0.175311  0.872659  1
  Sc  Sc17  1  0.821859  0.332914  0.871371  1
  Sc  Sc18  1  0.174114  0.672909  0.122835  1
  Si  Si19  1  0.026476  0.123628  0.749646  1
  Si  Si20  1  0.975126  0.884772  0.250115  1
  Si  Si21  1  0.471000  0.615331  0.250171  1
  Si  Si22  1  0.510183  0.395412  0.749646  1
  Si  Si23  1  0.286592  0.860882  0.749616  1
  Si  Si24  1  0.718491  0.129031  0.250124  1
  Si  Si25  1  0.216909  0.370714  0.250127  1
  Si  Si26  1  0.792745  0.630871  0.749577  1
  Si  Si27  1  0.155678  0.466318  0.550590  1
  Si  Si28  1  0.843922  0.536293  0.463738  1
  Si  Si29  1  0.347051  0.963422  0.462808  1
  Si  Si30  1  0.844023  0.536460  0.036267  1
  Si  Si31  1  0.658004  0.033687  0.539999  1
  Si  Si32  1  0.154593  0.465654  0.949721  1
  Si  Si33  1  0.658427  0.034777  0.960264  1
  Si  Si34  1  0.347092  0.964426  0.037554  1
  Os  Os35  1  0.146615  0.494641  0.749669  1
