# generated using pymatgen
data_YU5(P2Rh3)6
_symmetry_space_group_name_H-M   'P 1'
_cell_length_a   3.90814000
_cell_length_b   11.20551900
_cell_length_c   12.87007300
_cell_angle_alpha   90.00000000
_cell_angle_beta   90.00000000
_cell_angle_gamma   90.00000000
_symmetry_Int_Tables_number   1
_chemical_formula_structural   YU5(P2Rh3)6
_chemical_formula_sum   'Y1 U5 P12 Rh18'
_cell_volume   563.61572238
_cell_formula_units_Z   1
loop_
 _symmetry_equiv_pos_site_id
 _symmetry_equiv_pos_as_xyz
  1  'x, y, z'
loop_
 _atom_site_type_symbol
 _atom_site_label
 _atom_site_symmetry_multiplicity
 _atom_site_fract_x
 _atom_site_fract_y
 _atom_site_fract_z
 _atom_site_occupancy
  Y  Y0  1  0.500000  0.000000  0.478033  1
  U  U1  1  0.000000  0.500000  0.524873  1
  U  U2  1  0.500000  0.821023  0.205915  1
  U  U3  1  0.500000  0.178977  0.205915  1
  U  U4  1  0.000000  0.678665  0.793682  1
  U  U5  1  0.000000  0.321335  0.793682  1
  P  P6  1  0.500000  0.500000  0.883905  1
  P  P7  1  0.000000  0.000000  0.112362  1
  P  P8  1  0.500000  0.500000  0.356008  1
  P  P9  1  0.000000  0.000000  0.647891  1
  P  P10  1  0.500000  0.313010  0.615613  1
  P  P11  1  0.500000  0.686990  0.615613  1
  P  P12  1  0.000000  0.182072  0.382654  1
  P  P13  1  0.000000  0.817928  0.382654  1
  P  P14  1  0.500000  0.839471  0.889165  1
  P  P15  1  0.500000  0.160529  0.889165  1
  P  P16  1  0.000000  0.658607  0.112142  1
  P  P17  1  0.000000  0.341393  0.112142  1
  Rh  Rh18  1  0.500000  0.500000  0.173931  1
  Rh  Rh19  1  0.000000  0.000000  0.828954  1
  Rh  Rh20  1  0.500000  0.500000  0.701596  1
  Rh  Rh21  1  0.000000  0.000000  0.291083  1
  Rh  Rh22  1  0.000000  0.500000  0.989540  1
  Rh  Rh23  1  0.500000  0.000000  0.008108  1
  Rh  Rh24  1  0.500000  0.333729  0.998333  1
  Rh  Rh25  1  0.500000  0.666271  0.998333  1
  Rh  Rh26  1  0.000000  0.167615  0.002404  1
  Rh  Rh27  1  0.000000  0.832385  0.002404  1
  Rh  Rh28  1  0.500000  0.297553  0.431309  1
  Rh  Rh29  1  0.500000  0.702447  0.431309  1
  Rh  Rh30  1  0.000000  0.198740  0.567642  1
  Rh  Rh31  1  0.000000  0.801260  0.567642  1
  Rh  Rh32  1  0.500000  0.873333  0.709873  1
  Rh  Rh33  1  0.500000  0.126667  0.709873  1
  Rh  Rh34  1  0.000000  0.628150  0.293127  1
  Rh  Rh35  1  0.000000  0.371850  0.293127  1
