# generated using pymatgen
data_ErLu3Co4(SnH)4
_symmetry_space_group_name_H-M   'P 1'
_cell_length_a   4.22428900
_cell_length_b   7.01704822
_cell_length_c   8.05697124
_cell_angle_alpha   89.97157511
_cell_angle_beta   90.00000000
_cell_angle_gamma   90.00000000
_symmetry_Int_Tables_number   1
_chemical_formula_structural   ErLu3Co4(SnH)4
_chemical_formula_sum   'Er1 Lu3 Co4 Sn4 H4'
_cell_volume   238.82503132
_cell_formula_units_Z   1
loop_
 _symmetry_equiv_pos_site_id
 _symmetry_equiv_pos_as_xyz
  1  'x, y, z'
loop_
 _atom_site_type_symbol
 _atom_site_label
 _atom_site_symmetry_multiplicity
 _atom_site_fract_x
 _atom_site_fract_y
 _atom_site_fract_z
 _atom_site_occupancy
  Er  Er0  1  0.750000  0.514184  0.815495  1
  Lu  Lu1  1  0.750000  0.013983  0.682882  1
  Lu  Lu2  1  0.250000  0.985944  0.316846  1
  Lu  Lu3  1  0.250000  0.485990  0.183187  1
  Co  Co4  1  0.750000  0.770407  0.105280  1
  Co  Co5  1  0.250000  0.228556  0.896101  1
  Co  Co6  1  0.250000  0.731124  0.603011  1
  Co  Co7  1  0.750000  0.269709  0.395943  1
  Sn  Sn8  1  0.750000  0.653184  0.424949  1
  Sn  Sn9  1  0.250000  0.346769  0.572867  1
  Sn  Sn10  1  0.250000  0.847213  0.926766  1
  Sn  Sn11  1  0.750000  0.153095  0.074113  1
  H  H12  1  0.250000  0.451300  0.919702  1
  H  H13  1  0.750000  0.547620  0.083144  1
  H  H14  1  0.750000  0.047073  0.418735  1
  H  H15  1  0.250000  0.953849  0.580979  1
