# generated using pymatgen
data_Nd2Th(InRh)3
_symmetry_space_group_name_H-M   'P 1'
_cell_length_a   7.85225500
_cell_length_b   7.64832327
_cell_length_c   4.00874700
_cell_angle_alpha   90.00000000
_cell_angle_beta   90.00000000
_cell_angle_gamma   120.88601916
_symmetry_Int_Tables_number   1
_chemical_formula_structural   Nd2Th(InRh)3
_chemical_formula_sum   'Nd2 Th1 In3 Rh3'
_cell_volume   206.61070725
_cell_formula_units_Z   1
loop_
 _symmetry_equiv_pos_site_id
 _symmetry_equiv_pos_as_xyz
  1  'x, y, z'
loop_
 _atom_site_type_symbol
 _atom_site_label
 _atom_site_symmetry_multiplicity
 _atom_site_fract_x
 _atom_site_fract_y
 _atom_site_fract_z
 _atom_site_occupancy
  Nd  Nd0  1  0.410432  0.409979  0.500000  1
  Nd  Nd1  1  0.000453  0.590021  0.500000  1
  Th  Th2  1  0.582542  0.000000  0.500000  1
  In  In3  1  0.240703  0.000000  0.000000  1
  In  In4  1  0.748431  0.740529  0.000000  1
  In  In5  1  0.007902  0.259471  0.000000  1
  Rh  Rh6  1  0.988213  0.000000  0.500000  1
  Rh  Rh7  1  0.357807  0.694290  0.000000  1
  Rh  Rh8  1  0.663518  0.305710  0.000000  1
