# generated using pymatgen
data_Cs2Pu(WO4)3
_symmetry_space_group_name_H-M   'P 1'
_cell_length_a   7.47262944
_cell_length_b   7.47262983
_cell_length_c   7.68846625
_cell_angle_alpha   60.95658423
_cell_angle_beta   60.95658112
_cell_angle_gamma   59.98644036
_symmetry_Int_Tables_number   1
_chemical_formula_structural   Cs2Pu(WO4)3
_chemical_formula_sum   'Cs2 Pu1 W3 O12'
_cell_volume   307.86206429
_cell_formula_units_Z   1
loop_
 _symmetry_equiv_pos_site_id
 _symmetry_equiv_pos_as_xyz
  1  'x, y, z'
loop_
 _atom_site_type_symbol
 _atom_site_label
 _atom_site_symmetry_multiplicity
 _atom_site_fract_x
 _atom_site_fract_y
 _atom_site_fract_z
 _atom_site_occupancy
  Cs  Cs0  1  0.888482  0.853352  0.878070  1
  Cs  Cs1  1  0.146648  0.111518  0.121930  1
  Pu  Pu2  1  0.502268  0.497732  0.000000  1
  W  W3  1  0.503656  0.996396  0.499186  1
  W  W4  1  0.003604  0.496344  0.500814  1
  W  W5  1  0.502788  0.497212  0.500000  1
  O  O6  1  0.197396  0.194039  0.544302  1
  O  O7  1  0.569513  0.570438  0.203767  1
  O  O8  1  0.569313  0.154682  0.203670  1
  O  O9  1  0.197380  0.563851  0.543135  1
  O  O10  1  0.158581  0.567708  0.204132  1
  O  O11  1  0.565871  0.194782  0.542911  1
  O  O12  1  0.805961  0.802604  0.455698  1
  O  O13  1  0.429562  0.430487  0.796233  1
  O  O14  1  0.432292  0.841419  0.795868  1
  O  O15  1  0.805218  0.434129  0.457089  1
  O  O16  1  0.845318  0.430687  0.796330  1
  O  O17  1  0.436149  0.802620  0.456865  1
