# generated using pymatgen
data_Dy2YMg3AgPb2
_symmetry_space_group_name_H-M   'P 1'
_cell_length_a   7.56480000
_cell_length_b   7.56480055
_cell_length_c   4.58283100
_cell_angle_alpha   90.00000000
_cell_angle_beta   90.00000000
_cell_angle_gamma   119.99628033
_symmetry_Int_Tables_number   1
_chemical_formula_structural   Dy2YMg3AgPb2
_chemical_formula_sum   'Dy2 Y1 Mg3 Ag1 Pb2'
_cell_volume   227.13061848
_cell_formula_units_Z   1
loop_
 _symmetry_equiv_pos_site_id
 _symmetry_equiv_pos_as_xyz
  1  'x, y, z'
loop_
 _atom_site_type_symbol
 _atom_site_label
 _atom_site_symmetry_multiplicity
 _atom_site_fract_x
 _atom_site_fract_y
 _atom_site_fract_z
 _atom_site_occupancy
  Dy  Dy0  1  0.585949  0.999996  0.500000  1
  Dy  Dy1  1  0.999996  0.585949  0.500000  1
  Y  Y2  1  0.414463  0.414463  0.500000  1
  Mg  Mg3  1  0.767242  0.767242  0.000000  1
  Mg  Mg4  1  0.232925  0.999663  0.000000  1
  Mg  Mg5  1  0.999663  0.232925  0.000000  1
  Ag  Ag6  1  0.999279  0.999279  0.500000  1
  Pb  Pb7  1  0.667237  0.333246  0.000000  1
  Pb  Pb8  1  0.333246  0.667237  0.000000  1
