# generated using pymatgen
data_Ba8Cd(CoO4)3
_symmetry_space_group_name_H-M   'P 1'
_cell_length_a   6.59117141
_cell_length_b   6.56006763
_cell_length_c   12.77871490
_cell_angle_alpha   88.25755410
_cell_angle_beta   88.39212014
_cell_angle_gamma   125.93498811
_symmetry_Int_Tables_number   1
_chemical_formula_structural   Ba8Cd(CoO4)3
_chemical_formula_sum   'Ba8 Cd1 Co3 O12'
_cell_volume   446.44994160
_cell_formula_units_Z   1
loop_
 _symmetry_equiv_pos_site_id
 _symmetry_equiv_pos_as_xyz
  1  'x, y, z'
loop_
 _atom_site_type_symbol
 _atom_site_label
 _atom_site_symmetry_multiplicity
 _atom_site_fract_x
 _atom_site_fract_y
 _atom_site_fract_z
 _atom_site_occupancy
  Ba  Ba0  1  0.436911  0.025523  0.150716  1
  Ba  Ba1  1  0.032467  0.442157  0.651229  1
  Ba  Ba2  1  0.556414  0.971306  0.845489  1
  Ba  Ba3  1  0.974110  0.559811  0.351724  1
  Ba  Ba4  1  0.867571  0.658169  0.919916  1
  Ba  Ba5  1  0.343365  0.136533  0.575405  1
  Ba  Ba6  1  0.131829  0.338646  0.070619  1
  Ba  Ba7  1  0.661917  0.869394  0.428998  1
  Cd  Cd8  1  0.719941  0.709754  0.165041  1
  Co  Co9  1  0.729040  0.734097  0.665058  1
  Co  Co10  1  0.276466  0.271715  0.340235  1
  Co  Co11  1  0.265696  0.272600  0.834192  1
  O  O12  1  0.320605  0.127111  0.962110  1
  O  O13  1  0.871536  0.676091  0.537972  1
  O  O14  1  0.671885  0.881738  0.025296  1
  O  O15  1  0.129915  0.324007  0.468193  1
  O  O16  1  0.992957  0.007679  0.749654  1
  O  O17  1  0.030206  0.002406  0.254356  1
  O  O18  1  0.591864  0.407561  0.750293  1
  O  O19  1  0.494752  0.157981  0.370194  1
  O  O20  1  0.147246  0.488598  0.865038  1
  O  O21  1  0.513201  0.851388  0.631401  1
  O  O22  1  0.861271  0.489712  0.127775  1
  O  O23  1  0.378835  0.596022  0.259099  1
