# generated using pymatgen
data_Er6NbCo17P12
_symmetry_space_group_name_H-M   'P 1'
_cell_length_a   3.69866500
_cell_length_b   10.56851300
_cell_length_c   12.25533800
_cell_angle_alpha   90.00000000
_cell_angle_beta   90.00000000
_cell_angle_gamma   90.00000000
_symmetry_Int_Tables_number   1
_chemical_formula_structural   Er6NbCo17P12
_chemical_formula_sum   'Er6 Nb1 Co17 P12'
_cell_volume   479.05367606
_cell_formula_units_Z   1
loop_
 _symmetry_equiv_pos_site_id
 _symmetry_equiv_pos_as_xyz
  1  'x, y, z'
loop_
 _atom_site_type_symbol
 _atom_site_label
 _atom_site_symmetry_multiplicity
 _atom_site_fract_x
 _atom_site_fract_y
 _atom_site_fract_z
 _atom_site_occupancy
  Er  Er0  1  0.750000  0.250000  0.473585  1
  Er  Er1  1  0.250000  0.750000  0.522112  1
  Er  Er2  1  0.250000  0.930246  0.792811  1
  Er  Er3  1  0.250000  0.569754  0.792811  1
  Er  Er4  1  0.750000  0.067515  0.204238  1
  Er  Er5  1  0.750000  0.432485  0.204238  1
  Nb  Nb6  1  0.250000  0.250000  0.844925  1
  Co  Co7  1  0.750000  0.750000  0.161047  1
  Co  Co8  1  0.250000  0.250000  0.298632  1
  Co  Co9  1  0.750000  0.750000  0.702907  1
  Co  Co10  1  0.750000  0.250000  0.015930  1
  Co  Co11  1  0.250000  0.750000  0.985634  1
  Co  Co12  1  0.250000  0.420152  0.010841  1
  Co  Co13  1  0.250000  0.079848  0.010841  1
  Co  Co14  1  0.750000  0.586277  0.995533  1
  Co  Co15  1  0.750000  0.913723  0.995533  1
  Co  Co16  1  0.250000  0.454823  0.567283  1
  Co  Co17  1  0.250000  0.045177  0.567283  1
  Co  Co18  1  0.750000  0.547550  0.430430  1
  Co  Co19  1  0.750000  0.952450  0.430430  1
  Co  Co20  1  0.250000  0.870793  0.291732  1
  Co  Co21  1  0.250000  0.629207  0.291732  1
  Co  Co22  1  0.750000  0.126619  0.705577  1
  Co  Co23  1  0.750000  0.373381  0.705577  1
  P  P24  1  0.250000  0.250000  0.119759  1
  P  P25  1  0.750000  0.750000  0.882279  1
  P  P26  1  0.250000  0.250000  0.643801  1
  P  P27  1  0.750000  0.750000  0.344386  1
  P  P28  1  0.250000  0.439626  0.382756  1
  P  P29  1  0.250000  0.060374  0.382756  1
  P  P30  1  0.750000  0.562341  0.614576  1
  P  P31  1  0.750000  0.937659  0.614576  1
  P  P32  1  0.250000  0.899179  0.109978  1
  P  P33  1  0.250000  0.600821  0.109978  1
  P  P34  1  0.750000  0.088727  0.896747  1
  P  P35  1  0.750000  0.411273  0.896747  1
