# generated using pymatgen
data_Nd3Zn3AgIrPt
_symmetry_space_group_name_H-M   'P 1'
_cell_length_a   7.56137600
_cell_length_b   7.56137489
_cell_length_c   3.93057900
_cell_angle_alpha   90.00000000
_cell_angle_beta   90.00000000
_cell_angle_gamma   119.99999610
_symmetry_Int_Tables_number   1
_chemical_formula_structural   Nd3Zn3AgIrPt
_chemical_formula_sum   'Nd3 Zn3 Ag1 Ir1 Pt1'
_cell_volume   194.62058943
_cell_formula_units_Z   1
loop_
 _symmetry_equiv_pos_site_id
 _symmetry_equiv_pos_as_xyz
  1  'x, y, z'
loop_
 _atom_site_type_symbol
 _atom_site_label
 _atom_site_symmetry_multiplicity
 _atom_site_fract_x
 _atom_site_fract_y
 _atom_site_fract_z
 _atom_site_occupancy
  Nd  Nd0  1  0.410585  0.417180  0.500000  1
  Nd  Nd1  1  0.582820  0.993405  0.500000  1
  Nd  Nd2  1  0.006595  0.589415  0.500000  1
  Zn  Zn3  1  0.736035  0.740611  0.000000  1
  Zn  Zn4  1  0.259389  0.995424  0.000000  1
  Zn  Zn5  1  0.004576  0.263965  0.000000  1
  Ag  Ag6  1  0.000000  0.000000  0.500000  1
  Ir  Ir7  1  0.333333  0.666667  0.000000  1
  Pt  Pt8  1  0.666667  0.333333  0.000000  1
