# generated using pymatgen
data_Ho4Lu2Al17Si7Os8
_symmetry_space_group_name_H-M   'P 1'
_cell_length_a   8.68064419
_cell_length_b   8.67241541
_cell_length_c   9.45765100
_cell_angle_alpha   90.00000000
_cell_angle_beta   90.00000000
_cell_angle_gamma   120.10334988
_symmetry_Int_Tables_number   1
_chemical_formula_structural   Ho4Lu2Al17Si7Os8
_chemical_formula_sum   'Ho4 Lu2 Al17 Si7 Os8'
_cell_volume   615.96029265
_cell_formula_units_Z   1
loop_
 _symmetry_equiv_pos_site_id
 _symmetry_equiv_pos_as_xyz
  1  'x, y, z'
loop_
 _atom_site_type_symbol
 _atom_site_label
 _atom_site_symmetry_multiplicity
 _atom_site_fract_x
 _atom_site_fract_y
 _atom_site_fract_z
 _atom_site_occupancy
  Ho  Ho0  1  0.807017  0.613824  0.750000  1
  Ho  Ho1  1  0.388180  0.191184  0.750000  1
  Ho  Ho2  1  0.196115  0.805055  0.250000  1
  Ho  Ho3  1  0.802721  0.191744  0.750000  1
  Lu  Lu4  1  0.194605  0.391766  0.250000  1
  Lu  Lu5  1  0.607363  0.805378  0.250000  1
  Al  Al6  1  0.164354  0.329559  0.578071  1
  Al  Al7  1  0.834002  0.671273  0.420729  1
  Al  Al8  1  0.671265  0.834922  0.577637  1
  Al  Al9  1  0.834002  0.671273  0.079271  1
  Al  Al10  1  0.329643  0.166355  0.421854  1
  Al  Al11  1  0.164354  0.329559  0.921929  1
  Al  Al12  1  0.163590  0.834214  0.577156  1
  Al  Al13  1  0.329643  0.166355  0.078146  1
  Al  Al14  1  0.835682  0.164064  0.420914  1
  Al  Al15  1  0.671265  0.834922  0.922363  1
  Al  Al16  1  0.835682  0.164064  0.079086  1
  Al  Al17  1  0.163590  0.834214  0.922844  1
  Al  Al18  1  0.125739  0.565338  0.750000  1
  Al  Al19  1  0.563985  0.435686  0.250000  1
  Al  Al20  1  0.438710  0.566157  0.750000  1
  Al  Al21  1  0.998862  0.999970  0.250000  1
  Al  Al22  1  0.999998  0.000842  0.750000  1
  Si  Si23  1  0.333818  0.664279  0.040430  1
  Si  Si24  1  0.666574  0.335595  0.960051  1
  Si  Si25  1  0.666574  0.335595  0.539949  1
  Si  Si26  1  0.333818  0.664279  0.459570  1
  Si  Si27  1  0.565144  0.124047  0.250000  1
  Si  Si28  1  0.436656  0.873230  0.750000  1
  Si  Si29  1  0.875037  0.434375  0.250000  1
  Os  Os30  1  0.500945  0.000260  0.001731  1
  Os  Os31  1  0.999201  0.499253  0.007248  1
  Os  Os32  1  0.500945  0.000260  0.498269  1
  Os  Os33  1  0.500344  0.500568  0.001459  1
  Os  Os34  1  0.999201  0.499253  0.492752  1
  Os  Os35  1  0.500344  0.500568  0.498541  1
  Os  Os36  1  0.000514  0.000357  0.000231  1
  Os  Os37  1  0.000514  0.000357  0.499769  1
