# generated using pymatgen
data_Tm6Co17ReP12
_symmetry_space_group_name_H-M   'P 1'
_cell_length_a   10.46763500
_cell_length_b   3.67390900
_cell_length_c   12.14213000
_cell_angle_alpha   90.00000000
_cell_angle_beta   90.00000000
_cell_angle_gamma   90.00000000
_symmetry_Int_Tables_number   1
_chemical_formula_structural   Tm6Co17ReP12
_chemical_formula_sum   'Tm6 Co17 Re1 P12'
_cell_volume   466.95157431
_cell_formula_units_Z   1
loop_
 _symmetry_equiv_pos_site_id
 _symmetry_equiv_pos_as_xyz
  1  'x, y, z'
loop_
 _atom_site_type_symbol
 _atom_site_label
 _atom_site_symmetry_multiplicity
 _atom_site_fract_x
 _atom_site_fract_y
 _atom_site_fract_z
 _atom_site_occupancy
  Tm  Tm0  1  0.068151  0.750001  0.206960  1
  Tm  Tm1  1  0.431848  0.750001  0.206960  1
  Tm  Tm2  1  0.250000  0.750001  0.477207  1
  Tm  Tm3  1  0.750000  0.250001  0.524706  1
  Tm  Tm4  1  0.567623  0.250001  0.795138  1
  Tm  Tm5  1  0.932377  0.250001  0.795138  1
  Co  Co6  1  0.083404  0.250001  0.006007  1
  Co  Co7  1  0.416596  0.250001  0.006007  1
  Co  Co8  1  0.250000  0.750001  0.014831  1
  Co  Co9  1  0.628569  0.250001  0.291767  1
  Co  Co10  1  0.871431  0.250001  0.291767  1
  Co  Co11  1  0.250000  0.250001  0.296801  1
  Co  Co12  1  0.546718  0.750001  0.431036  1
  Co  Co13  1  0.953283  0.750001  0.431036  1
  Co  Co14  1  0.047160  0.250001  0.568799  1
  Co  Co15  1  0.452840  0.250001  0.568799  1
  Co  Co16  1  0.750000  0.750001  0.702288  1
  Co  Co17  1  0.128335  0.750001  0.708363  1
  Co  Co18  1  0.371665  0.750001  0.708363  1
  Co  Co19  1  0.250000  0.250001  0.839255  1
  Co  Co20  1  0.750000  0.250001  0.988060  1
  Co  Co21  1  0.582334  0.750001  0.990765  1
  Co  Co22  1  0.917666  0.750001  0.990765  1
  Re  Re23  1  0.750000  0.750001  0.157405  1
  P  P24  1  0.593166  0.250001  0.107297  1
  P  P25  1  0.906835  0.250001  0.107297  1
  P  P26  1  0.250000  0.250001  0.118208  1
  P  P27  1  0.750000  0.750001  0.351423  1
  P  P28  1  0.062628  0.250001  0.383827  1
  P  P29  1  0.437372  0.250001  0.383827  1
  P  P30  1  0.562277  0.750001  0.616935  1
  P  P31  1  0.937722  0.750001  0.616935  1
  P  P32  1  0.250000  0.250001  0.654249  1
  P  P33  1  0.750000  0.750001  0.879882  1
  P  P34  1  0.099159  0.750001  0.890948  1
  P  P35  1  0.400842  0.750001  0.890948  1
