# generated using pymatgen
data_Y10Ho6Cd4Ir3Pd
_symmetry_space_group_name_H-M   'P 1'
_cell_length_a   9.64685987
_cell_length_b   9.65917464
_cell_length_c   9.65917399
_cell_angle_alpha   60.08332829
_cell_angle_beta   60.20584343
_cell_angle_gamma   60.20583737
_symmetry_Int_Tables_number   1
_chemical_formula_structural   Y10Ho6Cd4Ir3Pd
_chemical_formula_sum   'Y10 Ho6 Cd4 Ir3 Pd1'
_cell_volume   638.80697463
_cell_formula_units_Z   1
loop_
 _symmetry_equiv_pos_site_id
 _symmetry_equiv_pos_as_xyz
  1  'x, y, z'
loop_
 _atom_site_type_symbol
 _atom_site_label
 _atom_site_symmetry_multiplicity
 _atom_site_fract_x
 _atom_site_fract_y
 _atom_site_fract_z
 _atom_site_occupancy
  Y  Y0  1  0.190647  0.804635  0.190592  1
  Y  Y1  1  0.810337  0.188694  0.810308  1
  Y  Y2  1  0.190647  0.190592  0.804635  1
  Y  Y3  1  0.810337  0.810308  0.188694  1
  Y  Y4  1  0.938517  0.562833  0.562833  1
  Y  Y5  1  0.564553  0.937278  0.937278  1
  Y  Y6  1  0.562618  0.938752  0.562580  1
  Y  Y7  1  0.937429  0.564513  0.937414  1
  Y  Y8  1  0.562618  0.562580  0.938752  1
  Y  Y9  1  0.937429  0.937414  0.564513  1
  Ho  Ho10  1  0.347441  0.347430  0.347430  1
  Ho  Ho11  1  0.353175  0.353255  0.948565  1
  Ho  Ho12  1  0.353175  0.948565  0.353255  1
  Ho  Ho13  1  0.948641  0.353126  0.353126  1
  Ho  Ho14  1  0.804278  0.190681  0.190681  1
  Ho  Ho15  1  0.188743  0.810313  0.810313  1
  Cd  Cd16  1  0.580691  0.580619  0.580619  1
  Cd  Cd17  1  0.580603  0.580643  0.256928  1
  Cd  Cd18  1  0.580603  0.256928  0.580643  1
  Cd  Cd19  1  0.256977  0.580588  0.580588  1
  Ir  Ir20  1  0.142991  0.140637  0.572170  1
  Ir  Ir21  1  0.142991  0.572170  0.140637  1
  Ir  Ir22  1  0.572241  0.143079  0.143079  1
  Pd  Pd23  1  0.142319  0.144366  0.144366  1
