# generated using pymatgen
data_Nd2Ga2Ru2C
_symmetry_space_group_name_H-M   'P 1'
_cell_length_a   6.04622125
_cell_length_b   6.04622121
_cell_length_c   7.29084428
_cell_angle_alpha   126.28139084
_cell_angle_beta   126.28139231
_cell_angle_gamma   40.76782377
_symmetry_Int_Tables_number   1
_chemical_formula_structural   Nd2Ga2Ru2C
_chemical_formula_sum   'Nd2 Ga2 Ru2 C1'
_cell_volume   134.97940432
_cell_formula_units_Z   1
loop_
 _symmetry_equiv_pos_site_id
 _symmetry_equiv_pos_as_xyz
  1  'x, y, z'
loop_
 _atom_site_type_symbol
 _atom_site_label
 _atom_site_symmetry_multiplicity
 _atom_site_fract_x
 _atom_site_fract_y
 _atom_site_fract_z
 _atom_site_occupancy
  Nd  Nd0  1  0.559643  0.559643  0.291308  1
  Nd  Nd1  1  0.440357  0.440357  0.708691  1
  Ga  Ga2  1  0.841348  0.841348  0.292470  1
  Ga  Ga3  1  0.158652  0.158652  0.707531  1
  Ru  Ru4  1  0.196331  0.196331  0.090039  1
  Ru  Ru5  1  0.803668  0.803668  0.909961  1
  C  C6  1  0.000000  0.000000  0.000000  1
