# generated using pymatgen
data_Sr2FeCo2N3
_symmetry_space_group_name_H-M   'P 1'
_cell_length_a   6.49733309
_cell_length_b   6.44281866
_cell_length_c   6.33748520
_cell_angle_alpha   87.48265361
_cell_angle_beta   88.53381732
_cell_angle_gamma   117.48728783
_symmetry_Int_Tables_number   1
_chemical_formula_structural   Sr2FeCo2N3
_chemical_formula_sum   'Sr4 Fe2 Co4 N6'
_cell_volume   234.80403908
_cell_formula_units_Z   2
loop_
 _symmetry_equiv_pos_site_id
 _symmetry_equiv_pos_as_xyz
  1  'x, y, z'
loop_
 _atom_site_type_symbol
 _atom_site_label
 _atom_site_symmetry_multiplicity
 _atom_site_fract_x
 _atom_site_fract_y
 _atom_site_fract_z
 _atom_site_occupancy
  Sr  Sr0  1  0.831811  0.673022  0.898315  1
  Sr  Sr1  1  0.325188  0.165086  0.601939  1
  Sr  Sr2  1  0.168189  0.326978  0.101685  1
  Sr  Sr3  1  0.674812  0.834914  0.398061  1
  Fe  Fe4  1  0.844045  0.447484  0.388639  1
  Fe  Fe5  1  0.155955  0.552516  0.611361  1
  Co  Co6  1  0.811971  0.196413  0.749195  1
  Co  Co7  1  0.188029  0.803587  0.250805  1
  Co  Co8  1  0.556212  0.155944  0.105679  1
  Co  Co9  1  0.443788  0.844056  0.894321  1
  N  N10  1  0.403798  0.593539  0.746989  1
  N  N11  1  0.596202  0.406461  0.253011  1
  N  N12  1  0.019745  0.733091  0.502583  1
  N  N13  1  0.737716  0.023988  0.995740  1
  N  N14  1  0.980255  0.266909  0.497417  1
  N  N15  1  0.262284  0.976012  0.004260  1
