# generated using pymatgen
data_Dy3Tm(TiAl3)2
_symmetry_space_group_name_H-M   'P 1'
_cell_length_a   9.51156715
_cell_length_b   9.51156688
_cell_length_c   9.51156771
_cell_angle_alpha   34.79561481
_cell_angle_beta   34.79561910
_cell_angle_gamma   34.79562044
_symmetry_Int_Tables_number   1
_chemical_formula_structural   Dy3Tm(TiAl3)2
_chemical_formula_sum   'Dy3 Tm1 Ti2 Al6'
_cell_volume   250.11470451
_cell_formula_units_Z   1
loop_
 _symmetry_equiv_pos_site_id
 _symmetry_equiv_pos_as_xyz
  1  'x, y, z'
loop_
 _atom_site_type_symbol
 _atom_site_label
 _atom_site_symmetry_multiplicity
 _atom_site_fract_x
 _atom_site_fract_y
 _atom_site_fract_z
 _atom_site_occupancy
  Dy  Dy0  1  0.313220  0.313220  0.313220  1
  Dy  Dy1  1  0.686838  0.686838  0.686838  1
  Dy  Dy2  1  0.186669  0.186669  0.186669  1
  Tm  Tm3  1  0.813414  0.813414  0.813414  1
  Ti  Ti4  1  0.499923  0.499923  0.499923  1
  Ti  Ti5  1  0.999961  0.999961  0.999961  1
  Al  Al6  1  0.249957  0.249957  0.750173  1
  Al  Al7  1  0.750084  0.750084  0.249721  1
  Al  Al8  1  0.249957  0.750173  0.249957  1
  Al  Al9  1  0.750084  0.249721  0.750084  1
  Al  Al10  1  0.750173  0.249957  0.249957  1
  Al  Al11  1  0.249721  0.750084  0.750084  1
