# generated using pymatgen
data_Tm2Co12Si2GeP4
_symmetry_space_group_name_H-M   'P 1'
_cell_length_a   9.08207124
_cell_length_b   9.10508085
_cell_length_c   3.57366700
_cell_angle_alpha   90.00000000
_cell_angle_beta   90.00000000
_cell_angle_gamma   120.08393644
_symmetry_Int_Tables_number   1
_chemical_formula_structural   Tm2Co12Si2GeP4
_chemical_formula_sum   'Tm2 Co12 Si2 Ge1 P4'
_cell_volume   255.70868364
_cell_formula_units_Z   1
loop_
 _symmetry_equiv_pos_site_id
 _symmetry_equiv_pos_as_xyz
  1  'x, y, z'
loop_
 _atom_site_type_symbol
 _atom_site_label
 _atom_site_symmetry_multiplicity
 _atom_site_fract_x
 _atom_site_fract_y
 _atom_site_fract_z
 _atom_site_occupancy
  Tm  Tm0  1  0.668570  0.334310  0.000000  1
  Tm  Tm1  1  0.001795  0.002077  0.500000  1
  Co  Co2  1  0.767086  0.720373  0.000000  1
  Co  Co3  1  0.277547  0.051621  0.000000  1
  Co  Co4  1  0.958711  0.230395  0.000000  1
  Co  Co5  1  0.716843  0.108324  0.500000  1
  Co  Co6  1  0.892472  0.607473  0.500000  1
  Co  Co7  1  0.388042  0.283438  0.500000  1
  Co  Co8  1  0.488298  0.955555  0.000000  1
  Co  Co9  1  0.048038  0.535596  0.000000  1
  Co  Co10  1  0.459092  0.505435  0.000000  1
  Co  Co11  1  0.577607  0.774204  0.500000  1
  Co  Co12  1  0.225072  0.807645  0.500000  1
  Co  Co13  1  0.195227  0.415007  0.500000  1
  Si  Si14  1  0.735332  0.955208  0.000000  1
  Si  Si15  1  0.044363  0.780218  0.000000  1
  Ge  Ge16  1  0.334770  0.668577  0.000000  1
  P  P17  1  0.445333  0.072240  0.500000  1
  P  P18  1  0.930375  0.374010  0.500000  1
  P  P19  1  0.625614  0.555771  0.500000  1
  P  P20  1  0.219815  0.262518  0.000000  1
