# generated using pymatgen
data_Tb3Sm5(Si3Rh)4
_symmetry_space_group_name_H-M   'P 1'
_cell_length_a   8.21851500
_cell_length_b   8.21851581
_cell_length_c   8.07463200
_cell_angle_alpha   90.00000000
_cell_angle_beta   90.00000000
_cell_angle_gamma   119.99999270
_symmetry_Int_Tables_number   1
_chemical_formula_structural   Tb3Sm5(Si3Rh)4
_chemical_formula_sum   'Tb3 Sm5 Si12 Rh4'
_cell_volume   472.32414763
_cell_formula_units_Z   1
loop_
 _symmetry_equiv_pos_site_id
 _symmetry_equiv_pos_as_xyz
  1  'x, y, z'
loop_
 _atom_site_type_symbol
 _atom_site_label
 _atom_site_symmetry_multiplicity
 _atom_site_fract_x
 _atom_site_fract_y
 _atom_site_fract_z
 _atom_site_occupancy
  Tb  Tb0  1  0.491732  0.508268  0.750000  1
  Tb  Tb1  1  0.491732  0.983464  0.750000  1
  Tb  Tb2  1  0.016536  0.508268  0.750000  1
  Sm  Sm3  1  0.000000  0.000000  0.250000  1
  Sm  Sm4  1  0.000000  0.000000  0.750000  1
  Sm  Sm5  1  0.506555  0.493445  0.250000  1
  Sm  Sm6  1  0.506555  0.013111  0.250000  1
  Sm  Sm7  1  0.986889  0.493445  0.250000  1
  Si  Si8  1  0.166636  0.833364  0.504078  1
  Si  Si9  1  0.166636  0.333274  0.504078  1
  Si  Si10  1  0.666726  0.833364  0.504078  1
  Si  Si11  1  0.832388  0.167612  0.501604  1
  Si  Si12  1  0.832388  0.664774  0.501604  1
  Si  Si13  1  0.335226  0.167612  0.501604  1
  Si  Si14  1  0.832388  0.167612  0.998396  1
  Si  Si15  1  0.832388  0.664774  0.998396  1
  Si  Si16  1  0.335226  0.167612  0.998396  1
  Si  Si17  1  0.166636  0.833364  0.995922  1
  Si  Si18  1  0.166636  0.333274  0.995922  1
  Si  Si19  1  0.666726  0.833364  0.995922  1
  Rh  Rh20  1  0.333333  0.666667  0.478208  1
  Rh  Rh21  1  0.666667  0.333333  0.538256  1
  Rh  Rh22  1  0.666667  0.333333  0.961744  1
  Rh  Rh23  1  0.333333  0.666667  0.021792  1
