# generated using pymatgen
data_V4Sn4Sb(WO8)3
_symmetry_space_group_name_H-M   'P 1'
_cell_length_a   4.71412416
_cell_length_b   9.42955217
_cell_length_c   9.60099216
_cell_angle_alpha   89.97779622
_cell_angle_beta   90.02279890
_cell_angle_gamma   90.07289904
_symmetry_Int_Tables_number   1
_chemical_formula_structural   V4Sn4Sb(WO8)3
_chemical_formula_sum   'V4 Sn4 Sb1 W3 O24'
_cell_volume   426.78365764
_cell_formula_units_Z   1
loop_
 _symmetry_equiv_pos_site_id
 _symmetry_equiv_pos_as_xyz
  1  'x, y, z'
loop_
 _atom_site_type_symbol
 _atom_site_label
 _atom_site_symmetry_multiplicity
 _atom_site_fract_x
 _atom_site_fract_y
 _atom_site_fract_z
 _atom_site_occupancy
  V  V0  1  0.498198  0.750282  0.167465  1
  V  V1  1  0.999717  0.500092  0.665438  1
  V  V2  1  0.502066  0.249612  0.167386  1
  V  V3  1  0.999923  0.000085  0.666646  1
  Sn  Sn4  1  0.502460  0.249663  0.499450  1
  Sn  Sn5  1  0.497985  0.750098  0.499564  1
  Sn  Sn6  1  0.999980  0.000019  0.999950  1
  Sn  Sn7  1  0.999927  0.500110  0.000083  1
  Sb  Sb8  1  0.000475  0.499754  0.332904  1
  W  W9  1  0.500424  0.250513  0.833563  1
  W  W10  1  0.499338  0.749649  0.833662  1
  W  W11  1  0.000260  0.999849  0.333868  1
  O  O12  1  0.196488  0.401322  0.171693  1
  O  O13  1  0.197008  0.902228  0.170245  1
  O  O14  1  0.803055  0.097624  0.170193  1
  O  O15  1  0.803818  0.598570  0.171919  1
  O  O16  1  0.303101  0.152664  0.670543  1
  O  O17  1  0.304003  0.651171  0.670538  1
  O  O18  1  0.695991  0.348856  0.670463  1
  O  O19  1  0.696724  0.847453  0.670599  1
  O  O20  1  0.188895  0.404477  0.496247  1
  O  O21  1  0.190208  0.905841  0.498559  1
  O  O22  1  0.810285  0.093835  0.498701  1
  O  O23  1  0.811951  0.594986  0.496662  1
  O  O24  1  0.310025  0.156199  0.998320  1
  O  O25  1  0.309162  0.654414  0.997473  1
  O  O26  1  0.690114  0.346033  0.997335  1
  O  O27  1  0.689203  0.844231  0.998421  1
  O  O28  1  0.202622  0.398636  0.831038  1
  O  O29  1  0.203855  0.898370  0.831782  1
  O  O30  1  0.795445  0.102052  0.831955  1
  O  O31  1  0.796372  0.601886  0.831624  1
  O  O32  1  0.296118  0.147684  0.332156  1
  O  O33  1  0.302269  0.651132  0.330724  1
  O  O34  1  0.698222  0.348630  0.330576  1
  O  O35  1  0.704313  0.851986  0.332262  1
