# generated using pymatgen
data_LiDyHo3Sc5Si8
_symmetry_space_group_name_H-M   'P 1'
_cell_length_a   6.98179301
_cell_length_b   7.38258850
_cell_length_c   13.97504354
_cell_angle_alpha   90.03138908
_cell_angle_beta   90.00566030
_cell_angle_gamma   89.95496060
_symmetry_Int_Tables_number   1
_chemical_formula_structural   LiDyHo3Sc5Si8
_chemical_formula_sum   'Li2 Dy2 Ho6 Sc10 Si16'
_cell_volume   720.32518408
_cell_formula_units_Z   2
loop_
 _symmetry_equiv_pos_site_id
 _symmetry_equiv_pos_as_xyz
  1  'x, y, z'
loop_
 _atom_site_type_symbol
 _atom_site_label
 _atom_site_symmetry_multiplicity
 _atom_site_fract_x
 _atom_site_fract_y
 _atom_site_fract_z
 _atom_site_occupancy
  Li  Li0  1  0.159831  0.506532  0.749983  1
  Li  Li1  1  0.840169  0.493468  0.250017  1
  Dy  Dy2  1  0.010315  0.183961  0.098356  1
  Dy  Dy3  1  0.989685  0.816039  0.901644  1
  Ho  Ho4  1  0.484718  0.674324  0.902486  1
  Ho  Ho5  1  0.989607  0.815972  0.598410  1
  Ho  Ho6  1  0.515282  0.325676  0.097514  1
  Ho  Ho7  1  0.010393  0.184028  0.401590  1
  Ho  Ho8  1  0.515302  0.325637  0.402495  1
  Ho  Ho9  1  0.484698  0.674363  0.597505  1
  Sc  Sc10  1  0.341827  0.003064  0.250032  1
  Sc  Sc11  1  0.658173  0.996936  0.749968  1
  Sc  Sc12  1  0.325832  0.181732  0.626059  1
  Sc  Sc13  1  0.674168  0.818268  0.373941  1
  Sc  Sc14  1  0.165302  0.675094  0.373050  1
  Sc  Sc15  1  0.674119  0.818241  0.126084  1
  Sc  Sc16  1  0.834698  0.324906  0.626950  1
  Sc  Sc17  1  0.325881  0.181759  0.873916  1
  Sc  Sc18  1  0.834653  0.324955  0.873025  1
  Sc  Sc19  1  0.165347  0.675045  0.126975  1
  Si  Si20  1  0.029139  0.101328  0.749931  1
  Si  Si21  1  0.970861  0.898672  0.250069  1
  Si  Si22  1  0.465294  0.613240  0.250016  1
  Si  Si23  1  0.534706  0.386760  0.749984  1
  Si  Si24  1  0.287375  0.879588  0.749920  1
  Si  Si25  1  0.712625  0.120412  0.250080  1
  Si  Si26  1  0.220938  0.372883  0.250072  1
  Si  Si27  1  0.779062  0.627117  0.749928  1
  Si  Si28  1  0.160156  0.461432  0.533161  1
  Si  Si29  1  0.839844  0.538568  0.466839  1
  Si  Si30  1  0.343190  0.966815  0.461211  1
  Si  Si31  1  0.839759  0.538558  0.033171  1
  Si  Si32  1  0.656810  0.033185  0.538789  1
  Si  Si33  1  0.160241  0.461442  0.966829  1
  Si  Si34  1  0.656553  0.033248  0.961243  1
  Si  Si35  1  0.343447  0.966752  0.038757  1
