# generated using pymatgen
data_LaYMo2O7
_symmetry_space_group_name_H-M   'P 1'
_cell_length_a   7.40225622
_cell_length_b   7.48540411
_cell_length_c   7.48540395
_cell_angle_alpha   60.93238173
_cell_angle_beta   60.36678015
_cell_angle_gamma   60.36677830
_symmetry_Int_Tables_number   1
_chemical_formula_structural   LaYMo2O7
_chemical_formula_sum   'La2 Y2 Mo4 O14'
_cell_volume   296.93835321
_cell_formula_units_Z   2
loop_
 _symmetry_equiv_pos_site_id
 _symmetry_equiv_pos_as_xyz
  1  'x, y, z'
loop_
 _atom_site_type_symbol
 _atom_site_label
 _atom_site_symmetry_multiplicity
 _atom_site_fract_x
 _atom_site_fract_y
 _atom_site_fract_z
 _atom_site_occupancy
  La  La0  1  0.125000  0.625000  0.125000  1
  La  La1  1  0.125000  0.125000  0.625000  1
  Y  Y2  1  0.125000  0.125000  0.125000  1
  Y  Y3  1  0.625000  0.125000  0.125000  1
  Mo  Mo4  1  0.625000  0.625000  0.625000  1
  Mo  Mo5  1  0.125000  0.625000  0.625000  1
  Mo  Mo6  1  0.625000  0.125000  0.625000  1
  Mo  Mo7  1  0.625000  0.625000  0.125000  1
  O  O8  1  0.255667  0.244333  0.244333  1
  O  O9  1  0.994333  0.005667  0.005667  1
  O  O10  1  0.548698  0.959760  0.531584  1
  O  O11  1  0.290042  0.718416  0.290240  1
  O  O12  1  0.548698  0.531584  0.959760  1
  O  O13  1  0.957331  0.542669  0.542669  1
  O  O14  1  0.535704  0.964296  0.964296  1
  O  O15  1  0.959958  0.959760  0.531584  1
  O  O16  1  0.959958  0.531584  0.959760  1
  O  O17  1  0.714296  0.285704  0.285704  1
  O  O18  1  0.292669  0.707331  0.707331  1
  O  O19  1  0.701302  0.718416  0.290240  1
  O  O20  1  0.290042  0.290240  0.718416  1
  O  O21  1  0.701302  0.290240  0.718416  1
