# generated using pymatgen
data_Tb4Al24ZnPd8
_symmetry_space_group_name_H-M   'P 1'
_cell_length_a   7.57770405
_cell_length_b   7.58085151
_cell_length_c   13.18103288
_cell_angle_alpha   84.53597157
_cell_angle_beta   100.99741388
_cell_angle_gamma   119.83711929
_symmetry_Int_Tables_number   1
_chemical_formula_structural   Tb4Al24ZnPd8
_chemical_formula_sum   'Tb4 Al24 Zn1 Pd8'
_cell_volume   644.75768909
_cell_formula_units_Z   1
loop_
 _symmetry_equiv_pos_site_id
 _symmetry_equiv_pos_as_xyz
  1  'x, y, z'
loop_
 _atom_site_type_symbol
 _atom_site_label
 _atom_site_symmetry_multiplicity
 _atom_site_fract_x
 _atom_site_fract_y
 _atom_site_fract_z
 _atom_site_occupancy
  Tb  Tb0  1  0.437873  0.828129  0.808040  1
  Tb  Tb1  1  0.562415  0.168451  0.191893  1
  Tb  Tb2  1  0.764990  0.501626  0.807988  1
  Tb  Tb3  1  0.231095  0.498383  0.190870  1
  Al  Al4  1  0.482844  0.165527  0.946044  1
  Al  Al5  1  0.518498  0.833790  0.055328  1
  Al  Al6  1  0.015881  0.161537  0.559693  1
  Al  Al7  1  0.977678  0.834134  0.434560  1
  Al  Al8  1  0.352343  0.839451  0.558240  1
  Al  Al9  1  0.645476  0.166856  0.437273  1
  Al  Al10  1  0.617410  0.835977  0.329362  1
  Al  Al11  1  0.382932  0.162202  0.672900  1
  Al  Al12  1  0.054394  0.491894  0.673134  1
  Al  Al13  1  0.942169  0.506349  0.329327  1
  Al  Al14  1  0.737352  0.845925  0.671402  1
  Al  Al15  1  0.269592  0.159154  0.330707  1
  Al  Al16  1  0.147450  0.500392  0.945537  1
  Al  Al17  1  0.851470  0.500163  0.055275  1
  Al  Al18  1  0.818474  0.833154  0.955951  1
  Al  Al19  1  0.182678  0.166912  0.046092  1
  Al  Al20  1  0.310766  0.499666  0.436189  1
  Al  Al21  1  0.693580  0.499724  0.558297  1
  Al  Al22  1  0.102566  0.835493  0.184302  1
  Al  Al23  1  0.896649  0.164776  0.816580  1
  Al  Al24  1  0.305604  0.366383  0.817380  1
  Al  Al25  1  0.692531  0.631104  0.185907  1
  Al  Al26  1  0.104002  0.958179  0.816253  1
  Al  Al27  1  0.897810  0.041253  0.184599  1
  Zn  Zn28  1  0.391330  0.510563  0.639879  1
  Pd  Pd29  1  0.611505  0.493399  0.363169  1
  Pd  Pd30  1  0.171211  0.828384  0.999107  1
  Pd  Pd31  1  0.828715  0.171671  0.999829  1
  Pd  Pd32  1  0.294608  0.831556  0.363075  1
  Pd  Pd33  1  0.704995  0.166377  0.636627  1
  Pd  Pd34  1  0.046071  0.825096  0.636455  1
  Pd  Pd35  1  0.955134  0.176129  0.362926  1
  Pd  Pd36  1  0.499910  0.500240  0.999809  1
