# generated using pymatgen
data_Na5YbNbP4
_symmetry_space_group_name_H-M   'P 1'
_cell_length_a   9.27053984
_cell_length_b   9.27053893
_cell_length_c   7.18556010
_cell_angle_alpha   90.69681760
_cell_angle_beta   90.69680901
_cell_angle_gamma   120.20098411
_symmetry_Int_Tables_number   1
_chemical_formula_structural   Na5YbNbP4
_chemical_formula_sum   'Na10 Yb2 Nb2 P8'
_cell_volume   533.56687005
_cell_formula_units_Z   2
loop_
 _symmetry_equiv_pos_site_id
 _symmetry_equiv_pos_as_xyz
  1  'x, y, z'
loop_
 _atom_site_type_symbol
 _atom_site_label
 _atom_site_symmetry_multiplicity
 _atom_site_fract_x
 _atom_site_fract_y
 _atom_site_fract_z
 _atom_site_occupancy
  Na  Na0  1  0.537602  0.470742  0.613099  1
  Na  Na1  1  0.936626  0.470129  0.614016  1
  Na  Na2  1  0.470742  0.537602  0.113099  1
  Na  Na3  1  0.470129  0.936626  0.114016  1
  Na  Na4  1  0.137971  0.854153  0.782679  1
  Na  Na5  1  0.712101  0.848941  0.801067  1
  Na  Na6  1  0.147624  0.289605  0.774052  1
  Na  Na7  1  0.854153  0.137971  0.282679  1
  Na  Na8  1  0.289605  0.147624  0.274052  1
  Na  Na9  1  0.848941  0.712101  0.301067  1
  Yb  Yb10  1  0.533253  0.059881  0.607355  1
  Yb  Yb11  1  0.059881  0.533253  0.107355  1
  Nb  Nb12  1  0.331399  0.664612  0.501597  1
  Nb  Nb13  1  0.664612  0.331399  0.001597  1
  P  P14  1  0.811346  0.195036  0.890138  1
  P  P15  1  0.386204  0.188087  0.877963  1
  P  P16  1  0.817422  0.618379  0.912127  1
  P  P17  1  0.195036  0.811346  0.390138  1
  P  P18  1  0.618379  0.817422  0.412127  1
  P  P19  1  0.188087  0.386204  0.377963  1
  P  P20  1  0.322958  0.665928  0.836107  1
  P  P21  1  0.665928  0.322958  0.336107  1
