# generated using pymatgen
data_Zr8CoSi16Ni11
_symmetry_space_group_name_H-M   'P 1'
_cell_length_a   5.22502400
_cell_length_b   6.89758255
_cell_length_c   13.76115104
_cell_angle_alpha   90.12213124
_cell_angle_beta   90.00000000
_cell_angle_gamma   90.00000000
_symmetry_Int_Tables_number   1
_chemical_formula_structural   Zr8CoSi16Ni11
_chemical_formula_sum   'Zr8 Co1 Si16 Ni11'
_cell_volume   495.95122950
_cell_formula_units_Z   1
loop_
 _symmetry_equiv_pos_site_id
 _symmetry_equiv_pos_as_xyz
  1  'x, y, z'
loop_
 _atom_site_type_symbol
 _atom_site_label
 _atom_site_symmetry_multiplicity
 _atom_site_fract_x
 _atom_site_fract_y
 _atom_site_fract_z
 _atom_site_occupancy
  Zr  Zr0  1  0.247502  0.402167  0.145386  1
  Zr  Zr1  1  0.747433  0.096337  0.145450  1
  Zr  Zr2  1  0.252513  0.097702  0.645666  1
  Zr  Zr3  1  0.752592  0.403389  0.645503  1
  Zr  Zr4  1  0.247502  0.597833  0.354614  1
  Zr  Zr5  1  0.747433  0.903663  0.354550  1
  Zr  Zr6  1  0.252513  0.902298  0.854334  1
  Zr  Zr7  1  0.752592  0.596611  0.854497  1
  Co  Co8  1  0.253561  0.500000  0.750000  1
  Si  Si9  1  0.247074  0.020735  0.068280  1
  Si  Si10  1  0.747122  0.523807  0.432194  1
  Si  Si11  1  0.752828  0.023754  0.568587  1
  Si  Si12  1  0.497005  0.750202  0.188392  1
  Si  Si13  1  0.004938  0.252126  0.811020  1
  Si  Si14  1  0.501426  0.251303  0.811021  1
  Si  Si15  1  0.247074  0.979265  0.431720  1
  Si  Si16  1  0.252859  0.519798  0.929114  1
  Si  Si17  1  0.996894  0.749514  0.188406  1
  Si  Si18  1  0.747122  0.476193  0.067806  1
  Si  Si19  1  0.252859  0.480202  0.570886  1
  Si  Si20  1  0.497005  0.249798  0.311608  1
  Si  Si21  1  0.004938  0.747874  0.688980  1
  Si  Si22  1  0.752828  0.976246  0.931413  1
  Si  Si23  1  0.501426  0.748697  0.688979  1
  Si  Si24  1  0.996894  0.250486  0.311594  1
  Ni  Ni25  1  0.999631  0.249615  0.978319  1
  Ni  Ni26  1  0.499899  0.250778  0.478714  1
  Ni  Ni27  1  0.753687  0.000000  0.750000  1
  Ni  Ni28  1  0.499580  0.246249  0.978315  1
  Ni  Ni29  1  0.746560  0.500000  0.250000  1
  Ni  Ni30  1  0.499580  0.753751  0.521685  1
  Ni  Ni31  1  0.000509  0.253714  0.478683  1
  Ni  Ni32  1  0.000509  0.746286  0.021317  1
  Ni  Ni33  1  0.246580  0.000000  0.250000  1
  Ni  Ni34  1  0.499899  0.749222  0.021286  1
  Ni  Ni35  1  0.999631  0.750385  0.521681  1
