# generated using pymatgen
data_Er7Tm(IrPd)4
_symmetry_space_group_name_H-M   'P 1'
_cell_length_a   6.94616500
_cell_length_b   4.84734000
_cell_length_c   9.66643800
_cell_angle_alpha   90.00000000
_cell_angle_beta   89.99993401
_cell_angle_gamma   90.00000000
_symmetry_Int_Tables_number   1
_chemical_formula_structural   Er7Tm(IrPd)4
_chemical_formula_sum   'Er7 Tm1 Ir4 Pd4'
_cell_volume   325.47306072
_cell_formula_units_Z   1
loop_
 _symmetry_equiv_pos_site_id
 _symmetry_equiv_pos_as_xyz
  1  'x, y, z'
loop_
 _atom_site_type_symbol
 _atom_site_label
 _atom_site_symmetry_multiplicity
 _atom_site_fract_x
 _atom_site_fract_y
 _atom_site_fract_z
 _atom_site_occupancy
  Er  Er0  1  0.000068  0.750000  0.125073  1
  Er  Er1  1  0.500021  0.750000  0.125139  1
  Er  Er2  1  0.000169  0.249999  0.374916  1
  Er  Er3  1  0.499709  0.249999  0.374941  1
  Er  Er4  1  0.499994  0.750000  0.624989  1
  Er  Er5  1  0.000027  0.750000  0.625072  1
  Er  Er6  1  0.499904  0.249999  0.874922  1
  Tm  Tm7  1  0.000179  0.249999  0.874971  1
  Ir  Ir8  1  0.750095  0.249999  0.124982  1
  Ir  Ir9  1  0.249881  0.750000  0.375101  1
  Ir  Ir10  1  0.750091  0.249999  0.624781  1
  Ir  Ir11  1  0.249922  0.750000  0.875097  1
  Pd  Pd12  1  0.249907  0.249999  0.124581  1
  Pd  Pd13  1  0.749906  0.750000  0.375259  1
  Pd  Pd14  1  0.249798  0.249999  0.624927  1
  Pd  Pd15  1  0.750327  0.750000  0.875251  1
