# generated using pymatgen
data_K4SrNpO6
_symmetry_space_group_name_H-M   'P 1'
_cell_length_a   6.31078136
_cell_length_b   6.31078474
_cell_length_c   6.44838200
_cell_angle_alpha   99.83093557
_cell_angle_beta   99.83162276
_cell_angle_gamma   119.37537979
_symmetry_Int_Tables_number   1
_chemical_formula_structural   K4SrNpO6
_chemical_formula_sum   'K4 Sr1 Np1 O6'
_cell_volume   210.59760866
_cell_formula_units_Z   1
loop_
 _symmetry_equiv_pos_site_id
 _symmetry_equiv_pos_as_xyz
  1  'x, y, z'
loop_
 _atom_site_type_symbol
 _atom_site_label
 _atom_site_symmetry_multiplicity
 _atom_site_fract_x
 _atom_site_fract_y
 _atom_site_fract_z
 _atom_site_occupancy
  K  K0  1  0.500543  0.499488  0.000032  1
  K  K1  1  0.999878  0.000131  0.500000  1
  K  K2  1  0.658877  0.341083  0.499997  1
  K  K3  1  0.339912  0.660121  0.500018  1
  Sr  Sr4  1  0.832821  0.167159  0.000002  1
  Np  Np5  1  0.167312  0.832718  0.000137  1
  O  O6  1  0.971390  0.619551  0.194478  1
  O  O7  1  0.517375  0.917770  0.199446  1
  O  O8  1  0.214689  0.165442  0.197498  1
  O  O9  1  0.834474  0.785296  0.802434  1
  O  O10  1  0.082224  0.482564  0.800504  1
  O  O11  1  0.380510  0.028680  0.805453  1
