# generated using pymatgen
data_Mn3Al11Cu
_symmetry_space_group_name_H-M   'P 1'
_cell_length_a   5.03443388
_cell_length_b   5.02998975
_cell_length_c   8.82297380
_cell_angle_alpha   105.12566637
_cell_angle_beta   86.95061872
_cell_angle_gamma   100.69210386
_symmetry_Int_Tables_number   1
_chemical_formula_structural   Mn3Al11Cu
_chemical_formula_sum   'Mn3 Al11 Cu1'
_cell_volume   211.93776696
_cell_formula_units_Z   1
loop_
 _symmetry_equiv_pos_site_id
 _symmetry_equiv_pos_as_xyz
  1  'x, y, z'
loop_
 _atom_site_type_symbol
 _atom_site_label
 _atom_site_symmetry_multiplicity
 _atom_site_fract_x
 _atom_site_fract_y
 _atom_site_fract_z
 _atom_site_occupancy
  Mn  Mn0  1  0.671322  0.853742  0.399554  1
  Mn  Mn1  1  0.671309  0.615653  0.868655  1
  Mn  Mn2  1  0.323829  0.381153  0.132600  1
  Al  Al3  1  0.012713  0.991464  0.985014  1
  Al  Al4  1  0.932068  0.838309  0.667239  1
  Al  Al5  1  0.022454  0.139380  0.296915  1
  Al  Al6  1  0.861718  0.299161  0.612902  1
  Al  Al7  1  0.836303  0.540439  0.133145  1
  Al  Al8  1  0.158924  0.468100  0.880754  1
  Al  Al9  1  0.479537  0.888620  0.129787  1
  Al  Al10  1  0.548454  0.117527  0.885507  1
  Al  Al11  1  0.550571  0.328804  0.370738  1
  Al  Al12  1  0.418319  0.669699  0.634056  1
  Al  Al13  1  0.160307  0.707834  0.380405  1
  Cu  Cu14  1  0.352174  0.160115  0.622728  1
