# generated using pymatgen
data_SmLu19Rh12
_symmetry_space_group_name_H-M   'P 1'
_cell_length_a   10.68105201
_cell_length_b   10.68914369
_cell_length_c   6.27543700
_cell_angle_alpha   89.92873633
_cell_angle_beta   90.00218325
_cell_angle_gamma   90.02955877
_symmetry_Int_Tables_number   1
_chemical_formula_structural   SmLu19Rh12
_chemical_formula_sum   'Sm1 Lu19 Rh12'
_cell_volume   716.47414827
_cell_formula_units_Z   1
loop_
 _symmetry_equiv_pos_site_id
 _symmetry_equiv_pos_as_xyz
  1  'x, y, z'
loop_
 _atom_site_type_symbol
 _atom_site_label
 _atom_site_symmetry_multiplicity
 _atom_site_fract_x
 _atom_site_fract_y
 _atom_site_fract_z
 _atom_site_occupancy
  Sm  Sm0  1  0.088662  0.287431  0.125610  1
  Lu  Lu1  1  0.292264  0.084415  0.378266  1
  Lu  Lu2  1  0.289625  0.912029  0.879064  1
  Lu  Lu3  1  0.710022  0.087027  0.877359  1
  Lu  Lu4  1  0.709222  0.912011  0.376548  1
  Lu  Lu5  1  0.587461  0.790033  0.878062  1
  Lu  Lu6  1  0.587578  0.209148  0.377242  1
  Lu  Lu7  1  0.411945  0.790062  0.377612  1
  Lu  Lu8  1  0.412474  0.209365  0.876455  1
  Lu  Lu9  1  0.209821  0.414201  0.621630  1
  Lu  Lu10  1  0.208575  0.590098  0.122298  1
  Lu  Lu11  1  0.789793  0.413398  0.122541  1
  Lu  Lu12  1  0.790172  0.588138  0.623035  1
  Lu  Lu13  1  0.912262  0.709577  0.123655  1
  Lu  Lu14  1  0.909873  0.292049  0.621770  1
  Lu  Lu15  1  0.087664  0.710265  0.622640  1
  Lu  Lu16  1  0.999604  0.999130  0.499205  1
  Lu  Lu17  1  0.999226  0.997093  0.999200  1
  Lu  Lu18  1  0.500627  0.500473  0.999169  1
  Lu  Lu19  1  0.500875  0.500458  0.499682  1
  Rh  Rh20  1  0.841280  0.152086  0.251138  1
  Rh  Rh21  1  0.846689  0.846209  0.750520  1
  Rh  Rh22  1  0.156576  0.151370  0.745443  1
  Rh  Rh23  1  0.152964  0.847779  0.247539  1
  Rh  Rh24  1  0.655333  0.347171  0.751005  1
  Rh  Rh25  1  0.653567  0.653461  0.249668  1
  Rh  Rh26  1  0.352265  0.346249  0.255724  1
  Rh  Rh27  1  0.346249  0.654463  0.748276  1
  Rh  Rh28  1  0.502407  0.000606  0.121367  1
  Rh  Rh29  1  0.499068  0.000055  0.620993  1
  Rh  Rh30  1  0.997508  0.502180  0.875207  1
  Rh  Rh31  1  0.998352  0.501970  0.382081  1
