# generated using pymatgen
data_YThCdPd2
_symmetry_space_group_name_H-M   'P 1'
_cell_length_a   7.88997900
_cell_length_b   7.83745600
_cell_length_c   3.78446100
_cell_angle_alpha   90.00000000
_cell_angle_beta   90.00000000
_cell_angle_gamma   90.00000000
_symmetry_Int_Tables_number   1
_chemical_formula_structural   YThCdPd2
_chemical_formula_sum   'Y2 Th2 Cd2 Pd4'
_cell_volume   234.02108958
_cell_formula_units_Z   2
loop_
 _symmetry_equiv_pos_site_id
 _symmetry_equiv_pos_as_xyz
  1  'x, y, z'
loop_
 _atom_site_type_symbol
 _atom_site_label
 _atom_site_symmetry_multiplicity
 _atom_site_fract_x
 _atom_site_fract_y
 _atom_site_fract_z
 _atom_site_occupancy
  Y  Y0  1  0.172140  0.325148  0.500000  1
  Y  Y1  1  0.672140  0.174852  0.500000  1
  Th  Th2  1  0.327468  0.832903  0.500000  1
  Th  Th3  1  0.827468  0.667097  0.500000  1
  Cd  Cd4  1  0.997044  0.008061  0.000000  1
  Cd  Cd5  1  0.497044  0.491939  0.000000  1
  Pd  Pd6  1  0.373656  0.122359  0.000000  1
  Pd  Pd7  1  0.873656  0.377641  0.000000  1
  Pd  Pd8  1  0.129691  0.632590  0.000000  1
  Pd  Pd9  1  0.629691  0.867410  0.000000  1
