# generated using pymatgen
data_Ho2Al20ReRuRh2
_symmetry_space_group_name_H-M   'P 1'
_cell_length_a   6.88560891
_cell_length_b   6.87486711
_cell_length_c   9.17862920
_cell_angle_alpha   90.76120668
_cell_angle_beta   90.50822188
_cell_angle_gamma   96.85640600
_symmetry_Int_Tables_number   1
_chemical_formula_structural   Ho2Al20ReRuRh2
_chemical_formula_sum   'Ho2 Al20 Re1 Ru1 Rh2'
_cell_volume   431.32540054
_cell_formula_units_Z   1
loop_
 _symmetry_equiv_pos_site_id
 _symmetry_equiv_pos_as_xyz
  1  'x, y, z'
loop_
 _atom_site_type_symbol
 _atom_site_label
 _atom_site_symmetry_multiplicity
 _atom_site_fract_x
 _atom_site_fract_y
 _atom_site_fract_z
 _atom_site_occupancy
  Ho  Ho0  1  0.873131  0.131492  0.751365  1
  Ho  Ho1  1  0.126869  0.868508  0.248635  1
  Al  Al2  1  0.620573  0.376678  0.549604  1
  Al  Al3  1  0.379427  0.623322  0.450396  1
  Al  Al4  1  0.376649  0.620192  0.048930  1
  Al  Al5  1  0.623351  0.379808  0.951070  1
  Al  Al6  1  0.224531  0.223324  0.499743  1
  Al  Al7  1  0.775469  0.776676  0.500257  1
  Al  Al8  1  0.775958  0.776688  0.000503  1
  Al  Al9  1  0.224042  0.223312  0.999497  1
  Al  Al10  1  0.845309  0.156681  0.100516  1
  Al  Al11  1  0.154691  0.843319  0.899484  1
  Al  Al12  1  0.157881  0.845652  0.601356  1
  Al  Al13  1  0.842119  0.154348  0.398644  1
  Al  Al14  1  0.856585  0.588310  0.749474  1
  Al  Al15  1  0.143415  0.411690  0.250526  1
  Al  Al16  1  0.412349  0.142688  0.749593  1
  Al  Al17  1  0.587651  0.857312  0.250407  1
  Al  Al18  1  0.220824  0.479682  0.753760  1
  Al  Al19  1  0.779176  0.520318  0.246240  1
  Al  Al20  1  0.519867  0.778713  0.746172  1
  Al  Al21  1  0.480133  0.221287  0.253828  1
  Re  Re22  1  0.000000  0.500000  0.000000  1
  Ru  Ru23  1  0.500000  0.000000  0.500000  1
  Rh  Rh24  1  0.000000  0.500000  0.500000  1
  Rh  Rh25  1  0.500000  0.000000  0.000000  1
