# generated using pymatgen
data_La16MgCd3Tc3Pt
_symmetry_space_group_name_H-M   'P 1'
_cell_length_a   10.08069210
_cell_length_b   10.18925717
_cell_length_c   10.18925742
_cell_angle_alpha   60.08512978
_cell_angle_beta   59.37570476
_cell_angle_gamma   59.37569998
_symmetry_Int_Tables_number   1
_chemical_formula_structural   La16MgCd3Tc3Pt
_chemical_formula_sum   'La16 Mg1 Cd3 Tc3 Pt1'
_cell_volume   733.44980961
_cell_formula_units_Z   1
loop_
 _symmetry_equiv_pos_site_id
 _symmetry_equiv_pos_as_xyz
  1  'x, y, z'
loop_
 _atom_site_type_symbol
 _atom_site_label
 _atom_site_symmetry_multiplicity
 _atom_site_fract_x
 _atom_site_fract_y
 _atom_site_fract_z
 _atom_site_occupancy
  La  La0  1  0.592791  0.597984  0.597984  1
  La  La1  1  0.591673  0.596834  0.211982  1
  La  La2  1  0.591673  0.211982  0.596834  1
  La  La3  1  0.215859  0.593982  0.593982  1
  La  La4  1  0.069157  0.439375  0.439375  1
  La  La5  1  0.438866  0.063085  0.063085  1
  La  La6  1  0.440313  0.060580  0.437998  1
  La  La7  1  0.072765  0.438145  0.052420  1
  La  La8  1  0.440313  0.437998  0.060580  1
  La  La9  1  0.072765  0.052420  0.438145  1
  La  La10  1  0.189621  0.809179  0.809179  1
  La  La11  1  0.804973  0.192046  0.192046  1
  La  La12  1  0.808607  0.190775  0.812360  1
  La  La13  1  0.192241  0.806823  0.194445  1
  La  La14  1  0.808607  0.812360  0.190775  1
  La  La15  1  0.192241  0.194445  0.806823  1
  Mg  Mg16  1  0.825460  0.825477  0.825477  1
  Cd  Cd17  1  0.828995  0.829567  0.512537  1
  Cd  Cd18  1  0.828995  0.512537  0.829567  1
  Cd  Cd19  1  0.512919  0.828869  0.828869  1
  Tc  Tc20  1  0.385294  0.384666  0.384666  1
  Tc  Tc21  1  0.382590  0.384234  0.847201  1
  Tc  Tc22  1  0.382590  0.847201  0.384234  1
  Pt  Pt23  1  0.830696  0.389434  0.389434  1
