# generated using pymatgen
data_ZnCd(AsO2)4
_symmetry_space_group_name_H-M   'P 1'
_cell_length_a   5.37191200
_cell_length_b   4.70787988
_cell_length_c   18.89459017
_cell_angle_alpha   90.13193500
_cell_angle_beta   90.00000000
_cell_angle_gamma   90.00000000
_symmetry_Int_Tables_number   1
_chemical_formula_structural   ZnCd(AsO2)4
_chemical_formula_sum   'Zn2 Cd2 As8 O16'
_cell_volume   477.84889702
_cell_formula_units_Z   2
loop_
 _symmetry_equiv_pos_site_id
 _symmetry_equiv_pos_as_xyz
  1  'x, y, z'
loop_
 _atom_site_type_symbol
 _atom_site_label
 _atom_site_symmetry_multiplicity
 _atom_site_fract_x
 _atom_site_fract_y
 _atom_site_fract_z
 _atom_site_occupancy
  Zn  Zn0  1  0.010197  0.253578  0.747265  1
  Zn  Zn1  1  0.510197  0.746422  0.752735  1
  Cd  Cd2  1  0.995528  0.742712  0.252561  1
  Cd  Cd3  1  0.495528  0.257288  0.247439  1
  As  As4  1  0.286402  0.517277  0.411580  1
  As  As5  1  0.786402  0.482723  0.088420  1
  As  As6  1  0.715330  0.482622  0.603502  1
  As  As7  1  0.215330  0.517378  0.896498  1
  As  As8  1  0.700726  0.015850  0.408733  1
  As  As9  1  0.200726  0.984150  0.091267  1
  As  As10  1  0.298001  0.986925  0.605165  1
  As  As11  1  0.798001  0.013075  0.894835  1
  O  O12  1  0.234738  0.480369  0.318416  1
  O  O13  1  0.734738  0.519631  0.181584  1
  O  O14  1  0.756427  0.500701  0.697967  1
  O  O15  1  0.256427  0.499299  0.802033  1
  O  O16  1  0.732867  0.993461  0.314921  1
  O  O17  1  0.232867  0.006539  0.185079  1
  O  O18  1  0.269447  0.005884  0.699606  1
  O  O19  1  0.769447  0.994116  0.800394  1
  O  O20  1  0.374991  0.893712  0.416390  1
  O  O21  1  0.874991  0.106288  0.083610  1
  O  O22  1  0.622662  0.109395  0.594601  1
  O  O23  1  0.122662  0.890605  0.905399  1
  O  O24  1  0.890770  0.388151  0.899043  1
  O  O25  1  0.390770  0.611849  0.600957  1
  O  O26  1  0.111916  0.607387  0.087434  1
  O  O27  1  0.611916  0.392613  0.412566  1
