# generated using pymatgen
data_Tb5Dy4Ho11Bi12
_symmetry_space_group_name_H-M   'P 1'
_cell_length_a   8.26632967
_cell_length_b   9.50128709
_cell_length_c   12.06752805
_cell_angle_alpha   89.99286352
_cell_angle_beta   90.03132609
_cell_angle_gamma   90.00294660
_symmetry_Int_Tables_number   1
_chemical_formula_structural   Tb5Dy4Ho11Bi12
_chemical_formula_sum   'Tb5 Dy4 Ho11 Bi12'
_cell_volume   947.79281170
_cell_formula_units_Z   1
loop_
 _symmetry_equiv_pos_site_id
 _symmetry_equiv_pos_as_xyz
  1  'x, y, z'
loop_
 _atom_site_type_symbol
 _atom_site_label
 _atom_site_symmetry_multiplicity
 _atom_site_fract_x
 _atom_site_fract_y
 _atom_site_fract_z
 _atom_site_occupancy
  Tb  Tb0  1  0.192999  0.563667  0.441229  1
  Tb  Tb1  1  0.312593  0.250014  0.218817  1
  Tb  Tb2  1  0.812697  0.249981  0.281136  1
  Tb  Tb3  1  0.687381  0.750045  0.781284  1
  Tb  Tb4  1  0.187386  0.750192  0.718951  1
  Dy  Dy5  1  0.353128  0.750290  0.215718  1
  Dy  Dy6  1  0.852546  0.750307  0.283990  1
  Dy  Dy7  1  0.647355  0.249984  0.784225  1
  Dy  Dy8  1  0.147368  0.250190  0.715819  1
  Ho  Ho9  1  0.693127  0.564472  0.058789  1
  Ho  Ho10  1  0.192992  0.935584  0.441141  1
  Ho  Ho11  1  0.306797  0.064496  0.941255  1
  Ho  Ho12  1  0.807175  0.435439  0.558704  1
  Ho  Ho13  1  0.306885  0.435430  0.941230  1
  Ho  Ho14  1  0.806682  0.064461  0.558848  1
  Ho  Ho15  1  0.693244  0.935544  0.058739  1
  Ho  Ho16  1  0.475129  0.250044  0.487963  1
  Ho  Ho17  1  0.974958  0.250172  0.011858  1
  Ho  Ho18  1  0.525382  0.750090  0.512074  1
  Ho  Ho19  1  0.025093  0.749941  0.988074  1
  Bi  Bi20  1  0.407384  0.749968  0.957677  1
  Bi  Bi21  1  0.906994  0.750379  0.542449  1
  Bi  Bi22  1  0.592599  0.249994  0.042281  1
  Bi  Bi23  1  0.092182  0.248769  0.457961  1
  Bi  Bi24  1  0.565237  0.995119  0.325610  1
  Bi  Bi25  1  0.065086  0.505054  0.174099  1
  Bi  Bi26  1  0.434743  0.495029  0.674521  1
  Bi  Bi27  1  0.934686  0.005141  0.825721  1
  Bi  Bi28  1  0.434780  0.005125  0.674335  1
  Bi  Bi29  1  0.934608  0.495012  0.825770  1
  Bi  Bi30  1  0.565567  0.505015  0.325506  1
  Bi  Bi31  1  0.065219  0.995051  0.174226  1
