# generated using pymatgen
data_Tm2Be2Ni5
_symmetry_space_group_name_H-M   'P 1'
_cell_length_a   4.98585789
_cell_length_b   4.98585529
_cell_length_c   11.30159327
_cell_angle_alpha   77.25678893
_cell_angle_beta   77.25679443
_cell_angle_gamma   60.00001729
_symmetry_Int_Tables_number   1
_chemical_formula_structural   Tm2Be2Ni5
_chemical_formula_sum   'Tm4 Be4 Ni10'
_cell_volume   235.27985821
_cell_formula_units_Z   2
loop_
 _symmetry_equiv_pos_site_id
 _symmetry_equiv_pos_as_xyz
  1  'x, y, z'
loop_
 _atom_site_type_symbol
 _atom_site_label
 _atom_site_symmetry_multiplicity
 _atom_site_fract_x
 _atom_site_fract_y
 _atom_site_fract_z
 _atom_site_occupancy
  Tm  Tm0  1  0.949944  0.949944  0.150168  1
  Tm  Tm1  1  0.050056  0.050056  0.849832  1
  Tm  Tm2  1  0.851996  0.851996  0.444013  1
  Tm  Tm3  1  0.148004  0.148004  0.555987  1
  Be  Be4  1  0.719383  0.719383  0.841851  1
  Be  Be5  1  0.280617  0.280617  0.158149  1
  Be  Be6  1  0.614380  0.614380  0.156860  1
  Be  Be7  1  0.385620  0.385620  0.843140  1
  Ni  Ni8  1  0.500000  0.500000  0.500000  1
  Ni  Ni9  1  0.000000  0.500000  0.000000  1
  Ni  Ni10  1  0.500000  0.000000  0.000000  1
  Ni  Ni11  1  0.500000  0.500000  0.000000  1
  Ni  Ni12  1  0.396140  0.396140  0.312770  1
  Ni  Ni13  1  0.894948  0.396140  0.312770  1
  Ni  Ni14  1  0.396140  0.894948  0.312770  1
  Ni  Ni15  1  0.603860  0.603860  0.687230  1
  Ni  Ni16  1  0.105052  0.603860  0.687230  1
  Ni  Ni17  1  0.603860  0.105052  0.687230  1
