# generated using pymatgen
data_TbHo3Er16(CoSb2)4
_symmetry_space_group_name_H-M   'P 1'
_cell_length_a   7.81254116
_cell_length_b   8.71945000
_cell_length_c   12.08559425
_cell_angle_alpha   90.00000000
_cell_angle_beta   89.97649869
_cell_angle_gamma   90.00000000
_symmetry_Int_Tables_number   1
_chemical_formula_structural   TbHo3Er16(CoSb2)4
_chemical_formula_sum   'Tb1 Ho3 Er16 Co4 Sb8'
_cell_volume   823.28344690
_cell_formula_units_Z   1
loop_
 _symmetry_equiv_pos_site_id
 _symmetry_equiv_pos_as_xyz
  1  'x, y, z'
loop_
 _atom_site_type_symbol
 _atom_site_label
 _atom_site_symmetry_multiplicity
 _atom_site_fract_x
 _atom_site_fract_y
 _atom_site_fract_z
 _atom_site_occupancy
  Tb  Tb0  1  0.622879  0.750000  0.307225  1
  Ho  Ho1  1  0.122575  0.250000  0.192495  1
  Ho  Ho2  1  0.377481  0.250000  0.692505  1
  Ho  Ho3  1  0.877466  0.750000  0.807520  1
  Er  Er4  1  0.156796  0.750000  0.203825  1
  Er  Er5  1  0.656926  0.250000  0.296027  1
  Er  Er6  1  0.843058  0.250000  0.796041  1
  Er  Er7  1  0.343068  0.750000  0.703932  1
  Er  Er8  1  0.451383  0.750000  0.997967  1
  Er  Er9  1  0.951560  0.250000  0.501984  1
  Er  Er10  1  0.548476  0.250000  0.001946  1
  Er  Er11  1  0.048541  0.750000  0.498098  1
  Er  Er12  1  0.823311  0.963101  0.065483  1
  Er  Er13  1  0.322982  0.037149  0.434525  1
  Er  Er14  1  0.176790  0.463221  0.934482  1
  Er  Er15  1  0.676878  0.536715  0.565682  1
  Er  Er16  1  0.176790  0.036779  0.934482  1
  Er  Er17  1  0.676878  0.963285  0.565682  1
  Er  Er18  1  0.823311  0.536899  0.065483  1
  Er  Er19  1  0.322982  0.462851  0.434525  1
  Co  Co20  1  0.431402  0.750000  0.490900  1
  Co  Co21  1  0.931677  0.250000  0.009382  1
  Co  Co22  1  0.568323  0.250000  0.509392  1
  Co  Co23  1  0.068344  0.750000  0.990645  1
  Sb  Sb24  1  0.930917  0.991830  0.327420  1
  Sb  Sb25  1  0.430275  0.008723  0.172504  1
  Sb  Sb26  1  0.069443  0.491598  0.672591  1
  Sb  Sb27  1  0.569426  0.508424  0.827372  1
  Sb  Sb28  1  0.069443  0.008402  0.672591  1
  Sb  Sb29  1  0.569426  0.991576  0.827372  1
  Sb  Sb30  1  0.930917  0.508170  0.327420  1
  Sb  Sb31  1  0.430275  0.491277  0.172504  1
