# generated using pymatgen
data_Li3Nd4TiPt4
_symmetry_space_group_name_H-M   'P 1'
_cell_length_a   4.19665900
_cell_length_b   7.16367037
_cell_length_c   8.64393303
_cell_angle_alpha   87.68733821
_cell_angle_beta   90.00000000
_cell_angle_gamma   90.00000000
_symmetry_Int_Tables_number   1
_chemical_formula_structural   Li3Nd4TiPt4
_chemical_formula_sum   'Li3 Nd4 Ti1 Pt4'
_cell_volume   259.65506157
_cell_formula_units_Z   1
loop_
 _symmetry_equiv_pos_site_id
 _symmetry_equiv_pos_as_xyz
  1  'x, y, z'
loop_
 _atom_site_type_symbol
 _atom_site_label
 _atom_site_symmetry_multiplicity
 _atom_site_fract_x
 _atom_site_fract_y
 _atom_site_fract_z
 _atom_site_occupancy
  Li  Li0  1  0.750000  0.864506  0.934507  1
  Li  Li1  1  0.250000  0.627811  0.443748  1
  Li  Li2  1  0.750000  0.366365  0.561146  1
  Nd  Nd3  1  0.750000  0.473613  0.193394  1
  Nd  Nd4  1  0.250000  0.036606  0.678984  1
  Nd  Nd5  1  0.750000  0.960542  0.319648  1
  Nd  Nd6  1  0.250000  0.534406  0.812083  1
  Ti  Ti7  1  0.250000  0.127317  0.053658  1
  Pt  Pt8  1  0.750000  0.744910  0.618781  1
  Pt  Pt9  1  0.750000  0.243265  0.910557  1
  Pt  Pt10  1  0.250000  0.249237  0.363544  1
  Pt  Pt11  1  0.250000  0.771422  0.109950  1
