# generated using pymatgen
data_Tb8Tm12Si15Au
_symmetry_space_group_name_H-M   'P 1'
_cell_length_a   7.35875420
_cell_length_b   7.62826845
_cell_length_c   14.51136398
_cell_angle_alpha   89.84591765
_cell_angle_beta   89.63072235
_cell_angle_gamma   90.15054027
_symmetry_Int_Tables_number   1
_chemical_formula_structural   Tb8Tm12Si15Au
_chemical_formula_sum   'Tb8 Tm12 Si15 Au1'
_cell_volume   814.56621018
_cell_formula_units_Z   1
loop_
 _symmetry_equiv_pos_site_id
 _symmetry_equiv_pos_as_xyz
  1  'x, y, z'
loop_
 _atom_site_type_symbol
 _atom_site_label
 _atom_site_symmetry_multiplicity
 _atom_site_fract_x
 _atom_site_fract_y
 _atom_site_fract_z
 _atom_site_occupancy
  Tb  Tb0  1  0.016692  0.178818  0.098558  1
  Tb  Tb1  1  0.983244  0.822041  0.903180  1
  Tb  Tb2  1  0.483395  0.679124  0.903143  1
  Tb  Tb3  1  0.985111  0.826476  0.598568  1
  Tb  Tb4  1  0.515318  0.320682  0.097260  1
  Tb  Tb5  1  0.013320  0.175904  0.399068  1
  Tb  Tb6  1  0.513590  0.320812  0.399737  1
  Tb  Tb7  1  0.487889  0.679463  0.599532  1
  Tm  Tm8  1  0.163733  0.508925  0.749877  1
  Tm  Tm9  1  0.837604  0.491961  0.251137  1
  Tm  Tm10  1  0.337446  0.006391  0.249539  1
  Tm  Tm11  1  0.664274  0.989926  0.750442  1
  Tm  Tm12  1  0.335084  0.177119  0.623198  1
  Tm  Tm13  1  0.667433  0.822960  0.375642  1
  Tm  Tm14  1  0.170609  0.672537  0.375741  1
  Tm  Tm15  1  0.672061  0.823049  0.123528  1
  Tm  Tm16  1  0.829188  0.325665  0.622981  1
  Tm  Tm17  1  0.327698  0.177573  0.877542  1
  Tm  Tm18  1  0.828002  0.321024  0.877936  1
  Tm  Tm19  1  0.171059  0.677656  0.123312  1
  Si  Si20  1  0.036047  0.112534  0.751250  1
  Si  Si21  1  0.966189  0.889866  0.249676  1
  Si  Si22  1  0.466171  0.608805  0.248280  1
  Si  Si23  1  0.536444  0.391085  0.752131  1
  Si  Si24  1  0.280514  0.874876  0.751122  1
  Si  Si25  1  0.717526  0.128397  0.248539  1
  Si  Si26  1  0.219245  0.369562  0.247803  1
  Si  Si27  1  0.781945  0.627057  0.753240  1
  Si  Si28  1  0.835131  0.533166  0.459096  1
  Si  Si29  1  0.340128  0.966332  0.460172  1
  Si  Si30  1  0.844132  0.532972  0.038596  1
  Si  Si31  1  0.658395  0.033750  0.537708  1
  Si  Si32  1  0.154408  0.467075  0.962114  1
  Si  Si33  1  0.655354  0.031245  0.961069  1
  Si  Si34  1  0.344452  0.967398  0.039237  1
  Au  Au35  1  0.161168  0.467777  0.540045  1
