# generated using pymatgen
data_Ti20Si12C
_symmetry_space_group_name_H-M   'P 1'
_cell_length_a   5.14861588
_cell_length_b   7.46141507
_cell_length_c   12.90327000
_cell_angle_alpha   90.00000000
_cell_angle_beta   90.00000000
_cell_angle_gamma   90.02690192
_symmetry_Int_Tables_number   1
_chemical_formula_structural   Ti20Si12C
_chemical_formula_sum   'Ti20 Si12 C1'
_cell_volume   495.69145162
_cell_formula_units_Z   1
loop_
 _symmetry_equiv_pos_site_id
 _symmetry_equiv_pos_as_xyz
  1  'x, y, z'
loop_
 _atom_site_type_symbol
 _atom_site_label
 _atom_site_symmetry_multiplicity
 _atom_site_fract_x
 _atom_site_fract_y
 _atom_site_fract_z
 _atom_site_occupancy
  Ti  Ti0  1  0.500000  0.000000  0.332449  1
  Ti  Ti1  1  0.500000  0.500001  0.833705  1
  Ti  Ti2  1  0.500000  0.500001  0.166295  1
  Ti  Ti3  1  0.500000  0.000000  0.667551  1
  Ti  Ti4  1  0.999999  0.499998  0.167473  1
  Ti  Ti5  1  0.999999  0.000003  0.666034  1
  Ti  Ti6  1  0.999999  0.000003  0.333966  1
  Ti  Ti7  1  0.999999  0.499998  0.832527  1
  Ti  Ti8  1  0.741665  0.240040  0.000000  1
  Ti  Ti9  1  0.749277  0.750911  0.500000  1
  Ti  Ti10  1  0.750730  0.376716  0.375991  1
  Ti  Ti11  1  0.740293  0.879106  0.879861  1
  Ti  Ti12  1  0.740293  0.879106  0.120139  1
  Ti  Ti13  1  0.750730  0.376716  0.624009  1
  Ti  Ti14  1  0.258339  0.759960  0.000000  1
  Ti  Ti15  1  0.250720  0.249087  0.500000  1
  Ti  Ti16  1  0.259707  0.120894  0.120142  1
  Ti  Ti17  1  0.249274  0.623285  0.624008  1
  Ti  Ti18  1  0.249274  0.623285  0.375992  1
  Ti  Ti19  1  0.259707  0.120894  0.879858  1
  Si  Si20  1  0.751553  0.600142  0.000000  1
  Si  Si21  1  0.749773  0.108577  0.500000  1
  Si  Si22  1  0.753487  0.198496  0.198745  1
  Si  Si23  1  0.749039  0.697456  0.697057  1
  Si  Si24  1  0.749039  0.697456  0.302943  1
  Si  Si25  1  0.753487  0.198496  0.801255  1
  Si  Si26  1  0.248447  0.399856  0.000000  1
  Si  Si27  1  0.250223  0.891409  0.500000  1
  Si  Si28  1  0.250966  0.302553  0.302950  1
  Si  Si29  1  0.246511  0.801502  0.801252  1
  Si  Si30  1  0.246511  0.801502  0.198748  1
  Si  Si31  1  0.250966  0.302553  0.697050  1
  C  C32  1  0.499996  0.000001  0.000000  1
