# generated using pymatgen
data_LaY2(Si3Pd10)2
_symmetry_space_group_name_H-M   'P 1'
_cell_length_a   8.75540066
_cell_length_b   8.75540110
_cell_length_c   8.75540100
_cell_angle_alpha   59.99999661
_cell_angle_beta   59.99999492
_cell_angle_gamma   60.00000049
_symmetry_Int_Tables_number   1
_chemical_formula_structural   LaY2(Si3Pd10)2
_chemical_formula_sum   'La1 Y2 Si6 Pd20'
_cell_volume   474.58399633
_cell_formula_units_Z   1
loop_
 _symmetry_equiv_pos_site_id
 _symmetry_equiv_pos_as_xyz
  1  'x, y, z'
loop_
 _atom_site_type_symbol
 _atom_site_label
 _atom_site_symmetry_multiplicity
 _atom_site_fract_x
 _atom_site_fract_y
 _atom_site_fract_z
 _atom_site_occupancy
  La  La0  1  0.250000  0.250000  0.250000  1
  Y  Y1  1  0.750000  0.750000  0.750000  1
  Y  Y2  1  0.000000  0.000000  0.000000  1
  Si  Si3  1  0.733297  0.733297  0.266703  1
  Si  Si4  1  0.266703  0.266703  0.733297  1
  Si  Si5  1  0.733297  0.266703  0.733297  1
  Si  Si6  1  0.266703  0.733297  0.266703  1
  Si  Si7  1  0.266703  0.733297  0.733297  1
  Si  Si8  1  0.733297  0.266703  0.266703  1
  Pd  Pd9  1  0.615845  0.615845  0.615845  1
  Pd  Pd10  1  0.385506  0.385506  0.385506  1
  Pd  Pd11  1  0.152465  0.615845  0.615845  1
  Pd  Pd12  1  0.615845  0.152465  0.615845  1
  Pd  Pd13  1  0.843482  0.385506  0.385506  1
  Pd  Pd14  1  0.385506  0.843482  0.385506  1
  Pd  Pd15  1  0.615845  0.615845  0.152465  1
  Pd  Pd16  1  0.385506  0.385506  0.843482  1
  Pd  Pd17  1  0.999192  0.999192  0.655195  1
  Pd  Pd18  1  0.999192  0.999192  0.346422  1
  Pd  Pd19  1  0.346422  0.655195  0.999192  1
  Pd  Pd20  1  0.655195  0.346422  0.999192  1
  Pd  Pd21  1  0.999192  0.655195  0.999192  1
  Pd  Pd22  1  0.655195  0.999192  0.346422  1
  Pd  Pd23  1  0.999192  0.346422  0.999192  1
  Pd  Pd24  1  0.346422  0.999192  0.655195  1
  Pd  Pd25  1  0.655195  0.999192  0.999192  1
  Pd  Pd26  1  0.346422  0.999192  0.999192  1
  Pd  Pd27  1  0.999192  0.655195  0.346422  1
  Pd  Pd28  1  0.999192  0.346422  0.655195  1
