# generated using pymatgen
data_Mg5UCo16Si7
_symmetry_space_group_name_H-M   'P 1'
_cell_length_a   7.99907754
_cell_length_b   7.99358357
_cell_length_c   7.99358090
_cell_angle_alpha   60.04547436
_cell_angle_beta   59.97724629
_cell_angle_gamma   59.97726155
_symmetry_Int_Tables_number   1
_chemical_formula_structural   Mg5UCo16Si7
_chemical_formula_sum   'Mg5 U1 Co16 Si7'
_cell_volume   361.41596605
_cell_formula_units_Z   1
loop_
 _symmetry_equiv_pos_site_id
 _symmetry_equiv_pos_as_xyz
  1  'x, y, z'
loop_
 _atom_site_type_symbol
 _atom_site_label
 _atom_site_symmetry_multiplicity
 _atom_site_fract_x
 _atom_site_fract_y
 _atom_site_fract_z
 _atom_site_occupancy
  Mg  Mg0  1  0.291219  0.297306  0.708781  1
  Mg  Mg1  1  0.297875  0.702125  0.702125  1
  Mg  Mg2  1  0.702694  0.708781  0.297306  1
  Mg  Mg3  1  0.291219  0.708781  0.297306  1
  Mg  Mg4  1  0.702694  0.297306  0.708781  1
  U  U5  1  0.718081  0.281919  0.281919  1
  Co  Co6  1  0.116544  0.122949  0.643965  1
  Co  Co7  1  0.673438  0.996372  0.656752  1
  Co  Co8  1  0.356035  0.883456  0.883456  1
  Co  Co9  1  0.003628  0.326562  0.326562  1
  Co  Co10  1  0.975433  0.673767  0.673767  1
  Co  Co11  1  0.326233  0.322969  0.024567  1
  Co  Co12  1  0.673438  0.656752  0.996372  1
  Co  Co13  1  0.644293  0.117812  0.117812  1
  Co  Co14  1  0.677031  0.673767  0.673767  1
  Co  Co15  1  0.882188  0.879916  0.355707  1
  Co  Co16  1  0.120084  0.117812  0.117812  1
  Co  Co17  1  0.882188  0.355707  0.879916  1
  Co  Co18  1  0.877051  0.883456  0.883456  1
  Co  Co19  1  0.343248  0.326562  0.326562  1
  Co  Co20  1  0.116544  0.643965  0.122949  1
  Co  Co21  1  0.326233  0.024567  0.322969  1
  Si  Si22  1  0.010097  0.513586  0.989903  1
  Si  Si23  1  0.010097  0.989903  0.513586  1
  Si  Si24  1  0.000860  0.999140  0.999140  1
  Si  Si25  1  0.486414  0.513586  0.989903  1
  Si  Si26  1  0.486414  0.989903  0.513586  1
  Si  Si27  1  0.504365  0.995635  0.995635  1
  Si  Si28  1  0.004365  0.495635  0.495635  1
