# generated using pymatgen
data_Ho4MnTc3B16
_symmetry_space_group_name_H-M   'P 1'
_cell_length_a   3.54839600
_cell_length_b   5.94221243
_cell_length_c   11.49300375
_cell_angle_alpha   90.07931444
_cell_angle_beta   90.00000000
_cell_angle_gamma   90.00000000
_symmetry_Int_Tables_number   1
_chemical_formula_structural   Ho4MnTc3B16
_chemical_formula_sum   'Ho4 Mn1 Tc3 B16'
_cell_volume   242.33346182
_cell_formula_units_Z   1
loop_
 _symmetry_equiv_pos_site_id
 _symmetry_equiv_pos_as_xyz
  1  'x, y, z'
loop_
 _atom_site_type_symbol
 _atom_site_label
 _atom_site_symmetry_multiplicity
 _atom_site_fract_x
 _atom_site_fract_y
 _atom_site_fract_z
 _atom_site_occupancy
  Ho  Ho0  1  0.500000  0.627312  0.147951  1
  Ho  Ho1  1  0.500000  0.374196  0.851672  1
  Ho  Ho2  1  0.500000  0.127517  0.348495  1
  Ho  Ho3  1  0.500000  0.872547  0.653028  1
  Mn  Mn4  1  0.500000  0.867629  0.913927  1
  Tc  Tc5  1  0.500000  0.632920  0.412854  1
  Tc  Tc6  1  0.500000  0.367005  0.588055  1
  Tc  Tc7  1  0.500000  0.130244  0.084376  1
  B  B8  1  0.000000  0.975814  0.191328  1
  B  B9  1  0.000000  0.021155  0.809030  1
  B  B10  1  0.000000  0.476349  0.306842  1
  B  B11  1  0.000000  0.525022  0.694007  1
  B  B12  1  0.000000  0.786808  0.313925  1
  B  B13  1  0.000000  0.212305  0.686614  1
  B  B14  1  0.000000  0.286528  0.184028  1
  B  B15  1  0.000000  0.716705  0.817500  1
  B  B16  1  0.000000  0.864934  0.468833  1
  B  B17  1  0.000000  0.135042  0.531864  1
  B  B18  1  0.000000  0.364581  0.030452  1
  B  B19  1  0.000000  0.638047  0.967161  1
  B  B20  1  0.000000  0.885530  0.045415  1
  B  B21  1  0.000000  0.111471  0.951734  1
  B  B22  1  0.000000  0.386301  0.452840  1
  B  B23  1  0.000000  0.614037  0.548072  1
