# generated using pymatgen
data_EuFe2(P6Rh)2
_symmetry_space_group_name_H-M   'P 1'
_cell_length_a   6.90894929
_cell_length_b   6.90703049
_cell_length_c   6.93425886
_cell_angle_alpha   109.45790282
_cell_angle_beta   109.40550758
_cell_angle_gamma   109.39329709
_symmetry_Int_Tables_number   1
_chemical_formula_structural   EuFe2(P6Rh)2
_chemical_formula_sum   'Eu1 Fe2 P12 Rh2'
_cell_volume   255.22300507
_cell_formula_units_Z   1
loop_
 _symmetry_equiv_pos_site_id
 _symmetry_equiv_pos_as_xyz
  1  'x, y, z'
loop_
 _atom_site_type_symbol
 _atom_site_label
 _atom_site_symmetry_multiplicity
 _atom_site_fract_x
 _atom_site_fract_y
 _atom_site_fract_z
 _atom_site_occupancy
  Eu  Eu0  1  0.000000  0.000000  0.000000  1
  Fe  Fe1  1  0.000000  0.000000  0.500000  1
  Fe  Fe2  1  0.500000  0.500000  0.500000  1
  P  P3  1  0.500222  0.844272  0.635546  1
  P  P4  1  0.208697  0.864691  0.364627  1
  P  P5  1  0.791303  0.135309  0.635373  1
  P  P6  1  0.150146  0.348435  0.498371  1
  P  P7  1  0.363977  0.499696  0.155540  1
  P  P8  1  0.499778  0.155728  0.364454  1
  P  P9  1  0.140334  0.639667  0.779913  1
  P  P10  1  0.343886  0.208478  0.844441  1
  P  P11  1  0.849854  0.651565  0.501629  1
  P  P12  1  0.656114  0.791522  0.155559  1
  P  P13  1  0.859666  0.360333  0.220087  1
  P  P14  1  0.636023  0.500304  0.844460  1
  Rh  Rh15  1  0.500000  0.000000  0.000000  1
  Rh  Rh16  1  0.000000  0.500000  0.000000  1
