# generated using pymatgen
data_Hf4Zr2Co15Si7Ni
_symmetry_space_group_name_H-M   'P 1'
_cell_length_a   8.03764223
_cell_length_b   8.03708800
_cell_length_c   8.03946331
_cell_angle_alpha   59.97390759
_cell_angle_beta   60.01273293
_cell_angle_gamma   60.00544252
_symmetry_Int_Tables_number   1
_chemical_formula_structural   Hf4Zr2Co15Si7Ni
_chemical_formula_sum   'Hf4 Zr2 Co15 Si7 Ni1'
_cell_volume   367.20903262
_cell_formula_units_Z   1
loop_
 _symmetry_equiv_pos_site_id
 _symmetry_equiv_pos_as_xyz
  1  'x, y, z'
loop_
 _atom_site_type_symbol
 _atom_site_label
 _atom_site_symmetry_multiplicity
 _atom_site_fract_x
 _atom_site_fract_y
 _atom_site_fract_z
 _atom_site_occupancy
  Hf  Hf0  1  0.206438  0.794122  0.794361  1
  Hf  Hf1  1  0.209772  0.202692  0.794013  1
  Hf  Hf2  1  0.793678  0.203677  0.210091  1
  Hf  Hf3  1  0.205466  0.795103  0.204818  1
  Zr  Zr4  1  0.794903  0.202548  0.794355  1
  Zr  Zr5  1  0.796055  0.795270  0.204639  1
  Co  Co6  1  0.169248  0.171458  0.169422  1
  Co  Co7  1  0.619017  0.618423  0.141195  1
  Co  Co8  1  0.379555  0.380364  0.379923  1
  Co  Co9  1  0.171998  0.486608  0.170660  1
  Co  Co10  1  0.170575  0.171235  0.488776  1
  Co  Co11  1  0.141253  0.618780  0.619789  1
  Co  Co12  1  0.618834  0.140589  0.619310  1
  Co  Co13  1  0.830552  0.830451  0.829153  1
  Co  Co14  1  0.860486  0.379453  0.378993  1
  Co  Co15  1  0.378346  0.380593  0.860337  1
  Co  Co16  1  0.377950  0.862032  0.379815  1
  Co  Co17  1  0.507768  0.831566  0.830295  1
  Co  Co18  1  0.618662  0.619573  0.620704  1
  Co  Co19  1  0.830387  0.831818  0.508708  1
  Co  Co20  1  0.487924  0.172452  0.170486  1
  Si  Si21  1  0.999882  0.501138  0.998825  1
  Si  Si22  1  0.500087  0.500151  0.499885  1
  Si  Si23  1  0.499683  0.502181  0.999631  1
  Si  Si24  1  0.499845  0.999421  0.500616  1
  Si  Si25  1  0.000287  0.501650  0.500002  1
  Si  Si26  1  0.001478  0.998547  0.499538  1
  Si  Si27  1  0.499196  0.998966  0.000868  1
  Ni  Ni28  1  0.830677  0.509141  0.830797  1
