# generated using pymatgen
data_EuAl4O7
_symmetry_space_group_name_H-M   'P 1'
_cell_length_a   8.00718441
_cell_length_b   8.00718427
_cell_length_c   5.58671203
_cell_angle_alpha   76.76939345
_cell_angle_beta   76.76939303
_cell_angle_gamma   69.22820208
_symmetry_Int_Tables_number   1
_chemical_formula_structural   EuAl4O7
_chemical_formula_sum   'Eu2 Al8 O14'
_cell_volume   321.69873950
_cell_formula_units_Z   2
loop_
 _symmetry_equiv_pos_site_id
 _symmetry_equiv_pos_as_xyz
  1  'x, y, z'
loop_
 _atom_site_type_symbol
 _atom_site_label
 _atom_site_symmetry_multiplicity
 _atom_site_fract_x
 _atom_site_fract_y
 _atom_site_fract_z
 _atom_site_occupancy
  Eu  Eu0  1  0.811606  0.188394  0.250000  1
  Eu  Eu1  1  0.188394  0.811606  0.750000  1
  Al  Al2  1  0.560938  0.681033  0.236478  1
  Al  Al3  1  0.318967  0.439062  0.263522  1
  Al  Al4  1  0.439062  0.318967  0.763522  1
  Al  Al5  1  0.681033  0.560938  0.736478  1
  Al  Al6  1  0.255210  0.081828  0.204214  1
  Al  Al7  1  0.918172  0.744790  0.295786  1
  Al  Al8  1  0.744790  0.918172  0.795786  1
  Al  Al9  1  0.081828  0.255210  0.704214  1
  O  O10  1  0.636363  0.744657  0.904743  1
  O  O11  1  0.255343  0.363637  0.595257  1
  O  O12  1  0.363637  0.255343  0.095257  1
  O  O13  1  0.744657  0.636363  0.404743  1
  O  O14  1  0.382285  0.866005  0.331340  1
  O  O15  1  0.133995  0.617715  0.168660  1
  O  O16  1  0.617715  0.133995  0.668660  1
  O  O17  1  0.866005  0.382285  0.831340  1
  O  O18  1  0.157851  0.079255  0.952000  1
  O  O19  1  0.920745  0.842149  0.548000  1
  O  O20  1  0.473780  0.526220  0.750000  1
  O  O21  1  0.526220  0.473780  0.250000  1
  O  O22  1  0.079255  0.157851  0.452000  1
  O  O23  1  0.842149  0.920745  0.048000  1
