# generated using pymatgen
data_YbDyU6F30
_symmetry_space_group_name_H-M   'P 1'
_cell_length_a   8.64628304
_cell_length_b   8.64628244
_cell_length_c   8.66036189
_cell_angle_alpha   79.35645775
_cell_angle_beta   79.35645955
_cell_angle_gamma   100.07590337
_symmetry_Int_Tables_number   1
_chemical_formula_structural   YbDyU6F30
_chemical_formula_sum   'Yb1 Dy1 U6 F30'
_cell_volume   610.52227864
_cell_formula_units_Z   1
loop_
 _symmetry_equiv_pos_site_id
 _symmetry_equiv_pos_as_xyz
  1  'x, y, z'
loop_
 _atom_site_type_symbol
 _atom_site_label
 _atom_site_symmetry_multiplicity
 _atom_site_fract_x
 _atom_site_fract_y
 _atom_site_fract_z
 _atom_site_occupancy
  Yb  Yb0  1  0.822587  0.177413  0.750000  1
  Dy  Dy1  1  0.177101  0.822899  0.250000  1
  U  U2  1  0.749094  0.250906  0.250000  1
  U  U3  1  0.250557  0.749443  0.750000  1
  U  U4  1  0.755655  0.677980  0.674439  1
  U  U5  1  0.322020  0.244345  0.825561  1
  U  U6  1  0.243091  0.320831  0.327627  1
  U  U7  1  0.679169  0.756909  0.172373  1
  F  F8  1  0.468189  0.531811  0.250000  1
  F  F9  1  0.748305  0.960438  0.968044  1
  F  F10  1  0.039562  0.251695  0.531956  1
  F  F11  1  0.249958  0.033089  0.036703  1
  F  F12  1  0.966911  0.750042  0.463297  1
  F  F13  1  0.528085  0.471915  0.750000  1
  F  F14  1  0.774972  0.275365  0.999981  1
  F  F15  1  0.009145  0.277359  0.216004  1
  F  F16  1  0.781847  0.509944  0.221036  1
  F  F17  1  0.507518  0.781811  0.722573  1
  F  F18  1  0.277415  0.008266  0.716107  1
  F  F19  1  0.275174  0.775230  0.494589  1
  F  F20  1  0.224770  0.724826  0.005411  1
  F  F21  1  0.991734  0.722585  0.783893  1
  F  F22  1  0.218189  0.492482  0.777427  1
  F  F23  1  0.490056  0.218153  0.278964  1
  F  F24  1  0.722641  0.990855  0.283996  1
  F  F25  1  0.724635  0.225028  0.500019  1
  F  F26  1  0.316739  0.346706  0.056278  1
  F  F27  1  0.945359  0.813397  0.156462  1
  F  F28  1  0.837415  0.454092  0.687284  1
  F  F29  1  0.447113  0.840960  0.188210  1
  F  F30  1  0.811334  0.935195  0.656019  1
  F  F31  1  0.351132  0.317120  0.554488  1
  F  F32  1  0.682880  0.648868  0.945512  1
  F  F33  1  0.064805  0.188666  0.843981  1
  F  F34  1  0.159040  0.552887  0.311790  1
  F  F35  1  0.545908  0.162585  0.812716  1
  F  F36  1  0.186603  0.054641  0.343538  1
  F  F37  1  0.653294  0.683261  0.443722  1
