# generated using pymatgen
data_GdYCr2O8
_symmetry_space_group_name_H-M   'P 1'
_cell_length_a   6.03615503
_cell_length_b   6.03724571
_cell_length_c   10.21877601
_cell_angle_alpha   89.99820080
_cell_angle_beta   90.00020958
_cell_angle_gamma   116.66482048
_symmetry_Int_Tables_number   1
_chemical_formula_structural   GdYCr2O8
_chemical_formula_sum   'Gd2 Y2 Cr4 O16'
_cell_volume   332.78532590
_cell_formula_units_Z   2
loop_
 _symmetry_equiv_pos_site_id
 _symmetry_equiv_pos_as_xyz
  1  'x, y, z'
loop_
 _atom_site_type_symbol
 _atom_site_label
 _atom_site_symmetry_multiplicity
 _atom_site_fract_x
 _atom_site_fract_y
 _atom_site_fract_z
 _atom_site_occupancy
  Gd  Gd0  1  0.500049  0.250030  0.624493  1
  Gd  Gd1  1  0.999978  0.250004  0.875597  1
  Y  Y2  1  0.999988  0.749980  0.125483  1
  Y  Y3  1  0.499996  0.749991  0.374442  1
  Cr  Cr4  1  0.499986  0.749981  0.876958  1
  Cr  Cr5  1  0.000011  0.750068  0.623802  1
  Cr  Cr6  1  0.000011  0.249981  0.372863  1
  Cr  Cr7  1  0.499982  0.249984  0.126302  1
  O  O8  1  0.589450  0.512447  0.221506  1
  O  O9  1  0.080361  0.017226  0.713154  1
  O  O10  1  0.089897  0.513357  0.278366  1
  O  O11  1  0.584946  0.011218  0.781919  1
  O  O12  1  0.262286  0.336705  0.467496  1
  O  O13  1  0.762299  0.837946  0.971938  1
  O  O14  1  0.761256  0.340493  0.030352  1
  O  O15  1  0.268328  0.829283  0.535307  1
  O  O16  1  0.410530  0.987516  0.221511  1
  O  O17  1  0.919668  0.482873  0.713141  1
  O  O18  1  0.910122  0.986621  0.278366  1
  O  O19  1  0.415063  0.488774  0.781921  1
  O  O20  1  0.737731  0.163261  0.467491  1
  O  O21  1  0.237666  0.662009  0.971940  1
  O  O22  1  0.238710  0.159468  0.030353  1
  O  O23  1  0.731686  0.670784  0.535300  1
