# generated using pymatgen
data_Ca4NbOs3O16
_symmetry_space_group_name_H-M   'P 1'
_cell_length_a   5.06353912
_cell_length_b   5.26556526
_cell_length_c   12.68416400
_cell_angle_alpha   90.00000000
_cell_angle_beta   90.00000000
_cell_angle_gamma   90.03061156
_symmetry_Int_Tables_number   1
_chemical_formula_structural   Ca4NbOs3O16
_chemical_formula_sum   'Ca4 Nb1 Os3 O16'
_cell_volume   338.19015141
_cell_formula_units_Z   1
loop_
 _symmetry_equiv_pos_site_id
 _symmetry_equiv_pos_as_xyz
  1  'x, y, z'
loop_
 _atom_site_type_symbol
 _atom_site_label
 _atom_site_symmetry_multiplicity
 _atom_site_fract_x
 _atom_site_fract_y
 _atom_site_fract_z
 _atom_site_occupancy
  Ca  Ca0  1  0.750000  0.000000  0.658959  1
  Ca  Ca1  1  0.250000  0.500000  0.839291  1
  Ca  Ca2  1  0.250000  0.000000  0.344377  1
  Ca  Ca3  1  0.750000  0.500000  0.161744  1
  Nb  Nb4  1  0.750000  0.500000  0.414057  1
  Os  Os5  1  0.250000  0.000000  0.076564  1
  Os  Os6  1  0.250000  0.500000  0.578990  1
  Os  Os7  1  0.750000  0.000000  0.921035  1
  O  O8  1  0.102642  0.296245  0.681859  1
  O  O9  1  0.608418  0.210452  0.819016  1
  O  O10  1  0.891582  0.789548  0.819016  1
  O  O11  1  0.397358  0.703755  0.681859  1
  O  O12  1  0.897227  0.718354  0.315293  1
  O  O13  1  0.388225  0.786482  0.176371  1
  O  O14  1  0.111775  0.213518  0.176371  1
  O  O15  1  0.602773  0.281646  0.315293  1
  O  O16  1  0.533632  0.290324  0.549476  1
  O  O17  1  0.048310  0.200514  0.957334  1
  O  O18  1  0.451690  0.799486  0.957334  1
  O  O19  1  0.966368  0.709676  0.549476  1
  O  O20  1  0.443911  0.709511  0.463164  1
  O  O21  1  0.951604  0.800198  0.039977  1
  O  O22  1  0.548396  0.199802  0.039977  1
  O  O23  1  0.056089  0.290489  0.463164  1
