# generated using pymatgen
data_Pr6Sn7Hg3
_symmetry_space_group_name_H-M   'P 1'
_cell_length_a   6.64107337
_cell_length_b   6.64107293
_cell_length_c   10.48935568
_cell_angle_alpha   90.59191588
_cell_angle_beta   90.59191859
_cell_angle_gamma   102.89515119
_symmetry_Int_Tables_number   1
_chemical_formula_structural   Pr6Sn7Hg3
_chemical_formula_sum   'Pr6 Sn7 Hg3'
_cell_volume   450.89177626
_cell_formula_units_Z   1
loop_
 _symmetry_equiv_pos_site_id
 _symmetry_equiv_pos_as_xyz
  1  'x, y, z'
loop_
 _atom_site_type_symbol
 _atom_site_label
 _atom_site_symmetry_multiplicity
 _atom_site_fract_x
 _atom_site_fract_y
 _atom_site_fract_z
 _atom_site_occupancy
  Pr  Pr0  1  0.628996  0.628996  0.251421  1
  Pr  Pr1  1  0.371033  0.371033  0.745628  1
  Pr  Pr2  1  0.204229  0.798446  0.499285  1
  Pr  Pr3  1  0.205112  0.792926  0.001153  1
  Pr  Pr4  1  0.798446  0.204229  0.499285  1
  Pr  Pr5  1  0.792926  0.205112  0.001153  1
  Sn  Sn6  1  0.019845  0.019845  0.245669  1
  Sn  Sn7  1  0.980586  0.980586  0.752957  1
  Sn  Sn8  1  0.687698  0.687698  0.548029  1
  Sn  Sn9  1  0.492690  0.074402  0.248081  1
  Sn  Sn10  1  0.929550  0.508050  0.752686  1
  Sn  Sn11  1  0.508050  0.929550  0.752686  1
  Sn  Sn12  1  0.074402  0.492690  0.248081  1
  Hg  Hg13  1  0.312636  0.312636  0.038357  1
  Hg  Hg14  1  0.688488  0.688488  0.960243  1
  Hg  Hg15  1  0.305313  0.305313  0.455286  1
