# generated using pymatgen
data_Nd20Ga5Si7
_symmetry_space_group_name_H-M   'P 1'
_cell_length_a   7.83123586
_cell_length_b   7.83123629
_cell_length_c   14.36899338
_cell_angle_alpha   89.97487258
_cell_angle_beta   90.02512698
_cell_angle_gamma   90.00783451
_symmetry_Int_Tables_number   1
_chemical_formula_structural   Nd20Ga5Si7
_chemical_formula_sum   'Nd20 Ga5 Si7'
_cell_volume   881.22516190
_cell_formula_units_Z   1
loop_
 _symmetry_equiv_pos_site_id
 _symmetry_equiv_pos_as_xyz
  1  'x, y, z'
loop_
 _atom_site_type_symbol
 _atom_site_label
 _atom_site_symmetry_multiplicity
 _atom_site_fract_x
 _atom_site_fract_y
 _atom_site_fract_z
 _atom_site_occupancy
  Nd  Nd0  1  0.815331  0.833704  0.608346  1
  Nd  Nd1  1  0.186065  0.834546  0.106585  1
  Nd  Nd2  1  0.164763  0.812242  0.392563  1
  Nd  Nd3  1  0.001373  0.499143  0.725149  1
  Nd  Nd4  1  0.834546  0.186065  0.393415  1
  Nd  Nd5  1  0.684348  0.663839  0.392881  1
  Nd  Nd6  1  0.664673  0.314550  0.608051  1
  Nd  Nd7  1  0.334287  0.685036  0.607927  1
  Nd  Nd8  1  0.998478  0.503716  0.222875  1
  Nd  Nd9  1  0.663839  0.684348  0.107119  1
  Nd  Nd10  1  0.685036  0.334287  0.892073  1
  Nd  Nd11  1  0.833704  0.815331  0.891654  1
  Nd  Nd12  1  0.317739  0.339310  0.394609  1
  Nd  Nd13  1  0.184322  0.165147  0.607753  1
  Nd  Nd14  1  0.812242  0.164763  0.107437  1
  Nd  Nd15  1  0.314550  0.664673  0.891949  1
  Nd  Nd16  1  0.339310  0.317739  0.105391  1
  Nd  Nd17  1  0.503716  0.998478  0.277125  1
  Nd  Nd18  1  0.165147  0.184322  0.892247  1
  Nd  Nd19  1  0.499143  0.001373  0.774851  1
  Ga  Ga20  1  0.998367  0.499580  0.504692  1
  Ga  Ga21  1  0.499258  0.999091  0.497010  1
  Ga  Ga22  1  0.499580  0.998367  0.995308  1
  Ga  Ga23  1  0.119745  0.119745  0.250000  1
  Ga  Ga24  1  0.999091  0.499258  0.002990  1
  Si  Si25  1  0.615962  0.384212  0.250421  1
  Si  Si26  1  0.115408  0.884103  0.749962  1
  Si  Si27  1  0.384103  0.384103  0.750000  1
  Si  Si28  1  0.384212  0.615962  0.249579  1
  Si  Si29  1  0.881900  0.881900  0.250000  1
  Si  Si30  1  0.615657  0.615657  0.750000  1
  Si  Si31  1  0.884103  0.115408  0.750038  1
