# generated using pymatgen
data_DyAg3(TeO4)4
_symmetry_space_group_name_H-M   'P 1'
_cell_length_a   5.05432586
_cell_length_b   5.13181729
_cell_length_c   12.87298400
_cell_angle_alpha   90.00000000
_cell_angle_beta   90.00000000
_cell_angle_gamma   89.37573259
_symmetry_Int_Tables_number   1
_chemical_formula_structural   DyAg3(TeO4)4
_chemical_formula_sum   'Dy1 Ag3 Te4 O16'
_cell_volume   333.87805443
_cell_formula_units_Z   1
loop_
 _symmetry_equiv_pos_site_id
 _symmetry_equiv_pos_as_xyz
  1  'x, y, z'
loop_
 _atom_site_type_symbol
 _atom_site_label
 _atom_site_symmetry_multiplicity
 _atom_site_fract_x
 _atom_site_fract_y
 _atom_site_fract_z
 _atom_site_occupancy
  Dy  Dy0  1  0.750000  0.000000  0.674028  1
  Ag  Ag1  1  0.250000  0.500000  0.833546  1
  Ag  Ag2  1  0.250000  0.000000  0.327908  1
  Ag  Ag3  1  0.750000  0.500000  0.167382  1
  Te  Te4  1  0.750000  0.500000  0.423210  1
  Te  Te5  1  0.250000  0.000000  0.074193  1
  Te  Te6  1  0.250000  0.500000  0.570752  1
  Te  Te7  1  0.750000  0.000000  0.930802  1
  O  O8  1  0.108072  0.269761  0.669554  1
  O  O9  1  0.607973  0.210610  0.821265  1
  O  O10  1  0.892027  0.789390  0.821265  1
  O  O11  1  0.391928  0.730239  0.669554  1
  O  O12  1  0.899138  0.722134  0.323572  1
  O  O13  1  0.403427  0.782254  0.178917  1
  O  O14  1  0.096573  0.217746  0.178917  1
  O  O15  1  0.600862  0.277866  0.323572  1
  O  O16  1  0.575500  0.288204  0.547493  1
  O  O17  1  0.066256  0.210222  0.958569  1
  O  O18  1  0.433744  0.789778  0.958569  1
  O  O19  1  0.924500  0.711796  0.547493  1
  O  O20  1  0.428617  0.709864  0.456854  1
  O  O21  1  0.934262  0.784243  0.042865  1
  O  O22  1  0.565738  0.215757  0.042865  1
  O  O23  1  0.071383  0.290136  0.456854  1
