# generated using pymatgen
data_Tb2Er5Lu13Sn16
_symmetry_space_group_name_H-M   'P 1'
_cell_length_a   7.94064858
_cell_length_b   8.06806247
_cell_length_c   15.24080100
_cell_angle_alpha   90.01558081
_cell_angle_beta   90.22565103
_cell_angle_gamma   89.90459387
_symmetry_Int_Tables_number   1
_chemical_formula_structural   Tb2Er5Lu13Sn16
_chemical_formula_sum   'Tb2 Er5 Lu13 Sn16'
_cell_volume   976.40284402
_cell_formula_units_Z   1
loop_
 _symmetry_equiv_pos_site_id
 _symmetry_equiv_pos_as_xyz
  1  'x, y, z'
loop_
 _atom_site_type_symbol
 _atom_site_label
 _atom_site_symmetry_multiplicity
 _atom_site_fract_x
 _atom_site_fract_y
 _atom_site_fract_z
 _atom_site_occupancy
  Tb  Tb0  1  0.019387  0.179148  0.596258  1
  Tb  Tb1  1  0.480916  0.678907  0.404507  1
  Er  Er2  1  0.979253  0.821148  0.095777  1
  Er  Er3  1  0.479002  0.678202  0.096060  1
  Er  Er4  1  0.980477  0.821455  0.404211  1
  Er  Er5  1  0.518779  0.321753  0.595556  1
  Er  Er6  1  0.020698  0.179141  0.903697  1
  Lu  Lu7  1  0.365163  0.838299  0.876408  1
  Lu  Lu8  1  0.863534  0.662171  0.624004  1
  Lu  Lu9  1  0.635762  0.162280  0.376035  1
  Lu  Lu10  1  0.133926  0.338286  0.123172  1
  Lu  Lu11  1  0.634066  0.161873  0.123135  1
  Lu  Lu12  1  0.135985  0.338083  0.376200  1
  Lu  Lu13  1  0.364281  0.838475  0.624491  1
  Lu  Lu14  1  0.866158  0.661301  0.876631  1
  Lu  Lu15  1  0.522855  0.321361  0.903295  1
  Lu  Lu16  1  0.195851  0.504776  0.750490  1
  Lu  Lu17  1  0.695286  0.995239  0.750563  1
  Lu  Lu18  1  0.804358  0.494788  0.249670  1
  Lu  Lu19  1  0.304339  0.005017  0.249734  1
  Sn  Sn20  1  0.294944  0.038489  0.041256  1
  Sn  Sn21  1  0.798025  0.459534  0.459585  1
  Sn  Sn22  1  0.702555  0.959664  0.541047  1
  Sn  Sn23  1  0.207237  0.537035  0.958501  1
  Sn  Sn24  1  0.704854  0.961398  0.958512  1
  Sn  Sn25  1  0.202594  0.540164  0.541832  1
  Sn  Sn26  1  0.297184  0.039151  0.458553  1
  Sn  Sn27  1  0.793722  0.460689  0.040633  1
  Sn  Sn28  1  0.561147  0.619102  0.750158  1
  Sn  Sn29  1  0.060937  0.880395  0.750279  1
  Sn  Sn30  1  0.437829  0.380889  0.249490  1
  Sn  Sn31  1  0.938647  0.119154  0.249633  1
  Sn  Sn32  1  0.332290  0.151772  0.750503  1
  Sn  Sn33  1  0.829379  0.349752  0.750678  1
  Sn  Sn34  1  0.670281  0.849876  0.249425  1
  Sn  Sn35  1  0.168298  0.651232  0.250021  1
