# generated using pymatgen
data_Ca2Pr17SmGa12
_symmetry_space_group_name_H-M   'P 1'
_cell_length_a   7.93488600
_cell_length_b   7.93488600
_cell_length_c   14.71299000
_cell_angle_alpha   90.00000000
_cell_angle_beta   90.00000000
_cell_angle_gamma   90.00000000
_symmetry_Int_Tables_number   1
_chemical_formula_structural   Ca2Pr17SmGa12
_chemical_formula_sum   'Ca2 Pr17 Sm1 Ga12'
_cell_volume   926.36539453
_cell_formula_units_Z   1
loop_
 _symmetry_equiv_pos_site_id
 _symmetry_equiv_pos_as_xyz
  1  'x, y, z'
loop_
 _atom_site_type_symbol
 _atom_site_label
 _atom_site_symmetry_multiplicity
 _atom_site_fract_x
 _atom_site_fract_y
 _atom_site_fract_z
 _atom_site_occupancy
  Ca  Ca0  1  0.000000  0.500000  0.243688  1
  Ca  Ca1  1  0.500000  0.000000  0.254096  1
  Pr  Pr2  1  0.816317  0.838733  0.604408  1
  Pr  Pr3  1  0.176153  0.832132  0.101962  1
  Pr  Pr4  1  0.167915  0.823307  0.397566  1
  Pr  Pr5  1  0.832085  0.176693  0.397566  1
  Pr  Pr6  1  0.676693  0.667915  0.397566  1
  Pr  Pr7  1  0.661267  0.316317  0.604408  1
  Pr  Pr8  1  0.338733  0.683683  0.604408  1
  Pr  Pr9  1  0.667868  0.676153  0.101962  1
  Pr  Pr10  1  0.683334  0.340380  0.895679  1
  Pr  Pr11  1  0.840380  0.816666  0.895679  1
  Pr  Pr12  1  0.323307  0.332085  0.397566  1
  Pr  Pr13  1  0.183683  0.161267  0.604408  1
  Pr  Pr14  1  0.823847  0.167868  0.101962  1
  Pr  Pr15  1  0.316666  0.659620  0.895679  1
  Pr  Pr16  1  0.332132  0.323847  0.101962  1
  Pr  Pr17  1  0.159620  0.183334  0.895679  1
  Pr  Pr18  1  0.500000  0.000000  0.787999  1
  Sm  Sm19  1  0.000000  0.500000  0.717214  1
  Ga  Ga20  1  0.617273  0.383091  0.249743  1
  Ga  Ga21  1  0.118138  0.879324  0.749512  1
  Ga  Ga22  1  0.379324  0.381862  0.749512  1
  Ga  Ga23  1  0.382727  0.616909  0.249743  1
  Ga  Ga24  1  0.883091  0.882727  0.249743  1
  Ga  Ga25  1  0.620676  0.618138  0.749512  1
  Ga  Ga26  1  0.000000  0.500000  0.503960  1
  Ga  Ga27  1  0.881862  0.120676  0.749512  1
  Ga  Ga28  1  0.500000  0.000000  0.490246  1
  Ga  Ga29  1  0.500000  0.000000  0.999926  1
  Ga  Ga30  1  0.116909  0.117273  0.249743  1
  Ga  Ga31  1  0.000000  0.500000  0.007399  1
