# generated using pymatgen
data_DyHo5Zr4(Sn3O)2
_symmetry_space_group_name_H-M   'P 1'
_cell_length_a   8.75159600
_cell_length_b   8.75136713
_cell_length_c   6.03277700
_cell_angle_alpha   90.00000000
_cell_angle_beta   90.00000000
_cell_angle_gamma   119.99913256
_symmetry_Int_Tables_number   1
_chemical_formula_structural   DyHo5Zr4(Sn3O)2
_chemical_formula_sum   'Dy1 Ho5 Zr4 Sn6 O2'
_cell_volume   400.14266871
_cell_formula_units_Z   1
loop_
 _symmetry_equiv_pos_site_id
 _symmetry_equiv_pos_as_xyz
  1  'x, y, z'
loop_
 _atom_site_type_symbol
 _atom_site_label
 _atom_site_symmetry_multiplicity
 _atom_site_fract_x
 _atom_site_fract_y
 _atom_site_fract_z
 _atom_site_occupancy
  Dy  Dy0  1  0.000000  0.772839  0.750000  1
  Ho  Ho1  1  0.000000  0.226903  0.250000  1
  Ho  Ho2  1  0.226930  0.226962  0.750000  1
  Ho  Ho3  1  0.226965  0.000035  0.250000  1
  Ho  Ho4  1  0.773035  0.773070  0.250000  1
  Ho  Ho5  1  0.773070  0.000032  0.750000  1
  Zr  Zr6  1  0.333347  0.666655  0.999983  1
  Zr  Zr7  1  0.333347  0.666655  0.500017  1
  Zr  Zr8  1  0.666653  0.333307  0.999983  1
  Zr  Zr9  1  0.666653  0.333307  0.500017  1
  Sn  Sn10  1  0.000000  0.595042  0.250000  1
  Sn  Sn11  1  0.000000  0.404778  0.750000  1
  Sn  Sn12  1  0.404904  0.404901  0.250000  1
  Sn  Sn13  1  0.594877  0.594983  0.750000  1
  Sn  Sn14  1  0.405123  0.000106  0.750000  1
  Sn  Sn15  1  0.595096  0.999997  0.250000  1
  O  O16  1  0.000000  0.000215  0.000257  1
  O  O17  1  0.000000  0.000215  0.499743  1
