# generated using pymatgen
data_Nb9V(CoB)10
_symmetry_space_group_name_H-M   'P 1'
_cell_length_a   3.27049000
_cell_length_b   5.89117314
_cell_length_c   16.93871523
_cell_angle_alpha   90.05833302
_cell_angle_beta   90.00000000
_cell_angle_gamma   90.00000000
_symmetry_Int_Tables_number   1
_chemical_formula_structural   Nb9V(CoB)10
_chemical_formula_sum   'Nb9 V1 Co10 B10'
_cell_volume   326.35844427
_cell_formula_units_Z   1
loop_
 _symmetry_equiv_pos_site_id
 _symmetry_equiv_pos_as_xyz
  1  'x, y, z'
loop_
 _atom_site_type_symbol
 _atom_site_label
 _atom_site_symmetry_multiplicity
 _atom_site_fract_x
 _atom_site_fract_y
 _atom_site_fract_z
 _atom_site_occupancy
  Nb  Nb0  1  0.000000  0.472906  0.320393  1
  Nb  Nb1  1  0.000000  0.472713  0.681497  1
  Nb  Nb2  1  0.500000  0.527020  0.177839  1
  Nb  Nb3  1  0.500000  0.527591  0.822553  1
  Nb  Nb4  1  0.000000  0.977597  0.375266  1
  Nb  Nb5  1  0.000000  0.977817  0.626613  1
  Nb  Nb6  1  0.500000  0.023721  0.122410  1
  Nb  Nb7  1  0.000000  0.354596  0.501011  1
  Nb  Nb8  1  0.500000  0.645848  0.997613  1
  V  V9  1  0.500000  0.018596  0.873656  1
  Co  Co10  1  0.000000  0.857450  0.224974  1
  Co  Co11  1  0.000000  0.860482  0.777533  1
  Co  Co12  1  0.500000  0.143254  0.272738  1
  Co  Co13  1  0.500000  0.141983  0.730352  1
  Co  Co14  1  0.000000  0.349087  0.069014  1
  Co  Co15  1  0.000000  0.343480  0.926890  1
  Co  Co16  1  0.500000  0.649474  0.429038  1
  Co  Co17  1  0.500000  0.649512  0.572960  1
  Co  Co18  1  0.000000  0.993618  0.996571  1
  Co  Co19  1  0.500000  0.005958  0.500997  1
  B  B20  1  0.000000  0.229086  0.201995  1
  B  B21  1  0.000000  0.223924  0.802189  1
  B  B22  1  0.500000  0.771438  0.296483  1
  B  B23  1  0.500000  0.772544  0.705206  1
  B  B24  1  0.000000  0.729417  0.099148  1
  B  B25  1  0.000000  0.745976  0.897720  1
  B  B26  1  0.500000  0.270519  0.399257  1
  B  B27  1  0.500000  0.270294  0.602729  1
  B  B28  1  0.000000  0.766926  0.500961  1
  B  B29  1  0.500000  0.227173  0.994395  1
