# generated using pymatgen
data_Sc16Cd4Co3As
_symmetry_space_group_name_H-M   'P 1'
_cell_length_a   9.10340503
_cell_length_b   9.10340486
_cell_length_c   9.10340458
_cell_angle_alpha   58.28004396
_cell_angle_beta   58.28004490
_cell_angle_gamma   58.28004669
_symmetry_Int_Tables_number   1
_chemical_formula_structural   Sc16Cd4Co3As
_chemical_formula_sum   'Sc16 Cd4 Co3 As1'
_cell_volume   512.43883971
_cell_formula_units_Z   1
loop_
 _symmetry_equiv_pos_site_id
 _symmetry_equiv_pos_as_xyz
  1  'x, y, z'
loop_
 _atom_site_type_symbol
 _atom_site_label
 _atom_site_symmetry_multiplicity
 _atom_site_fract_x
 _atom_site_fract_y
 _atom_site_fract_z
 _atom_site_occupancy
  Sc  Sc0  1  0.435984  0.435984  0.047423  1
  Sc  Sc1  1  0.594941  0.594941  0.594941  1
  Sc  Sc2  1  0.186986  0.814535  0.814535  1
  Sc  Sc3  1  0.061247  0.061247  0.435825  1
  Sc  Sc4  1  0.435825  0.061247  0.061247  1
  Sc  Sc5  1  0.814535  0.186986  0.814535  1
  Sc  Sc6  1  0.435984  0.047423  0.435984  1
  Sc  Sc7  1  0.606186  0.211050  0.606186  1
  Sc  Sc8  1  0.814535  0.814535  0.186986  1
  Sc  Sc9  1  0.211050  0.606186  0.606186  1
  Sc  Sc10  1  0.811316  0.187736  0.187736  1
  Sc  Sc11  1  0.047423  0.435984  0.435984  1
  Sc  Sc12  1  0.187736  0.811316  0.187736  1
  Sc  Sc13  1  0.606186  0.606186  0.211050  1
  Sc  Sc14  1  0.187736  0.187736  0.811316  1
  Sc  Sc15  1  0.061247  0.435825  0.061247  1
  Cd  Cd16  1  0.832002  0.832002  0.500928  1
  Cd  Cd17  1  0.833475  0.833475  0.833475  1
  Cd  Cd18  1  0.500928  0.832002  0.832002  1
  Cd  Cd19  1  0.832002  0.500928  0.832002  1
  Co  Co20  1  0.827150  0.392874  0.392874  1
  Co  Co21  1  0.392874  0.827150  0.392874  1
  Co  Co22  1  0.392874  0.392874  0.827150  1
  As  As23  1  0.389774  0.389774  0.389774  1
