# generated using pymatgen
data_Gd6Al24NiOs7
_symmetry_space_group_name_H-M   'P 1'
_cell_length_a   8.77936937
_cell_length_b   8.77937006
_cell_length_c   9.49771600
_cell_angle_alpha   89.41643164
_cell_angle_beta   90.58356841
_cell_angle_gamma   119.68097298
_symmetry_Int_Tables_number   1
_chemical_formula_structural   Gd6Al24NiOs7
_chemical_formula_sum   'Gd6 Al24 Ni1 Os7'
_cell_volume   635.96546907
_cell_formula_units_Z   1
loop_
 _symmetry_equiv_pos_site_id
 _symmetry_equiv_pos_as_xyz
  1  'x, y, z'
loop_
 _atom_site_type_symbol
 _atom_site_label
 _atom_site_symmetry_multiplicity
 _atom_site_fract_x
 _atom_site_fract_y
 _atom_site_fract_z
 _atom_site_occupancy
  Gd  Gd0  1  0.190820  0.388285  0.251036  1
  Gd  Gd1  1  0.809180  0.611715  0.748964  1
  Gd  Gd2  1  0.611715  0.809180  0.251036  1
  Gd  Gd3  1  0.388285  0.190820  0.748964  1
  Gd  Gd4  1  0.195854  0.804146  0.249465  1
  Gd  Gd5  1  0.804146  0.195854  0.750535  1
  Al  Al6  1  0.335615  0.664385  0.019358  1
  Al  Al7  1  0.664385  0.335615  0.980642  1
  Al  Al8  1  0.666699  0.333301  0.516490  1
  Al  Al9  1  0.333301  0.666699  0.483510  1
  Al  Al10  1  0.164408  0.325454  0.578250  1
  Al  Al11  1  0.835592  0.674546  0.421750  1
  Al  Al12  1  0.674546  0.835592  0.578250  1
  Al  Al13  1  0.837182  0.674080  0.077276  1
  Al  Al14  1  0.325454  0.164408  0.421750  1
  Al  Al15  1  0.162818  0.325920  0.922724  1
  Al  Al16  1  0.163352  0.836648  0.576006  1
  Al  Al17  1  0.325920  0.162818  0.077276  1
  Al  Al18  1  0.836648  0.163352  0.423994  1
  Al  Al19  1  0.674080  0.837182  0.922724  1
  Al  Al20  1  0.836467  0.163533  0.075580  1
  Al  Al21  1  0.163533  0.836467  0.924420  1
  Al  Al22  1  0.560032  0.121815  0.248724  1
  Al  Al23  1  0.439968  0.878185  0.751276  1
  Al  Al24  1  0.878185  0.439968  0.248724  1
  Al  Al25  1  0.121815  0.560032  0.751276  1
  Al  Al26  1  0.558807  0.441193  0.245593  1
  Al  Al27  1  0.441193  0.558807  0.754407  1
  Al  Al28  1  0.999595  0.000405  0.250046  1
  Al  Al29  1  0.000405  0.999595  0.749954  1
  Ni  Ni30  1  0.500000  0.500000  0.000000  1
  Os  Os31  1  0.500000  0.000000  0.000000  1
  Os  Os32  1  0.000000  0.500000  0.000000  1
  Os  Os33  1  0.500000  0.000000  0.500000  1
  Os  Os34  1  0.000000  0.500000  0.500000  1
  Os  Os35  1  0.500000  0.500000  0.500000  1
  Os  Os36  1  0.000000  0.000000  0.000000  1
  Os  Os37  1  0.000000  0.000000  0.500000  1
