# generated using pymatgen
data_Ta6Be8Co6Si7Ni2
_symmetry_space_group_name_H-M   'P 1'
_cell_length_a   7.72780192
_cell_length_b   7.73538804
_cell_length_c   7.73538800
_cell_angle_alpha   60.00000019
_cell_angle_beta   59.96752161
_cell_angle_gamma   59.96752215
_symmetry_Int_Tables_number   1
_chemical_formula_structural   Ta6Be8Co6Si7Ni2
_chemical_formula_sum   'Ta6 Be8 Co6 Si7 Ni2'
_cell_volume   326.80735284
_cell_formula_units_Z   1
loop_
 _symmetry_equiv_pos_site_id
 _symmetry_equiv_pos_as_xyz
  1  'x, y, z'
loop_
 _atom_site_type_symbol
 _atom_site_label
 _atom_site_symmetry_multiplicity
 _atom_site_fract_x
 _atom_site_fract_y
 _atom_site_fract_z
 _atom_site_occupancy
  Ta  Ta0  1  0.698516  0.303166  0.303166  1
  Ta  Ta1  1  0.301484  0.696834  0.696834  1
  Ta  Ta2  1  0.301484  0.696834  0.304848  1
  Ta  Ta3  1  0.698516  0.303166  0.695152  1
  Ta  Ta4  1  0.301484  0.304848  0.696834  1
  Ta  Ta5  1  0.698516  0.695152  0.303166  1
  Be  Be6  1  0.326571  0.329173  0.329173  1
  Be  Be7  1  0.673429  0.670827  0.670827  1
  Be  Be8  1  0.326571  0.329173  0.015081  1
  Be  Be9  1  0.326571  0.015081  0.329173  1
  Be  Be10  1  0.673429  0.670827  0.984919  1
  Be  Be11  1  0.673429  0.984919  0.670827  1
  Be  Be12  1  0.019339  0.326886  0.326886  1
  Be  Be13  1  0.980661  0.673114  0.673114  1
  Co  Co14  1  0.123777  0.123133  0.123133  1
  Co  Co15  1  0.876223  0.876868  0.876867  1
  Co  Co16  1  0.123777  0.123133  0.629957  1
  Co  Co17  1  0.123777  0.629957  0.123132  1
  Co  Co18  1  0.876223  0.876868  0.370043  1
  Co  Co19  1  0.876223  0.370043  0.876867  1
  Si  Si20  1  0.500000  0.000000  0.000000  1
  Si  Si21  1  0.000000  0.500000  0.500000  1
  Si  Si22  1  0.000000  0.500000  0.000000  1
  Si  Si23  1  0.500000  0.000000  0.500000  1
  Si  Si24  1  0.000000  0.000000  0.500000  1
  Si  Si25  1  0.500000  0.500000  0.000000  1
  Si  Si26  1  0.000000  0.000000  0.000000  1
  Ni  Ni27  1  0.628513  0.123829  0.123829  1
  Ni  Ni28  1  0.371487  0.876171  0.876171  1
