# generated using pymatgen
data_Sc22Ga2Tc5Ru
_symmetry_space_group_name_H-M   'P 1'
_cell_length_a   9.64298101
_cell_length_b   9.50525565
_cell_length_c   9.64297875
_cell_angle_alpha   60.47133086
_cell_angle_beta   59.05731710
_cell_angle_gamma   60.47133373
_symmetry_Int_Tables_number   1
_chemical_formula_structural   Sc22Ga2Tc5Ru
_chemical_formula_sum   'Sc22 Ga2 Tc5 Ru1'
_cell_volume   624.73601030
_cell_formula_units_Z   1
loop_
 _symmetry_equiv_pos_site_id
 _symmetry_equiv_pos_as_xyz
  1  'x, y, z'
loop_
 _atom_site_type_symbol
 _atom_site_label
 _atom_site_symmetry_multiplicity
 _atom_site_fract_x
 _atom_site_fract_y
 _atom_site_fract_z
 _atom_site_occupancy
  Sc  Sc0  1  0.804802  0.804802  0.195198  1
  Sc  Sc1  1  0.197120  0.802880  0.197120  1
  Sc  Sc2  1  0.804802  0.195198  0.195198  1
  Sc  Sc3  1  0.195198  0.195198  0.804802  1
  Sc  Sc4  1  0.802880  0.197120  0.802880  1
  Sc  Sc5  1  0.195198  0.804802  0.804802  1
  Sc  Sc6  1  0.609037  0.619853  0.151259  1
  Sc  Sc7  1  0.619853  0.151259  0.619853  1
  Sc  Sc8  1  0.151259  0.619853  0.609037  1
  Sc  Sc9  1  0.619853  0.609037  0.619853  1
  Sc  Sc10  1  0.390963  0.380147  0.848741  1
  Sc  Sc11  1  0.380147  0.848741  0.380147  1
  Sc  Sc12  1  0.848741  0.380147  0.390963  1
  Sc  Sc13  1  0.380147  0.390963  0.380147  1
  Sc  Sc14  1  0.853643  0.837769  0.470817  1
  Sc  Sc15  1  0.837769  0.470817  0.837769  1
  Sc  Sc16  1  0.470817  0.837769  0.853643  1
  Sc  Sc17  1  0.837769  0.853643  0.837769  1
  Sc  Sc18  1  0.146357  0.162231  0.529183  1
  Sc  Sc19  1  0.162231  0.529183  0.162231  1
  Sc  Sc20  1  0.529183  0.162231  0.146357  1
  Sc  Sc21  1  0.162231  0.146357  0.162231  1
  Ga  Ga22  1  0.500000  0.000000  0.500000  1
  Ga  Ga23  1  0.000000  0.500000  0.000000  1
  Tc  Tc24  1  0.000000  0.000000  0.000000  1
  Tc  Tc25  1  0.000000  0.000000  0.500000  1
  Tc  Tc26  1  0.000000  0.500000  0.500000  1
  Tc  Tc27  1  0.500000  0.500000  0.000000  1
  Tc  Tc28  1  0.500000  0.000000  0.000000  1
  Ru  Ru29  1  0.500000  0.500000  0.500000  1
