# generated using pymatgen
data_Tb8Gd4GaCo4Pb
_symmetry_space_group_name_H-M   'P 1'
_cell_length_a   8.40186982
_cell_length_b   8.40187035
_cell_length_c   8.40186963
_cell_angle_alpha   112.28792038
_cell_angle_beta   109.15354647
_cell_angle_gamma   107.01595591
_symmetry_Int_Tables_number   1
_chemical_formula_structural   Tb8Gd4GaCo4Pb
_chemical_formula_sum   'Tb8 Gd4 Ga1 Co4 Pb1'
_cell_volume   455.58586851
_cell_formula_units_Z   1
loop_
 _symmetry_equiv_pos_site_id
 _symmetry_equiv_pos_as_xyz
  1  'x, y, z'
loop_
 _atom_site_type_symbol
 _atom_site_label
 _atom_site_symmetry_multiplicity
 _atom_site_fract_x
 _atom_site_fract_y
 _atom_site_fract_z
 _atom_site_occupancy
  Tb  Tb0  1  0.675701  0.860221  0.184520  1
  Tb  Tb1  1  0.324299  0.508820  0.184520  1
  Tb  Tb2  1  0.324299  0.139779  0.815480  1
  Tb  Tb3  1  0.675701  0.491180  0.815480  1
  Tb  Tb4  1  0.178815  0.218828  0.397643  1
  Tb  Tb5  1  0.821185  0.218828  0.040013  1
  Tb  Tb6  1  0.178815  0.781172  0.959987  1
  Tb  Tb7  1  0.821185  0.781172  0.602357  1
  Gd  Gd8  1  0.029347  0.731023  0.298324  1
  Gd  Gd9  1  0.970653  0.268977  0.701676  1
  Gd  Gd10  1  0.567300  0.268977  0.298324  1
  Gd  Gd11  1  0.432700  0.731023  0.701676  1
  Ga  Ga12  1  0.000000  0.500000  0.500000  1
  Co  Co13  1  0.660122  0.500000  0.160122  1
  Co  Co14  1  0.339878  0.500000  0.839878  1
  Co  Co15  1  0.887402  0.887402  0.000000  1
  Co  Co16  1  0.112598  0.112598  0.000000  1
  Pb  Pb17  1  0.500000  0.000000  0.500000  1
