# generated using pymatgen
data_Tb4Al4Co3Cu
_symmetry_space_group_name_H-M   'P 1'
_cell_length_a   4.16343600
_cell_length_b   6.72757304
_cell_length_c   7.81777010
_cell_angle_alpha   89.81713969
_cell_angle_beta   90.00000000
_cell_angle_gamma   90.00000000
_symmetry_Int_Tables_number   1
_chemical_formula_structural   Tb4Al4Co3Cu
_chemical_formula_sum   'Tb4 Al4 Co3 Cu1'
_cell_volume   218.97321654
_cell_formula_units_Z   1
loop_
 _symmetry_equiv_pos_site_id
 _symmetry_equiv_pos_as_xyz
  1  'x, y, z'
loop_
 _atom_site_type_symbol
 _atom_site_label
 _atom_site_symmetry_multiplicity
 _atom_site_fract_x
 _atom_site_fract_y
 _atom_site_fract_z
 _atom_site_occupancy
  Tb  Tb0  1  0.250000  0.029092  0.670860  1
  Tb  Tb1  1  0.250000  0.545360  0.821710  1
  Tb  Tb2  1  0.750000  0.964916  0.323494  1
  Tb  Tb3  1  0.750000  0.469991  0.182848  1
  Al  Al4  1  0.250000  0.132379  0.062787  1
  Al  Al5  1  0.250000  0.635175  0.442229  1
  Al  Al6  1  0.750000  0.856723  0.942992  1
  Al  Al7  1  0.750000  0.367922  0.553907  1
  Co  Co8  1  0.250000  0.269854  0.374689  1
  Co  Co9  1  0.250000  0.768135  0.123479  1
  Co  Co10  1  0.750000  0.733079  0.627342  1
  Cu  Cu11  1  0.750000  0.227375  0.873665  1
