# generated using pymatgen
data_Na2SrFe2(Co2As3)2
_symmetry_space_group_name_H-M   'P 1'
_cell_length_a   5.40972088
_cell_length_b   6.69480957
_cell_length_c   8.58997256
_cell_angle_alpha   66.67456384
_cell_angle_beta   71.68599323
_cell_angle_gamma   90.03816530
_symmetry_Int_Tables_number   1
_chemical_formula_structural   Na2SrFe2(Co2As3)2
_chemical_formula_sum   'Na2 Sr1 Fe2 Co4 As6'
_cell_volume   268.40095982
_cell_formula_units_Z   1
loop_
 _symmetry_equiv_pos_site_id
 _symmetry_equiv_pos_as_xyz
  1  'x, y, z'
loop_
 _atom_site_type_symbol
 _atom_site_label
 _atom_site_symmetry_multiplicity
 _atom_site_fract_x
 _atom_site_fract_y
 _atom_site_fract_z
 _atom_site_occupancy
  Na  Na0  1  0.329567  0.658834  0.339882  1
  Na  Na1  1  0.670170  0.340753  0.660162  1
  Sr  Sr2  1  0.000738  0.000909  0.000280  1
  Fe  Fe3  1  0.416481  0.831626  0.666920  1
  Fe  Fe4  1  0.750240  0.500846  0.998933  1
  Co  Co5  1  0.082608  0.167167  0.333765  1
  Co  Co6  1  0.249891  0.499510  0.000880  1
  Co  Co7  1  0.583318  0.167176  0.333754  1
  Co  Co8  1  0.917381  0.833419  0.665688  1
  As  As9  1  0.119334  0.524392  0.761616  1
  As  As10  1  0.454277  0.193781  0.094465  1
  As  As11  1  0.782502  0.856514  0.430540  1
  As  As12  1  0.548179  0.808758  0.903997  1
  As  As13  1  0.879560  0.476679  0.236412  1
  As  As14  1  0.215754  0.139636  0.572705  1
