# generated using pymatgen
data_Tb8Ga(Pd7Pt)3
_symmetry_space_group_name_H-M   'P 1'
_cell_length_a   8.36873801
_cell_length_b   8.36873801
_cell_length_c   8.36873801
_cell_angle_alpha   90.00282075
_cell_angle_beta   90.00282075
_cell_angle_gamma   89.99717925
_symmetry_Int_Tables_number   1
_chemical_formula_structural   Tb8Ga(Pd7Pt)3
_chemical_formula_sum   'Tb8 Ga1 Pd21 Pt3'
_cell_volume   586.11105650
_cell_formula_units_Z   1
loop_
 _symmetry_equiv_pos_site_id
 _symmetry_equiv_pos_as_xyz
  1  'x, y, z'
loop_
 _atom_site_type_symbol
 _atom_site_label
 _atom_site_symmetry_multiplicity
 _atom_site_fract_x
 _atom_site_fract_y
 _atom_site_fract_z
 _atom_site_occupancy
  Tb  Tb0  1  0.252033  0.252033  0.747967  1
  Tb  Tb1  1  0.251807  0.748065  0.251935  1
  Tb  Tb2  1  0.748065  0.251807  0.251935  1
  Tb  Tb3  1  0.748065  0.748065  0.748193  1
  Tb  Tb4  1  0.748219  0.748219  0.251781  1
  Tb  Tb5  1  0.747947  0.251937  0.748063  1
  Tb  Tb6  1  0.251937  0.747947  0.748063  1
  Tb  Tb7  1  0.251937  0.251937  0.252053  1
  Ga  Ga8  1  0.000056  0.000056  0.999944  1
  Pd  Pd9  1  0.499981  0.499981  0.253119  1
  Pd  Pd10  1  0.499981  0.746881  0.500019  1
  Pd  Pd11  1  0.746881  0.499981  0.500019  1
  Pd  Pd12  1  0.999930  0.999930  0.708092  1
  Pd  Pd13  1  0.999930  0.291908  0.000070  1
  Pd  Pd14  1  0.291908  0.999930  0.000070  1
  Pd  Pd15  1  0.999926  0.999926  0.291948  1
  Pd  Pd16  1  0.999926  0.708052  0.000074  1
  Pd  Pd17  1  0.708052  0.999926  0.000074  1
  Pd  Pd18  1  0.000038  0.500067  0.739626  1
  Pd  Pd19  1  0.500067  0.260374  0.999962  1
  Pd  Pd20  1  0.260374  0.000038  0.499933  1
  Pd  Pd21  1  0.000038  0.260374  0.499933  1
  Pd  Pd22  1  0.500067  0.000038  0.739626  1
  Pd  Pd23  1  0.260374  0.500067  0.999962  1
  Pd  Pd24  1  0.000063  0.500048  0.260350  1
  Pd  Pd25  1  0.500048  0.739650  0.999937  1
  Pd  Pd26  1  0.000063  0.739650  0.499952  1
  Pd  Pd27  1  0.500048  0.000063  0.260350  1
  Pd  Pd28  1  0.739650  0.000063  0.499952  1
  Pd  Pd29  1  0.739650  0.500048  0.999937  1
  Pt  Pt30  1  0.499997  0.499997  0.747053  1
  Pt  Pt31  1  0.499997  0.252947  0.500003  1
  Pt  Pt32  1  0.252947  0.499997  0.500003  1
