# generated using pymatgen
data_KCdInAs2
_symmetry_space_group_name_H-M   'P 1'
_cell_length_a   4.45119100
_cell_length_b   4.45119083
_cell_length_c   8.28980600
_cell_angle_alpha   90.00000000
_cell_angle_beta   90.00000000
_cell_angle_gamma   120.00000868
_symmetry_Int_Tables_number   1
_chemical_formula_structural   KCdInAs2
_chemical_formula_sum   'K1 Cd1 In1 As2'
_cell_volume   142.24185418
_cell_formula_units_Z   1
loop_
 _symmetry_equiv_pos_site_id
 _symmetry_equiv_pos_as_xyz
  1  'x, y, z'
loop_
 _atom_site_type_symbol
 _atom_site_label
 _atom_site_symmetry_multiplicity
 _atom_site_fract_x
 _atom_site_fract_y
 _atom_site_fract_z
 _atom_site_occupancy
  K  K0  1  0.000000  0.000000  0.990268  1
  Cd  Cd1  1  0.333334  0.666668  0.637731  1
  In  In2  1  0.666667  0.333333  0.384179  1
  As  As3  1  0.333334  0.666668  0.267604  1
  As  As4  1  0.666667  0.333333  0.720216  1
