# generated using pymatgen
data_Tm8Th4Co3Tc
_symmetry_space_group_name_H-M   'P 1'
_cell_length_a   6.26352600
_cell_length_b   6.98897015
_cell_length_c   9.51056100
_cell_angle_alpha   90.00000000
_cell_angle_beta   90.00000000
_cell_angle_gamma   90.01199372
_symmetry_Int_Tables_number   1
_chemical_formula_structural   Tm8Th4Co3Tc
_chemical_formula_sum   'Tm8 Th4 Co3 Tc1'
_cell_volume   416.33046949
_cell_formula_units_Z   1
loop_
 _symmetry_equiv_pos_site_id
 _symmetry_equiv_pos_as_xyz
  1  'x, y, z'
loop_
 _atom_site_type_symbol
 _atom_site_label
 _atom_site_symmetry_multiplicity
 _atom_site_fract_x
 _atom_site_fract_y
 _atom_site_fract_z
 _atom_site_occupancy
  Tm  Tm0  1  0.328601  0.667942  0.067090  1
  Tm  Tm1  1  0.172410  0.178783  0.434291  1
  Tm  Tm2  1  0.673147  0.327928  0.572316  1
  Tm  Tm3  1  0.833280  0.827362  0.930781  1
  Tm  Tm4  1  0.673147  0.327928  0.927684  1
  Tm  Tm5  1  0.833280  0.827362  0.569219  1
  Tm  Tm6  1  0.328601  0.667942  0.432910  1
  Tm  Tm7  1  0.172410  0.178783  0.065709  1
  Th  Th8  1  0.841655  0.545621  0.250000  1
  Th  Th9  1  0.638766  0.050412  0.250000  1
  Th  Th10  1  0.161149  0.446910  0.750000  1
  Th  Th11  1  0.346458  0.947926  0.750000  1
  Co  Co12  1  0.466809  0.369908  0.250000  1
  Co  Co13  1  0.968626  0.129920  0.750000  1
  Co  Co14  1  0.537045  0.630721  0.750000  1
  Tc  Tc15  1  0.024614  0.874554  0.250000  1
