# generated using pymatgen
data_Nd3MnAlSe7
_symmetry_space_group_name_H-M   'P 1'
_cell_length_a   10.45310300
_cell_length_b   10.45310297
_cell_length_c   6.50177700
_cell_angle_alpha   90.00000000
_cell_angle_beta   90.00000000
_cell_angle_gamma   119.99999693
_symmetry_Int_Tables_number   1
_chemical_formula_structural   Nd3MnAlSe7
_chemical_formula_sum   'Nd6 Mn2 Al2 Se14'
_cell_volume   615.25219702
_cell_formula_units_Z   2
loop_
 _symmetry_equiv_pos_site_id
 _symmetry_equiv_pos_as_xyz
  1  'x, y, z'
loop_
 _atom_site_type_symbol
 _atom_site_label
 _atom_site_symmetry_multiplicity
 _atom_site_fract_x
 _atom_site_fract_y
 _atom_site_fract_z
 _atom_site_occupancy
  Nd  Nd0  1  0.771111  0.147102  0.737239  1
  Nd  Nd1  1  0.375992  0.228889  0.737239  1
  Nd  Nd2  1  0.852898  0.624008  0.737239  1
  Nd  Nd3  1  0.228889  0.852898  0.237239  1
  Nd  Nd4  1  0.624008  0.771111  0.237239  1
  Nd  Nd5  1  0.147102  0.375992  0.237239  1
  Mn  Mn6  1  0.000000  0.000000  0.531282  1
  Mn  Mn7  1  0.000000  0.000000  0.031282  1
  Al  Al8  1  0.666667  0.333333  0.155083  1
  Al  Al9  1  0.333333  0.666667  0.655083  1
  Se  Se10  1  0.855799  0.097739  0.309053  1
  Se  Se11  1  0.241938  0.144201  0.309053  1
  Se  Se12  1  0.902261  0.758062  0.309053  1
  Se  Se13  1  0.144201  0.902261  0.809053  1
  Se  Se14  1  0.758062  0.855799  0.809053  1
  Se  Se15  1  0.097739  0.241938  0.809053  1
  Se  Se16  1  0.907010  0.424114  0.005359  1
  Se  Se17  1  0.517104  0.092990  0.005359  1
  Se  Se18  1  0.575886  0.482896  0.005359  1
  Se  Se19  1  0.092990  0.575886  0.505359  1
  Se  Se20  1  0.482896  0.907010  0.505359  1
  Se  Se21  1  0.424114  0.517104  0.505359  1
  Se  Se22  1  0.666667  0.333333  0.522735  1
  Se  Se23  1  0.333333  0.666667  0.022735  1
