# generated using pymatgen
data_Ho7Tm(ThRu)4
_symmetry_space_group_name_H-M   'P 1'
_cell_length_a   6.32217040
_cell_length_b   7.22572705
_cell_length_c   9.52476002
_cell_angle_alpha   89.99821889
_cell_angle_beta   90.07062394
_cell_angle_gamma   89.96662301
_symmetry_Int_Tables_number   1
_chemical_formula_structural   Ho7Tm(ThRu)4
_chemical_formula_sum   'Ho7 Tm1 Th4 Ru4'
_cell_volume   435.11232729
_cell_formula_units_Z   1
loop_
 _symmetry_equiv_pos_site_id
 _symmetry_equiv_pos_as_xyz
  1  'x, y, z'
loop_
 _atom_site_type_symbol
 _atom_site_label
 _atom_site_symmetry_multiplicity
 _atom_site_fract_x
 _atom_site_fract_y
 _atom_site_fract_z
 _atom_site_occupancy
  Ho  Ho0  1  0.166942  0.176514  0.066441  1
  Ho  Ho1  1  0.833372  0.823370  0.933341  1
  Ho  Ho2  1  0.666819  0.323340  0.932752  1
  Ho  Ho3  1  0.833162  0.823415  0.566668  1
  Ho  Ho4  1  0.333188  0.676183  0.066491  1
  Ho  Ho5  1  0.166630  0.176744  0.433896  1
  Ho  Ho6  1  0.333676  0.676362  0.433986  1
  Tm  Tm7  1  0.666494  0.323655  0.566888  1
  Th  Th8  1  0.652350  0.046221  0.250594  1
  Th  Th9  1  0.348489  0.954420  0.749742  1
  Th  Th10  1  0.151509  0.453741  0.749505  1
  Th  Th11  1  0.847882  0.545921  0.250488  1
  Ru  Ru12  1  0.468248  0.370024  0.251562  1
  Ru  Ru13  1  0.531847  0.629452  0.749029  1
  Ru  Ru14  1  0.967099  0.130555  0.748614  1
  Ru  Ru15  1  0.032295  0.870083  0.250004  1
