# generated using pymatgen
data_Sm2Ni3P6Rh7
_symmetry_space_group_name_H-M   'P 1'
_cell_length_a   3.87908900
_cell_length_b   10.77038800
_cell_length_c   12.37385900
_cell_angle_alpha   90.00000000
_cell_angle_beta   90.00000000
_cell_angle_gamma   90.00000000
_symmetry_Int_Tables_number   1
_chemical_formula_structural   Sm2Ni3P6Rh7
_chemical_formula_sum   'Sm4 Ni6 P12 Rh14'
_cell_volume   516.97108833
_cell_formula_units_Z   2
loop_
 _symmetry_equiv_pos_site_id
 _symmetry_equiv_pos_as_xyz
  1  'x, y, z'
loop_
 _atom_site_type_symbol
 _atom_site_label
 _atom_site_symmetry_multiplicity
 _atom_site_fract_x
 _atom_site_fract_y
 _atom_site_fract_z
 _atom_site_occupancy
  Sm  Sm0  1  0.250000  0.585221  0.707575  1
  Sm  Sm1  1  0.250000  0.914779  0.207575  1
  Sm  Sm2  1  0.750000  0.413589  0.293528  1
  Sm  Sm3  1  0.750000  0.086411  0.793528  1
  Ni  Ni4  1  0.750000  0.111830  0.303962  1
  Ni  Ni5  1  0.750000  0.388170  0.803962  1
  Ni  Ni6  1  0.250000  0.462714  0.932986  1
  Ni  Ni7  1  0.250000  0.037286  0.432986  1
  Ni  Ni8  1  0.750000  0.533356  0.063729  1
  Ni  Ni9  1  0.750000  0.966644  0.563729  1
  P  P10  1  0.250000  0.416934  0.107714  1
  P  P11  1  0.250000  0.083066  0.607714  1
  P  P12  1  0.750000  0.575860  0.888846  1
  P  P13  1  0.750000  0.924140  0.388846  1
  P  P14  1  0.250000  0.272036  0.873947  1
  P  P15  1  0.250000  0.227964  0.373947  1
  P  P16  1  0.750000  0.726440  0.126807  1
  P  P17  1  0.750000  0.773560  0.626807  1
  P  P18  1  0.250000  0.599478  0.388215  1
  P  P19  1  0.250000  0.900522  0.888215  1
  P  P20  1  0.750000  0.400177  0.615574  1
  P  P21  1  0.750000  0.099823  0.115574  1
  Rh  Rh22  1  0.250000  0.710378  0.980711  1
  Rh  Rh23  1  0.250000  0.789622  0.480711  1
  Rh  Rh24  1  0.750000  0.287224  0.013800  1
  Rh  Rh25  1  0.750000  0.212776  0.513800  1
  Rh  Rh26  1  0.250000  0.408096  0.484032  1
  Rh  Rh27  1  0.250000  0.091904  0.984032  1
  Rh  Rh28  1  0.750000  0.592981  0.518588  1
  Rh  Rh29  1  0.750000  0.907019  0.018588  1
  Rh  Rh30  1  0.250000  0.221716  0.183900  1
  Rh  Rh31  1  0.250000  0.278284  0.683900  1
  Rh  Rh32  1  0.750000  0.773357  0.819971  1
  Rh  Rh33  1  0.750000  0.726643  0.319971  1
  Rh  Rh34  1  0.250000  0.888926  0.696119  1
  Rh  Rh35  1  0.250000  0.611074  0.196119  1
