# generated using pymatgen
data_Pr2Nd2DyIr2
_symmetry_space_group_name_H-M   'P 1'
_cell_length_a   6.69521378
_cell_length_b   7.28903525
_cell_length_c   8.92947837
_cell_angle_alpha   96.56069916
_cell_angle_beta   112.01775581
_cell_angle_gamma   90.00000232
_symmetry_Int_Tables_number   1
_chemical_formula_structural   Pr2Nd2DyIr2
_chemical_formula_sum   'Pr4 Nd4 Dy2 Ir4'
_cell_volume   400.91145252
_cell_formula_units_Z   2
loop_
 _symmetry_equiv_pos_site_id
 _symmetry_equiv_pos_as_xyz
  1  'x, y, z'
loop_
 _atom_site_type_symbol
 _atom_site_label
 _atom_site_symmetry_multiplicity
 _atom_site_fract_x
 _atom_site_fract_y
 _atom_site_fract_z
 _atom_site_occupancy
  Pr  Pr0  1  0.792729  0.076675  0.816166  1
  Pr  Pr1  1  0.976564  0.423325  0.183834  1
  Pr  Pr2  1  0.207271  0.923325  0.183834  1
  Pr  Pr3  1  0.023436  0.576675  0.816166  1
  Nd  Nd4  1  0.214118  0.187659  0.568610  1
  Nd  Nd5  1  0.645508  0.312341  0.431390  1
  Nd  Nd6  1  0.785882  0.812341  0.431390  1
  Nd  Nd7  1  0.354492  0.687659  0.568610  1
  Dy  Dy8  1  0.437674  0.250000  0.000000  1
  Dy  Dy9  1  0.562326  0.750000  0.000000  1
  Ir  Ir10  1  0.595955  0.429999  0.786493  1
  Ir  Ir11  1  0.809462  0.070001  0.213507  1
  Ir  Ir12  1  0.404045  0.570001  0.213507  1
  Ir  Ir13  1  0.190538  0.929999  0.786493  1
