# generated using pymatgen
data_Tb3MgNpRu7
_symmetry_space_group_name_H-M   'P 1'
_cell_length_a   5.24067995
_cell_length_b   5.24067836
_cell_length_c   8.99299661
_cell_angle_alpha   89.60993498
_cell_angle_beta   90.39006740
_cell_angle_gamma   116.49146943
_symmetry_Int_Tables_number   1
_chemical_formula_structural   Tb3MgNpRu7
_chemical_formula_sum   'Tb3 Mg1 Np1 Ru7'
_cell_volume   221.04926238
_cell_formula_units_Z   1
loop_
 _symmetry_equiv_pos_site_id
 _symmetry_equiv_pos_as_xyz
  1  'x, y, z'
loop_
 _atom_site_type_symbol
 _atom_site_label
 _atom_site_symmetry_multiplicity
 _atom_site_fract_x
 _atom_site_fract_y
 _atom_site_fract_z
 _atom_site_occupancy
  Tb  Tb0  1  0.652810  0.347190  0.564787  1
  Tb  Tb1  1  0.662286  0.337714  0.924689  1
  Tb  Tb2  1  0.333662  0.666338  0.060476  1
  Mg  Mg3  1  0.318343  0.681657  0.448917  1
  Np  Np4  1  0.856739  0.143261  0.259432  1
  Ru  Ru5  1  0.989593  0.010407  0.499528  1
  Ru  Ru6  1  0.991592  0.008408  0.994811  1
  Ru  Ru7  1  0.845534  0.630145  0.252628  1
  Ru  Ru8  1  0.369855  0.154466  0.252628  1
  Ru  Ru9  1  0.165843  0.834157  0.749698  1
  Ru  Ru10  1  0.161221  0.347478  0.746203  1
  Ru  Ru11  1  0.652522  0.838779  0.746203  1
