# generated using pymatgen
data_La2PrPBr3
_symmetry_space_group_name_H-M   'P 1'
_cell_length_a   10.45226714
_cell_length_b   10.45226742
_cell_length_c   10.45226715
_cell_angle_alpha   109.52812469
_cell_angle_beta   109.52812465
_cell_angle_gamma   109.35746773
_symmetry_Int_Tables_number   1
_chemical_formula_structural   La2PrPBr3
_chemical_formula_sum   'La8 Pr4 P4 Br12'
_cell_volume   879.03944935
_cell_formula_units_Z   4
loop_
 _symmetry_equiv_pos_site_id
 _symmetry_equiv_pos_as_xyz
  1  'x, y, z'
loop_
 _atom_site_type_symbol
 _atom_site_label
 _atom_site_symmetry_multiplicity
 _atom_site_fract_x
 _atom_site_fract_y
 _atom_site_fract_z
 _atom_site_occupancy
  La  La0  1  0.475284  0.486054  0.236762  1
  La  La1  1  0.749293  0.238523  0.263238  1
  La  La2  1  0.750707  0.013946  0.489230  1
  La  La3  1  0.238523  0.475284  0.489230  1
  La  La4  1  0.261477  0.750707  0.236762  1
  La  La5  1  0.024716  0.261477  0.010770  1
  La  La6  1  0.013946  0.024716  0.263238  1
  La  La7  1  0.486054  0.749293  0.010770  1
  Pr  Pr8  1  0.485028  0.235028  0.470056  1
  Pr  Pr9  1  0.014972  0.485028  0.750000  1
  Pr  Pr10  1  0.264972  0.014972  0.029944  1
  Pr  Pr11  1  0.235028  0.264972  0.750000  1
  P  P12  1  0.249599  0.250401  0.250000  1
  P  P13  1  0.500401  0.999599  0.250000  1
  P  P14  1  0.999599  0.249599  0.499197  1
  P  P15  1  0.250401  0.500401  0.000803  1
  Br  Br16  1  0.247998  0.755809  0.744131  1
  Br  Br17  1  0.511676  0.503867  0.755869  1
  Br  Br18  1  0.988324  0.744191  0.992189  1
  Br  Br19  1  0.744191  0.252002  0.755869  1
  Br  Br20  1  0.996133  0.988324  0.744131  1
  Br  Br21  1  0.252002  0.996133  0.507811  1
  Br  Br22  1  0.755809  0.511676  0.507811  1
  Br  Br23  1  0.503867  0.247998  0.992189  1
  Br  Br24  1  0.756543  0.743457  0.250000  1
  Br  Br25  1  0.743457  0.993457  0.986915  1
  Br  Br26  1  0.993457  0.506543  0.250000  1
  Br  Br27  1  0.506543  0.756543  0.513085  1
