# generated using pymatgen
data_Y2Co4B4Ir
_symmetry_space_group_name_H-M   'P 1'
_cell_length_a   7.14623574
_cell_length_b   6.02343862
_cell_length_c   5.33134242
_cell_angle_alpha   77.74177347
_cell_angle_beta   55.45343025
_cell_angle_gamma   46.29614771
_symmetry_Int_Tables_number   1
_chemical_formula_structural   Y2Co4B4Ir
_chemical_formula_sum   'Y2 Co4 B4 Ir1'
_cell_volume   130.29073767
_cell_formula_units_Z   1
loop_
 _symmetry_equiv_pos_site_id
 _symmetry_equiv_pos_as_xyz
  1  'x, y, z'
loop_
 _atom_site_type_symbol
 _atom_site_label
 _atom_site_symmetry_multiplicity
 _atom_site_fract_x
 _atom_site_fract_y
 _atom_site_fract_z
 _atom_site_occupancy
  Y  Y0  1  0.855659  0.855657  0.144341  1
  Y  Y1  1  0.144343  0.144342  0.855658  1
  Co  Co2  1  0.249825  0.249826  0.250175  1
  Co  Co3  1  0.000001  0.999999  0.500000  1
  Co  Co4  1  0.500001  0.499999  0.499999  1
  Co  Co5  1  0.750175  0.750174  0.749825  1
  B  B6  1  0.473884  0.795978  0.218256  1
  B  B7  1  0.204022  0.526116  0.488118  1
  B  B8  1  0.795979  0.473883  0.511882  1
  B  B9  1  0.526118  0.204021  0.781743  1
  Ir  Ir10  1  0.500000  0.500000  0.000000  1
