# generated using pymatgen
data_Hf4Zr2BBr12
_symmetry_space_group_name_H-M   'P 1'
_cell_length_a   8.64719653
_cell_length_b   8.66016419
_cell_length_c   8.67732277
_cell_angle_alpha   107.03964766
_cell_angle_beta   106.84488209
_cell_angle_gamma   107.02263589
_symmetry_Int_Tables_number   1
_chemical_formula_structural   Hf4Zr2BBr12
_chemical_formula_sum   'Hf4 Zr2 B1 Br12'
_cell_volume   541.62369314
_cell_formula_units_Z   1
loop_
 _symmetry_equiv_pos_site_id
 _symmetry_equiv_pos_as_xyz
  1  'x, y, z'
loop_
 _atom_site_type_symbol
 _atom_site_label
 _atom_site_symmetry_multiplicity
 _atom_site_fract_x
 _atom_site_fract_y
 _atom_site_fract_z
 _atom_site_occupancy
  Hf  Hf0  1  0.094339  0.027798  0.283089  1
  Hf  Hf1  1  0.907191  0.970146  0.717256  1
  Hf  Hf2  1  0.713604  0.904105  0.970527  1
  Hf  Hf3  1  0.030393  0.285244  0.094651  1
  Zr  Zr4  1  0.972283  0.715020  0.905645  1
  Zr  Zr5  1  0.285699  0.093983  0.028834  1
  B  B6  1  0.996974  0.001847  0.001088  1
  Br  Br7  1  0.922628  0.306127  0.778559  1
  Br  Br8  1  0.693496  0.222380  0.077484  1
  Br  Br9  1  0.439790  0.141846  0.369673  1
  Br  Br10  1  0.856365  0.635912  0.555756  1
  Br  Br11  1  0.218199  0.076314  0.685295  1
  Br  Br12  1  0.629729  0.559469  0.857938  1
  Br  Br13  1  0.364500  0.445087  0.143988  1
  Br  Br14  1  0.778476  0.923325  0.307203  1
  Br  Br15  1  0.141112  0.364280  0.438291  1
  Br  Br16  1  0.561387  0.858625  0.635923  1
  Br  Br17  1  0.315417  0.775729  0.922024  1
  Br  Br18  1  0.078418  0.692764  0.226778  1
