# generated using pymatgen
data_Tm6Zr4Sn5Bi
_symmetry_space_group_name_H-M   'P 1'
_cell_length_a   6.05161400
_cell_length_b   8.81021353
_cell_length_c   8.81021500
_cell_angle_alpha   59.98084457
_cell_angle_beta   89.99998403
_cell_angle_gamma   90.00000996
_symmetry_Int_Tables_number   1
_chemical_formula_structural   Tm6Zr4Sn5Bi
_chemical_formula_sum   'Tm6 Zr4 Sn5 Bi1'
_cell_volume   406.71569401
_cell_formula_units_Z   1
loop_
 _symmetry_equiv_pos_site_id
 _symmetry_equiv_pos_as_xyz
  1  'x, y, z'
loop_
 _atom_site_type_symbol
 _atom_site_label
 _atom_site_symmetry_multiplicity
 _atom_site_fract_x
 _atom_site_fract_y
 _atom_site_fract_z
 _atom_site_occupancy
  Tm  Tm0  1  0.749999  0.236956  0.763044  1
  Tm  Tm1  1  0.750002  0.761240  0.995310  1
  Tm  Tm2  1  0.750002  0.004690  0.238760  1
  Tm  Tm3  1  0.250000  0.761248  0.238752  1
  Tm  Tm4  1  0.250001  0.239832  0.000577  1
  Tm  Tm5  1  0.250001  0.999423  0.760168  1
  Zr  Zr6  1  0.498009  0.330936  0.332874  1
  Zr  Zr7  1  0.498009  0.667126  0.669064  1
  Zr  Zr8  1  0.001992  0.667124  0.669066  1
  Zr  Zr9  1  0.001992  0.330934  0.332876  1
  Sn  Sn10  1  0.750000  0.400543  0.999422  1
  Sn  Sn11  1  0.750000  0.000578  0.599457  1
  Sn  Sn12  1  0.249998  0.398809  0.601191  1
  Sn  Sn13  1  0.249998  0.599774  0.001275  1
  Sn  Sn14  1  0.249998  0.998725  0.400226  1
  Bi  Bi15  1  0.750001  0.602062  0.397938  1
