# generated using pymatgen
data_Lu4Al5Ni9
_symmetry_space_group_name_H-M   'P 1'
_cell_length_a   5.19672697
_cell_length_b   5.19672741
_cell_length_c   11.94805900
_cell_angle_alpha   77.43943588
_cell_angle_beta   77.43943482
_cell_angle_gamma   59.99999255
_symmetry_Int_Tables_number   1
_chemical_formula_structural   Lu4Al5Ni9
_chemical_formula_sum   'Lu4 Al5 Ni9'
_cell_volume   270.48553290
_cell_formula_units_Z   1
loop_
 _symmetry_equiv_pos_site_id
 _symmetry_equiv_pos_as_xyz
  1  'x, y, z'
loop_
 _atom_site_type_symbol
 _atom_site_label
 _atom_site_symmetry_multiplicity
 _atom_site_fract_x
 _atom_site_fract_y
 _atom_site_fract_z
 _atom_site_occupancy
  Lu  Lu0  1  0.952734  0.952734  0.141801  1
  Lu  Lu1  1  0.047266  0.047266  0.858199  1
  Lu  Lu2  1  0.855123  0.855123  0.434631  1
  Lu  Lu3  1  0.144877  0.144877  0.565369  1
  Al  Al4  1  0.500000  0.500000  0.500000  1
  Al  Al5  1  0.722494  0.722494  0.832515  1
  Al  Al6  1  0.277506  0.277506  0.167485  1
  Al  Al7  1  0.609881  0.609881  0.170358  1
  Al  Al8  1  0.390119  0.390119  0.829642  1
  Ni  Ni9  1  0.000000  0.500000  0.000000  1
  Ni  Ni10  1  0.500000  0.000000  0.000000  1
  Ni  Ni11  1  0.500000  0.500000  0.000000  1
  Ni  Ni12  1  0.384729  0.384729  0.334671  1
  Ni  Ni13  1  0.895870  0.384729  0.334671  1
  Ni  Ni14  1  0.384729  0.895870  0.334671  1
  Ni  Ni15  1  0.615271  0.615271  0.665329  1
  Ni  Ni16  1  0.104130  0.615271  0.665329  1
  Ni  Ni17  1  0.615271  0.104130  0.665329  1
