# generated using pymatgen
data_Sc12Tc3Ru
_symmetry_space_group_name_H-M   'P 1'
_cell_length_a   5.79579146
_cell_length_b   7.05261235
_cell_length_c   8.47107200
_cell_angle_alpha   90.00000000
_cell_angle_beta   90.00000000
_cell_angle_gamma   89.86109961
_symmetry_Int_Tables_number   1
_chemical_formula_structural   Sc12Tc3Ru
_chemical_formula_sum   'Sc12 Tc3 Ru1'
_cell_volume   346.25803592
_cell_formula_units_Z   1
loop_
 _symmetry_equiv_pos_site_id
 _symmetry_equiv_pos_as_xyz
  1  'x, y, z'
loop_
 _atom_site_type_symbol
 _atom_site_label
 _atom_site_symmetry_multiplicity
 _atom_site_fract_x
 _atom_site_fract_y
 _atom_site_fract_z
 _atom_site_occupancy
  Sc  Sc0  1  0.349617  0.678233  0.062173  1
  Sc  Sc1  1  0.149974  0.176271  0.438495  1
  Sc  Sc2  1  0.648802  0.319857  0.561974  1
  Sc  Sc3  1  0.847618  0.826255  0.938409  1
  Sc  Sc4  1  0.648802  0.319857  0.938026  1
  Sc  Sc5  1  0.847618  0.826255  0.561591  1
  Sc  Sc6  1  0.349617  0.678233  0.437827  1
  Sc  Sc7  1  0.149974  0.176271  0.061505  1
  Sc  Sc8  1  0.878471  0.538900  0.250000  1
  Sc  Sc9  1  0.616821  0.036832  0.250000  1
  Sc  Sc10  1  0.123998  0.463118  0.750000  1
  Sc  Sc11  1  0.380784  0.957602  0.750000  1
  Tc  Tc12  1  0.044639  0.880122  0.250000  1
  Tc  Tc13  1  0.453513  0.381954  0.250000  1
  Tc  Tc14  1  0.960089  0.121897  0.750000  1
  Ru  Ru15  1  0.549665  0.618345  0.750000  1
