# generated using pymatgen
data_NdLu2Th7(Si3C)2
_symmetry_space_group_name_H-M   'P 1'
_cell_length_a   8.78087300
_cell_length_b   8.78087318
_cell_length_c   6.37024000
_cell_angle_alpha   90.00000000
_cell_angle_beta   90.00000000
_cell_angle_gamma   120.00000310
_symmetry_Int_Tables_number   1
_chemical_formula_structural   NdLu2Th7(Si3C)2
_chemical_formula_sum   'Nd1 Lu2 Th7 Si6 C2'
_cell_volume   425.36505981
_cell_formula_units_Z   1
loop_
 _symmetry_equiv_pos_site_id
 _symmetry_equiv_pos_as_xyz
  1  'x, y, z'
loop_
 _atom_site_type_symbol
 _atom_site_label
 _atom_site_symmetry_multiplicity
 _atom_site_fract_x
 _atom_site_fract_y
 _atom_site_fract_z
 _atom_site_occupancy
  Nd  Nd0  1  0.666667  0.333333  0.500000  1
  Lu  Lu1  1  0.333333  0.666667  0.000000  1
  Lu  Lu2  1  0.333333  0.666667  0.500000  1
  Th  Th3  1  0.666667  0.333333  0.000000  1
  Th  Th4  1  0.766648  0.767168  0.749796  1
  Th  Th5  1  0.232832  0.999480  0.749796  1
  Th  Th6  1  0.000520  0.233352  0.749796  1
  Th  Th7  1  0.232832  0.233352  0.250204  1
  Th  Th8  1  0.766648  0.999480  0.250204  1
  Th  Th9  1  0.000520  0.767168  0.250204  1
  Si  Si10  1  0.395933  0.406088  0.751460  1
  Si  Si11  1  0.593912  0.989845  0.751460  1
  Si  Si12  1  0.010155  0.604067  0.751460  1
  Si  Si13  1  0.593912  0.604067  0.248540  1
  Si  Si14  1  0.395933  0.989845  0.248540  1
  Si  Si15  1  0.010155  0.406088  0.248540  1
  C  C16  1  0.000000  0.000000  0.000000  1
  C  C17  1  0.000000  0.000000  0.500000  1
