# generated using pymatgen
data_La6IrBr10
_symmetry_space_group_name_H-M   'P 1'
_cell_length_a   7.84919765
_cell_length_b   9.63012096
_cell_length_c   9.83978807
_cell_angle_alpha   109.09556149
_cell_angle_beta   97.05727197
_cell_angle_gamma   107.15652123
_symmetry_Int_Tables_number   1
_chemical_formula_structural   La6IrBr10
_chemical_formula_sum   'La6 Ir1 Br10'
_cell_volume   651.45425761
_cell_formula_units_Z   1
loop_
 _symmetry_equiv_pos_site_id
 _symmetry_equiv_pos_as_xyz
  1  'x, y, z'
loop_
 _atom_site_type_symbol
 _atom_site_label
 _atom_site_symmetry_multiplicity
 _atom_site_fract_x
 _atom_site_fract_y
 _atom_site_fract_z
 _atom_site_occupancy
  La  La0  1  0.134256  0.051993  0.751810  1
  La  La1  1  0.625904  0.850519  0.809093  1
  La  La2  1  0.865744  0.948007  0.248190  1
  La  La3  1  0.027509  0.704288  0.907306  1
  La  La4  1  0.374096  0.149481  0.190907  1
  La  La5  1  0.972491  0.295712  0.092694  1
  Ir  Ir6  1  0.000000  0.000000  0.000000  1
  Br  Br7  1  0.198035  0.740726  0.650329  1
  Br  Br8  1  0.639306  0.532876  0.724770  1
  Br  Br9  1  0.250321  0.081782  0.452059  1
  Br  Br10  1  0.801965  0.259274  0.349671  1
  Br  Br11  1  0.551517  0.172501  0.921123  1
  Br  Br12  1  0.749679  0.918218  0.547941  1
  Br  Br13  1  0.909348  0.628718  0.168339  1
  Br  Br14  1  0.360694  0.467124  0.275230  1
  Br  Br15  1  0.090652  0.371282  0.831661  1
  Br  Br16  1  0.448483  0.827499  0.078877  1
