# generated using pymatgen
data_Yb2DyTmAl8
_symmetry_space_group_name_H-M   'P 1'
_cell_length_a   9.70234391
_cell_length_b   9.70234352
_cell_length_c   9.70234517
_cell_angle_alpha   33.36722609
_cell_angle_beta   33.36722745
_cell_angle_gamma   33.36723667
_symmetry_Int_Tables_number   1
_chemical_formula_structural   Yb2DyTmAl8
_chemical_formula_sum   'Yb2 Dy1 Tm1 Al8'
_cell_volume   246.01859797
_cell_formula_units_Z   1
loop_
 _symmetry_equiv_pos_site_id
 _symmetry_equiv_pos_as_xyz
  1  'x, y, z'
loop_
 _atom_site_type_symbol
 _atom_site_label
 _atom_site_symmetry_multiplicity
 _atom_site_fract_x
 _atom_site_fract_y
 _atom_site_fract_z
 _atom_site_occupancy
  Yb  Yb0  1  0.313509  0.313509  0.313509  1
  Yb  Yb1  1  0.686620  0.686620  0.686620  1
  Dy  Dy2  1  0.188074  0.188074  0.188074  1
  Tm  Tm3  1  0.812004  0.812004  0.812004  1
  Al  Al4  1  0.499958  0.499958  0.499958  1
  Al  Al5  1  0.000078  0.000078  0.000078  1
  Al  Al6  1  0.250946  0.250946  0.754205  1
  Al  Al7  1  0.749106  0.749106  0.245449  1
  Al  Al8  1  0.250946  0.754205  0.250946  1
  Al  Al9  1  0.749106  0.245449  0.749106  1
  Al  Al10  1  0.754205  0.250946  0.250946  1
  Al  Al11  1  0.245449  0.749106  0.749106  1
