# generated using pymatgen
data_Li2Ca3ScPt3
_symmetry_space_group_name_H-M   'P 1'
_cell_length_a   7.17264100
_cell_length_b   7.21970765
_cell_length_c   4.21278700
_cell_angle_alpha   90.00000000
_cell_angle_beta   90.00000000
_cell_angle_gamma   119.78458476
_symmetry_Int_Tables_number   1
_chemical_formula_structural   Li2Ca3ScPt3
_chemical_formula_sum   'Li2 Ca3 Sc1 Pt3'
_cell_volume   189.33785892
_cell_formula_units_Z   1
loop_
 _symmetry_equiv_pos_site_id
 _symmetry_equiv_pos_as_xyz
  1  'x, y, z'
loop_
 _atom_site_type_symbol
 _atom_site_label
 _atom_site_symmetry_multiplicity
 _atom_site_fract_x
 _atom_site_fract_y
 _atom_site_fract_z
 _atom_site_occupancy
  Li  Li0  1  0.000080  0.753401  0.500000  1
  Li  Li1  1  0.246679  0.246599  0.500000  1
  Ca  Ca2  1  0.396976  0.000000  0.000000  1
  Ca  Ca3  1  0.009817  0.427604  0.000000  1
  Ca  Ca4  1  0.582213  0.572396  0.000000  1
  Sc  Sc5  1  0.756311  0.000000  0.500000  1
  Pt  Pt6  1  0.350593  0.676224  0.500000  1
  Pt  Pt7  1  0.674369  0.323776  0.500000  1
  Pt  Pt8  1  0.982962  0.000000  0.000000  1
