# generated using pymatgen
data_DyY3TcB12Ru
_symmetry_space_group_name_H-M   'P 1'
_cell_length_a   3.67910100
_cell_length_b   9.16015685
_cell_length_c   11.55185827
_cell_angle_alpha   89.85661045
_cell_angle_beta   90.00000000
_cell_angle_gamma   90.00000000
_symmetry_Int_Tables_number   1
_chemical_formula_structural   DyY3TcB12Ru
_chemical_formula_sum   'Dy2 Y6 Tc2 B24 Ru2'
_cell_volume   389.30959930
_cell_formula_units_Z   2
loop_
 _symmetry_equiv_pos_site_id
 _symmetry_equiv_pos_as_xyz
  1  'x, y, z'
loop_
 _atom_site_type_symbol
 _atom_site_label
 _atom_site_symmetry_multiplicity
 _atom_site_fract_x
 _atom_site_fract_y
 _atom_site_fract_z
 _atom_site_occupancy
  Dy  Dy0  1  0.000000  0.442974  0.130223  1
  Dy  Dy1  1  0.000000  0.557026  0.869777  1
  Y  Y2  1  0.000000  0.325260  0.415616  1
  Y  Y3  1  0.000000  0.674740  0.584384  1
  Y  Y4  1  0.000000  0.821381  0.087343  1
  Y  Y5  1  0.000000  0.178619  0.912657  1
  Y  Y6  1  0.000000  0.942163  0.370586  1
  Y  Y7  1  0.000000  0.057837  0.629414  1
  Tc  Tc8  1  0.000000  0.638442  0.320217  1
  Tc  Tc9  1  0.000000  0.361558  0.679783  1
  B  B10  1  0.500000  0.553293  0.432846  1
  B  B11  1  0.500000  0.446707  0.567154  1
  B  B12  1  0.500000  0.053981  0.067134  1
  B  B13  1  0.500000  0.946019  0.932866  1
  B  B14  1  0.500000  0.748226  0.418741  1
  B  B15  1  0.500000  0.251774  0.581259  1
  B  B16  1  0.500000  0.248325  0.081326  1
  B  B17  1  0.500000  0.751675  0.918674  1
  B  B18  1  0.500000  0.791199  0.265273  1
  B  B19  1  0.500000  0.208801  0.734727  1
  B  B20  1  0.500000  0.290319  0.234112  1
  B  B21  1  0.500000  0.709681  0.765888  1
  B  B22  1  0.500000  0.631314  0.185373  1
  B  B23  1  0.500000  0.368686  0.814627  1
  B  B24  1  0.500000  0.131154  0.313759  1
  B  B25  1  0.500000  0.868846  0.686241  1
  B  B26  1  0.500000  0.983478  0.211710  1
  B  B27  1  0.500000  0.016522  0.788290  1
  B  B28  1  0.500000  0.483058  0.287668  1
  B  B29  1  0.500000  0.516942  0.712332  1
  B  B30  1  0.500000  0.603728  0.028600  1
  B  B31  1  0.500000  0.396272  0.971400  1
  B  B32  1  0.500000  0.103961  0.471020  1
  B  B33  1  0.500000  0.896039  0.528980  1
  Ru  Ru34  1  0.000000  0.137868  0.178311  1
  Ru  Ru35  1  0.000000  0.862132  0.821689  1
