# generated using pymatgen
data_TmLu7Sc11Si16Hg
_symmetry_space_group_name_H-M   'P 1'
_cell_length_a   6.97942529
_cell_length_b   7.33525578
_cell_length_c   13.90132124
_cell_angle_alpha   90.00968886
_cell_angle_beta   89.98127424
_cell_angle_gamma   89.87960082
_symmetry_Int_Tables_number   1
_chemical_formula_structural   TmLu7Sc11Si16Hg
_chemical_formula_sum   'Tm1 Lu7 Sc11 Si16 Hg1'
_cell_volume   711.68861112
_cell_formula_units_Z   1
loop_
 _symmetry_equiv_pos_site_id
 _symmetry_equiv_pos_as_xyz
  1  'x, y, z'
loop_
 _atom_site_type_symbol
 _atom_site_label
 _atom_site_symmetry_multiplicity
 _atom_site_fract_x
 _atom_site_fract_y
 _atom_site_fract_z
 _atom_site_occupancy
  Tm  Tm0  1  0.487039  0.673417  0.596344  1
  Lu  Lu1  1  0.010243  0.176516  0.096121  1
  Lu  Lu2  1  0.989899  0.815452  0.903556  1
  Lu  Lu3  1  0.487373  0.673886  0.903508  1
  Lu  Lu4  1  0.989750  0.815521  0.596666  1
  Lu  Lu5  1  0.510150  0.323122  0.096396  1
  Lu  Lu6  1  0.009896  0.176542  0.403747  1
  Lu  Lu7  1  0.510153  0.323007  0.403275  1
  Sc  Sc8  1  0.837091  0.496310  0.250133  1
  Sc  Sc9  1  0.340936  0.005595  0.250025  1
  Sc  Sc10  1  0.655811  0.995524  0.750101  1
  Sc  Sc11  1  0.323410  0.181633  0.626951  1
  Sc  Sc12  1  0.671661  0.825453  0.374691  1
  Sc  Sc13  1  0.168490  0.681404  0.373161  1
  Sc  Sc14  1  0.671435  0.825055  0.125135  1
  Sc  Sc15  1  0.840561  0.324949  0.626372  1
  Sc  Sc16  1  0.323512  0.181849  0.873189  1
  Sc  Sc17  1  0.839989  0.325339  0.873743  1
  Sc  Sc18  1  0.168544  0.681375  0.126777  1
  Si  Si19  1  0.023767  0.085561  0.750207  1
  Si  Si20  1  0.969798  0.894175  0.249888  1
  Si  Si21  1  0.467271  0.614207  0.249893  1
  Si  Si22  1  0.543106  0.381443  0.750102  1
  Si  Si23  1  0.289786  0.879489  0.750314  1
  Si  Si24  1  0.713998  0.133506  0.249844  1
  Si  Si25  1  0.212320  0.370333  0.249914  1
  Si  Si26  1  0.769899  0.634037  0.750413  1
  Si  Si27  1  0.165786  0.459246  0.527818  1
  Si  Si28  1  0.839678  0.535573  0.461814  1
  Si  Si29  1  0.342784  0.967999  0.461953  1
  Si  Si30  1  0.840008  0.535509  0.038193  1
  Si  Si31  1  0.658692  0.033694  0.540173  1
  Si  Si32  1  0.166893  0.459815  0.971843  1
  Si  Si33  1  0.658444  0.033075  0.959703  1
  Si  Si34  1  0.342845  0.967422  0.037821  1
  Hg  Hg35  1  0.158985  0.512969  0.750217  1
