# generated using pymatgen
data_LaTm5FeBr10
_symmetry_space_group_name_H-M   'P 1'
_cell_length_a   7.35509762
_cell_length_b   9.24841004
_cell_length_c   9.01251560
_cell_angle_alpha   108.02738347
_cell_angle_beta   103.29331920
_cell_angle_gamma   96.56663393
_symmetry_Int_Tables_number   1
_chemical_formula_structural   LaTm5FeBr10
_chemical_formula_sum   'La1 Tm5 Fe1 Br10'
_cell_volume   555.82541577
_cell_formula_units_Z   1
loop_
 _symmetry_equiv_pos_site_id
 _symmetry_equiv_pos_as_xyz
  1  'x, y, z'
loop_
 _atom_site_type_symbol
 _atom_site_label
 _atom_site_symmetry_multiplicity
 _atom_site_fract_x
 _atom_site_fract_y
 _atom_site_fract_z
 _atom_site_occupancy
  La  La0  1  0.963832  0.083978  0.274744  1
  Tm  Tm1  1  0.350959  0.174763  0.125087  1
  Tm  Tm2  1  0.037632  0.919139  0.737119  1
  Tm  Tm3  1  0.119023  0.753111  0.048084  1
  Tm  Tm4  1  0.647489  0.826134  0.872369  1
  Tm  Tm5  1  0.874988  0.245746  0.953503  1
  Fe  Fe6  1  0.994232  0.006613  0.021610  1
  Br  Br7  1  0.446437  0.078823  0.814383  1
  Br  Br8  1  0.754577  0.542618  0.908569  1
  Br  Br9  1  0.240337  0.452295  0.073076  1
  Br  Br10  1  0.920583  0.167950  0.637806  1
  Br  Br11  1  0.677059  0.734245  0.561640  1
  Br  Br12  1  0.531678  0.907762  0.172416  1
  Br  Br13  1  0.098342  0.812536  0.370056  1
  Br  Br14  1  0.756427  0.352938  0.235968  1
  Br  Br15  1  0.221538  0.662687  0.749397  1
  Br  Br16  1  0.364868  0.278663  0.444173  1
