# generated using pymatgen
data_Ti6Zn6Ir11Rh
_symmetry_space_group_name_H-M   'P 1'
_cell_length_a   4.35410200
_cell_length_b   6.10474800
_cell_length_c   13.03855300
_cell_angle_alpha   90.00046754
_cell_angle_beta   89.99994732
_cell_angle_gamma   89.99960552
_symmetry_Int_Tables_number   1
_chemical_formula_structural   Ti6Zn6Ir11Rh
_chemical_formula_sum   'Ti6 Zn6 Ir11 Rh1'
_cell_volume   346.57380673
_cell_formula_units_Z   1
loop_
 _symmetry_equiv_pos_site_id
 _symmetry_equiv_pos_as_xyz
  1  'x, y, z'
loop_
 _atom_site_type_symbol
 _atom_site_label
 _atom_site_symmetry_multiplicity
 _atom_site_fract_x
 _atom_site_fract_y
 _atom_site_fract_z
 _atom_site_occupancy
  Ti  Ti0  1  0.000002  0.999410  0.999703  1
  Ti  Ti1  1  0.499884  0.500572  0.166583  1
  Ti  Ti2  1  0.999888  0.999501  0.333333  1
  Ti  Ti3  1  0.500001  0.500572  0.500082  1
  Ti  Ti4  1  0.000115  0.999412  0.666962  1
  Ti  Ti5  1  0.500099  0.500510  0.833334  1
  Zn  Zn6  1  0.000001  0.500764  0.999590  1
  Zn  Zn7  1  0.499703  0.999843  0.166638  1
  Zn  Zn8  1  0.999701  0.500225  0.333349  1
  Zn  Zn9  1  0.500000  0.999843  0.500013  1
  Zn  Zn10  1  0.000298  0.500768  0.667060  1
  Zn  Zn11  1  0.500301  0.998720  0.833348  1
  Ir  Ir12  1  0.500003  0.249914  0.999823  1
  Ir  Ir13  1  0.500002  0.750071  0.000201  1
  Ir  Ir14  1  0.999797  0.249845  0.166532  1
  Ir  Ir15  1  0.999798  0.749725  0.166742  1
  Ir  Ir16  1  0.499795  0.249880  0.333321  1
  Ir  Ir17  1  0.499793  0.750057  0.333320  1
  Ir  Ir18  1  0.000000  0.249831  0.500146  1
  Ir  Ir19  1  0.000000  0.749742  0.499937  1
  Ir  Ir20  1  0.500202  0.249900  0.666855  1
  Ir  Ir21  1  0.500206  0.750086  0.666478  1
  Ir  Ir22  1  0.000202  0.250508  0.833323  1
  Rh  Rh23  1  0.000209  0.750302  0.833328  1
