# generated using pymatgen
data_Tb7UNb11Si16Ru
_symmetry_space_group_name_H-M   'P 1'
_cell_length_a   7.05337657
_cell_length_b   7.05267796
_cell_length_c   13.05822619
_cell_angle_alpha   89.66163116
_cell_angle_beta   90.02704626
_cell_angle_gamma   89.98335359
_symmetry_Int_Tables_number   1
_chemical_formula_structural   Tb7UNb11Si16Ru
_chemical_formula_sum   'Tb7 U1 Nb11 Si16 Ru1'
_cell_volume   649.57256022
_cell_formula_units_Z   1
loop_
 _symmetry_equiv_pos_site_id
 _symmetry_equiv_pos_as_xyz
  1  'x, y, z'
loop_
 _atom_site_type_symbol
 _atom_site_label
 _atom_site_symmetry_multiplicity
 _atom_site_fract_x
 _atom_site_fract_y
 _atom_site_fract_z
 _atom_site_occupancy
  Tb  Tb0  1  0.998235  0.339837  0.219721  1
  Tb  Tb1  1  0.001579  0.661518  0.715222  1
  Tb  Tb2  1  0.159825  0.501233  0.466716  1
  Tb  Tb3  1  0.500221  0.839063  0.034026  1
  Tb  Tb4  1  0.839833  0.501432  0.967254  1
  Tb  Tb5  1  0.497660  0.159614  0.531939  1
  Tb  Tb6  1  0.339559  0.997966  0.782239  1
  U  U7  1  0.661783  0.999158  0.282398  1
  Nb  Nb8  1  0.170162  0.170177  0.000602  1
  Nb  Nb9  1  0.823651  0.832150  0.497247  1
  Nb  Nb10  1  0.332540  0.669359  0.250265  1
  Nb  Nb11  1  0.669766  0.331011  0.749427  1
  Nb  Nb12  1  0.844144  0.007762  0.875693  1
  Nb  Nb13  1  0.503976  0.656635  0.623656  1
  Nb  Nb14  1  0.344293  0.493373  0.875107  1
  Nb  Nb15  1  0.492502  0.336864  0.128307  1
  Nb  Nb16  1  0.655678  0.502618  0.374808  1
  Nb  Nb17  1  0.993725  0.155215  0.624999  1
  Nb  Nb18  1  0.002059  0.845691  0.125593  1
  Si  Si19  1  0.291289  0.037995  0.189643  1
  Si  Si20  1  0.706307  0.956240  0.686497  1
  Si  Si21  1  0.454315  0.796337  0.434098  1
  Si  Si22  1  0.206410  0.543346  0.063950  1
  Si  Si23  1  0.543643  0.206423  0.936525  1
  Si  Si24  1  0.791843  0.455928  0.562379  1
  Si  Si25  1  0.044809  0.294493  0.813031  1
  Si  Si26  1  0.961729  0.719086  0.314175  1
  Si  Si27  1  0.372185  0.288296  0.318797  1
  Si  Si28  1  0.631633  0.703834  0.815438  1
  Si  Si29  1  0.199371  0.871899  0.562429  1
  Si  Si30  1  0.130872  0.796359  0.934029  1
  Si  Si31  1  0.794359  0.131338  0.068189  1
  Si  Si32  1  0.875131  0.196243  0.432331  1
  Si  Si33  1  0.295638  0.368802  0.682800  1
  Si  Si34  1  0.702911  0.628658  0.184395  1
  Ru  Ru35  1  0.166368  0.004049  0.376077  1
