# generated using pymatgen
data_Er6CoSn6Ir5
_symmetry_space_group_name_H-M   'P 1'
_cell_length_a   7.44938000
_cell_length_b   7.44937835
_cell_length_c   7.78674400
_cell_angle_alpha   90.00000000
_cell_angle_beta   90.00000000
_cell_angle_gamma   119.99999073
_symmetry_Int_Tables_number   1
_chemical_formula_structural   Er6CoSn6Ir5
_chemical_formula_sum   'Er6 Co1 Sn6 Ir5'
_cell_volume   374.21977254
_cell_formula_units_Z   1
loop_
 _symmetry_equiv_pos_site_id
 _symmetry_equiv_pos_as_xyz
  1  'x, y, z'
loop_
 _atom_site_type_symbol
 _atom_site_label
 _atom_site_symmetry_multiplicity
 _atom_site_fract_x
 _atom_site_fract_y
 _atom_site_fract_z
 _atom_site_occupancy
  Er  Er0  1  0.000164  0.407770  0.750000  1
  Er  Er1  1  0.592230  0.592395  0.750000  1
  Er  Er2  1  0.407605  0.999836  0.750000  1
  Er  Er3  1  0.999817  0.404035  0.250000  1
  Er  Er4  1  0.595965  0.595781  0.250000  1
  Er  Er5  1  0.404219  0.000183  0.250000  1
  Co  Co6  1  0.000000  0.000000  0.250000  1
  Sn  Sn7  1  0.254962  0.254963  0.493022  1
  Sn  Sn8  1  0.000002  0.745038  0.493022  1
  Sn  Sn9  1  0.000002  0.745038  0.006978  1
  Sn  Sn10  1  0.745037  0.999998  0.493022  1
  Sn  Sn11  1  0.745037  0.999998  0.006978  1
  Sn  Sn12  1  0.254962  0.254963  0.006978  1
  Ir  Ir13  1  0.333333  0.666667  0.498962  1
  Ir  Ir14  1  0.666667  0.333333  0.499586  1
  Ir  Ir15  1  0.333333  0.666667  0.001038  1
  Ir  Ir16  1  0.000000  0.000000  0.750000  1
  Ir  Ir17  1  0.666667  0.333333  0.000414  1
