# generated using pymatgen
data_Nb10Ga6HC
_symmetry_space_group_name_H-M   'P 1'
_cell_length_a   7.79341800
_cell_length_b   7.79341853
_cell_length_c   5.32383900
_cell_angle_alpha   90.00000000
_cell_angle_beta   90.00000000
_cell_angle_gamma   120.00000626
_symmetry_Int_Tables_number   1
_chemical_formula_structural   Nb10Ga6HC
_chemical_formula_sum   'Nb10 Ga6 H1 C1'
_cell_volume   280.03446656
_cell_formula_units_Z   1
loop_
 _symmetry_equiv_pos_site_id
 _symmetry_equiv_pos_as_xyz
  1  'x, y, z'
loop_
 _atom_site_type_symbol
 _atom_site_label
 _atom_site_symmetry_multiplicity
 _atom_site_fract_x
 _atom_site_fract_y
 _atom_site_fract_z
 _atom_site_occupancy
  Nb  Nb0  1  0.234495  0.000000  0.252812  1
  Nb  Nb1  1  0.765505  0.000000  0.747188  1
  Nb  Nb2  1  0.000000  0.234495  0.252812  1
  Nb  Nb3  1  0.000000  0.765505  0.747188  1
  Nb  Nb4  1  0.765505  0.765505  0.252812  1
  Nb  Nb5  1  0.234495  0.234495  0.747188  1
  Nb  Nb6  1  0.333333  0.666667  0.000000  1
  Nb  Nb7  1  0.666667  0.333333  0.000000  1
  Nb  Nb8  1  0.666667  0.333333  0.500000  1
  Nb  Nb9  1  0.333333  0.666667  0.500000  1
  Ga  Ga10  1  0.598537  0.000000  0.247461  1
  Ga  Ga11  1  0.401463  0.000000  0.752539  1
  Ga  Ga12  1  0.000000  0.598537  0.247461  1
  Ga  Ga13  1  0.000000  0.401463  0.752539  1
  Ga  Ga14  1  0.401463  0.401463  0.247461  1
  Ga  Ga15  1  0.598537  0.598537  0.752539  1
  H  H16  1  0.000000  0.000000  0.000000  1
  C  C17  1  0.000000  0.000000  0.500000  1
