# generated using pymatgen
data_Tb6GaTcPd
_symmetry_space_group_name_H-M   'P 1'
_cell_length_a   8.50775206
_cell_length_b   8.50775349
_cell_length_c   8.50775299
_cell_angle_alpha   102.97788224
_cell_angle_beta   111.92591476
_cell_angle_gamma   113.70436829
_symmetry_Int_Tables_number   1
_chemical_formula_structural   Tb6GaTcPd
_chemical_formula_sum   'Tb12 Ga2 Tc2 Pd2'
_cell_volume   469.42515094
_cell_formula_units_Z   2
loop_
 _symmetry_equiv_pos_site_id
 _symmetry_equiv_pos_as_xyz
  1  'x, y, z'
loop_
 _atom_site_type_symbol
 _atom_site_label
 _atom_site_symmetry_multiplicity
 _atom_site_fract_x
 _atom_site_fract_y
 _atom_site_fract_z
 _atom_site_occupancy
  Tb  Tb0  1  0.691251  0.261834  0.953085  1
  Tb  Tb1  1  0.308749  0.738166  0.046915  1
  Tb  Tb2  1  0.691251  0.738166  0.429417  1
  Tb  Tb3  1  0.308749  0.261834  0.570583  1
  Tb  Tb4  1  0.810366  0.150537  0.340170  1
  Tb  Tb5  1  0.810366  0.470196  0.659830  1
  Tb  Tb6  1  0.189634  0.849463  0.659830  1
  Tb  Tb7  1  0.189634  0.529804  0.340170  1
  Tb  Tb8  1  0.595199  0.776859  0.818340  1
  Tb  Tb9  1  0.958518  0.776859  0.181660  1
  Tb  Tb10  1  0.041482  0.223141  0.818340  1
  Tb  Tb11  1  0.404801  0.223141  0.181660  1
  Ga  Ga12  1  0.500000  0.500000  0.000000  1
  Ga  Ga13  1  0.500000  0.000000  0.500000  1
  Tc  Tc14  1  0.819418  0.500000  0.319418  1
  Tc  Tc15  1  0.180582  0.500000  0.680582  1
  Pd  Pd16  1  0.000000  0.129345  0.129345  1
  Pd  Pd17  1  0.000000  0.870655  0.870655  1
