# generated using pymatgen
data_Er5Tm(CoI3)2
_symmetry_space_group_name_H-M   'P 1'
_cell_length_a   4.08684800
_cell_length_b   8.84963324
_cell_length_c   12.22684812
_cell_angle_alpha   86.68719979
_cell_angle_beta   90.00000000
_cell_angle_gamma   90.00000000
_symmetry_Int_Tables_number   1
_chemical_formula_structural   Er5Tm(CoI3)2
_chemical_formula_sum   'Er5 Tm1 Co2 I6'
_cell_volume   441.47074825
_cell_formula_units_Z   1
loop_
 _symmetry_equiv_pos_site_id
 _symmetry_equiv_pos_as_xyz
  1  'x, y, z'
loop_
 _atom_site_type_symbol
 _atom_site_label
 _atom_site_symmetry_multiplicity
 _atom_site_fract_x
 _atom_site_fract_y
 _atom_site_fract_z
 _atom_site_occupancy
  Er  Er0  1  0.750000  0.131693  0.122703  1
  Er  Er1  1  0.250000  0.868964  0.877714  1
  Er  Er2  1  0.750000  0.093724  0.693106  1
  Er  Er3  1  0.250000  0.905236  0.306700  1
  Er  Er4  1  0.250000  0.253232  0.901075  1
  Tm  Tm5  1  0.750000  0.749472  0.098713  1
  Co  Co6  1  0.750000  0.054333  0.909908  1
  Co  Co7  1  0.250000  0.945846  0.090197  1
  I  I8  1  0.250000  0.350006  0.640837  1
  I  I9  1  0.750000  0.648974  0.358724  1
  I  I10  1  0.750000  0.142582  0.389371  1
  I  I11  1  0.250000  0.856498  0.610426  1
  I  I12  1  0.250000  0.419910  0.132452  1
  I  I13  1  0.750000  0.579531  0.868073  1
