# generated using pymatgen
data_LiLa5Pr3CdIr2
_symmetry_space_group_name_H-M   'P 1'
_cell_length_a   10.10779300
_cell_length_b   10.10779317
_cell_length_c   10.10620900
_cell_angle_alpha   60.00518765
_cell_angle_beta   60.00518708
_cell_angle_gamma   59.99157385
_symmetry_Int_Tables_number   1
_chemical_formula_structural   LiLa5Pr3CdIr2
_chemical_formula_sum   'Li2 La10 Pr6 Cd2 Ir4'
_cell_volume   730.11680169
_cell_formula_units_Z   2
loop_
 _symmetry_equiv_pos_site_id
 _symmetry_equiv_pos_as_xyz
  1  'x, y, z'
loop_
 _atom_site_type_symbol
 _atom_site_label
 _atom_site_symmetry_multiplicity
 _atom_site_fract_x
 _atom_site_fract_y
 _atom_site_fract_z
 _atom_site_occupancy
  Li  Li0  1  0.571957  0.571957  0.576757  1
  Li  Li1  1  0.571957  0.571957  0.279329  1
  La  La2  1  0.347438  0.347438  0.348309  1
  La  La3  1  0.347438  0.347438  0.956814  1
  La  La4  1  0.346595  0.960833  0.346286  1
  La  La5  1  0.960833  0.346595  0.346286  1
  La  La6  1  0.811391  0.188907  0.189800  1
  La  La7  1  0.188907  0.811391  0.809901  1
  La  La8  1  0.188907  0.811391  0.189800  1
  La  La9  1  0.811391  0.188907  0.809901  1
  La  La10  1  0.192061  0.192061  0.807939  1
  La  La11  1  0.815035  0.815035  0.184965  1
  Pr  Pr12  1  0.937892  0.562582  0.563002  1
  Pr  Pr13  1  0.562582  0.937892  0.936524  1
  Pr  Pr14  1  0.562582  0.937892  0.563002  1
  Pr  Pr15  1  0.937892  0.562582  0.936524  1
  Pr  Pr16  1  0.563197  0.563197  0.936803  1
  Pr  Pr17  1  0.937738  0.937738  0.562262  1
  Cd  Cd18  1  0.582357  0.257918  0.579862  1
  Cd  Cd19  1  0.257918  0.582357  0.579862  1
  Ir  Ir20  1  0.142009  0.142009  0.140331  1
  Ir  Ir21  1  0.142009  0.142009  0.575650  1
  Ir  Ir22  1  0.142875  0.577035  0.140045  1
  Ir  Ir23  1  0.577035  0.142875  0.140045  1
