# generated using pymatgen
data_YbPu3F15
_symmetry_space_group_name_H-M   'P 1'
_cell_length_a   8.56135390
_cell_length_b   8.56135346
_cell_length_c   8.48332713
_cell_angle_alpha   80.30045258
_cell_angle_beta   80.30045356
_cell_angle_gamma   101.19034780
_symmetry_Int_Tables_number   1
_chemical_formula_structural   YbPu3F15
_chemical_formula_sum   'Yb2 Pu6 F30'
_cell_volume   588.10215109
_cell_formula_units_Z   2
loop_
 _symmetry_equiv_pos_site_id
 _symmetry_equiv_pos_as_xyz
  1  'x, y, z'
loop_
 _atom_site_type_symbol
 _atom_site_label
 _atom_site_symmetry_multiplicity
 _atom_site_fract_x
 _atom_site_fract_y
 _atom_site_fract_z
 _atom_site_occupancy
  Yb  Yb0  1  0.178100  0.821900  0.250000  1
  Yb  Yb1  1  0.821900  0.178100  0.750000  1
  Pu  Pu2  1  0.747805  0.252195  0.250000  1
  Pu  Pu3  1  0.252195  0.747805  0.750000  1
  Pu  Pu4  1  0.762067  0.677400  0.671444  1
  Pu  Pu5  1  0.322600  0.237933  0.828556  1
  Pu  Pu6  1  0.237933  0.322600  0.328556  1
  Pu  Pu7  1  0.677400  0.762067  0.171444  1
  F  F8  1  0.470254  0.529746  0.250000  1
  F  F9  1  0.750759  0.964000  0.969933  1
  F  F10  1  0.036000  0.249241  0.530067  1
  F  F11  1  0.249241  0.036000  0.030067  1
  F  F12  1  0.964000  0.750759  0.469933  1
  F  F13  1  0.529746  0.470254  0.750000  1
  F  F14  1  0.776024  0.280096  0.996722  1
  F  F15  1  0.009778  0.276511  0.211468  1
  F  F16  1  0.784870  0.506995  0.224791  1
  F  F17  1  0.506995  0.784870  0.724791  1
  F  F18  1  0.276511  0.009778  0.711468  1
  F  F19  1  0.280096  0.776024  0.496722  1
  F  F20  1  0.223976  0.719904  0.003278  1
  F  F21  1  0.990222  0.723489  0.788532  1
  F  F22  1  0.215130  0.493005  0.775209  1
  F  F23  1  0.493005  0.215130  0.275209  1
  F  F24  1  0.723489  0.990222  0.288532  1
  F  F25  1  0.719904  0.223976  0.503278  1
  F  F26  1  0.320682  0.349604  0.049342  1
  F  F27  1  0.933755  0.809018  0.154474  1
  F  F28  1  0.837956  0.454525  0.681231  1
  F  F29  1  0.454525  0.837956  0.181231  1
  F  F30  1  0.809018  0.933755  0.654474  1
  F  F31  1  0.349604  0.320682  0.549342  1
  F  F32  1  0.679318  0.650396  0.950658  1
  F  F33  1  0.066245  0.190982  0.845526  1
  F  F34  1  0.162044  0.545475  0.318769  1
  F  F35  1  0.545475  0.162044  0.818769  1
  F  F36  1  0.190982  0.066245  0.345526  1
  F  F37  1  0.650396  0.679318  0.450658  1
