# generated using pymatgen
data_CeTaFe4P3
_symmetry_space_group_name_H-M   'P 1'
_cell_length_a   3.71840800
_cell_length_b   10.65212500
_cell_length_c   12.13215300
_cell_angle_alpha   90.00000000
_cell_angle_beta   90.00000000
_cell_angle_gamma   90.00000000
_symmetry_Int_Tables_number   1
_chemical_formula_structural   CeTaFe4P3
_chemical_formula_sum   'Ce4 Ta4 Fe16 P12'
_cell_volume   480.54180295
_cell_formula_units_Z   4
loop_
 _symmetry_equiv_pos_site_id
 _symmetry_equiv_pos_as_xyz
  1  'x, y, z'
loop_
 _atom_site_type_symbol
 _atom_site_label
 _atom_site_symmetry_multiplicity
 _atom_site_fract_x
 _atom_site_fract_y
 _atom_site_fract_z
 _atom_site_occupancy
  Ce  Ce0  1  0.250000  0.582380  0.706145  1
  Ce  Ce1  1  0.250000  0.917620  0.206145  1
  Ce  Ce2  1  0.750000  0.417620  0.293855  1
  Ce  Ce3  1  0.750000  0.082380  0.793855  1
  Ta  Ta4  1  0.250000  0.699197  0.992248  1
  Ta  Ta5  1  0.250000  0.800803  0.492248  1
  Ta  Ta6  1  0.750000  0.300803  0.007752  1
  Ta  Ta7  1  0.750000  0.199197  0.507752  1
  Fe  Fe8  1  0.250000  0.406177  0.487295  1
  Fe  Fe9  1  0.250000  0.093823  0.987295  1
  Fe  Fe10  1  0.750000  0.593823  0.512705  1
  Fe  Fe11  1  0.750000  0.906177  0.012705  1
  Fe  Fe12  1  0.250000  0.218959  0.172141  1
  Fe  Fe13  1  0.250000  0.281041  0.672141  1
  Fe  Fe14  1  0.750000  0.781041  0.827859  1
  Fe  Fe15  1  0.750000  0.718959  0.327859  1
  Fe  Fe16  1  0.250000  0.880163  0.703965  1
  Fe  Fe17  1  0.250000  0.619837  0.203965  1
  Fe  Fe18  1  0.750000  0.119837  0.296035  1
  Fe  Fe19  1  0.750000  0.380163  0.796035  1
  Fe  Fe20  1  0.250000  0.464295  0.931943  1
  Fe  Fe21  1  0.250000  0.035705  0.431943  1
  Fe  Fe22  1  0.750000  0.535705  0.068057  1
  Fe  Fe23  1  0.750000  0.964295  0.568057  1
  P  P24  1  0.250000  0.427526  0.113494  1
  P  P25  1  0.250000  0.072474  0.613494  1
  P  P26  1  0.750000  0.572474  0.886506  1
  P  P27  1  0.750000  0.927526  0.386506  1
  P  P28  1  0.250000  0.273417  0.858821  1
  P  P29  1  0.250000  0.226583  0.358821  1
  P  P30  1  0.750000  0.726583  0.141179  1
  P  P31  1  0.750000  0.773417  0.641179  1
  P  P32  1  0.250000  0.592868  0.391812  1
  P  P33  1  0.250000  0.907132  0.891812  1
  P  P34  1  0.750000  0.407132  0.608188  1
  P  P35  1  0.750000  0.092868  0.108188  1
