# generated using pymatgen
data_Sc5Ni16(MoAs4)3
_symmetry_space_group_name_H-M   'P 1'
_cell_length_a   12.51415800
_cell_length_b   12.51415786
_cell_length_c   3.76006200
_cell_angle_alpha   90.00000000
_cell_angle_beta   90.00000000
_cell_angle_gamma   120.00000565
_symmetry_Int_Tables_number   1
_chemical_formula_structural   Sc5Ni16(MoAs4)3
_chemical_formula_sum   'Sc5 Ni16 Mo3 As12'
_cell_volume   509.95150313
_cell_formula_units_Z   1
loop_
 _symmetry_equiv_pos_site_id
 _symmetry_equiv_pos_as_xyz
  1  'x, y, z'
loop_
 _atom_site_type_symbol
 _atom_site_label
 _atom_site_symmetry_multiplicity
 _atom_site_fract_x
 _atom_site_fract_y
 _atom_site_fract_z
 _atom_site_occupancy
  Sc  Sc0  1  0.180109  0.180109  0.500000  1
  Sc  Sc1  1  0.819891  0.000000  0.500000  1
  Sc  Sc2  1  0.000000  0.819891  0.500000  1
  Sc  Sc3  1  0.333333  0.666667  0.000000  1
  Sc  Sc4  1  0.666667  0.333333  0.000000  1
  Ni  Ni5  1  0.716779  0.716779  0.500000  1
  Ni  Ni6  1  0.283221  0.000000  0.500000  1
  Ni  Ni7  1  0.000000  0.283221  0.500000  1
  Ni  Ni8  1  0.179598  0.373858  0.000000  1
  Ni  Ni9  1  0.626142  0.805740  0.000000  1
  Ni  Ni10  1  0.194260  0.820402  0.000000  1
  Ni  Ni11  1  0.805740  0.626142  0.000000  1
  Ni  Ni12  1  0.820402  0.194260  0.000000  1
  Ni  Ni13  1  0.373858  0.179598  0.000000  1
  Ni  Ni14  1  0.354429  0.479913  0.500000  1
  Ni  Ni15  1  0.520087  0.874516  0.500000  1
  Ni  Ni16  1  0.125484  0.645571  0.500000  1
  Ni  Ni17  1  0.874516  0.520087  0.500000  1
  Ni  Ni18  1  0.645571  0.125484  0.500000  1
  Ni  Ni19  1  0.479913  0.354429  0.500000  1
  Ni  Ni20  1  0.000000  0.000000  0.000000  1
  Mo  Mo21  1  0.555558  0.555558  0.000000  1
  Mo  Mo22  1  0.444442  0.000000  0.000000  1
  Mo  Mo23  1  0.000000  0.444442  0.000000  1
  As  As24  1  0.823945  0.823945  0.000000  1
  As  As25  1  0.176055  0.000000  0.000000  1
  As  As26  1  0.000000  0.176055  0.000000  1
  As  As27  1  0.169417  0.486979  0.500000  1
  As  As28  1  0.513021  0.682437  0.500000  1
  As  As29  1  0.317563  0.830583  0.500000  1
  As  As30  1  0.682437  0.513021  0.500000  1
  As  As31  1  0.830583  0.317563  0.500000  1
  As  As32  1  0.486979  0.169417  0.500000  1
  As  As33  1  0.355768  0.355768  0.000000  1
  As  As34  1  0.644232  0.000000  0.000000  1
  As  As35  1  0.000000  0.644232  0.000000  1
