# generated using pymatgen
data_Ni8Bi8SCl2
_symmetry_space_group_name_H-M   'P 1'
_cell_length_a   4.16184700
_cell_length_b   9.95026200
_cell_length_c   20.45781900
_cell_angle_alpha   90.00000000
_cell_angle_beta   90.00000000
_cell_angle_gamma   90.00000000
_symmetry_Int_Tables_number   1
_chemical_formula_structural   Ni8Bi8SCl2
_chemical_formula_sum   'Ni16 Bi16 S2 Cl4'
_cell_volume   847.18831797
_cell_formula_units_Z   2
loop_
 _symmetry_equiv_pos_site_id
 _symmetry_equiv_pos_as_xyz
  1  'x, y, z'
loop_
 _atom_site_type_symbol
 _atom_site_label
 _atom_site_symmetry_multiplicity
 _atom_site_fract_x
 _atom_site_fract_y
 _atom_site_fract_z
 _atom_site_occupancy
  Ni  Ni0  1  0.750917  0.311173  0.969696  1
  Ni  Ni1  1  0.750917  0.688827  0.030304  1
  Ni  Ni2  1  0.249083  0.811173  0.530304  1
  Ni  Ni3  1  0.249083  0.188827  0.469696  1
  Ni  Ni4  1  0.249944  0.588875  0.089118  1
  Ni  Ni5  1  0.249944  0.411125  0.910882  1
  Ni  Ni6  1  0.750056  0.088875  0.410882  1
  Ni  Ni7  1  0.750056  0.911125  0.589118  1
  Ni  Ni8  1  0.248567  0.322598  0.043094  1
  Ni  Ni9  1  0.248567  0.677402  0.956906  1
  Ni  Ni10  1  0.751433  0.822598  0.456906  1
  Ni  Ni11  1  0.751433  0.177402  0.543094  1
  Ni  Ni12  1  0.750440  0.437703  0.092101  1
  Ni  Ni13  1  0.750440  0.562297  0.907899  1
  Ni  Ni14  1  0.249560  0.937703  0.407899  1
  Ni  Ni15  1  0.249560  0.062297  0.592101  1
  Bi  Bi16  1  0.248059  0.381022  0.174630  1
  Bi  Bi17  1  0.248059  0.618978  0.825370  1
  Bi  Bi18  1  0.751941  0.881022  0.325370  1
  Bi  Bi19  1  0.751941  0.118978  0.674630  1
  Bi  Bi20  1  0.750717  0.165841  0.084174  1
  Bi  Bi21  1  0.750717  0.834159  0.915826  1
  Bi  Bi22  1  0.249283  0.665841  0.415826  1
  Bi  Bi23  1  0.249283  0.334159  0.584174  1
  Bi  Bi24  1  0.249146  0.143773  0.942551  1
  Bi  Bi25  1  0.249146  0.856227  0.057449  1
  Bi  Bi26  1  0.750854  0.643773  0.557449  1
  Bi  Bi27  1  0.750854  0.356227  0.442551  1
  Bi  Bi28  1  0.751966  0.668376  0.164585  1
  Bi  Bi29  1  0.751966  0.331624  0.835415  1
  Bi  Bi30  1  0.248034  0.168376  0.335415  1
  Bi  Bi31  1  0.248034  0.831624  0.664585  1
  S  S32  1  0.496881  0.500000  0.000000  1
  S  S33  1  0.503119  0.000000  0.500000  1
  Cl  Cl34  1  0.244823  0.006890  0.795054  1
  Cl  Cl35  1  0.244823  0.993110  0.204946  1
  Cl  Cl36  1  0.755177  0.506890  0.704946  1
  Cl  Cl37  1  0.755177  0.493110  0.295054  1
