# generated using pymatgen
data_Ta8Nb2Al4Au
_symmetry_space_group_name_H-M   'P 1'
_cell_length_a   9.94151600
_cell_length_b   9.94151600
_cell_length_c   5.25155200
_cell_angle_alpha   90.00000000
_cell_angle_beta   90.00000000
_cell_angle_gamma   90.00000000
_symmetry_Int_Tables_number   1
_chemical_formula_structural   Ta8Nb2Al4Au
_chemical_formula_sum   'Ta16 Nb4 Al8 Au2'
_cell_volume   519.03052695
_cell_formula_units_Z   2
loop_
 _symmetry_equiv_pos_site_id
 _symmetry_equiv_pos_as_xyz
  1  'x, y, z'
loop_
 _atom_site_type_symbol
 _atom_site_label
 _atom_site_symmetry_multiplicity
 _atom_site_fract_x
 _atom_site_fract_y
 _atom_site_fract_z
 _atom_site_occupancy
  Ta  Ta0  1  0.130790  0.463855  0.000000  1
  Ta  Ta1  1  0.963855  0.369210  0.500000  1
  Ta  Ta2  1  0.036145  0.630790  0.500000  1
  Ta  Ta3  1  0.869210  0.536145  0.000000  1
  Ta  Ta4  1  0.369210  0.963855  0.500000  1
  Ta  Ta5  1  0.630790  0.036145  0.500000  1
  Ta  Ta6  1  0.463855  0.130790  0.000000  1
  Ta  Ta7  1  0.536145  0.869210  0.000000  1
  Ta  Ta8  1  0.184644  0.184644  0.251714  1
  Ta  Ta9  1  0.684644  0.315356  0.751714  1
  Ta  Ta10  1  0.315356  0.684644  0.751714  1
  Ta  Ta11  1  0.815356  0.815356  0.251714  1
  Ta  Ta12  1  0.315356  0.684644  0.248286  1
  Ta  Ta13  1  0.684644  0.315356  0.248286  1
  Ta  Ta14  1  0.184644  0.184644  0.748286  1
  Ta  Ta15  1  0.815356  0.815356  0.748286  1
  Nb  Nb16  1  0.397846  0.397846  0.000000  1
  Nb  Nb17  1  0.897846  0.102154  0.500000  1
  Nb  Nb18  1  0.102154  0.897846  0.500000  1
  Nb  Nb19  1  0.602154  0.602154  0.000000  1
  Al  Al20  1  0.260591  0.934642  0.000000  1
  Al  Al21  1  0.434642  0.239409  0.500000  1
  Al  Al22  1  0.565358  0.760591  0.500000  1
  Al  Al23  1  0.739409  0.065358  0.000000  1
  Al  Al24  1  0.239409  0.434642  0.500000  1
  Al  Al25  1  0.760591  0.565358  0.500000  1
  Al  Al26  1  0.934642  0.260591  0.000000  1
  Al  Al27  1  0.065358  0.739409  0.000000  1
  Au  Au28  1  0.000000  0.000000  0.000000  1
  Au  Au29  1  0.500000  0.500000  0.500000  1
