# generated using pymatgen
data_Dy2YAlSn2Pt3
_symmetry_space_group_name_H-M   'P 1'
_cell_length_a   7.59014768
_cell_length_b   7.59014787
_cell_length_c   3.87478500
_cell_angle_alpha   90.00000000
_cell_angle_beta   90.00000000
_cell_angle_gamma   120.85726872
_symmetry_Int_Tables_number   1
_chemical_formula_structural   Dy2YAlSn2Pt3
_chemical_formula_sum   'Dy2 Y1 Al1 Sn2 Pt3'
_cell_volume   191.62929296
_cell_formula_units_Z   1
loop_
 _symmetry_equiv_pos_site_id
 _symmetry_equiv_pos_as_xyz
  1  'x, y, z'
loop_
 _atom_site_type_symbol
 _atom_site_label
 _atom_site_symmetry_multiplicity
 _atom_site_fract_x
 _atom_site_fract_y
 _atom_site_fract_z
 _atom_site_occupancy
  Dy  Dy0  1  0.594558  0.993204  0.500000  1
  Dy  Dy1  1  0.993204  0.594558  0.500000  1
  Y  Y2  1  0.412888  0.412888  0.500000  1
  Al  Al3  1  0.743185  0.743185  0.000000  1
  Sn  Sn4  1  0.257704  0.998007  0.000000  1
  Sn  Sn5  1  0.998007  0.257704  0.000000  1
  Pt  Pt6  1  0.671091  0.350317  0.000000  1
  Pt  Pt7  1  0.350317  0.671091  0.000000  1
  Pt  Pt8  1  0.979045  0.979045  0.500000  1
