# generated using pymatgen
data_NdErTm3(MnB3)2
_symmetry_space_group_name_H-M   'P 1'
_cell_length_a   5.39516052
_cell_length_b   5.39516054
_cell_length_c   8.25361015
_cell_angle_alpha   70.92313370
_cell_angle_beta   70.92313149
_cell_angle_gamma   60.00001544
_symmetry_Int_Tables_number   1
_chemical_formula_structural   NdErTm3(MnB3)2
_chemical_formula_sum   'Nd1 Er1 Tm3 Mn2 B6'
_cell_volume   192.67188455
_cell_formula_units_Z   1
loop_
 _symmetry_equiv_pos_site_id
 _symmetry_equiv_pos_as_xyz
  1  'x, y, z'
loop_
 _atom_site_type_symbol
 _atom_site_label
 _atom_site_symmetry_multiplicity
 _atom_site_fract_x
 _atom_site_fract_y
 _atom_site_fract_z
 _atom_site_occupancy
  Nd  Nd0  1  0.000044  0.000044  0.999867  1
  Er  Er1  1  0.249527  0.249527  0.251417  1
  Tm  Tm2  1  0.750896  0.750896  0.747314  1
  Tm  Tm3  1  0.418124  0.418124  0.745629  1
  Tm  Tm4  1  0.581818  0.581818  0.254545  1
  Mn  Mn5  1  0.114087  0.114087  0.657737  1
  Mn  Mn6  1  0.885870  0.885870  0.342392  1
  B  B7  1  0.166468  0.833249  0.500183  1
  B  B8  1  0.833249  0.500099  0.500183  1
  B  B9  1  0.500099  0.166468  0.500183  1
  B  B10  1  0.166468  0.500099  0.500183  1
  B  B11  1  0.500099  0.833249  0.500183  1
  B  B12  1  0.833249  0.166468  0.500183  1
