# generated using pymatgen
data_Hf9ReMo3P
_symmetry_space_group_name_H-M   'P 1'
_cell_length_a   8.62678100
_cell_length_b   8.62678032
_cell_length_c   8.63001400
_cell_angle_alpha   90.00000000
_cell_angle_beta   90.00000000
_cell_angle_gamma   119.99999878
_symmetry_Int_Tables_number   1
_chemical_formula_structural   Hf9ReMo3P
_chemical_formula_sum   'Hf18 Re2 Mo6 P2'
_cell_volume   556.21109700
_cell_formula_units_Z   2
loop_
 _symmetry_equiv_pos_site_id
 _symmetry_equiv_pos_as_xyz
  1  'x, y, z'
loop_
 _atom_site_type_symbol
 _atom_site_label
 _atom_site_symmetry_multiplicity
 _atom_site_fract_x
 _atom_site_fract_y
 _atom_site_fract_z
 _atom_site_occupancy
  Hf  Hf0  1  0.197072  0.802928  0.452582  1
  Hf  Hf1  1  0.197072  0.394143  0.452582  1
  Hf  Hf2  1  0.605857  0.802928  0.452582  1
  Hf  Hf3  1  0.802928  0.197072  0.547418  1
  Hf  Hf4  1  0.802928  0.605857  0.547418  1
  Hf  Hf5  1  0.394143  0.197072  0.547418  1
  Hf  Hf6  1  0.802928  0.197072  0.952582  1
  Hf  Hf7  1  0.802928  0.605857  0.952582  1
  Hf  Hf8  1  0.394143  0.197072  0.952582  1
  Hf  Hf9  1  0.197072  0.802928  0.047418  1
  Hf  Hf10  1  0.197072  0.394143  0.047418  1
  Hf  Hf11  1  0.605857  0.802928  0.047418  1
  Hf  Hf12  1  0.538417  0.461583  0.250000  1
  Hf  Hf13  1  0.538417  0.076833  0.250000  1
  Hf  Hf14  1  0.923167  0.461583  0.250000  1
  Hf  Hf15  1  0.461583  0.538417  0.750000  1
  Hf  Hf16  1  0.461583  0.923167  0.750000  1
  Hf  Hf17  1  0.076833  0.538417  0.750000  1
  Re  Re18  1  0.000000  0.000000  0.500000  1
  Re  Re19  1  0.000000  0.000000  0.000000  1
  Mo  Mo20  1  0.890018  0.109982  0.250000  1
  Mo  Mo21  1  0.890018  0.780035  0.250000  1
  Mo  Mo22  1  0.219965  0.109982  0.250000  1
  Mo  Mo23  1  0.109982  0.890018  0.750000  1
  Mo  Mo24  1  0.109982  0.219965  0.750000  1
  Mo  Mo25  1  0.780035  0.890018  0.750000  1
  P  P26  1  0.333333  0.666667  0.250000  1
  P  P27  1  0.666667  0.333333  0.750000  1
