# generated using pymatgen
data_Nd3AlSe6
_symmetry_space_group_name_H-M   'P 1'
_cell_length_a   9.18899037
_cell_length_b   9.18898993
_cell_length_c   6.96132800
_cell_angle_alpha   90.00000000
_cell_angle_beta   90.00000000
_cell_angle_gamma   102.33275644
_symmetry_Int_Tables_number   1
_chemical_formula_structural   Nd3AlSe6
_chemical_formula_sum   'Nd6 Al2 Se12'
_cell_volume   574.23317740
_cell_formula_units_Z   2
loop_
 _symmetry_equiv_pos_site_id
 _symmetry_equiv_pos_as_xyz
  1  'x, y, z'
loop_
 _atom_site_type_symbol
 _atom_site_label
 _atom_site_symmetry_multiplicity
 _atom_site_fract_x
 _atom_site_fract_y
 _atom_site_fract_z
 _atom_site_occupancy
  Nd  Nd0  1  0.281987  0.083972  0.227153  1
  Nd  Nd1  1  0.916028  0.718013  0.227153  1
  Nd  Nd2  1  0.718013  0.916028  0.727153  1
  Nd  Nd3  1  0.083972  0.281987  0.727153  1
  Nd  Nd4  1  0.399661  0.600339  0.134749  1
  Nd  Nd5  1  0.600339  0.399661  0.634749  1
  Al  Al6  1  0.199997  0.800003  0.767418  1
  Al  Al7  1  0.800003  0.199997  0.267418  1
  Se  Se8  1  0.571679  0.099219  0.435025  1
  Se  Se9  1  0.900781  0.428321  0.435025  1
  Se  Se10  1  0.428321  0.900781  0.935025  1
  Se  Se11  1  0.099219  0.571679  0.935025  1
  Se  Se12  1  0.633423  0.690175  0.431729  1
  Se  Se13  1  0.309825  0.366577  0.431729  1
  Se  Se14  1  0.366577  0.309825  0.931729  1
  Se  Se15  1  0.690175  0.633423  0.931729  1
  Se  Se16  1  0.217925  0.782075  0.422959  1
  Se  Se17  1  0.782075  0.217925  0.922959  1
  Se  Se18  1  0.958342  0.041658  0.402063  1
  Se  Se19  1  0.041658  0.958342  0.902063  1
