# generated using pymatgen
data_K8Fe3Ni5P8(O7F2)4
_symmetry_space_group_name_H-M   'P 1'
_cell_length_a   6.94419900
_cell_length_b   10.57902200
_cell_length_c   11.41415900
_cell_angle_alpha   90.00000000
_cell_angle_beta   90.00000000
_cell_angle_gamma   90.00000000
_symmetry_Int_Tables_number   1
_chemical_formula_structural   K8Fe3Ni5P8(O7F2)4
_chemical_formula_sum   'K8 Fe3 Ni5 P8 O28 F8'
_cell_volume   838.51646779
_cell_formula_units_Z   1
loop_
 _symmetry_equiv_pos_site_id
 _symmetry_equiv_pos_as_xyz
  1  'x, y, z'
loop_
 _atom_site_type_symbol
 _atom_site_label
 _atom_site_symmetry_multiplicity
 _atom_site_fract_x
 _atom_site_fract_y
 _atom_site_fract_z
 _atom_site_occupancy
  K  K0  1  0.495579  0.064104  0.823157  1
  K  K1  1  0.002430  0.563162  0.674744  1
  K  K2  1  0.994341  0.936389  0.675602  1
  K  K3  1  0.503404  0.435224  0.824255  1
  K  K4  1  0.500778  0.935814  0.174877  1
  K  K5  1  0.000410  0.436436  0.326485  1
  K  K6  1  0.001561  0.063744  0.326073  1
  K  K7  1  0.500822  0.565055  0.174480  1
  Fe  Fe8  1  0.999376  0.752160  0.161580  1
  Fe  Fe9  1  0.500225  0.249968  0.339811  1
  Fe  Fe10  1  0.000578  0.499816  0.996623  1
  Ni  Ni11  1  0.000254  0.247700  0.839366  1
  Ni  Ni12  1  0.499826  0.750150  0.660087  1
  Ni  Ni13  1  0.000298  0.000623  0.996969  1
  Ni  Ni14  1  0.498769  0.500172  0.503212  1
  Ni  Ni15  1  0.499983  0.999464  0.502655  1
  P  P16  1  0.217123  0.247604  0.583541  1
  P  P17  1  0.283329  0.750542  0.915579  1
  P  P18  1  0.716985  0.756109  0.915938  1
  P  P19  1  0.782458  0.251679  0.583811  1
  P  P20  1  0.781344  0.752836  0.422958  1
  P  P21  1  0.718251  0.250528  0.078137  1
  P  P22  1  0.282105  0.243521  0.077289  1
  P  P23  1  0.218468  0.747339  0.423005  1
  O  O24  1  0.999731  0.250479  0.523639  1
  O  O25  1  0.499575  0.756798  0.975541  1
  O  O26  1  0.999855  0.749872  0.481495  1
  O  O27  1  0.501007  0.243916  0.019438  1
  O  O28  1  0.173034  0.323279  0.984769  1
  O  O29  1  0.330597  0.828225  0.513555  1
  O  O30  1  0.669405  0.671624  0.513452  1
  O  O31  1  0.832822  0.170684  0.988075  1
  O  O32  1  0.825650  0.673522  0.005911  1
  O  O33  1  0.671356  0.167994  0.495447  1
  O  O34  1  0.328214  0.331787  0.495447  1
  O  O35  1  0.169183  0.832896  0.003183  1
  O  O36  1  0.280391  0.108938  0.584047  1
  O  O37  1  0.224311  0.610844  0.916300  1
  O  O38  1  0.782330  0.894257  0.912232  1
  O  O39  1  0.718000  0.390114  0.585388  1
  O  O40  1  0.719856  0.891785  0.419024  1
  O  O41  1  0.775816  0.390385  0.080229  1
  O  O42  1  0.218993  0.105005  0.083232  1
  O  O43  1  0.280037  0.608354  0.419186  1
  O  O44  1  0.199287  0.304856  0.706582  1
  O  O45  1  0.299406  0.806307  0.791898  1
  O  O46  1  0.698109  0.695787  0.794006  1
  O  O47  1  0.801713  0.192904  0.706216  1
  O  O48  1  0.796246  0.692673  0.300966  1
  O  O49  1  0.705517  0.192133  0.200769  1
  O  O50  1  0.296779  0.305955  0.198283  1
  O  O51  1  0.203510  0.808162  0.301398  1
  F  F52  1  0.109418  0.073206  0.847808  1
  F  F53  1  0.392792  0.574075  0.652308  1
  F  F54  1  0.606680  0.925859  0.651469  1
  F  F55  1  0.888361  0.421566  0.844904  1
  F  F56  1  0.891257  0.928242  0.148854  1
  F  F57  1  0.606065  0.427581  0.351262  1
  F  F58  1  0.393769  0.072631  0.350993  1
  F  F59  1  0.112232  0.577165  0.152458  1
