# generated using pymatgen
data_GdGaF6
_symmetry_space_group_name_H-M   'P 1'
_cell_length_a   5.88394762
_cell_length_b   5.88394670
_cell_length_c   5.88394700
_cell_angle_alpha   59.99999268
_cell_angle_beta   59.99999785
_cell_angle_gamma   59.99999665
_symmetry_Int_Tables_number   1
_chemical_formula_structural   GdGaF6
_chemical_formula_sum   'Gd1 Ga1 F6'
_cell_volume   144.04269547
_cell_formula_units_Z   1
loop_
 _symmetry_equiv_pos_site_id
 _symmetry_equiv_pos_as_xyz
  1  'x, y, z'
loop_
 _atom_site_type_symbol
 _atom_site_label
 _atom_site_symmetry_multiplicity
 _atom_site_fract_x
 _atom_site_fract_y
 _atom_site_fract_z
 _atom_site_occupancy
  Gd  Gd0  1  0.500000  0.500000  0.500000  1
  Ga  Ga1  1  0.000000  0.000000  0.000000  1
  F  F2  1  0.231244  0.768755  0.231244  1
  F  F3  1  0.768756  0.768756  0.231243  1
  F  F4  1  0.768755  0.231244  0.231244  1
  F  F5  1  0.768756  0.231243  0.768756  1
  F  F6  1  0.231244  0.231244  0.768755  1
  F  F7  1  0.231243  0.768756  0.768756  1
