# generated using pymatgen
data_Gd5Y4Ho(SiB4)4
_symmetry_space_group_name_H-M   'P 1'
_cell_length_a   7.24482007
_cell_length_b   7.24486801
_cell_length_c   8.12363503
_cell_angle_alpha   89.99392081
_cell_angle_beta   89.99221455
_cell_angle_gamma   89.99385487
_symmetry_Int_Tables_number   1
_chemical_formula_structural   Gd5Y4Ho(SiB4)4
_chemical_formula_sum   'Gd5 Y4 Ho1 Si4 B16'
_cell_volume   426.39143899
_cell_formula_units_Z   1
loop_
 _symmetry_equiv_pos_site_id
 _symmetry_equiv_pos_as_xyz
  1  'x, y, z'
loop_
 _atom_site_type_symbol
 _atom_site_label
 _atom_site_symmetry_multiplicity
 _atom_site_fract_x
 _atom_site_fract_y
 _atom_site_fract_z
 _atom_site_occupancy
  Gd  Gd0  1  0.319293  0.819479  0.774386  1
  Gd  Gd1  1  0.319435  0.819665  0.225985  1
  Gd  Gd2  1  0.819166  0.680512  0.225926  1
  Gd  Gd3  1  0.819580  0.680374  0.774381  1
  Gd  Gd4  1  0.680589  0.180671  0.774320  1
  Y  Y5  1  0.180180  0.319862  0.776585  1
  Y  Y6  1  0.180303  0.319566  0.223611  1
  Y  Y7  1  0.000043  0.000355  0.499715  1
  Y  Y8  1  0.500208  0.499572  0.499720  1
  Ho  Ho9  1  0.680348  0.180397  0.221998  1
  Si  Si10  1  0.115080  0.613037  0.499492  1
  Si  Si11  1  0.885506  0.383689  0.498962  1
  Si  Si12  1  0.384742  0.116500  0.498777  1
  Si  Si13  1  0.614526  0.886929  0.498751  1
  B  B14  1  0.172533  0.039597  0.000550  1
  B  B15  1  0.827490  0.961412  0.000357  1
  B  B16  1  0.960435  0.172806  0.000327  1
  B  B17  1  0.327617  0.538961  0.000500  1
  B  B18  1  0.039180  0.827999  0.000497  1
  B  B19  1  0.672396  0.460180  0.000322  1
  B  B20  1  0.539067  0.672043  0.000554  1
  B  B21  1  0.460916  0.327008  0.000358  1
  B  B22  1  0.090250  0.589787  0.000261  1
  B  B23  1  0.910158  0.409716  0.000152  1
  B  B24  1  0.410427  0.089969  0.000809  1
  B  B25  1  0.590122  0.910299  0.000805  1
  B  B26  1  0.999611  0.000680  0.161160  1
  B  B27  1  0.000424  0.000323  0.839778  1
  B  B28  1  0.499978  0.499712  0.839794  1
  B  B29  1  0.500393  0.498903  0.161167  1
