# generated using pymatgen
data_Tm3Al3Zn2Au
_symmetry_space_group_name_H-M   'P 1'
_cell_length_a   6.99233300
_cell_length_b   6.99233224
_cell_length_c   4.24737200
_cell_angle_alpha   90.00000000
_cell_angle_beta   90.00000000
_cell_angle_gamma   119.99998940
_symmetry_Int_Tables_number   1
_chemical_formula_structural   Tm3Al3Zn2Au
_chemical_formula_sum   'Tm3 Al3 Zn2 Au1'
_cell_volume   179.84366164
_cell_formula_units_Z   1
loop_
 _symmetry_equiv_pos_site_id
 _symmetry_equiv_pos_as_xyz
  1  'x, y, z'
loop_
 _atom_site_type_symbol
 _atom_site_label
 _atom_site_symmetry_multiplicity
 _atom_site_fract_x
 _atom_site_fract_y
 _atom_site_fract_z
 _atom_site_occupancy
  Tm  Tm0  1  0.421338  0.421338  0.500000  1
  Tm  Tm1  1  0.578662  0.000000  0.500000  1
  Tm  Tm2  1  0.000000  0.578662  0.500000  1
  Al  Al3  1  0.756365  0.756365  0.000000  1
  Al  Al4  1  0.243635  0.000000  0.000000  1
  Al  Al5  1  0.000000  0.243635  0.000000  1
  Zn  Zn6  1  0.666667  0.333333  0.000000  1
  Zn  Zn7  1  0.333333  0.666667  0.000000  1
  Au  Au8  1  0.000000  0.000000  0.500000  1
