# generated using pymatgen
data_Y3B6OsRh7
_symmetry_space_group_name_H-M   'P 1'
_cell_length_a   9.96498714
_cell_length_b   9.14769994
_cell_length_c   5.55102470
_cell_angle_alpha   81.39613025
_cell_angle_beta   65.18304557
_cell_angle_gamma   33.42081073
_symmetry_Int_Tables_number   1
_chemical_formula_structural   Y3B6OsRh7
_chemical_formula_sum   'Y3 B6 Os1 Rh7'
_cell_volume   231.68199135
_cell_formula_units_Z   1
loop_
 _symmetry_equiv_pos_site_id
 _symmetry_equiv_pos_as_xyz
  1  'x, y, z'
loop_
 _atom_site_type_symbol
 _atom_site_label
 _atom_site_symmetry_multiplicity
 _atom_site_fract_x
 _atom_site_fract_y
 _atom_site_fract_z
 _atom_site_occupancy
  Y  Y0  1  0.000000  0.000000  0.000000  1
  Y  Y1  1  0.180681  0.180681  0.819319  1
  Y  Y2  1  0.819319  0.819319  0.180681  1
  B  B3  1  0.818501  0.531158  0.485720  1
  B  B4  1  0.164621  0.485720  0.531158  1
  B  B5  1  0.485720  0.164621  0.818501  1
  B  B6  1  0.669855  0.330145  0.669855  1
  B  B7  1  0.531158  0.818501  0.164621  1
  B  B8  1  0.330145  0.669855  0.330145  1
  Os  Os9  1  0.750000  0.750000  0.750000  1
  Rh  Rh10  1  0.414884  0.414884  0.585116  1
  Rh  Rh11  1  0.584841  0.584841  0.915159  1
  Rh  Rh12  1  0.085818  0.085818  0.414182  1
  Rh  Rh13  1  0.915159  0.915159  0.584841  1
  Rh  Rh14  1  0.585116  0.585116  0.414884  1
  Rh  Rh15  1  0.250000  0.250000  0.250000  1
  Rh  Rh16  1  0.414182  0.414182  0.085818  1
