# generated using pymatgen
data_HoErV2F14
_symmetry_space_group_name_H-M   'P 1'
_cell_length_a   5.48299200
_cell_length_b   8.76364525
_cell_length_c   11.74230308
_cell_angle_alpha   63.49035649
_cell_angle_beta   90.00000000
_cell_angle_gamma   90.00000000
_symmetry_Int_Tables_number   1
_chemical_formula_structural   HoErV2F14
_chemical_formula_sum   'Ho2 Er2 V4 F28'
_cell_volume   504.90586836
_cell_formula_units_Z   2
loop_
 _symmetry_equiv_pos_site_id
 _symmetry_equiv_pos_as_xyz
  1  'x, y, z'
loop_
 _atom_site_type_symbol
 _atom_site_label
 _atom_site_symmetry_multiplicity
 _atom_site_fract_x
 _atom_site_fract_y
 _atom_site_fract_z
 _atom_site_occupancy
  Ho  Ho0  1  0.758262  0.807857  0.770454  1
  Ho  Ho1  1  0.258262  0.192143  0.729546  1
  Er  Er2  1  0.241714  0.191705  0.229576  1
  Er  Er3  1  0.741714  0.808295  0.270424  1
  V  V4  1  0.754643  0.273054  0.954938  1
  V  V5  1  0.254643  0.726946  0.545062  1
  V  V6  1  0.245366  0.726725  0.045519  1
  V  V7  1  0.745366  0.273275  0.454481  1
  F  F8  1  0.449791  0.705224  0.923558  1
  F  F9  1  0.949791  0.294776  0.576442  1
  F  F10  1  0.549530  0.294544  0.076796  1
  F  F11  1  0.049530  0.705456  0.423204  1
  F  F12  1  0.459216  0.283186  0.544683  1
  F  F13  1  0.959216  0.716814  0.955317  1
  F  F14  1  0.541270  0.717141  0.454722  1
  F  F15  1  0.041270  0.282859  0.045278  1
  F  F16  1  0.769250  0.507063  0.862269  1
  F  F17  1  0.269250  0.492937  0.637731  1
  F  F18  1  0.230825  0.492485  0.137930  1
  F  F19  1  0.730825  0.507515  0.362070  1
  F  F20  1  0.756326  0.041380  0.045482  1
  F  F21  1  0.256326  0.958620  0.454518  1
  F  F22  1  0.243663  0.958370  0.954766  1
  F  F23  1  0.743663  0.041630  0.545234  1
  F  F24  1  0.978104  0.730670  0.641277  1
  F  F25  1  0.478104  0.269330  0.858723  1
  F  F26  1  0.022278  0.269078  0.358335  1
  F  F27  1  0.522278  0.730922  0.141665  1
  F  F28  1  0.041780  0.748179  0.170422  1
  F  F29  1  0.541780  0.251821  0.329578  1
  F  F30  1  0.957331  0.252024  0.829875  1
  F  F31  1  0.457331  0.747976  0.670125  1
  F  F32  1  0.422423  0.973347  0.231509  1
  F  F33  1  0.922423  0.026653  0.268491  1
  F  F34  1  0.578228  0.027025  0.768673  1
  F  F35  1  0.078228  0.972975  0.731327  1
