# generated using pymatgen
data_Th10Ga2(SnSb)3
_symmetry_space_group_name_H-M   'P 1'
_cell_length_a   9.57127357
_cell_length_b   9.57623322
_cell_length_c   6.53727300
_cell_angle_alpha   90.00000000
_cell_angle_beta   90.00000000
_cell_angle_gamma   120.00770687
_symmetry_Int_Tables_number   1
_chemical_formula_structural   Th10Ga2(SnSb)3
_chemical_formula_sum   'Th10 Ga2 Sn3 Sb3'
_cell_volume   518.86928746
_cell_formula_units_Z   1
loop_
 _symmetry_equiv_pos_site_id
 _symmetry_equiv_pos_as_xyz
  1  'x, y, z'
loop_
 _atom_site_type_symbol
 _atom_site_label
 _atom_site_symmetry_multiplicity
 _atom_site_fract_x
 _atom_site_fract_y
 _atom_site_fract_z
 _atom_site_occupancy
  Th  Th0  1  0.999296  0.264201  0.250000  1
  Th  Th1  1  0.731865  0.999678  0.750000  1
  Th  Th2  1  0.732313  0.733798  0.250000  1
  Th  Th3  1  0.666025  0.332966  0.499962  1
  Th  Th4  1  0.001201  0.734272  0.750000  1
  Th  Th5  1  0.266659  0.265186  0.750000  1
  Th  Th6  1  0.334182  0.667306  0.000029  1
  Th  Th7  1  0.666025  0.332966  0.000038  1
  Th  Th8  1  0.334182  0.667306  0.499971  1
  Th  Th9  1  0.267229  0.000979  0.250000  1
  Ga  Ga10  1  0.999670  0.999779  0.999139  1
  Ga  Ga11  1  0.999670  0.999779  0.500861  1
  Sn  Sn12  1  0.999805  0.616248  0.250000  1
  Sn  Sn13  1  0.999860  0.383658  0.750000  1
  Sn  Sn14  1  0.617395  0.616983  0.750000  1
  Sb  Sb15  1  0.616153  0.000235  0.250000  1
  Sb  Sb16  1  0.383946  0.999467  0.750000  1
  Sb  Sb17  1  0.384523  0.385192  0.250000  1
