# generated using pymatgen
data_YTh(ScIr)2
_symmetry_space_group_name_H-M   'P 1'
_cell_length_a   4.38546900
_cell_length_b   7.12159900
_cell_length_c   8.75111300
_cell_angle_alpha   90.00000000
_cell_angle_beta   90.00000000
_cell_angle_gamma   90.00000000
_symmetry_Int_Tables_number   1
_chemical_formula_structural   YTh(ScIr)2
_chemical_formula_sum   'Y2 Th2 Sc4 Ir4'
_cell_volume   273.31083761
_cell_formula_units_Z   2
loop_
 _symmetry_equiv_pos_site_id
 _symmetry_equiv_pos_as_xyz
  1  'x, y, z'
loop_
 _atom_site_type_symbol
 _atom_site_label
 _atom_site_symmetry_multiplicity
 _atom_site_fract_x
 _atom_site_fract_y
 _atom_site_fract_z
 _atom_site_occupancy
  Y  Y0  1  0.750000  0.983235  0.675153  1
  Y  Y1  1  0.750000  0.483235  0.824847  1
  Th  Th2  1  0.250000  0.013212  0.324150  1
  Th  Th3  1  0.250000  0.513212  0.175850  1
  Sc  Sc4  1  0.250000  0.140153  0.925437  1
  Sc  Sc5  1  0.250000  0.640153  0.574563  1
  Sc  Sc6  1  0.750000  0.864932  0.059704  1
  Sc  Sc7  1  0.750000  0.364932  0.440296  1
  Ir  Ir8  1  0.250000  0.253396  0.595017  1
  Ir  Ir9  1  0.250000  0.753396  0.904983  1
  Ir  Ir10  1  0.750000  0.745073  0.397055  1
  Ir  Ir11  1  0.750000  0.245073  0.102945  1
