# generated using pymatgen
data_YLu2Pa(Al3Rh)6
_symmetry_space_group_name_H-M   'P 1'
_cell_length_a   7.55793405
_cell_length_b   7.55391439
_cell_length_c   9.39503600
_cell_angle_alpha   90.00000000
_cell_angle_beta   90.00000000
_cell_angle_gamma   119.41438350
_symmetry_Int_Tables_number   1
_chemical_formula_structural   YLu2Pa(Al3Rh)6
_chemical_formula_sum   'Y1 Lu2 Pa1 Al18 Rh6'
_cell_volume   467.23665462
_cell_formula_units_Z   1
loop_
 _symmetry_equiv_pos_site_id
 _symmetry_equiv_pos_as_xyz
  1  'x, y, z'
loop_
 _atom_site_type_symbol
 _atom_site_label
 _atom_site_symmetry_multiplicity
 _atom_site_fract_x
 _atom_site_fract_y
 _atom_site_fract_z
 _atom_site_occupancy
  Y  Y0  1  0.674005  0.994114  0.250000  1
  Lu  Lu1  1  0.004812  0.327295  0.750000  1
  Lu  Lu2  1  0.327357  0.004575  0.750000  1
  Pa  Pa3  1  0.995825  0.673352  0.250000  1
  Al  Al4  1  0.134106  0.132025  0.250000  1
  Al  Al5  1  0.873429  0.874925  0.750000  1
  Al  Al6  1  0.001054  0.333982  0.074155  1
  Al  Al7  1  0.999875  0.663896  0.918909  1
  Al  Al8  1  0.999875  0.663896  0.581091  1
  Al  Al9  1  0.338911  0.003525  0.425632  1
  Al  Al10  1  0.001054  0.333982  0.425845  1
  Al  Al11  1  0.664301  0.000981  0.578678  1
  Al  Al12  1  0.664301  0.000981  0.921322  1
  Al  Al13  1  0.338911  0.003525  0.074368  1
  Al  Al14  1  0.331095  0.331438  0.556992  1
  Al  Al15  1  0.663476  0.665109  0.452183  1
  Al  Al16  1  0.663476  0.665109  0.047817  1
  Al  Al17  1  0.331095  0.331438  0.943008  1
  Al  Al18  1  0.338979  0.548459  0.250000  1
  Al  Al19  1  0.658504  0.446711  0.750000  1
  Al  Al20  1  0.549942  0.342975  0.250000  1
  Al  Al21  1  0.447675  0.660451  0.750000  1
  Rh  Rh22  1  0.673207  0.328757  0.000600  1
  Rh  Rh23  1  0.325773  0.672062  0.000991  1
  Rh  Rh24  1  0.325773  0.672062  0.499009  1
  Rh  Rh25  1  0.673207  0.328757  0.499400  1
  Rh  Rh26  1  0.999991  0.997810  0.001890  1
  Rh  Rh27  1  0.999991  0.997810  0.498110  1
