# generated using pymatgen
data_Tb3Pa3Rh10
_symmetry_space_group_name_H-M   'P 1'
_cell_length_a   5.84156016
_cell_length_b   5.84156094
_cell_length_c   9.17741498
_cell_angle_alpha   88.14096299
_cell_angle_beta   88.14096050
_cell_angle_gamma   104.68775173
_symmetry_Int_Tables_number   1
_chemical_formula_structural   Tb3Pa3Rh10
_chemical_formula_sum   'Tb3 Pa3 Rh10'
_cell_volume   302.50741668
_cell_formula_units_Z   1
loop_
 _symmetry_equiv_pos_site_id
 _symmetry_equiv_pos_as_xyz
  1  'x, y, z'
loop_
 _atom_site_type_symbol
 _atom_site_label
 _atom_site_symmetry_multiplicity
 _atom_site_fract_x
 _atom_site_fract_y
 _atom_site_fract_z
 _atom_site_occupancy
  Tb  Tb0  1  0.800308  0.199692  0.500000  1
  Tb  Tb1  1  0.217691  0.782309  0.000000  1
  Tb  Tb2  1  0.192420  0.807580  0.500000  1
  Pa  Pa3  1  0.605784  0.616054  0.732152  1
  Pa  Pa4  1  0.383946  0.394216  0.267848  1
  Pa  Pa5  1  0.798495  0.201505  0.000000  1
  Rh  Rh6  1  0.704271  0.692488  0.019947  1
  Rh  Rh7  1  0.673860  0.685575  0.426574  1
  Rh  Rh8  1  0.307512  0.295729  0.980053  1
  Rh  Rh9  1  0.314425  0.326140  0.573426  1
  Rh  Rh10  1  0.512103  0.042338  0.761014  1
  Rh  Rh11  1  0.516515  0.989770  0.232706  1
  Rh  Rh12  1  0.005328  0.000550  0.234192  1
  Rh  Rh13  1  0.999450  0.994672  0.765808  1
  Rh  Rh14  1  0.010230  0.483485  0.767294  1
  Rh  Rh15  1  0.957662  0.487897  0.238986  1
