# generated using pymatgen
data_La4Dy6IrRu3
_symmetry_space_group_name_H-M   'P 1'
_cell_length_a   6.51730973
_cell_length_b   7.24739820
_cell_length_c   8.86384054
_cell_angle_alpha   96.31846584
_cell_angle_beta   111.92325180
_cell_angle_gamma   89.79191325
_symmetry_Int_Tables_number   1
_chemical_formula_structural   La4Dy6IrRu3
_chemical_formula_sum   'La4 Dy6 Ir1 Ru3'
_cell_volume   385.71633658
_cell_formula_units_Z   1
loop_
 _symmetry_equiv_pos_site_id
 _symmetry_equiv_pos_as_xyz
  1  'x, y, z'
loop_
 _atom_site_type_symbol
 _atom_site_label
 _atom_site_symmetry_multiplicity
 _atom_site_fract_x
 _atom_site_fract_y
 _atom_site_fract_z
 _atom_site_occupancy
  La  La0  1  0.783198  0.089606  0.806277  1
  La  La1  1  0.981614  0.411683  0.192772  1
  La  La2  1  0.214276  0.911284  0.195412  1
  La  La3  1  0.015919  0.581304  0.808333  1
  Dy  Dy4  1  0.205786  0.184607  0.566256  1
  Dy  Dy5  1  0.637843  0.314133  0.431220  1
  Dy  Dy6  1  0.791547  0.815277  0.431041  1
  Dy  Dy7  1  0.361715  0.685247  0.567978  1
  Dy  Dy8  1  0.428198  0.249630  0.001466  1
  Dy  Dy9  1  0.571593  0.750823  0.999609  1
  Ir  Ir10  1  0.182333  0.923059  0.772010  1
  Ru  Ru11  1  0.597842  0.421043  0.776571  1
  Ru  Ru12  1  0.827677  0.081365  0.227489  1
  Ru  Ru13  1  0.400461  0.580938  0.223567  1
