# generated using pymatgen
data_Tm16In6FeRh
_symmetry_space_group_name_H-M   'P 1'
_cell_length_a   10.25125700
_cell_length_b   10.25125763
_cell_length_c   6.91201800
_cell_angle_alpha   90.00000000
_cell_angle_beta   90.00000000
_cell_angle_gamma   119.99999474
_symmetry_Int_Tables_number   1
_chemical_formula_structural   Tm16In6FeRh
_chemical_formula_sum   'Tm16 In6 Fe1 Rh1'
_cell_volume   629.05668913
_cell_formula_units_Z   1
loop_
 _symmetry_equiv_pos_site_id
 _symmetry_equiv_pos_as_xyz
  1  'x, y, z'
loop_
 _atom_site_type_symbol
 _atom_site_label
 _atom_site_symmetry_multiplicity
 _atom_site_fract_x
 _atom_site_fract_y
 _atom_site_fract_z
 _atom_site_occupancy
  Tm  Tm0  1  0.534865  0.069732  0.514155  1
  Tm  Tm1  1  0.930268  0.465135  0.514155  1
  Tm  Tm2  1  0.534865  0.465135  0.514155  1
  Tm  Tm3  1  0.469370  0.938737  0.015075  1
  Tm  Tm4  1  0.061263  0.530630  0.015075  1
  Tm  Tm5  1  0.469370  0.530630  0.015075  1
  Tm  Tm6  1  0.176771  0.353540  0.719510  1
  Tm  Tm7  1  0.646460  0.823229  0.719510  1
  Tm  Tm8  1  0.176771  0.823229  0.719510  1
  Tm  Tm9  1  0.821209  0.642419  0.222894  1
  Tm  Tm10  1  0.357581  0.178791  0.222894  1
  Tm  Tm11  1  0.821209  0.178791  0.222894  1
  Tm  Tm12  1  0.666667  0.333333  0.901587  1
  Tm  Tm13  1  0.333333  0.666667  0.392067  1
  Tm  Tm14  1  0.000000  0.000000  0.499853  1
  Tm  Tm15  1  0.000000  0.000000  0.000700  1
  In  In16  1  0.837034  0.674069  0.762418  1
  In  In17  1  0.325931  0.162966  0.762418  1
  In  In18  1  0.837034  0.162966  0.762418  1
  In  In19  1  0.162605  0.325208  0.260061  1
  In  In20  1  0.674792  0.837395  0.260061  1
  In  In21  1  0.162605  0.837395  0.260061  1
  Fe  Fe22  1  0.666667  0.333333  0.290796  1
  Rh  Rh23  1  0.333333  0.666667  0.790655  1
