# generated using pymatgen
data_Th2MgGaSi
_symmetry_space_group_name_H-M   'P 1'
_cell_length_a   7.42839500
_cell_length_b   7.43517200
_cell_length_c   4.41519700
_cell_angle_alpha   90.00000000
_cell_angle_beta   90.00000000
_cell_angle_gamma   90.00000000
_symmetry_Int_Tables_number   1
_chemical_formula_structural   Th2MgGaSi
_chemical_formula_sum   'Th4 Mg2 Ga2 Si2'
_cell_volume   243.85748734
_cell_formula_units_Z   2
loop_
 _symmetry_equiv_pos_site_id
 _symmetry_equiv_pos_as_xyz
  1  'x, y, z'
loop_
 _atom_site_type_symbol
 _atom_site_label
 _atom_site_symmetry_multiplicity
 _atom_site_fract_x
 _atom_site_fract_y
 _atom_site_fract_z
 _atom_site_occupancy
  Th  Th0  1  0.675712  0.178782  0.500000  1
  Th  Th1  1  0.175712  0.321218  0.500000  1
  Th  Th2  1  0.824134  0.673367  0.500000  1
  Th  Th3  1  0.324134  0.826633  0.500000  1
  Mg  Mg4  1  0.999696  0.000587  0.000000  1
  Mg  Mg5  1  0.499696  0.499413  0.000000  1
  Ga  Ga6  1  0.620688  0.879571  0.000000  1
  Ga  Ga7  1  0.120688  0.620429  0.000000  1
  Si  Si8  1  0.879770  0.379318  0.000000  1
  Si  Si9  1  0.379770  0.120682  0.000000  1
