# generated using pymatgen
data_Cs3RuO4
_symmetry_space_group_name_H-M   'P 1'
_cell_length_a   6.76061000
_cell_length_b   9.35088700
_cell_length_c   12.96822200
_cell_angle_alpha   90.00000000
_cell_angle_beta   90.00000000
_cell_angle_gamma   90.00000000
_symmetry_Int_Tables_number   1
_chemical_formula_structural   Cs3RuO4
_chemical_formula_sum   'Cs12 Ru4 O16'
_cell_volume   819.82117002
_cell_formula_units_Z   4
loop_
 _symmetry_equiv_pos_site_id
 _symmetry_equiv_pos_as_xyz
  1  'x, y, z'
loop_
 _atom_site_type_symbol
 _atom_site_label
 _atom_site_symmetry_multiplicity
 _atom_site_fract_x
 _atom_site_fract_y
 _atom_site_fract_z
 _atom_site_occupancy
  Cs  Cs0  1  0.688982  0.008218  0.145711  1
  Cs  Cs1  1  0.811018  0.491782  0.645711  1
  Cs  Cs2  1  0.311018  0.508218  0.854289  1
  Cs  Cs3  1  0.188982  0.991782  0.354289  1
  Cs  Cs4  1  0.311018  0.991782  0.854289  1
  Cs  Cs5  1  0.188982  0.508218  0.354289  1
  Cs  Cs6  1  0.688982  0.491782  0.145711  1
  Cs  Cs7  1  0.811018  0.008218  0.645711  1
  Cs  Cs8  1  0.140920  0.250000  0.074799  1
  Cs  Cs9  1  0.359080  0.250000  0.574799  1
  Cs  Cs10  1  0.859080  0.750000  0.925201  1
  Cs  Cs11  1  0.640920  0.750000  0.425201  1
  Ru  Ru12  1  0.275711  0.750000  0.112937  1
  Ru  Ru13  1  0.224289  0.750000  0.612937  1
  Ru  Ru14  1  0.724289  0.250000  0.887063  1
  Ru  Ru15  1  0.775711  0.250000  0.387063  1
  O  O16  1  0.405624  0.750000  0.240537  1
  O  O17  1  0.094376  0.750000  0.740537  1
  O  O18  1  0.594376  0.250000  0.759463  1
  O  O19  1  0.905624  0.250000  0.259463  1
  O  O20  1  0.441300  0.750000  0.998194  1
  O  O21  1  0.058700  0.750000  0.498194  1
  O  O22  1  0.558700  0.250000  0.001806  1
  O  O23  1  0.941300  0.250000  0.501806  1
  O  O24  1  0.148997  0.575445  0.111823  1
  O  O25  1  0.351003  0.924555  0.611823  1
  O  O26  1  0.851003  0.075445  0.888177  1
  O  O27  1  0.648997  0.424555  0.388177  1
  O  O28  1  0.851003  0.424555  0.888177  1
  O  O29  1  0.648997  0.075445  0.388177  1
  O  O30  1  0.148997  0.924555  0.111823  1
  O  O31  1  0.351003  0.575445  0.611823  1
