# generated using pymatgen
data_Ce2ZnSnRh2
_symmetry_space_group_name_H-M   'P 1'
_cell_length_a   4.08791600
_cell_length_b   7.53844100
_cell_length_c   16.27806100
_cell_angle_alpha   90.00000000
_cell_angle_beta   90.00000000
_cell_angle_gamma   90.00000000
_symmetry_Int_Tables_number   1
_chemical_formula_structural   Ce2ZnSnRh2
_chemical_formula_sum   'Ce8 Zn4 Sn4 Rh8'
_cell_volume   501.63308785
_cell_formula_units_Z   4
loop_
 _symmetry_equiv_pos_site_id
 _symmetry_equiv_pos_as_xyz
  1  'x, y, z'
loop_
 _atom_site_type_symbol
 _atom_site_label
 _atom_site_symmetry_multiplicity
 _atom_site_fract_x
 _atom_site_fract_y
 _atom_site_fract_z
 _atom_site_occupancy
  Ce  Ce0  1  0.250000  0.183088  0.557812  1
  Ce  Ce1  1  0.750000  0.816912  0.442188  1
  Ce  Ce2  1  0.250000  0.683088  0.942188  1
  Ce  Ce3  1  0.750000  0.316912  0.057812  1
  Ce  Ce4  1  0.250000  0.053821  0.788245  1
  Ce  Ce5  1  0.750000  0.946179  0.211755  1
  Ce  Ce6  1  0.250000  0.553821  0.711755  1
  Ce  Ce7  1  0.750000  0.446179  0.288245  1
  Zn  Zn8  1  0.250000  0.003125  0.059575  1
  Zn  Zn9  1  0.750000  0.996875  0.940425  1
  Zn  Zn10  1  0.250000  0.503125  0.440425  1
  Zn  Zn11  1  0.750000  0.496875  0.559575  1
  Sn  Sn12  1  0.250000  0.111740  0.348750  1
  Sn  Sn13  1  0.750000  0.888260  0.651250  1
  Sn  Sn14  1  0.250000  0.611740  0.151250  1
  Sn  Sn15  1  0.750000  0.388260  0.848750  1
  Rh  Rh16  1  0.750000  0.263076  0.434447  1
  Rh  Rh17  1  0.250000  0.736924  0.565553  1
  Rh  Rh18  1  0.750000  0.763076  0.065553  1
  Rh  Rh19  1  0.250000  0.236924  0.934447  1
  Rh  Rh20  1  0.750000  0.756963  0.815859  1
  Rh  Rh21  1  0.250000  0.243037  0.184141  1
  Rh  Rh22  1  0.750000  0.256963  0.684141  1
  Rh  Rh23  1  0.250000  0.743037  0.315859  1
