# generated using pymatgen
data_Y5Ta3(ReB6)4
_symmetry_space_group_name_H-M   'P 1'
_cell_length_a   3.59319100
_cell_length_b   8.99596341
_cell_length_c   11.39160039
_cell_angle_alpha   89.90776090
_cell_angle_beta   90.00000000
_cell_angle_gamma   90.00000000
_symmetry_Int_Tables_number   1
_chemical_formula_structural   Y5Ta3(ReB6)4
_chemical_formula_sum   'Y5 Ta3 Re4 B24'
_cell_volume   368.22406032
_cell_formula_units_Z   1
loop_
 _symmetry_equiv_pos_site_id
 _symmetry_equiv_pos_as_xyz
  1  'x, y, z'
loop_
 _atom_site_type_symbol
 _atom_site_label
 _atom_site_symmetry_multiplicity
 _atom_site_fract_x
 _atom_site_fract_y
 _atom_site_fract_z
 _atom_site_occupancy
  Y  Y0  1  0.000000  0.322014  0.414433  1
  Y  Y1  1  0.000000  0.676642  0.587467  1
  Y  Y2  1  0.000000  0.822448  0.085603  1
  Y  Y3  1  0.000000  0.177560  0.912683  1
  Y  Y4  1  0.000000  0.945680  0.374229  1
  Ta  Ta5  1  0.000000  0.055654  0.629325  1
  Ta  Ta6  1  0.000000  0.445883  0.123031  1
  Ta  Ta7  1  0.000000  0.555386  0.875966  1
  Re  Re8  1  0.000000  0.633976  0.313730  1
  Re  Re9  1  0.000000  0.358082  0.685148  1
  Re  Re10  1  0.000000  0.149133  0.177329  1
  Re  Re11  1  0.000000  0.856385  0.819697  1
  B  B12  1  0.500000  0.550847  0.432754  1
  B  B13  1  0.500000  0.444096  0.567832  1
  B  B14  1  0.500000  0.056056  0.065457  1
  B  B15  1  0.500000  0.945469  0.933119  1
  B  B16  1  0.500000  0.747302  0.416789  1
  B  B17  1  0.500000  0.245400  0.584814  1
  B  B18  1  0.500000  0.256600  0.079836  1
  B  B19  1  0.500000  0.745053  0.918119  1
  B  B20  1  0.500000  0.792582  0.262288  1
  B  B21  1  0.500000  0.203889  0.738448  1
  B  B22  1  0.500000  0.297858  0.233551  1
  B  B23  1  0.500000  0.703306  0.763811  1
  B  B24  1  0.500000  0.627755  0.180977  1
  B  B25  1  0.500000  0.371767  0.818766  1
  B  B26  1  0.500000  0.134217  0.314386  1
  B  B27  1  0.500000  0.870955  0.683374  1
  B  B28  1  0.500000  0.985153  0.210789  1
  B  B29  1  0.500000  0.018246  0.787436  1
  B  B30  1  0.500000  0.479757  0.284846  1
  B  B31  1  0.500000  0.519103  0.714093  1
  B  B32  1  0.500000  0.598983  0.025109  1
  B  B33  1  0.500000  0.402618  0.972662  1
  B  B34  1  0.500000  0.102226  0.479569  1
  B  B35  1  0.500000  0.901921  0.532532  1
