# generated using pymatgen
data_Ce8Si13Pd3
_symmetry_space_group_name_H-M   'P 1'
_cell_length_a   8.23824000
_cell_length_b   8.23823903
_cell_length_c   8.32889900
_cell_angle_alpha   90.00000000
_cell_angle_beta   90.00000000
_cell_angle_gamma   120.00000390
_symmetry_Int_Tables_number   1
_chemical_formula_structural   Ce8Si13Pd3
_chemical_formula_sum   'Ce8 Si13 Pd3'
_cell_volume   489.53870962
_cell_formula_units_Z   1
loop_
 _symmetry_equiv_pos_site_id
 _symmetry_equiv_pos_as_xyz
  1  'x, y, z'
loop_
 _atom_site_type_symbol
 _atom_site_label
 _atom_site_symmetry_multiplicity
 _atom_site_fract_x
 _atom_site_fract_y
 _atom_site_fract_z
 _atom_site_occupancy
  Ce  Ce0  1  0.497580  0.995158  0.244560  1
  Ce  Ce1  1  0.496711  0.993425  0.755492  1
  Ce  Ce2  1  0.004842  0.502420  0.244560  1
  Ce  Ce3  1  0.006575  0.503289  0.755492  1
  Ce  Ce4  1  0.497580  0.502420  0.244560  1
  Ce  Ce5  1  0.496711  0.503289  0.755492  1
  Ce  Ce6  1  0.000000  0.000000  0.247574  1
  Ce  Ce7  1  0.000000  0.000000  0.752315  1
  Si  Si8  1  0.333333  0.666667  0.001707  1
  Si  Si9  1  0.166243  0.332486  0.999038  1
  Si  Si10  1  0.835176  0.670350  0.000212  1
  Si  Si11  1  0.667514  0.833757  0.999038  1
  Si  Si12  1  0.835036  0.670070  0.501520  1
  Si  Si13  1  0.329650  0.164824  0.000212  1
  Si  Si14  1  0.164391  0.328782  0.499476  1
  Si  Si15  1  0.166243  0.833757  0.999038  1
  Si  Si16  1  0.329930  0.164964  0.501520  1
  Si  Si17  1  0.835176  0.164824  0.000212  1
  Si  Si18  1  0.671218  0.835609  0.499476  1
  Si  Si19  1  0.835036  0.164964  0.501520  1
  Si  Si20  1  0.164391  0.835609  0.499476  1
  Pd  Pd21  1  0.666667  0.333333  0.997617  1
  Pd  Pd22  1  0.666667  0.333333  0.501069  1
  Pd  Pd23  1  0.333333  0.666667  0.498828  1
