# generated using pymatgen
data_Er2LuMg3Ga2Ag
_symmetry_space_group_name_H-M   'P 1'
_cell_length_a   4.31093800
_cell_length_b   7.33525709
_cell_length_c   7.33525740
_cell_angle_alpha   119.96205620
_cell_angle_beta   90.00000000
_cell_angle_gamma   90.00000000
_symmetry_Int_Tables_number   1
_chemical_formula_structural   Er2LuMg3Ga2Ag
_chemical_formula_sum   'Er2 Lu1 Mg3 Ga2 Ag1'
_cell_volume   200.95509921
_cell_formula_units_Z   1
loop_
 _symmetry_equiv_pos_site_id
 _symmetry_equiv_pos_as_xyz
  1  'x, y, z'
loop_
 _atom_site_type_symbol
 _atom_site_label
 _atom_site_symmetry_multiplicity
 _atom_site_fract_x
 _atom_site_fract_y
 _atom_site_fract_z
 _atom_site_occupancy
  Er  Er0  1  0.000000  0.999983  0.575924  1
  Er  Er1  1  0.000000  0.575924  0.999983  1
  Lu  Lu2  1  0.000000  0.423723  0.423723  1
  Mg  Mg3  1  0.500000  0.752458  0.752458  1
  Mg  Mg4  1  0.500000  0.000075  0.247304  1
  Mg  Mg5  1  0.500000  0.247304  0.000075  1
  Ga  Ga6  1  0.500000  0.666535  0.333480  1
  Ga  Ga7  1  0.500000  0.333480  0.666535  1
  Ag  Ag8  1  0.000000  0.000518  0.000518  1
