# generated using pymatgen
data_Nd8Y5Er7Pb16
_symmetry_space_group_name_H-M   'P 1'
_cell_length_a   8.28642570
_cell_length_b   8.34180469
_cell_length_c   15.81143756
_cell_angle_alpha   90.00127992
_cell_angle_beta   90.05107270
_cell_angle_gamma   89.89074531
_symmetry_Int_Tables_number   1
_chemical_formula_structural   Nd8Y5Er7Pb16
_chemical_formula_sum   'Nd8 Y5 Er7 Pb16'
_cell_volume   1092.94335259
_cell_formula_units_Z   1
loop_
 _symmetry_equiv_pos_site_id
 _symmetry_equiv_pos_as_xyz
  1  'x, y, z'
loop_
 _atom_site_type_symbol
 _atom_site_label
 _atom_site_symmetry_multiplicity
 _atom_site_fract_x
 _atom_site_fract_y
 _atom_site_fract_z
 _atom_site_occupancy
  Nd  Nd0  1  0.472274  0.676972  0.598722  1
  Nd  Nd1  1  0.972855  0.822591  0.901787  1
  Nd  Nd2  1  0.527345  0.322612  0.097764  1
  Nd  Nd3  1  0.027428  0.177792  0.401926  1
  Nd  Nd4  1  0.528788  0.323168  0.401593  1
  Nd  Nd5  1  0.028184  0.177185  0.098123  1
  Nd  Nd6  1  0.471546  0.676913  0.901619  1
  Nd  Nd7  1  0.971950  0.823333  0.598572  1
  Y  Y8  1  0.630202  0.158954  0.622117  1
  Y  Y9  1  0.130271  0.341088  0.877755  1
  Y  Y10  1  0.369766  0.841180  0.122005  1
  Y  Y11  1  0.870094  0.659258  0.377572  1
  Y  Y12  1  0.368854  0.841118  0.378068  1
  Er  Er13  1  0.869059  0.658495  0.122270  1
  Er  Er14  1  0.631192  0.158581  0.877595  1
  Er  Er15  1  0.130493  0.341338  0.622952  1
  Er  Er16  1  0.797950  0.494622  0.750011  1
  Er  Er17  1  0.297955  0.005582  0.750142  1
  Er  Er18  1  0.201725  0.505159  0.249932  1
  Er  Er19  1  0.702143  0.994656  0.249800  1
  Pb  Pb20  1  0.708881  0.962849  0.456229  1
  Pb  Pb21  1  0.206975  0.538166  0.043838  1
  Pb  Pb22  1  0.292939  0.037904  0.955961  1
  Pb  Pb23  1  0.792556  0.462455  0.543910  1
  Pb  Pb24  1  0.289955  0.039064  0.544038  1
  Pb  Pb25  1  0.790524  0.461806  0.956688  1
  Pb  Pb26  1  0.709537  0.961582  0.042921  1
  Pb  Pb27  1  0.209066  0.536313  0.457195  1
  Pb  Pb28  1  0.436312  0.370985  0.750456  1
  Pb  Pb29  1  0.935632  0.128397  0.749819  1
  Pb  Pb30  1  0.564238  0.628267  0.249719  1
  Pb  Pb31  1  0.063554  0.871314  0.249149  1
  Pb  Pb32  1  0.660787  0.848796  0.750495  1
  Pb  Pb33  1  0.160964  0.650633  0.749776  1
  Pb  Pb34  1  0.339036  0.151478  0.250055  1
  Pb  Pb35  1  0.838967  0.349395  0.249425  1
