# generated using pymatgen
data_Dy8Hf11Si16Rh
_symmetry_space_group_name_H-M   'P 1'
_cell_length_a   7.26495806
_cell_length_b   7.26495867
_cell_length_c   13.22628490
_cell_angle_alpha   89.80331931
_cell_angle_beta   90.19667976
_cell_angle_gamma   89.84001637
_symmetry_Int_Tables_number   1
_chemical_formula_structural   Dy8Hf11Si16Rh
_chemical_formula_sum   'Dy8 Hf11 Si16 Rh1'
_cell_volume   698.06732036
_cell_formula_units_Z   1
loop_
 _symmetry_equiv_pos_site_id
 _symmetry_equiv_pos_as_xyz
  1  'x, y, z'
loop_
 _atom_site_type_symbol
 _atom_site_label
 _atom_site_symmetry_multiplicity
 _atom_site_fract_x
 _atom_site_fract_y
 _atom_site_fract_z
 _atom_site_occupancy
  Dy  Dy0  1  0.994218  0.656092  0.034874  1
  Dy  Dy1  1  0.002157  0.348707  0.533046  1
  Dy  Dy2  1  0.656092  0.994218  0.965126  1
  Dy  Dy3  1  0.153517  0.505607  0.782668  1
  Dy  Dy4  1  0.844983  0.497926  0.288659  1
  Dy  Dy5  1  0.505607  0.153517  0.217332  1
  Dy  Dy6  1  0.497926  0.844983  0.711341  1
  Dy  Dy7  1  0.348707  0.002157  0.466954  1
  Hf  Hf8  1  0.353995  0.502774  0.378116  1
  Hf  Hf9  1  0.854322  0.995272  0.377749  1
  Hf  Hf10  1  0.002617  0.147070  0.125981  1
  Hf  Hf11  1  0.995272  0.854322  0.622251  1
  Hf  Hf12  1  0.502774  0.353995  0.621884  1
  Hf  Hf13  1  0.147070  0.002617  0.874019  1
  Hf  Hf14  1  0.822332  0.176825  0.748420  1
  Hf  Hf15  1  0.176825  0.822332  0.251580  1
  Hf  Hf16  1  0.324551  0.324551  0.000000  1
  Hf  Hf17  1  0.497167  0.646097  0.127694  1
  Hf  Hf18  1  0.646097  0.497167  0.872306  1
  Si  Si19  1  0.056310  0.708783  0.436518  1
  Si  Si20  1  0.950080  0.296207  0.934868  1
  Si  Si21  1  0.708783  0.056310  0.563482  1
  Si  Si22  1  0.203785  0.450149  0.185907  1
  Si  Si23  1  0.791654  0.556857  0.681500  1
  Si  Si24  1  0.450149  0.203785  0.814093  1
  Si  Si25  1  0.556857  0.791654  0.318500  1
  Si  Si26  1  0.296207  0.950080  0.065132  1
  Si  Si27  1  0.795543  0.859245  0.184858  1
  Si  Si28  1  0.289719  0.636532  0.568528  1
  Si  Si29  1  0.706711  0.361491  0.067634  1
  Si  Si30  1  0.636532  0.289719  0.431472  1
  Si  Si31  1  0.361491  0.706711  0.932366  1
  Si  Si32  1  0.139302  0.205284  0.318788  1
  Si  Si33  1  0.205284  0.139302  0.681212  1
  Si  Si34  1  0.859245  0.795543  0.815142  1
  Rh  Rh35  1  0.666122  0.666122  0.500000  1
