# generated using pymatgen
data_Nd3Y13(CdRu)4
_symmetry_space_group_name_H-M   'P 1'
_cell_length_a   9.73602560
_cell_length_b   9.71721831
_cell_length_c   9.71739654
_cell_angle_alpha   59.92305437
_cell_angle_beta   59.93534526
_cell_angle_gamma   59.93716267
_symmetry_Int_Tables_number   1
_chemical_formula_structural   Nd3Y13(CdRu)4
_chemical_formula_sum   'Nd3 Y13 Cd4 Ru4'
_cell_volume   649.06287789
_cell_formula_units_Z   1
loop_
 _symmetry_equiv_pos_site_id
 _symmetry_equiv_pos_as_xyz
  1  'x, y, z'
loop_
 _atom_site_type_symbol
 _atom_site_label
 _atom_site_symmetry_multiplicity
 _atom_site_fract_x
 _atom_site_fract_y
 _atom_site_fract_z
 _atom_site_occupancy
  Nd  Nd0  1  0.437849  0.439919  0.061691  1
  Nd  Nd1  1  0.060541  0.061691  0.439919  1
  Nd  Nd2  1  0.439188  0.060812  0.060812  1
  Y  Y3  1  0.847959  0.846134  0.846334  1
  Y  Y4  1  0.688993  0.311007  0.311007  1
  Y  Y5  1  0.059419  0.440581  0.440581  1
  Y  Y6  1  0.311019  0.688981  0.688981  1
  Y  Y7  1  0.310247  0.310930  0.688970  1
  Y  Y8  1  0.847041  0.845592  0.460015  1
  Y  Y9  1  0.689852  0.688970  0.310930  1
  Y  Y10  1  0.459573  0.846334  0.846134  1
  Y  Y11  1  0.057822  0.442132  0.059696  1
  Y  Y12  1  0.847352  0.460015  0.845592  1
  Y  Y13  1  0.440350  0.059696  0.442132  1
  Y  Y14  1  0.311159  0.687413  0.311942  1
  Y  Y15  1  0.689486  0.311942  0.687413  1
  Cd  Cd16  1  0.078184  0.759969  0.080745  1
  Cd  Cd17  1  0.081101  0.080745  0.759969  1
  Cd  Cd18  1  0.762293  0.078258  0.081238  1
  Cd  Cd19  1  0.078211  0.081238  0.078258  1
  Ru  Ru20  1  0.637873  0.081367  0.638541  1
  Ru  Ru21  1  0.639927  0.640713  0.637017  1
  Ru  Ru22  1  0.642217  0.638541  0.081367  1
  Ru  Ru23  1  0.082342  0.637017  0.640713  1
