# generated using pymatgen
data_PrNb6InSe12
_symmetry_space_group_name_H-M   'P 1'
_cell_length_a   6.09184300
_cell_length_b   6.09184343
_cell_length_c   15.52151200
_cell_angle_alpha   90.00000000
_cell_angle_beta   90.00000000
_cell_angle_gamma   120.00000310
_symmetry_Int_Tables_number   1
_chemical_formula_structural   PrNb6InSe12
_chemical_formula_sum   'Pr1 Nb6 In1 Se12'
_cell_volume   498.84092728
_cell_formula_units_Z   1
loop_
 _symmetry_equiv_pos_site_id
 _symmetry_equiv_pos_as_xyz
  1  'x, y, z'
loop_
 _atom_site_type_symbol
 _atom_site_label
 _atom_site_symmetry_multiplicity
 _atom_site_fract_x
 _atom_site_fract_y
 _atom_site_fract_z
 _atom_site_occupancy
  Pr  Pr0  1  0.666667  0.333333  0.750000  1
  Nb  Nb1  1  0.333333  0.666667  0.505193  1
  Nb  Nb2  1  0.666667  0.333333  0.992569  1
  Nb  Nb3  1  0.666667  0.333333  0.507431  1
  Nb  Nb4  1  0.333333  0.666667  0.994807  1
  Nb  Nb5  1  0.000000  0.000000  0.504580  1
  Nb  Nb6  1  0.000000  0.000000  0.995420  1
  In  In7  1  0.333333  0.666667  0.250000  1
  Se  Se8  1  0.335301  0.333017  0.101058  1
  Se  Se9  1  0.666983  0.002284  0.101058  1
  Se  Se10  1  0.997716  0.664699  0.101058  1
  Se  Se11  1  0.007541  0.333099  0.613729  1
  Se  Se12  1  0.666901  0.992459  0.886271  1
  Se  Se13  1  0.666901  0.674442  0.613729  1
  Se  Se14  1  0.325558  0.992459  0.613729  1
  Se  Se15  1  0.666983  0.664699  0.398942  1
  Se  Se16  1  0.335301  0.002284  0.398942  1
  Se  Se17  1  0.325558  0.333099  0.886271  1
  Se  Se18  1  0.007541  0.674442  0.886271  1
  Se  Se19  1  0.997716  0.333017  0.398942  1
