# generated using pymatgen
data_La3Pr2AlZnRu3
_symmetry_space_group_name_H-M   'P 1'
_cell_length_a   8.64504709
_cell_length_b   8.64504682
_cell_length_c   8.56562876
_cell_angle_alpha   109.53204441
_cell_angle_beta   109.46055268
_cell_angle_gamma   109.79403801
_symmetry_Int_Tables_number   1
_chemical_formula_structural   La3Pr2AlZnRu3
_chemical_formula_sum   'La6 Pr4 Al2 Zn2 Ru6'
_cell_volume   490.51663288
_cell_formula_units_Z   2
loop_
 _symmetry_equiv_pos_site_id
 _symmetry_equiv_pos_as_xyz
  1  'x, y, z'
loop_
 _atom_site_type_symbol
 _atom_site_label
 _atom_site_symmetry_multiplicity
 _atom_site_fract_x
 _atom_site_fract_y
 _atom_site_fract_z
 _atom_site_occupancy
  La  La0  1  0.251943  0.686678  0.441096  1
  La  La1  1  0.745581  0.810846  0.058904  1
  La  La2  1  0.437736  0.250905  0.688401  1
  La  La3  1  0.686917  0.436917  0.250000  1
  La  La4  1  0.062504  0.749334  0.811599  1
  La  La5  1  0.811082  0.061082  0.750000  1
  Pr  Pr6  1  0.219904  0.220381  0.219591  1
  Pr  Pr7  1  0.500790  0.000313  0.280409  1
  Pr  Pr8  1  0.281629  0.499981  0.999687  1
  Pr  Pr9  1  0.000294  0.281943  0.500313  1
  Al  Al10  1  0.912406  0.501350  0.002365  1
  Al  Al11  1  0.998985  0.910040  0.497635  1
  Zn  Zn12  1  0.588092  0.586350  0.586940  1
  Zn  Zn13  1  0.499409  0.001152  0.913060  1
  Ru  Ru14  1  0.243098  0.117120  0.863634  1
  Ru  Ru15  1  0.753486  0.379464  0.636366  1
  Ru  Ru16  1  0.876330  0.257425  0.119623  1
  Ru  Ru17  1  0.115368  0.865367  0.250000  1
  Ru  Ru18  1  0.637802  0.756709  0.380377  1
  Ru  Ru19  1  0.376641  0.626641  0.750000  1
