# generated using pymatgen
data_Ta3Cr(AsO4)6
_symmetry_space_group_name_H-M   'P 1'
_cell_length_a   9.33016698
_cell_length_b   9.33016675
_cell_length_c   9.33016650
_cell_angle_alpha   58.17295791
_cell_angle_beta   58.17295305
_cell_angle_gamma   58.17295262
_symmetry_Int_Tables_number   1
_chemical_formula_structural   Ta3Cr(AsO4)6
_chemical_formula_sum   'Ta3 Cr1 As6 O24'
_cell_volume   550.27172465
_cell_formula_units_Z   1
loop_
 _symmetry_equiv_pos_site_id
 _symmetry_equiv_pos_as_xyz
  1  'x, y, z'
loop_
 _atom_site_type_symbol
 _atom_site_label
 _atom_site_symmetry_multiplicity
 _atom_site_fract_x
 _atom_site_fract_y
 _atom_site_fract_z
 _atom_site_occupancy
  Ta  Ta0  1  0.140606  0.140606  0.140606  1
  Ta  Ta1  1  0.357502  0.357502  0.357502  1
  Ta  Ta2  1  0.639462  0.639462  0.639462  1
  Cr  Cr3  1  0.856798  0.856798  0.856798  1
  As  As4  1  0.029289  0.477627  0.748879  1
  As  As5  1  0.477627  0.748879  0.029289  1
  As  As6  1  0.748879  0.029289  0.477627  1
  As  As7  1  0.239995  0.966180  0.539047  1
  As  As8  1  0.539047  0.239995  0.966180  1
  As  As9  1  0.966180  0.539047  0.239995  1
  O  O10  1  0.142013  0.495977  0.287788  1
  O  O11  1  0.287788  0.142013  0.495977  1
  O  O12  1  0.053940  0.288114  0.935929  1
  O  O13  1  0.495977  0.287788  0.142013  1
  O  O14  1  0.219692  0.426444  0.573121  1
  O  O15  1  0.019573  0.661697  0.750468  1
  O  O16  1  0.288114  0.935929  0.053940  1
  O  O17  1  0.426444  0.573121  0.219692  1
  O  O18  1  0.573121  0.219692  0.426444  1
  O  O19  1  0.229411  0.994799  0.346573  1
  O  O20  1  0.055894  0.957724  0.721778  1
  O  O21  1  0.346573  0.229411  0.994799  1
  O  O22  1  0.661697  0.750468  0.019573  1
  O  O23  1  0.935929  0.053940  0.288114  1
  O  O24  1  0.750468  0.019573  0.661697  1
  O  O25  1  0.429637  0.779624  0.563048  1
  O  O26  1  0.563048  0.429637  0.779624  1
  O  O27  1  0.721778  0.055894  0.957724  1
  O  O28  1  0.994799  0.346573  0.229411  1
  O  O29  1  0.779624  0.563048  0.429637  1
  O  O30  1  0.497434  0.725343  0.848592  1
  O  O31  1  0.957724  0.721778  0.055894  1
  O  O32  1  0.725343  0.848592  0.497434  1
  O  O33  1  0.848592  0.497434  0.725343  1
