# generated using pymatgen
data_Dy2Co8NiMo3P7
_symmetry_space_group_name_H-M   'P 1'
_cell_length_a   3.72078000
_cell_length_b   9.10074927
_cell_length_c   9.10995237
_cell_angle_alpha   120.06742377
_cell_angle_beta   90.00000000
_cell_angle_gamma   90.00000000
_symmetry_Int_Tables_number   1
_chemical_formula_structural   Dy2Co8NiMo3P7
_chemical_formula_sum   'Dy2 Co8 Ni1 Mo3 P7'
_cell_volume   266.96997190
_cell_formula_units_Z   1
loop_
 _symmetry_equiv_pos_site_id
 _symmetry_equiv_pos_as_xyz
  1  'x, y, z'
loop_
 _atom_site_type_symbol
 _atom_site_label
 _atom_site_symmetry_multiplicity
 _atom_site_fract_x
 _atom_site_fract_y
 _atom_site_fract_z
 _atom_site_occupancy
  Dy  Dy0  1  0.000000  0.666951  0.332241  1
  Dy  Dy1  1  0.500000  0.333145  0.667370  1
  Co  Co2  1  0.000000  0.567033  0.940185  1
  Co  Co3  1  0.000000  0.370103  0.432646  1
  Co  Co4  1  0.000000  0.062236  0.629321  1
  Co  Co5  1  0.500000  0.948050  0.385888  1
  Co  Co6  1  0.500000  0.438629  0.053302  1
  Co  Co7  1  0.000000  0.877640  0.160082  1
  Co  Co8  1  0.000000  0.281657  0.121797  1
  Co  Co9  1  0.000000  0.841546  0.718319  1
  Ni  Ni10  1  0.500000  0.614365  0.559210  1
  Mo  Mo11  1  0.500000  0.777777  0.900735  1
  Mo  Mo12  1  0.500000  0.121384  0.219724  1
  Mo  Mo13  1  0.500000  0.098073  0.877319  1
  P  P14  1  0.500000  0.709679  0.118693  1
  P  P15  1  0.500000  0.406354  0.287631  1
  P  P16  1  0.500000  0.885099  0.591177  1
  P  P17  1  0.000000  0.999801  0.000588  1
  P  P18  1  0.000000  0.586698  0.701107  1
  P  P19  1  0.000000  0.111226  0.413144  1
  P  P20  1  0.000000  0.302554  0.889519  1
