# generated using pymatgen
data_Pr3HoZr4F28
_symmetry_space_group_name_H-M   'P 1'
_cell_length_a   5.87545820
_cell_length_b   9.32693152
_cell_length_c   12.53782361
_cell_angle_alpha   62.10874992
_cell_angle_beta   90.05405419
_cell_angle_gamma   89.96093693
_symmetry_Int_Tables_number   1
_chemical_formula_structural   Pr3HoZr4F28
_chemical_formula_sum   'Pr3 Ho1 Zr4 F28'
_cell_volume   607.25955742
_cell_formula_units_Z   1
loop_
 _symmetry_equiv_pos_site_id
 _symmetry_equiv_pos_as_xyz
  1  'x, y, z'
loop_
 _atom_site_type_symbol
 _atom_site_label
 _atom_site_symmetry_multiplicity
 _atom_site_fract_x
 _atom_site_fract_y
 _atom_site_fract_z
 _atom_site_occupancy
  Pr  Pr0  1  0.743313  0.810300  0.266782  1
  Pr  Pr1  1  0.243275  0.186889  0.233183  1
  Pr  Pr2  1  0.256997  0.182269  0.733630  1
  Ho  Ho3  1  0.757591  0.811267  0.766382  1
  Zr  Zr4  1  0.746014  0.269108  0.458026  1
  Zr  Zr5  1  0.244775  0.726367  0.039374  1
  Zr  Zr6  1  0.255889  0.726263  0.550011  1
  Zr  Zr7  1  0.755214  0.279371  0.952756  1
  F  F8  1  0.468601  0.714296  0.919263  1
  F  F9  1  0.962298  0.288535  0.577565  1
  F  F10  1  0.539765  0.291300  0.075452  1
  F  F11  1  0.040992  0.712172  0.427447  1
  F  F12  1  0.460102  0.282693  0.546671  1
  F  F13  1  0.958273  0.720398  0.945800  1
  F  F14  1  0.536400  0.716491  0.456241  1
  F  F15  1  0.040486  0.286747  0.044115  1
  F  F16  1  0.764323  0.527792  0.857518  1
  F  F17  1  0.265509  0.480002  0.642571  1
  F  F18  1  0.232130  0.481227  0.137899  1
  F  F19  1  0.734107  0.516257  0.361873  1
  F  F20  1  0.760862  0.033601  0.054281  1
  F  F21  1  0.261099  0.971579  0.446165  1
  F  F22  1  0.239778  0.972860  0.943269  1
  F  F23  1  0.740046  0.023648  0.561350  1
  F  F24  1  0.987241  0.735901  0.651481  1
  F  F25  1  0.488096  0.268112  0.852903  1
  F  F26  1  0.013884  0.267266  0.355920  1
  F  F27  1  0.510134  0.731962  0.142643  1
  F  F28  1  0.039996  0.743983  0.165911  1
  F  F29  1  0.541640  0.254393  0.331046  1
  F  F30  1  0.960505  0.257853  0.828771  1
  F  F31  1  0.471308  0.748587  0.672418  1
  F  F32  1  0.419844  0.967581  0.233126  1
  F  F33  1  0.917911  0.030672  0.266989  1
  F  F34  1  0.580511  0.017382  0.765441  1
  F  F35  1  0.061088  0.964875  0.735724  1
