# generated using pymatgen
data_NaNd(Cu9Si4)2
_symmetry_space_group_name_H-M   'P 1'
_cell_length_a   8.14995494
_cell_length_b   8.14995424
_cell_length_c   8.14995405
_cell_angle_alpha   120.44845528
_cell_angle_beta   120.44845813
_cell_angle_gamma   89.22498945
_symmetry_Int_Tables_number   1
_chemical_formula_structural   NaNd(Cu9Si4)2
_chemical_formula_sum   'Na1 Nd1 Cu18 Si8'
_cell_volume   380.14879186
_cell_formula_units_Z   1
loop_
 _symmetry_equiv_pos_site_id
 _symmetry_equiv_pos_as_xyz
  1  'x, y, z'
loop_
 _atom_site_type_symbol
 _atom_site_label
 _atom_site_symmetry_multiplicity
 _atom_site_fract_x
 _atom_site_fract_y
 _atom_site_fract_z
 _atom_site_occupancy
  Na  Na0  1  0.750000  0.750000  0.000000  1
  Nd  Nd1  1  0.250000  0.250000  0.000000  1
  Cu  Cu2  1  0.935731  0.203624  0.137785  1
  Cu  Cu3  1  0.203624  0.065839  0.267893  1
  Cu  Cu4  1  0.797947  0.935731  0.732107  1
  Cu  Cu5  1  0.434161  0.296376  0.732107  1
  Cu  Cu6  1  0.065839  0.797947  0.862215  1
  Cu  Cu7  1  0.807034  0.058158  0.499090  1
  Cu  Cu8  1  0.559068  0.307944  0.500910  1
  Cu  Cu9  1  0.192056  0.940932  0.499090  1
  Cu  Cu10  1  0.441842  0.692966  0.500910  1
  Cu  Cu11  1  0.940932  0.441842  0.748876  1
  Cu  Cu12  1  0.692966  0.192056  0.251124  1
  Cu  Cu13  1  0.058158  0.559068  0.251124  1
  Cu  Cu14  1  0.702053  0.434161  0.137785  1
  Cu  Cu15  1  0.564269  0.702053  0.267893  1
  Cu  Cu16  1  0.500000  0.000000  0.500000  1
  Cu  Cu17  1  0.000000  0.500000  0.500000  1
  Cu  Cu18  1  0.307944  0.807034  0.748876  1
  Cu  Cu19  1  0.296376  0.564269  0.862215  1
  Si  Si20  1  0.794285  0.291917  0.852000  1
  Si  Si21  1  0.557715  0.060084  0.852000  1
  Si  Si22  1  0.060084  0.208083  0.502369  1
  Si  Si23  1  0.291917  0.439916  0.497631  1
  Si  Si24  1  0.942285  0.794285  0.502369  1
  Si  Si25  1  0.439916  0.942285  0.148000  1
  Si  Si26  1  0.208083  0.705715  0.148000  1
  Si  Si27  1  0.705715  0.557715  0.497631  1
