# generated using pymatgen
data_Ac10Yb9SmSn16
_symmetry_space_group_name_H-M   'P 1'
_cell_length_a   8.24912011
_cell_length_b   8.75346797
_cell_length_c   16.61716827
_cell_angle_alpha   89.97886977
_cell_angle_beta   90.03879051
_cell_angle_gamma   90.08985654
_symmetry_Int_Tables_number   1
_chemical_formula_structural   Ac10Yb9SmSn16
_chemical_formula_sum   'Ac10 Yb9 Sm1 Sn16'
_cell_volume   1199.89744511
_cell_formula_units_Z   1
loop_
 _symmetry_equiv_pos_site_id
 _symmetry_equiv_pos_as_xyz
  1  'x, y, z'
loop_
 _atom_site_type_symbol
 _atom_site_label
 _atom_site_symmetry_multiplicity
 _atom_site_fract_x
 _atom_site_fract_y
 _atom_site_fract_z
 _atom_site_occupancy
  Ac  Ac0  1  0.500915  0.816913  0.907189  1
  Ac  Ac1  1  0.999206  0.683361  0.592446  1
  Ac  Ac2  1  0.501802  0.182194  0.403862  1
  Ac  Ac3  1  0.999605  0.321764  0.096686  1
  Ac  Ac4  1  0.497931  0.183914  0.097820  1
  Ac  Ac5  1  0.995475  0.319068  0.401768  1
  Ac  Ac6  1  0.500266  0.815926  0.593267  1
  Ac  Ac7  1  0.999374  0.684719  0.906641  1
  Ac  Ac8  1  0.664055  0.325850  0.878269  1
  Ac  Ac9  1  0.163410  0.172959  0.621306  1
  Yb  Yb10  1  0.341069  0.668809  0.373095  1
  Yb  Yb11  1  0.840271  0.827382  0.127376  1
  Yb  Yb12  1  0.334718  0.668408  0.125533  1
  Yb  Yb13  1  0.834369  0.828393  0.373914  1
  Yb  Yb14  1  0.660596  0.329744  0.622388  1
  Yb  Yb15  1  0.161615  0.169603  0.878241  1
  Yb  Yb16  1  0.329165  0.503025  0.751230  1
  Yb  Yb17  1  0.829794  0.997579  0.748571  1
  Yb  Yb18  1  0.671991  0.505328  0.250474  1
  Sm  Sm19  1  0.175026  0.993072  0.249313  1
  Sn  Sn20  1  0.169979  0.963215  0.043581  1
  Sn  Sn21  1  0.669994  0.541303  0.459987  1
  Sn  Sn22  1  0.820357  0.036805  0.535253  1
  Sn  Sn23  1  0.321214  0.464175  0.964278  1
  Sn  Sn24  1  0.837420  0.032324  0.966302  1
  Sn  Sn25  1  0.336207  0.467935  0.534326  1
  Sn  Sn26  1  0.169160  0.959837  0.452995  1
  Sn  Sn27  1  0.668454  0.544642  0.044020  1
  Sn  Sn28  1  0.704635  0.636570  0.749206  1
  Sn  Sn29  1  0.203405  0.863428  0.750780  1
  Sn  Sn30  1  0.292895  0.361487  0.250522  1
  Sn  Sn31  1  0.799847  0.128706  0.249472  1
  Sn  Sn32  1  0.461071  0.101608  0.753008  1
  Sn  Sn33  1  0.961088  0.396531  0.747226  1
  Sn  Sn34  1  0.540400  0.887593  0.248281  1
  Sn  Sn35  1  0.043224  0.615832  0.251376  1
