# generated using pymatgen
data_Th2Cr2Fe10P7
_symmetry_space_group_name_H-M   'P 1'
_cell_length_a   9.08431400
_cell_length_b   9.10716265
_cell_length_c   3.69219200
_cell_angle_alpha   90.00000000
_cell_angle_beta   90.00000000
_cell_angle_gamma   119.91962819
_symmetry_Int_Tables_number   1
_chemical_formula_structural   Th2Cr2Fe10P7
_chemical_formula_sum   'Th2 Cr2 Fe10 P7'
_cell_volume   264.75324730
_cell_formula_units_Z   1
loop_
 _symmetry_equiv_pos_site_id
 _symmetry_equiv_pos_as_xyz
  1  'x, y, z'
loop_
 _atom_site_type_symbol
 _atom_site_label
 _atom_site_symmetry_multiplicity
 _atom_site_fract_x
 _atom_site_fract_y
 _atom_site_fract_z
 _atom_site_occupancy
  Th  Th0  1  0.332778  0.665771  0.000000  1
  Th  Th1  1  0.000354  0.999426  0.500000  1
  Cr  Cr2  1  0.772152  0.546267  0.500000  1
  Cr  Cr3  1  0.455001  0.224268  0.500000  1
  Fe  Fe4  1  0.031523  0.272375  0.000000  1
  Fe  Fe5  1  0.727134  0.762226  0.000000  1
  Fe  Fe6  1  0.237728  0.964865  0.000000  1
  Fe  Fe7  1  0.545771  0.062069  0.000000  1
  Fe  Fe8  1  0.938235  0.481057  0.000000  1
  Fe  Fe9  1  0.517382  0.456483  0.000000  1
  Fe  Fe10  1  0.613412  0.899465  0.500000  1
  Fe  Fe11  1  0.101037  0.713926  0.500000  1
  Fe  Fe12  1  0.283079  0.386158  0.500000  1
  Fe  Fe13  1  0.780605  0.235135  0.500000  1
  P  P14  1  0.768757  0.031901  0.000000  1
  P  P15  1  0.968677  0.736505  0.000000  1
  P  P16  1  0.262354  0.232252  0.000000  1
  P  P17  1  0.374683  0.936328  0.500000  1
  P  P18  1  0.059079  0.435221  0.500000  1
  P  P19  1  0.562474  0.625196  0.500000  1
  P  P20  1  0.667788  0.333101  0.000000  1
