# generated using pymatgen
data_Tb3NbSn2(B2Ru5)2
_symmetry_space_group_name_H-M   'P 1'
_cell_length_a   9.72351219
_cell_length_b   9.72351192
_cell_length_c   3.10997300
_cell_angle_alpha   90.00000000
_cell_angle_beta   90.00000000
_cell_angle_gamma   91.00706108
_symmetry_Int_Tables_number   1
_chemical_formula_structural   Tb3NbSn2(B2Ru5)2
_chemical_formula_sum   'Tb3 Nb1 Sn2 B4 Ru10'
_cell_volume   293.99222489
_cell_formula_units_Z   1
loop_
 _symmetry_equiv_pos_site_id
 _symmetry_equiv_pos_as_xyz
  1  'x, y, z'
loop_
 _atom_site_type_symbol
 _atom_site_label
 _atom_site_symmetry_multiplicity
 _atom_site_fract_x
 _atom_site_fract_y
 _atom_site_fract_z
 _atom_site_occupancy
  Tb  Tb0  1  0.823220  0.674913  0.000000  1
  Tb  Tb1  1  0.174913  0.323220  0.000000  1
  Tb  Tb2  1  0.324894  0.824894  0.000000  1
  Nb  Nb3  1  0.674078  0.174078  0.000000  1
  Sn  Sn4  1  0.498662  0.506276  0.000000  1
  Sn  Sn5  1  0.006276  0.998662  0.000000  1
  B  B6  1  0.624190  0.884081  0.000000  1
  B  B7  1  0.384081  0.124190  0.000000  1
  B  B8  1  0.117357  0.617357  0.000000  1
  B  B9  1  0.874680  0.374680  0.000000  1
  Ru  Ru10  1  0.571335  0.729274  0.500000  1
  Ru  Ru11  1  0.446496  0.277056  0.500000  1
  Ru  Ru12  1  0.069243  0.774148  0.500000  1
  Ru  Ru13  1  0.911124  0.214235  0.500000  1
  Ru  Ru14  1  0.274148  0.569243  0.500000  1
  Ru  Ru15  1  0.714235  0.411124  0.500000  1
  Ru  Ru16  1  0.229274  0.071335  0.500000  1
  Ru  Ru17  1  0.777056  0.946496  0.500000  1
  Ru  Ru18  1  0.510361  0.010361  0.500000  1
  Ru  Ru19  1  0.994375  0.494375  0.500000  1
