# generated using pymatgen
data_Y16In3Ag(IrRh)2
_symmetry_space_group_name_H-M   'P 1'
_cell_length_a   9.66674636
_cell_length_b   9.68585724
_cell_length_c   9.66674638
_cell_angle_alpha   59.92460037
_cell_angle_beta   59.85138513
_cell_angle_gamma   59.92460270
_symmetry_Int_Tables_number   1
_chemical_formula_structural   Y16In3Ag(IrRh)2
_chemical_formula_sum   'Y16 In3 Ag1 Ir2 Rh2'
_cell_volume   638.55570083
_cell_formula_units_Z   1
loop_
 _symmetry_equiv_pos_site_id
 _symmetry_equiv_pos_as_xyz
  1  'x, y, z'
loop_
 _atom_site_type_symbol
 _atom_site_label
 _atom_site_symmetry_multiplicity
 _atom_site_fract_x
 _atom_site_fract_y
 _atom_site_fract_z
 _atom_site_occupancy
  Y  Y0  1  0.810128  0.188527  0.810128  1
  Y  Y1  1  0.934304  0.562703  0.560887  1
  Y  Y2  1  0.562530  0.933701  0.562530  1
  Y  Y3  1  0.808055  0.192038  0.191588  1
  Y  Y4  1  0.191850  0.807729  0.191850  1
  Y  Y5  1  0.350475  0.949367  0.350475  1
  Y  Y6  1  0.938073  0.938095  0.560558  1
  Y  Y7  1  0.560558  0.938095  0.938073  1
  Y  Y8  1  0.188506  0.809503  0.810331  1
  Y  Y9  1  0.350146  0.350644  0.950008  1
  Y  Y10  1  0.560887  0.562703  0.934304  1
  Y  Y11  1  0.349698  0.350699  0.349698  1
  Y  Y12  1  0.191588  0.192038  0.808055  1
  Y  Y13  1  0.810331  0.809503  0.188506  1
  Y  Y14  1  0.938774  0.560618  0.938774  1
  Y  Y15  1  0.950008  0.350644  0.350146  1
  In  In16  1  0.582937  0.254013  0.582937  1
  In  In17  1  0.582970  0.583042  0.253862  1
  In  In18  1  0.253862  0.583042  0.582970  1
  Ag  Ag19  1  0.583151  0.583402  0.583151  1
  Ir  Ir20  1  0.142065  0.574612  0.142065  1
  Ir  Ir21  1  0.142201  0.141848  0.142201  1
  Rh  Rh22  1  0.142040  0.141718  0.574863  1
  Rh  Rh23  1  0.574863  0.141718  0.142040  1
