# generated using pymatgen
data_ErTmSc3Ga4
_symmetry_space_group_name_H-M   'P 1'
_cell_length_a   7.23398300
_cell_length_b   7.54421200
_cell_length_c   14.40388300
_cell_angle_alpha   90.00000000
_cell_angle_beta   90.00000000
_cell_angle_gamma   90.00000000
_symmetry_Int_Tables_number   1
_chemical_formula_structural   ErTmSc3Ga4
_chemical_formula_sum   'Er4 Tm4 Sc12 Ga16'
_cell_volume   786.08761310
_cell_formula_units_Z   4
loop_
 _symmetry_equiv_pos_site_id
 _symmetry_equiv_pos_as_xyz
  1  'x, y, z'
loop_
 _atom_site_type_symbol
 _atom_site_label
 _atom_site_symmetry_multiplicity
 _atom_site_fract_x
 _atom_site_fract_y
 _atom_site_fract_z
 _atom_site_occupancy
  Er  Er0  1  0.510549  0.319671  0.094345  1
  Er  Er1  1  0.010549  0.180329  0.405655  1
  Er  Er2  1  0.510549  0.319671  0.405655  1
  Er  Er3  1  0.489451  0.680329  0.594345  1
  Tm  Tm4  1  0.010549  0.180329  0.094345  1
  Tm  Tm5  1  0.989451  0.819671  0.905655  1
  Tm  Tm6  1  0.489451  0.680329  0.905655  1
  Tm  Tm7  1  0.989451  0.819671  0.594345  1
  Sc  Sc8  1  0.162326  0.503220  0.750000  1
  Sc  Sc9  1  0.837674  0.496780  0.250000  1
  Sc  Sc10  1  0.337674  0.003220  0.250000  1
  Sc  Sc11  1  0.662326  0.996780  0.750000  1
  Sc  Sc12  1  0.330000  0.173054  0.624700  1
  Sc  Sc13  1  0.670000  0.826946  0.375300  1
  Sc  Sc14  1  0.170000  0.673054  0.375300  1
  Sc  Sc15  1  0.670000  0.826946  0.124700  1
  Sc  Sc16  1  0.830000  0.326946  0.624700  1
  Sc  Sc17  1  0.330000  0.173054  0.875300  1
  Sc  Sc18  1  0.830000  0.326946  0.875300  1
  Sc  Sc19  1  0.170000  0.673054  0.124700  1
  Ga  Ga20  1  0.030643  0.115702  0.750000  1
  Ga  Ga21  1  0.969357  0.884298  0.250000  1
  Ga  Ga22  1  0.469357  0.615702  0.250000  1
  Ga  Ga23  1  0.530643  0.384298  0.750000  1
  Ga  Ga24  1  0.283187  0.870007  0.750000  1
  Ga  Ga25  1  0.716813  0.129993  0.250000  1
  Ga  Ga26  1  0.216813  0.370007  0.250000  1
  Ga  Ga27  1  0.783187  0.629993  0.750000  1
  Ga  Ga28  1  0.162935  0.465416  0.540408  1
  Ga  Ga29  1  0.837065  0.534584  0.459592  1
  Ga  Ga30  1  0.337065  0.965416  0.459592  1
  Ga  Ga31  1  0.837065  0.534584  0.040408  1
  Ga  Ga32  1  0.662935  0.034584  0.540408  1
  Ga  Ga33  1  0.162935  0.465416  0.959592  1
  Ga  Ga34  1  0.662935  0.034584  0.959592  1
  Ga  Ga35  1  0.337065  0.965416  0.040408  1
