# generated using pymatgen
data_Ti(Nb5Pt2)2
_symmetry_space_group_name_H-M   'P 1'
_cell_length_a   10.01165100
_cell_length_b   10.01165100
_cell_length_c   5.22485800
_cell_angle_alpha   90.00000000
_cell_angle_beta   90.00000000
_cell_angle_gamma   90.00000000
_symmetry_Int_Tables_number   1
_chemical_formula_structural   Ti(Nb5Pt2)2
_chemical_formula_sum   'Ti2 Nb20 Pt8'
_cell_volume   523.70400566
_cell_formula_units_Z   2
loop_
 _symmetry_equiv_pos_site_id
 _symmetry_equiv_pos_as_xyz
  1  'x, y, z'
loop_
 _atom_site_type_symbol
 _atom_site_label
 _atom_site_symmetry_multiplicity
 _atom_site_fract_x
 _atom_site_fract_y
 _atom_site_fract_z
 _atom_site_occupancy
  Ti  Ti0  1  0.000000  0.000000  0.000000  1
  Ti  Ti1  1  0.500000  0.500000  0.500000  1
  Nb  Nb2  1  0.397536  0.397536  0.000000  1
  Nb  Nb3  1  0.897536  0.102464  0.500000  1
  Nb  Nb4  1  0.102464  0.897536  0.500000  1
  Nb  Nb5  1  0.602464  0.602464  0.000000  1
  Nb  Nb6  1  0.125860  0.460465  0.000000  1
  Nb  Nb7  1  0.960465  0.374140  0.500000  1
  Nb  Nb8  1  0.039535  0.625860  0.500000  1
  Nb  Nb9  1  0.874140  0.539535  0.000000  1
  Nb  Nb10  1  0.374140  0.960465  0.500000  1
  Nb  Nb11  1  0.625860  0.039535  0.500000  1
  Nb  Nb12  1  0.460465  0.125860  0.000000  1
  Nb  Nb13  1  0.539535  0.874140  0.000000  1
  Nb  Nb14  1  0.183983  0.183983  0.253106  1
  Nb  Nb15  1  0.683983  0.316017  0.753106  1
  Nb  Nb16  1  0.316017  0.683983  0.753106  1
  Nb  Nb17  1  0.816017  0.816017  0.253106  1
  Nb  Nb18  1  0.316017  0.683983  0.246894  1
  Nb  Nb19  1  0.683983  0.316017  0.246894  1
  Nb  Nb20  1  0.183983  0.183983  0.746894  1
  Nb  Nb21  1  0.816017  0.816017  0.746894  1
  Pt  Pt22  1  0.259455  0.934546  0.000000  1
  Pt  Pt23  1  0.434546  0.240545  0.500000  1
  Pt  Pt24  1  0.565454  0.759455  0.500000  1
  Pt  Pt25  1  0.740545  0.065454  0.000000  1
  Pt  Pt26  1  0.240545  0.434546  0.500000  1
  Pt  Pt27  1  0.759455  0.565454  0.500000  1
  Pt  Pt28  1  0.934546  0.259455  0.000000  1
  Pt  Pt29  1  0.065454  0.740545  0.000000  1
