# generated using pymatgen
data_Hf18Cr2GaRe6Rh
_symmetry_space_group_name_H-M   'P 1'
_cell_length_a   8.61016200
_cell_length_b   8.61016111
_cell_length_c   8.51135300
_cell_angle_alpha   90.00000000
_cell_angle_beta   90.00000000
_cell_angle_gamma   120.00000340
_symmetry_Int_Tables_number   1
_chemical_formula_structural   Hf18Cr2GaRe6Rh
_chemical_formula_sum   'Hf18 Cr2 Ga1 Re6 Rh1'
_cell_volume   546.45174922
_cell_formula_units_Z   1
loop_
 _symmetry_equiv_pos_site_id
 _symmetry_equiv_pos_as_xyz
  1  'x, y, z'
loop_
 _atom_site_type_symbol
 _atom_site_label
 _atom_site_symmetry_multiplicity
 _atom_site_fract_x
 _atom_site_fract_y
 _atom_site_fract_z
 _atom_site_occupancy
  Hf  Hf0  1  0.195864  0.804136  0.447107  1
  Hf  Hf1  1  0.195864  0.391727  0.447107  1
  Hf  Hf2  1  0.608273  0.804136  0.447107  1
  Hf  Hf3  1  0.809417  0.190583  0.548272  1
  Hf  Hf4  1  0.809417  0.618833  0.548272  1
  Hf  Hf5  1  0.381167  0.190583  0.548272  1
  Hf  Hf6  1  0.809417  0.190583  0.951728  1
  Hf  Hf7  1  0.809417  0.618833  0.951728  1
  Hf  Hf8  1  0.381167  0.190583  0.951728  1
  Hf  Hf9  1  0.195864  0.804136  0.052893  1
  Hf  Hf10  1  0.195864  0.391727  0.052893  1
  Hf  Hf11  1  0.608273  0.804136  0.052893  1
  Hf  Hf12  1  0.542046  0.457954  0.250000  1
  Hf  Hf13  1  0.542046  0.084092  0.250000  1
  Hf  Hf14  1  0.915908  0.457954  0.250000  1
  Hf  Hf15  1  0.459740  0.540260  0.750000  1
  Hf  Hf16  1  0.459740  0.919479  0.750000  1
  Hf  Hf17  1  0.080521  0.540260  0.750000  1
  Cr  Cr18  1  0.000000  0.000000  0.499449  1
  Cr  Cr19  1  0.000000  0.000000  0.000551  1
  Ga  Ga20  1  0.666667  0.333333  0.750000  1
  Re  Re21  1  0.892048  0.107952  0.250000  1
  Re  Re22  1  0.892048  0.784097  0.250000  1
  Re  Re23  1  0.215903  0.107952  0.250000  1
  Re  Re24  1  0.108115  0.891885  0.750000  1
  Re  Re25  1  0.108115  0.216230  0.750000  1
  Re  Re26  1  0.783770  0.891885  0.750000  1
  Rh  Rh27  1  0.333333  0.666667  0.250000  1
