# generated using pymatgen
data_Pr13Th3(CdTc)4
_symmetry_space_group_name_H-M   'P 1'
_cell_length_a   9.96713093
_cell_length_b   9.99982333
_cell_length_c   9.99982400
_cell_angle_alpha   60.00000439
_cell_angle_beta   59.89144276
_cell_angle_gamma   59.89144297
_symmetry_Int_Tables_number   1
_chemical_formula_structural   Pr13Th3(CdTc)4
_chemical_formula_sum   'Pr13 Th3 Cd4 Tc4'
_cell_volume   703.59914513
_cell_formula_units_Z   1
loop_
 _symmetry_equiv_pos_site_id
 _symmetry_equiv_pos_as_xyz
  1  'x, y, z'
loop_
 _atom_site_type_symbol
 _atom_site_label
 _atom_site_symmetry_multiplicity
 _atom_site_fract_x
 _atom_site_fract_y
 _atom_site_fract_z
 _atom_site_occupancy
  Pr  Pr0  1  0.953549  0.348816  0.348816  1
  Pr  Pr1  1  0.809265  0.191422  0.191422  1
  Pr  Pr2  1  0.191795  0.808404  0.808404  1
  Pr  Pr3  1  0.191795  0.808404  0.191398  1
  Pr  Pr4  1  0.809265  0.191422  0.807891  1
  Pr  Pr5  1  0.191795  0.191398  0.808404  1
  Pr  Pr6  1  0.809265  0.807891  0.191422  1
  Pr  Pr7  1  0.942932  0.558971  0.558971  1
  Pr  Pr8  1  0.558312  0.941664  0.941664  1
  Pr  Pr9  1  0.558312  0.941664  0.558359  1
  Pr  Pr10  1  0.942932  0.558971  0.939125  1
  Pr  Pr11  1  0.558312  0.558359  0.941664  1
  Pr  Pr12  1  0.942932  0.939125  0.558971  1
  Th  Th13  1  0.341637  0.343926  0.343926  1
  Th  Th14  1  0.341637  0.343926  0.970509  1
  Th  Th15  1  0.341637  0.970509  0.343926  1
  Cd  Cd16  1  0.577575  0.579889  0.579889  1
  Cd  Cd17  1  0.577575  0.579889  0.262646  1
  Cd  Cd18  1  0.577575  0.262646  0.579889  1
  Cd  Cd19  1  0.261014  0.579662  0.579662  1
  Tc  Tc20  1  0.149181  0.135600  0.135600  1
  Tc  Tc21  1  0.149181  0.135600  0.579619  1
  Tc  Tc22  1  0.149181  0.579619  0.135600  1
  Tc  Tc23  1  0.573341  0.142219  0.142219  1
