# generated using pymatgen
data_ThZn(GaPd)2
_symmetry_space_group_name_H-M   'P 1'
_cell_length_a   5.34560800
_cell_length_b   5.35778828
_cell_length_c   4.41189800
_cell_angle_alpha   90.00000000
_cell_angle_beta   90.00000000
_cell_angle_gamma   119.92483805
_symmetry_Int_Tables_number   1
_chemical_formula_structural   ThZn(GaPd)2
_chemical_formula_sum   'Th1 Zn1 Ga2 Pd2'
_cell_volume   109.51337912
_cell_formula_units_Z   1
loop_
 _symmetry_equiv_pos_site_id
 _symmetry_equiv_pos_as_xyz
  1  'x, y, z'
loop_
 _atom_site_type_symbol
 _atom_site_label
 _atom_site_symmetry_multiplicity
 _atom_site_fract_x
 _atom_site_fract_y
 _atom_site_fract_z
 _atom_site_occupancy
  Th  Th0  1  0.000000  0.000000  0.000000  1
  Zn  Zn1  1  0.500000  0.000000  0.500000  1
  Ga  Ga2  1  0.000000  0.500000  0.500000  1
  Ga  Ga3  1  0.500000  0.500000  0.500000  1
  Pd  Pd4  1  0.332218  0.664438  0.000000  1
  Pd  Pd5  1  0.667782  0.335562  0.000000  1
