# generated using pymatgen
data_Sc3Pt6Rh
_symmetry_space_group_name_H-M   'P 1'
_cell_length_a   10.35535891
_cell_length_b   10.35535796
_cell_length_c   3.97606100
_cell_angle_alpha   90.00000000
_cell_angle_beta   90.00000000
_cell_angle_gamma   157.38367322
_symmetry_Int_Tables_number   1
_chemical_formula_structural   Sc3Pt6Rh
_chemical_formula_sum   'Sc3 Pt6 Rh1'
_cell_volume   163.96290033
_cell_formula_units_Z   1
loop_
 _symmetry_equiv_pos_site_id
 _symmetry_equiv_pos_as_xyz
  1  'x, y, z'
loop_
 _atom_site_type_symbol
 _atom_site_label
 _atom_site_symmetry_multiplicity
 _atom_site_fract_x
 _atom_site_fract_y
 _atom_site_fract_z
 _atom_site_occupancy
  Sc  Sc0  1  0.997974  0.002026  0.000000  1
  Sc  Sc1  1  0.811417  0.188585  0.000000  1
  Sc  Sc2  1  0.191599  0.808403  0.000000  1
  Pt  Pt3  1  0.597967  0.402034  0.000000  1
  Pt  Pt4  1  0.401997  0.598004  0.000000  1
  Pt  Pt5  1  0.700118  0.299884  0.500001  1
  Pt  Pt6  1  0.499165  0.500837  0.500001  1
  Pt  Pt7  1  0.300430  0.699572  0.500001  1
  Pt  Pt8  1  0.099079  0.900922  0.500001  1
  Rh  Rh9  1  0.900262  0.099739  0.500001  1
