# generated using pymatgen
data_ErScMn3Si7Pt9
_symmetry_space_group_name_H-M   'P 1'
_cell_length_a   9.92449700
_cell_length_b   9.92449766
_cell_length_c   3.86491500
_cell_angle_alpha   90.00000000
_cell_angle_beta   90.00000000
_cell_angle_gamma   120.00000112
_symmetry_Int_Tables_number   1
_chemical_formula_structural   ErScMn3Si7Pt9
_chemical_formula_sum   'Er1 Sc1 Mn3 Si7 Pt9'
_cell_volume   329.67621276
_cell_formula_units_Z   1
loop_
 _symmetry_equiv_pos_site_id
 _symmetry_equiv_pos_as_xyz
  1  'x, y, z'
loop_
 _atom_site_type_symbol
 _atom_site_label
 _atom_site_symmetry_multiplicity
 _atom_site_fract_x
 _atom_site_fract_y
 _atom_site_fract_z
 _atom_site_occupancy
  Er  Er0  1  0.333333  0.666667  0.500000  1
  Sc  Sc1  1  0.000000  0.000000  0.000000  1
  Mn  Mn2  1  0.884566  0.455097  0.500000  1
  Mn  Mn3  1  0.570531  0.115434  0.500000  1
  Mn  Mn4  1  0.544903  0.429469  0.500000  1
  Si  Si5  1  0.252719  0.207864  0.500000  1
  Si  Si6  1  0.792136  0.044856  0.500000  1
  Si  Si7  1  0.955144  0.747281  0.500000  1
  Si  Si8  1  0.553915  0.635993  0.000000  1
  Si  Si9  1  0.364007  0.917921  0.000000  1
  Si  Si10  1  0.082079  0.446085  0.000000  1
  Si  Si11  1  0.666667  0.333333  0.000000  1
  Pt  Pt12  1  0.219980  0.945370  0.500000  1
  Pt  Pt13  1  0.054630  0.274611  0.500000  1
  Pt  Pt14  1  0.725389  0.780020  0.500000  1
  Pt  Pt15  1  0.307896  0.411076  0.000000  1
  Pt  Pt16  1  0.588924  0.896822  0.000000  1
  Pt  Pt17  1  0.103178  0.692104  0.000000  1
  Pt  Pt18  1  0.394070  0.178302  0.000000  1
  Pt  Pt19  1  0.821698  0.215769  0.000000  1
  Pt  Pt20  1  0.784231  0.605930  0.000000  1
