# generated using pymatgen
data_Zr3Pa5(TlPd2)4
_symmetry_space_group_name_H-M   'P 1'
_cell_length_a   7.57978800
_cell_length_b   7.57978876
_cell_length_c   7.31679800
_cell_angle_alpha   90.00000000
_cell_angle_beta   90.00000000
_cell_angle_gamma   89.82401061
_symmetry_Int_Tables_number   1
_chemical_formula_structural   Zr3Pa5(TlPd2)4
_chemical_formula_sum   'Zr3 Pa5 Tl4 Pd8'
_cell_volume   420.37141624
_cell_formula_units_Z   1
loop_
 _symmetry_equiv_pos_site_id
 _symmetry_equiv_pos_as_xyz
  1  'x, y, z'
loop_
 _atom_site_type_symbol
 _atom_site_label
 _atom_site_symmetry_multiplicity
 _atom_site_fract_x
 _atom_site_fract_y
 _atom_site_fract_z
 _atom_site_occupancy
  Zr  Zr0  1  0.690205  0.686130  0.000000  1
  Zr  Zr1  1  0.189861  0.810139  0.500000  1
  Zr  Zr2  1  0.313870  0.309795  0.000000  1
  Pa  Pa3  1  0.633065  0.637982  0.500000  1
  Pa  Pa4  1  0.812352  0.187648  0.500000  1
  Pa  Pa5  1  0.864482  0.135518  0.000000  1
  Pa  Pa6  1  0.137079  0.862921  0.000000  1
  Pa  Pa7  1  0.362018  0.366935  0.500000  1
  Tl  Tl8  1  0.002007  0.503122  0.242095  1
  Tl  Tl9  1  0.496878  0.997993  0.757905  1
  Tl  Tl10  1  0.496878  0.997993  0.242095  1
  Tl  Tl11  1  0.002007  0.503122  0.757905  1
  Pd  Pd12  1  0.634106  0.365894  0.200691  1
  Pd  Pd13  1  0.365691  0.634309  0.800266  1
  Pd  Pd14  1  0.864904  0.865053  0.700855  1
  Pd  Pd15  1  0.634106  0.365894  0.799309  1
  Pd  Pd16  1  0.365691  0.634309  0.199734  1
  Pd  Pd17  1  0.134947  0.135096  0.299145  1
  Pd  Pd18  1  0.864904  0.865053  0.299145  1
  Pd  Pd19  1  0.134947  0.135096  0.700855  1
