# generated using pymatgen
data_Yb4FeOs3Ru4
_symmetry_space_group_name_H-M   'P 1'
_cell_length_a   5.21145134
_cell_length_b   5.30282034
_cell_length_c   8.74939500
_cell_angle_alpha   90.00000000
_cell_angle_beta   90.00000000
_cell_angle_gamma   120.60054912
_symmetry_Int_Tables_number   1
_chemical_formula_structural   Yb4FeOs3Ru4
_chemical_formula_sum   'Yb4 Fe1 Os3 Ru4'
_cell_volume   208.12016978
_cell_formula_units_Z   1
loop_
 _symmetry_equiv_pos_site_id
 _symmetry_equiv_pos_as_xyz
  1  'x, y, z'
loop_
 _atom_site_type_symbol
 _atom_site_label
 _atom_site_symmetry_multiplicity
 _atom_site_fract_x
 _atom_site_fract_y
 _atom_site_fract_z
 _atom_site_occupancy
  Yb  Yb0  1  0.659468  0.329746  0.566210  1
  Yb  Yb1  1  0.332313  0.666144  0.436484  1
  Yb  Yb2  1  0.332313  0.666144  0.063516  1
  Yb  Yb3  1  0.659468  0.329746  0.933790  1
  Fe  Fe4  1  0.343114  0.171530  0.250000  1
  Os  Os5  1  0.684837  0.842455  0.750000  1
  Os  Os6  1  0.834249  0.652896  0.250000  1
  Os  Os7  1  0.834284  0.181411  0.250000  1
  Ru  Ru8  1  0.979108  0.989528  0.491918  1
  Ru  Ru9  1  0.979108  0.989528  0.008082  1
  Ru  Ru10  1  0.180778  0.353392  0.750000  1
  Ru  Ru11  1  0.180960  0.827480  0.750000  1
