# generated using pymatgen
data_Lu2Mn3Fe9P7
_symmetry_space_group_name_H-M   'P 1'
_cell_length_a   9.02191100
_cell_length_b   9.02191115
_cell_length_c   3.60859300
_cell_angle_alpha   90.00000000
_cell_angle_beta   90.00000000
_cell_angle_gamma   120.00000312
_symmetry_Int_Tables_number   1
_chemical_formula_structural   Lu2Mn3Fe9P7
_chemical_formula_sum   'Lu2 Mn3 Fe9 P7'
_cell_volume   254.36983284
_cell_formula_units_Z   1
loop_
 _symmetry_equiv_pos_site_id
 _symmetry_equiv_pos_as_xyz
  1  'x, y, z'
loop_
 _atom_site_type_symbol
 _atom_site_label
 _atom_site_symmetry_multiplicity
 _atom_site_fract_x
 _atom_site_fract_y
 _atom_site_fract_z
 _atom_site_occupancy
  Lu  Lu0  1  0.666667  0.333333  0.000000  1
  Lu  Lu1  1  0.000000  0.000000  0.500000  1
  Mn  Mn2  1  0.556121  0.770577  0.500000  1
  Mn  Mn3  1  0.229423  0.785545  0.500000  1
  Mn  Mn4  1  0.214455  0.443879  0.500000  1
  Fe  Fe5  1  0.758757  0.723411  0.000000  1
  Fe  Fe6  1  0.276589  0.035347  0.000000  1
  Fe  Fe7  1  0.964653  0.241243  0.000000  1
  Fe  Fe8  1  0.488765  0.941745  0.000000  1
  Fe  Fe9  1  0.058255  0.547019  0.000000  1
  Fe  Fe10  1  0.452981  0.511235  0.000000  1
  Fe  Fe11  1  0.720076  0.103473  0.500000  1
  Fe  Fe12  1  0.896527  0.616604  0.500000  1
  Fe  Fe13  1  0.383396  0.279924  0.500000  1
  P  P14  1  0.453998  0.075677  0.500000  1
  P  P15  1  0.924323  0.378321  0.500000  1
  P  P16  1  0.621679  0.546002  0.500000  1
  P  P17  1  0.749177  0.968955  0.000000  1
  P  P18  1  0.031045  0.780223  0.000000  1
  P  P19  1  0.219777  0.250823  0.000000  1
  P  P20  1  0.333333  0.666667  0.000000  1
