# generated using pymatgen
data_Zr2ZnGaFe8
_symmetry_space_group_name_H-M   'P 1'
_cell_length_a   8.39562734
_cell_length_b   8.39562718
_cell_length_c   8.39562731
_cell_angle_alpha   33.67239695
_cell_angle_beta   33.67240143
_cell_angle_gamma   33.67240056
_symmetry_Int_Tables_number   1
_chemical_formula_structural   Zr2ZnGaFe8
_chemical_formula_sum   'Zr2 Zn1 Ga1 Fe8'
_cell_volume   162.06881269
_cell_formula_units_Z   1
loop_
 _symmetry_equiv_pos_site_id
 _symmetry_equiv_pos_as_xyz
  1  'x, y, z'
loop_
 _atom_site_type_symbol
 _atom_site_label
 _atom_site_symmetry_multiplicity
 _atom_site_fract_x
 _atom_site_fract_y
 _atom_site_fract_z
 _atom_site_occupancy
  Zr  Zr0  1  0.999497  0.999497  0.999497  1
  Zr  Zr1  1  0.500396  0.500396  0.500396  1
  Zn  Zn2  1  0.625382  0.625382  0.625382  1
  Ga  Ga3  1  0.125097  0.125097  0.125097  1
  Fe  Fe4  1  0.564103  0.060341  0.564103  1
  Fe  Fe5  1  0.064360  0.558637  0.064360  1
  Fe  Fe6  1  0.060341  0.564103  0.564103  1
  Fe  Fe7  1  0.558637  0.064360  0.064360  1
  Fe  Fe8  1  0.811958  0.811958  0.811958  1
  Fe  Fe9  1  0.311767  0.311767  0.311767  1
  Fe  Fe10  1  0.564103  0.564103  0.060341  1
  Fe  Fe11  1  0.064360  0.064360  0.558637  1
