# generated using pymatgen
data_CaTb5NdRhBr12
_symmetry_space_group_name_H-M   'P 1'
_cell_length_a   9.29892945
_cell_length_b   9.34613759
_cell_length_c   9.36466247
_cell_angle_alpha   106.57419686
_cell_angle_beta   106.65998057
_cell_angle_gamma   107.11066110
_symmetry_Int_Tables_number   1
_chemical_formula_structural   CaTb5NdRhBr12
_chemical_formula_sum   'Ca1 Tb5 Nd1 Rh1 Br12'
_cell_volume   681.78638606
_cell_formula_units_Z   1
loop_
 _symmetry_equiv_pos_site_id
 _symmetry_equiv_pos_as_xyz
  1  'x, y, z'
loop_
 _atom_site_type_symbol
 _atom_site_label
 _atom_site_symmetry_multiplicity
 _atom_site_fract_x
 _atom_site_fract_y
 _atom_site_fract_z
 _atom_site_occupancy
  Ca  Ca0  1  0.499298  0.499987  0.500450  1
  Tb  Tb1  1  0.024362  0.315441  0.105625  1
  Tb  Tb2  1  0.103131  0.022880  0.313273  1
  Tb  Tb3  1  0.696893  0.898082  0.977470  1
  Tb  Tb4  1  0.976435  0.684408  0.894469  1
  Tb  Tb5  1  0.893180  0.976161  0.684892  1
  Nd  Nd6  1  0.310851  0.103568  0.021937  1
  Rh  Rh7  1  0.000326  0.999824  0.999029  1
  Br  Br8  1  0.685109  0.218147  0.072127  1
  Br  Br9  1  0.070925  0.678468  0.217037  1
  Br  Br10  1  0.212932  0.069979  0.670703  1
  Br  Br11  1  0.319970  0.773681  0.926450  1
  Br  Br12  1  0.928246  0.321501  0.782637  1
  Br  Br13  1  0.780129  0.927548  0.319798  1
  Br  Br14  1  0.454923  0.159619  0.381849  1
  Br  Br15  1  0.374204  0.462985  0.163098  1
  Br  Br16  1  0.155862  0.373269  0.453556  1
  Br  Br17  1  0.544959  0.841856  0.627258  1
  Br  Br18  1  0.625570  0.546176  0.842287  1
  Br  Br19  1  0.842696  0.626420  0.546054  1
