# generated using pymatgen
data_TbHo(Be12Ni)2
_symmetry_space_group_name_H-M   'P 1'
_cell_length_a   7.25303392
_cell_length_b   7.30967779
_cell_length_c   7.22754001
_cell_angle_alpha   59.85511244
_cell_angle_beta   59.62751884
_cell_angle_gamma   59.51010189
_symmetry_Int_Tables_number   1
_chemical_formula_structural   TbHo(Be12Ni)2
_chemical_formula_sum   'Tb1 Ho1 Be24 Ni2'
_cell_volume   268.88066439
_cell_formula_units_Z   1
loop_
 _symmetry_equiv_pos_site_id
 _symmetry_equiv_pos_as_xyz
  1  'x, y, z'
loop_
 _atom_site_type_symbol
 _atom_site_label
 _atom_site_symmetry_multiplicity
 _atom_site_fract_x
 _atom_site_fract_y
 _atom_site_fract_z
 _atom_site_occupancy
  Tb  Tb0  1  0.249005  0.250995  0.249005  1
  Ho  Ho1  1  0.751168  0.748832  0.751168  1
  Be  Be2  1  0.499996  0.500004  0.499996  1
  Be  Be3  1  0.999964  0.000036  0.999964  1
  Be  Be4  1  0.568033  0.788108  0.432097  1
  Be  Be5  1  0.432097  0.211762  0.568033  1
  Be  Be6  1  0.293284  0.934941  0.706888  1
  Be  Be7  1  0.706888  0.064887  0.293284  1
  Be  Be8  1  0.932697  0.285295  0.067141  1
  Be  Be9  1  0.067141  0.714866  0.932697  1
  Be  Be10  1  0.205848  0.797546  0.560837  1
  Be  Be11  1  0.794024  0.202271  0.439327  1
  Be  Be12  1  0.439327  0.564377  0.794024  1
  Be  Be13  1  0.560837  0.435770  0.205848  1
  Be  Be14  1  0.711563  0.284058  0.935274  1
  Be  Be15  1  0.288594  0.716048  0.064583  1
  Be  Be16  1  0.064583  0.930776  0.288594  1
  Be  Be17  1  0.935274  0.069105  0.711563  1
  Be  Be18  1  0.562214  0.206861  0.794595  1
  Be  Be19  1  0.437948  0.793002  0.205231  1
  Be  Be20  1  0.794595  0.436330  0.562214  1
  Be  Be21  1  0.205231  0.563820  0.437948  1
  Be  Be22  1  0.936232  0.711134  0.289385  1
  Be  Be23  1  0.063605  0.289018  0.710798  1
  Be  Be24  1  0.289385  0.063249  0.936232  1
  Be  Be25  1  0.710798  0.936580  0.063605  1
  Ni  Ni26  1  0.798937  0.559102  0.200733  1
  Ni  Ni27  1  0.200733  0.441228  0.798937  1
