# generated using pymatgen
data_SmYTmTaO7
_symmetry_space_group_name_H-M   'P 1'
_cell_length_a   6.46451583
_cell_length_b   6.46451592
_cell_length_c   7.55911400
_cell_angle_alpha   90.00000000
_cell_angle_beta   90.00000000
_cell_angle_gamma   109.37696026
_symmetry_Int_Tables_number   1
_chemical_formula_structural   SmYTmTaO7
_chemical_formula_sum   'Sm2 Y2 Tm2 Ta2 O14'
_cell_volume   298.00159770
_cell_formula_units_Z   2
loop_
 _symmetry_equiv_pos_site_id
 _symmetry_equiv_pos_as_xyz
  1  'x, y, z'
loop_
 _atom_site_type_symbol
 _atom_site_label
 _atom_site_symmetry_multiplicity
 _atom_site_fract_x
 _atom_site_fract_y
 _atom_site_fract_z
 _atom_site_occupancy
  Sm  Sm0  1  0.501923  0.501923  0.500000  1
  Sm  Sm1  1  0.501923  0.501923  0.000000  1
  Y  Y2  1  0.466516  0.999612  0.250000  1
  Y  Y3  1  0.999612  0.466516  0.750000  1
  Tm  Tm4  1  0.533054  0.001481  0.750000  1
  Tm  Tm5  1  0.001481  0.533054  0.250000  1
  Ta  Ta6  1  0.000230  0.000230  0.500000  1
  Ta  Ta7  1  0.000230  0.000230  0.000000  1
  O  O8  1  0.677174  0.928711  0.470809  1
  O  O9  1  0.928711  0.677174  0.529191  1
  O  O10  1  0.677174  0.928711  0.029191  1
  O  O11  1  0.928711  0.677174  0.970809  1
  O  O12  1  0.321027  0.069601  0.535578  1
  O  O13  1  0.069601  0.321027  0.464422  1
  O  O14  1  0.321027  0.069601  0.964422  1
  O  O15  1  0.069601  0.321027  0.035578  1
  O  O16  1  0.934203  0.065112  0.750000  1
  O  O17  1  0.065112  0.934203  0.250000  1
  O  O18  1  0.368824  0.638076  0.750000  1
  O  O19  1  0.638076  0.368824  0.250000  1
  O  O20  1  0.639509  0.356282  0.750000  1
  O  O21  1  0.356282  0.639509  0.250000  1
