# generated using pymatgen
data_Nd4Al10PdAu5
_symmetry_space_group_name_H-M   'P 1'
_cell_length_a   8.67957063
_cell_length_b   8.67957150
_cell_length_c   8.67957200
_cell_angle_alpha   138.38071490
_cell_angle_beta   103.67165887
_cell_angle_gamma   90.92066191
_symmetry_Int_Tables_number   1
_chemical_formula_structural   Nd4Al10PdAu5
_chemical_formula_sum   'Nd4 Al10 Pd1 Au5'
_cell_volume   402.72072459
_cell_formula_units_Z   1
loop_
 _symmetry_equiv_pos_site_id
 _symmetry_equiv_pos_as_xyz
  1  'x, y, z'
loop_
 _atom_site_type_symbol
 _atom_site_label
 _atom_site_symmetry_multiplicity
 _atom_site_fract_x
 _atom_site_fract_y
 _atom_site_fract_z
 _atom_site_occupancy
  Nd  Nd0  1  0.633180  0.866212  0.763684  1
  Nd  Nd1  1  0.366820  0.130504  0.233032  1
  Nd  Nd2  1  0.102527  0.369496  0.736316  1
  Nd  Nd3  1  0.897473  0.633788  0.266968  1
  Al  Al4  1  0.269323  0.019323  0.750000  1
  Al  Al5  1  0.732610  0.982610  0.250000  1
  Al  Al6  1  0.730677  0.480677  0.750000  1
  Al  Al7  1  0.267390  0.517390  0.250000  1
  Al  Al8  1  0.460543  0.601260  0.846297  1
  Al  Al9  1  0.539457  0.385755  0.140717  1
  Al  Al10  1  0.754962  0.114245  0.653703  1
  Al  Al11  1  0.245038  0.898740  0.359283  1
  Al  Al12  1  0.000000  0.750000  0.750000  1
  Al  Al13  1  0.000000  0.250000  0.250000  1
  Pd  Pd14  1  0.500000  0.250000  0.750000  1
  Au  Au15  1  0.253152  0.633316  0.620754  1
  Au  Au16  1  0.746848  0.367602  0.380164  1
  Au  Au17  1  0.012562  0.132398  0.879246  1
  Au  Au18  1  0.987438  0.866684  0.119836  1
  Au  Au19  1  0.500000  0.750000  0.250000  1
