# generated using pymatgen
data_Tm3Lu2Pb3
_symmetry_space_group_name_H-M   'P 1'
_cell_length_a   6.48980800
_cell_length_b   8.92927771
_cell_length_c   8.93025011
_cell_angle_alpha   119.99640115
_cell_angle_beta   90.00000000
_cell_angle_gamma   90.00000000
_symmetry_Int_Tables_number   1
_chemical_formula_structural   Tm3Lu2Pb3
_chemical_formula_sum   'Tm6 Lu4 Pb6'
_cell_volume   448.18589144
_cell_formula_units_Z   2
loop_
 _symmetry_equiv_pos_site_id
 _symmetry_equiv_pos_as_xyz
  1  'x, y, z'
loop_
 _atom_site_type_symbol
 _atom_site_label
 _atom_site_symmetry_multiplicity
 _atom_site_fract_x
 _atom_site_fract_y
 _atom_site_fract_z
 _atom_site_occupancy
  Tm  Tm0  1  0.750004  0.238197  0.000000  1
  Tm  Tm1  1  0.749995  0.761734  0.761785  1
  Tm  Tm2  1  0.749995  0.999949  0.238215  1
  Tm  Tm3  1  0.250004  0.761803  0.000000  1
  Tm  Tm4  1  0.249995  0.238266  0.238215  1
  Tm  Tm5  1  0.249995  0.000051  0.761785  1
  Lu  Lu6  1  0.499998  0.333346  0.666725  1
  Lu  Lu7  1  0.499998  0.666621  0.333275  1
  Lu  Lu8  1  0.999998  0.666654  0.333275  1
  Lu  Lu9  1  0.999998  0.333379  0.666725  1
  Pb  Pb10  1  0.749994  0.605492  0.000000  1
  Pb  Pb11  1  0.750009  0.394462  0.394428  1
  Pb  Pb12  1  0.750009  0.000034  0.605572  1
  Pb  Pb13  1  0.249994  0.394508  0.000000  1
  Pb  Pb14  1  0.250009  0.605538  0.605572  1
  Pb  Pb15  1  0.250009  0.999966  0.394428  1
