# generated using pymatgen
data_DyCo2P3Rh2W
_symmetry_space_group_name_H-M   'P 1'
_cell_length_a   3.81302700
_cell_length_b   10.63807000
_cell_length_c   12.23998000
_cell_angle_alpha   90.00000000
_cell_angle_beta   90.00000000
_cell_angle_gamma   90.00000000
_symmetry_Int_Tables_number   1
_chemical_formula_structural   DyCo2P3Rh2W
_chemical_formula_sum   'Dy4 Co8 P12 Rh8 W4'
_cell_volume   496.49334594
_cell_formula_units_Z   4
loop_
 _symmetry_equiv_pos_site_id
 _symmetry_equiv_pos_as_xyz
  1  'x, y, z'
loop_
 _atom_site_type_symbol
 _atom_site_label
 _atom_site_symmetry_multiplicity
 _atom_site_fract_x
 _atom_site_fract_y
 _atom_site_fract_z
 _atom_site_occupancy
  Dy  Dy0  1  0.250000  0.581694  0.709145  1
  Dy  Dy1  1  0.250000  0.918306  0.209145  1
  Dy  Dy2  1  0.750000  0.418306  0.290855  1
  Dy  Dy3  1  0.750000  0.081694  0.790855  1
  Co  Co4  1  0.250000  0.886539  0.695010  1
  Co  Co5  1  0.250000  0.613461  0.195010  1
  Co  Co6  1  0.750000  0.113461  0.304990  1
  Co  Co7  1  0.750000  0.386539  0.804990  1
  Co  Co8  1  0.250000  0.464992  0.935032  1
  Co  Co9  1  0.250000  0.035008  0.435032  1
  Co  Co10  1  0.750000  0.535008  0.064968  1
  Co  Co11  1  0.750000  0.964992  0.564968  1
  P  P12  1  0.250000  0.427997  0.112118  1
  P  P13  1  0.250000  0.072003  0.612118  1
  P  P14  1  0.750000  0.572003  0.887882  1
  P  P15  1  0.750000  0.927997  0.387882  1
  P  P16  1  0.250000  0.273582  0.869993  1
  P  P17  1  0.250000  0.226418  0.369993  1
  P  P18  1  0.750000  0.726418  0.130007  1
  P  P19  1  0.750000  0.773582  0.630007  1
  P  P20  1  0.250000  0.599820  0.384646  1
  P  P21  1  0.250000  0.900180  0.884646  1
  P  P22  1  0.750000  0.400180  0.615354  1
  P  P23  1  0.750000  0.099820  0.115354  1
  Rh  Rh24  1  0.250000  0.404222  0.483120  1
  Rh  Rh25  1  0.250000  0.095778  0.983120  1
  Rh  Rh26  1  0.750000  0.595778  0.516880  1
  Rh  Rh27  1  0.750000  0.904222  0.016880  1
  Rh  Rh28  1  0.250000  0.225814  0.181585  1
  Rh  Rh29  1  0.250000  0.274186  0.681585  1
  Rh  Rh30  1  0.750000  0.774186  0.818415  1
  Rh  Rh31  1  0.750000  0.725814  0.318415  1
  W  W32  1  0.250000  0.705652  0.986388  1
  W  W33  1  0.250000  0.794348  0.486388  1
  W  W34  1  0.750000  0.294348  0.013612  1
  W  W35  1  0.750000  0.205652  0.513612  1
