# generated using pymatgen
data_Eu10InNi4Sb
_symmetry_space_group_name_H-M   'P 1'
_cell_length_a   9.19742911
_cell_length_b   9.19742837
_cell_length_c   9.19742900
_cell_angle_alpha   130.20157539
_cell_angle_beta   130.20157148
_cell_angle_gamma   73.08472194
_symmetry_Int_Tables_number   1
_chemical_formula_structural   Eu10InNi4Sb
_chemical_formula_sum   'Eu10 In1 Ni4 Sb1'
_cell_volume   443.21313863
_cell_formula_units_Z   1
loop_
 _symmetry_equiv_pos_site_id
 _symmetry_equiv_pos_as_xyz
  1  'x, y, z'
loop_
 _atom_site_type_symbol
 _atom_site_label
 _atom_site_symmetry_multiplicity
 _atom_site_fract_x
 _atom_site_fract_y
 _atom_site_fract_z
 _atom_site_occupancy
  Eu  Eu0  1  0.000595  0.000595  0.000000  1
  Eu  Eu1  1  0.499405  0.499405  0.000000  1
  Eu  Eu2  1  0.805014  0.303170  0.839433  1
  Eu  Eu3  1  0.196830  0.694986  0.160567  1
  Eu  Eu4  1  0.463736  0.965579  0.160567  1
  Eu  Eu5  1  0.303170  0.463736  0.498156  1
  Eu  Eu6  1  0.036264  0.196830  0.501844  1
  Eu  Eu7  1  0.534421  0.036264  0.839433  1
  Eu  Eu8  1  0.694986  0.534421  0.498156  1
  Eu  Eu9  1  0.965579  0.805014  0.501844  1
  In  In10  1  0.750000  0.750000  0.000000  1
  Ni  Ni11  1  0.113343  0.613343  0.726685  1
  Ni  Ni12  1  0.886657  0.386657  0.273315  1
  Ni  Ni13  1  0.613343  0.886657  0.500000  1
  Ni  Ni14  1  0.386657  0.113343  0.500000  1
  Sb  Sb15  1  0.250000  0.250000  0.000000  1
