# generated using pymatgen
data_Er16In4CoNiRh2
_symmetry_space_group_name_H-M   'P 1'
_cell_length_a   9.52387757
_cell_length_b   9.53758944
_cell_length_c   9.53370545
_cell_angle_alpha   60.04632771
_cell_angle_beta   60.03409297
_cell_angle_gamma   60.04754672
_symmetry_Int_Tables_number   1
_chemical_formula_structural   Er16In4CoNiRh2
_chemical_formula_sum   'Er16 In4 Co1 Ni1 Rh2'
_cell_volume   612.94123792
_cell_formula_units_Z   1
loop_
 _symmetry_equiv_pos_site_id
 _symmetry_equiv_pos_as_xyz
  1  'x, y, z'
loop_
 _atom_site_type_symbol
 _atom_site_label
 _atom_site_symmetry_multiplicity
 _atom_site_fract_x
 _atom_site_fract_y
 _atom_site_fract_z
 _atom_site_occupancy
  Er  Er0  1  0.183730  0.194485  0.811417  1
  Er  Er1  1  0.441216  0.057962  0.059606  1
  Er  Er2  1  0.437882  0.060295  0.438749  1
  Er  Er3  1  0.063048  0.436333  0.061972  1
  Er  Er4  1  0.651879  0.050676  0.645567  1
  Er  Er5  1  0.189327  0.809927  0.811420  1
  Er  Er6  1  0.063074  0.060295  0.438749  1
  Er  Er7  1  0.811254  0.192403  0.185090  1
  Er  Er8  1  0.810487  0.810347  0.191728  1
  Er  Er9  1  0.654971  0.643668  0.046390  1
  Er  Er10  1  0.656782  0.649009  0.653476  1
  Er  Er11  1  0.063930  0.433723  0.438418  1
  Er  Er12  1  0.040733  0.649009  0.653476  1
  Er  Er13  1  0.810370  0.194485  0.811417  1
  Er  Er14  1  0.438647  0.436333  0.061972  1
  Er  Er15  1  0.187439  0.810347  0.191728  1
  In  In16  1  0.417500  0.746796  0.418205  1
  In  In17  1  0.416633  0.418409  0.748325  1
  In  In18  1  0.749933  0.418231  0.416982  1
  In  In19  1  0.414853  0.418231  0.416982  1
  Co  Co20  1  0.858529  0.424185  0.858756  1
  Ni  Ni21  1  0.857327  0.863684  0.421662  1
  Rh  Rh22  1  0.425510  0.860584  0.858958  1
  Rh  Rh23  1  0.854949  0.860584  0.858958  1
