# generated using pymatgen
data_Ca12Al5Ga9(ClO16)2
_symmetry_space_group_name_H-M   'P 1'
_cell_length_a   10.63370953
_cell_length_b   10.63370882
_cell_length_c   10.63370903
_cell_angle_alpha   109.35826482
_cell_angle_beta   109.35827117
_cell_angle_gamma   109.69736491
_symmetry_Int_Tables_number   1
_chemical_formula_structural   Ca12Al5Ga9(ClO16)2
_chemical_formula_sum   'Ca12 Al5 Ga9 Cl2 O32'
_cell_volume   925.60853683
_cell_formula_units_Z   1
loop_
 _symmetry_equiv_pos_site_id
 _symmetry_equiv_pos_as_xyz
  1  'x, y, z'
loop_
 _atom_site_type_symbol
 _atom_site_label
 _atom_site_symmetry_multiplicity
 _atom_site_fract_x
 _atom_site_fract_y
 _atom_site_fract_z
 _atom_site_occupancy
  Ca  Ca0  1  0.269881  0.269881  0.000000  1
  Ca  Ca1  1  0.980953  0.480953  0.500000  1
  Ca  Ca2  1  0.519047  0.019047  0.500000  1
  Ca  Ca3  1  0.730119  0.730119  0.000000  1
  Ca  Ca4  1  0.243255  0.874838  0.866102  1
  Ca  Ca5  1  0.008736  0.377153  0.133898  1
  Ca  Ca6  1  0.494698  0.375072  0.620249  1
  Ca  Ca7  1  0.754824  0.874449  0.379751  1
  Ca  Ca8  1  0.125551  0.505302  0.880375  1
  Ca  Ca9  1  0.624928  0.245176  0.119625  1
  Ca  Ca10  1  0.622847  0.756745  0.631584  1
  Ca  Ca11  1  0.125162  0.991264  0.368416  1
  Al  Al12  1  0.250000  0.750000  0.500000  1
  Al  Al13  1  0.498692  0.874804  0.123863  1
  Al  Al14  1  0.750941  0.374830  0.876137  1
  Al  Al15  1  0.125196  0.249059  0.623889  1
  Al  Al16  1  0.625170  0.501308  0.376111  1
  Ga  Ga17  1  0.905909  0.158149  0.779947  1
  Ga  Ga18  1  0.378202  0.125962  0.220053  1
  Ga  Ga19  1  0.343018  0.624885  0.750009  1
  Ga  Ga20  1  0.874876  0.593010  0.249991  1
  Ga  Ga21  1  0.375115  0.125124  0.718133  1
  Ga  Ga22  1  0.406990  0.656982  0.281867  1
  Ga  Ga23  1  0.841851  0.621798  0.747759  1
  Ga  Ga24  1  0.874038  0.094091  0.252241  1
  Ga  Ga25  1  0.000000  0.000000  0.000000  1
  Cl  Cl26  1  0.500000  0.500000  0.000000  1
  Cl  Cl27  1  0.750000  0.250000  0.500000  1
  O  O28  1  0.738352  0.982172  0.615139  1
  O  O29  1  0.367033  0.123213  0.384861  1
  O  O30  1  0.510530  0.625737  0.742954  1
  O  O31  1  0.882782  0.767575  0.257046  1
  O  O32  1  0.374263  0.117218  0.884793  1
  O  O33  1  0.232425  0.489470  0.115207  1
  O  O34  1  0.017828  0.632967  0.756180  1
  O  O35  1  0.876787  0.261648  0.243820  1
  O  O36  1  0.088931  0.241770  0.772414  1
  O  O37  1  0.469356  0.316517  0.227586  1
  O  O38  1  0.161338  0.433850  0.652231  1
  O  O39  1  0.781619  0.509108  0.347769  1
  O  O40  1  0.566150  0.218381  0.727488  1
  O  O41  1  0.490892  0.838662  0.272512  1
  O  O42  1  0.758230  0.530644  0.847161  1
  O  O43  1  0.683483  0.911069  0.152839  1
  O  O44  1  0.191508  0.029929  0.033335  1
  O  O45  1  0.256525  0.720892  0.655662  1
  O  O46  1  0.996593  0.158173  0.966665  1
  O  O47  1  0.065230  0.600862  0.344338  1
  O  O48  1  0.658391  0.531260  0.560418  1
  O  O49  1  0.278139  0.216263  0.626086  1
  O  O50  1  0.590175  0.652052  0.373914  1
  O  O51  1  0.970841  0.097973  0.439582  1
  O  O52  1  0.347948  0.721861  0.938124  1
  O  O53  1  0.902027  0.341609  0.872869  1
  O  O54  1  0.468740  0.029159  0.127131  1
  O  O55  1  0.783737  0.409825  0.061876  1
  O  O56  1  0.399138  0.743475  0.464367  1
  O  O57  1  0.841827  0.808492  0.838420  1
  O  O58  1  0.279108  0.934770  0.535633  1
  O  O59  1  0.970071  0.003407  0.161580  1
