# generated using pymatgen
data_CrP6RhO18
_symmetry_space_group_name_H-M   'P 1'
_cell_length_a   5.11591545
_cell_length_b   7.04336278
_cell_length_c   10.35760522
_cell_angle_alpha   98.58907853
_cell_angle_beta   92.75860636
_cell_angle_gamma   92.52413627
_symmetry_Int_Tables_number   1
_chemical_formula_structural   CrP6RhO18
_chemical_formula_sum   'Cr1 P6 Rh1 O18'
_cell_volume   368.10864129
_cell_formula_units_Z   1
loop_
 _symmetry_equiv_pos_site_id
 _symmetry_equiv_pos_as_xyz
  1  'x, y, z'
loop_
 _atom_site_type_symbol
 _atom_site_label
 _atom_site_symmetry_multiplicity
 _atom_site_fract_x
 _atom_site_fract_y
 _atom_site_fract_z
 _atom_site_occupancy
  Cr  Cr0  1  0.499964  0.499948  0.499979  1
  P  P1  1  0.023436  0.969673  0.183591  1
  P  P2  1  0.735807  0.324978  0.222599  1
  P  P3  1  0.993556  0.676483  0.361187  1
  P  P4  1  0.006393  0.323500  0.638808  1
  P  P5  1  0.264233  0.675055  0.777371  1
  P  P6  1  0.976563  0.030371  0.816462  1
  Rh  Rh7  1  0.500035  0.000015  0.000013  1
  O  O8  1  0.603391  0.277879  0.087373  1
  O  O9  1  0.827773  0.886927  0.073381  1
  O  O10  1  0.309915  0.942572  0.160916  1
  O  O11  1  0.981183  0.190750  0.234345  1
  O  O12  1  0.885824  0.531527  0.230579  1
  O  O13  1  0.574831  0.319203  0.339695  1
  O  O14  1  0.964162  0.880512  0.314034  1
  O  O15  1  0.279088  0.649206  0.388418  1
  O  O16  1  0.812521  0.667264  0.470506  1
  O  O17  1  0.187422  0.332666  0.529476  1
  O  O18  1  0.720843  0.350692  0.611556  1
  O  O19  1  0.035905  0.119540  0.686016  1
  O  O20  1  0.425127  0.680727  0.660236  1
  O  O21  1  0.114083  0.468529  0.769389  1
  O  O22  1  0.018912  0.809311  0.765658  1
  O  O23  1  0.690084  0.057428  0.839167  1
  O  O24  1  0.172224  0.113112  0.926674  1
  O  O25  1  0.396719  0.722136  0.912571  1
