# generated using pymatgen
data_Li2LaTcH6
_symmetry_space_group_name_H-M   'P 1'
_cell_length_a   5.15251346
_cell_length_b   5.15251213
_cell_length_c   5.15251200
_cell_angle_alpha   120.00029534
_cell_angle_beta   120.00047924
_cell_angle_gamma   59.99962592
_symmetry_Int_Tables_number   1
_chemical_formula_structural   Li2LaTcH6
_chemical_formula_sum   'Li2 La1 Tc1 H6'
_cell_volume   96.72492503
_cell_formula_units_Z   1
loop_
 _symmetry_equiv_pos_site_id
 _symmetry_equiv_pos_as_xyz
  1  'x, y, z'
loop_
 _atom_site_type_symbol
 _atom_site_label
 _atom_site_symmetry_multiplicity
 _atom_site_fract_x
 _atom_site_fract_y
 _atom_site_fract_z
 _atom_site_occupancy
  Li  Li0  1  0.500000  0.500001  0.499998  1
  Li  Li1  1  0.250003  0.249998  0.750000  1
  La  La2  1  0.750002  0.750001  0.249995  1
  Tc  Tc3  1  0.000000  0.999997  0.000005  1
  H  H4  1  0.243467  0.243468  0.243468  1
  H  H5  1  0.756532  0.243469  0.243467  1
  H  H6  1  0.243469  0.756534  0.243468  1
  H  H7  1  0.756533  0.243468  0.756531  1
  H  H8  1  0.243467  0.756534  0.756531  1
  H  H9  1  0.756532  0.756533  0.756531  1
