# generated using pymatgen
data_Na4PuCr3O14
_symmetry_space_group_name_H-M   'P 1'
_cell_length_a   7.15701103
_cell_length_b   8.43743351
_cell_length_c   11.35135800
_cell_angle_alpha   80.08807678
_cell_angle_beta   78.76091769
_cell_angle_gamma   69.08079674
_symmetry_Int_Tables_number   1
_chemical_formula_structural   Na4PuCr3O14
_chemical_formula_sum   'Na8 Pu2 Cr6 O28'
_cell_volume   624.06396092
_cell_formula_units_Z   2
loop_
 _symmetry_equiv_pos_site_id
 _symmetry_equiv_pos_as_xyz
  1  'x, y, z'
loop_
 _atom_site_type_symbol
 _atom_site_label
 _atom_site_symmetry_multiplicity
 _atom_site_fract_x
 _atom_site_fract_y
 _atom_site_fract_z
 _atom_site_occupancy
  Na  Na0  1  0.781210  0.536452  0.786729  1
  Na  Na1  1  0.218790  0.463548  0.213271  1
  Na  Na2  1  0.048306  0.908299  0.674765  1
  Na  Na3  1  0.658866  0.141210  0.958448  1
  Na  Na4  1  0.341134  0.858790  0.041552  1
  Na  Na5  1  0.724302  0.783065  0.485987  1
  Na  Na6  1  0.951694  0.091701  0.325235  1
  Na  Na7  1  0.275698  0.216935  0.514013  1
  Pu  Pu8  1  0.318829  0.377481  0.767531  1
  Pu  Pu9  1  0.681171  0.622519  0.232469  1
  Cr  Cr10  1  0.525419  0.914112  0.740885  1
  Cr  Cr11  1  0.986312  0.738352  0.955885  1
  Cr  Cr12  1  0.250977  0.662399  0.473894  1
  Cr  Cr13  1  0.474581  0.085888  0.259115  1
  Cr  Cr14  1  0.013688  0.261648  0.044115  1
  Cr  Cr15  1  0.749023  0.337601  0.526106  1
  O  O16  1  0.240777  0.257529  0.966822  1
  O  O17  1  0.767814  0.498517  0.579596  1
  O  O18  1  0.945177  0.404728  0.146188  1
  O  O19  1  0.468829  0.776278  0.849863  1
  O  O20  1  0.943672  0.166352  0.553026  1
  O  O21  1  0.056328  0.833648  0.446974  1
  O  O22  1  0.054823  0.595272  0.853812  1
  O  O23  1  0.131304  0.325896  0.712711  1
  O  O24  1  0.761232  0.821972  0.677627  1
  O  O25  1  0.531826  0.300265  0.591079  1
  O  O26  1  0.251789  0.624958  0.624371  1
  O  O27  1  0.151558  0.682831  0.049215  1
  O  O28  1  0.748211  0.375042  0.375629  1
  O  O29  1  0.868696  0.674104  0.287289  1
  O  O30  1  0.468174  0.699735  0.408921  1
  O  O31  1  0.759223  0.742471  0.033178  1
  O  O32  1  0.238768  0.178028  0.322373  1
  O  O33  1  0.510926  0.090318  0.801054  1
  O  O34  1  0.373573  0.959583  0.638006  1
  O  O35  1  0.509343  0.423075  0.823412  1
  O  O36  1  0.626427  0.040417  0.361994  1
  O  O37  1  0.490657  0.576925  0.176588  1
  O  O38  1  0.489074  0.909682  0.198946  1
  O  O39  1  0.033508  0.070666  0.115609  1
  O  O40  1  0.966492  0.929334  0.884391  1
  O  O41  1  0.848442  0.317169  0.950785  1
  O  O42  1  0.531171  0.223722  0.150137  1
  O  O43  1  0.232186  0.501483  0.420404  1
