# generated using pymatgen
data_Tb8Nd12Si15Au
_symmetry_space_group_name_H-M   'P 1'
_cell_length_a   7.86626452
_cell_length_b   7.85451221
_cell_length_c   14.57777889
_cell_angle_alpha   89.54034184
_cell_angle_beta   89.80871021
_cell_angle_gamma   90.19279191
_symmetry_Int_Tables_number   1
_chemical_formula_structural   Tb8Nd12Si15Au
_chemical_formula_sum   'Tb8 Nd12 Si15 Au1'
_cell_volume   900.65866091
_cell_formula_units_Z   1
loop_
 _symmetry_equiv_pos_site_id
 _symmetry_equiv_pos_as_xyz
  1  'x, y, z'
loop_
 _atom_site_type_symbol
 _atom_site_label
 _atom_site_symmetry_multiplicity
 _atom_site_fract_x
 _atom_site_fract_y
 _atom_site_fract_z
 _atom_site_occupancy
  Tb  Tb0  1  0.489545  0.361580  0.123547  1
  Tb  Tb1  1  0.982268  0.147126  0.632286  1
  Tb  Tb2  1  0.864071  0.010836  0.873695  1
  Tb  Tb3  1  0.131796  0.981910  0.373137  1
  Tb  Tb4  1  0.511924  0.634213  0.622590  1
  Tb  Tb5  1  0.367048  0.494664  0.876702  1
  Tb  Tb6  1  0.636898  0.504322  0.375200  1
  Tb  Tb7  1  0.010251  0.865727  0.124612  1
  Nd  Nd8  1  0.643439  0.987864  0.457039  1
  Nd  Nd9  1  0.366205  0.008382  0.955248  1
  Nd  Nd10  1  0.983361  0.629124  0.541319  1
  Nd  Nd11  1  0.492118  0.860888  0.206292  1
  Nd  Nd12  1  0.515737  0.147987  0.711884  1
  Nd  Nd13  1  0.866222  0.497541  0.795646  1
  Nd  Nd14  1  0.135752  0.502563  0.293214  1
  Nd  Nd15  1  0.011293  0.363176  0.043735  1
  Nd  Nd16  1  0.309149  0.309813  0.502799  1
  Nd  Nd17  1  0.189135  0.827083  0.747089  1
  Nd  Nd18  1  0.815256  0.181178  0.250250  1
  Nd  Nd19  1  0.683560  0.688708  0.001013  1
  Si  Si20  1  0.711403  0.071119  0.058109  1
  Si  Si21  1  0.929296  0.286591  0.441281  1
  Si  Si22  1  0.428878  0.207422  0.309145  1
  Si  Si23  1  0.571199  0.790316  0.807456  1
  Si  Si24  1  0.209702  0.437359  0.693267  1
  Si  Si25  1  0.790389  0.566271  0.190940  1
  Si  Si26  1  0.070330  0.711037  0.940395  1
  Si  Si27  1  0.793787  0.845966  0.688100  1
  Si  Si28  1  0.205679  0.152241  0.189256  1
  Si  Si29  1  0.844250  0.790444  0.308810  1
  Si  Si30  1  0.346478  0.696485  0.434822  1
  Si  Si31  1  0.657324  0.297389  0.939389  1
  Si  Si32  1  0.700062  0.342884  0.559400  1
  Si  Si33  1  0.295640  0.654759  0.060216  1
  Si  Si34  1  0.155986  0.212041  0.813644  1
  Au  Au35  1  0.284569  0.932989  0.558473  1
