# generated using pymatgen
data_LaPrY18Si15Os
_symmetry_space_group_name_H-M   'P 1'
_cell_length_a   7.44526503
_cell_length_b   7.79658830
_cell_length_c   14.69789782
_cell_angle_alpha   89.70094921
_cell_angle_beta   89.99999999
_cell_angle_gamma   89.95322726
_symmetry_Int_Tables_number   1
_chemical_formula_structural   LaPrY18Si15Os
_chemical_formula_sum   'La1 Pr1 Y18 Si15 Os1'
_cell_volume   853.16676200
_cell_formula_units_Z   1
loop_
 _symmetry_equiv_pos_site_id
 _symmetry_equiv_pos_as_xyz
  1  'x, y, z'
loop_
 _atom_site_type_symbol
 _atom_site_label
 _atom_site_symmetry_multiplicity
 _atom_site_fract_x
 _atom_site_fract_y
 _atom_site_fract_z
 _atom_site_occupancy
  La  La0  1  0.024277  0.428560  0.657645  1
  Pr  Pr1  1  0.522855  0.568990  0.342598  1
  Y  Y2  1  0.806595  0.576839  0.877474  1
  Y  Y3  1  0.324254  0.431669  0.123515  1
  Y  Y4  1  0.183552  0.928024  0.372730  1
  Y  Y5  1  0.682705  0.069317  0.626830  1
  Y  Y6  1  0.183586  0.927381  0.628623  1
  Y  Y7  1  0.682164  0.070211  0.371781  1
  Y  Y8  1  0.809653  0.573888  0.123551  1
  Y  Y9  1  0.326919  0.436347  0.875400  1
  Y  Y10  1  0.643851  0.238920  0.999638  1
  Y  Y11  1  0.158637  0.761463  0.000359  1
  Y  Y12  1  0.350404  0.263844  0.499694  1
  Y  Y13  1  0.849097  0.734453  0.499877  1
  Y  Y14  1  0.477320  0.924943  0.849150  1
  Y  Y15  1  0.973154  0.065912  0.151123  1
  Y  Y16  1  0.475715  0.925103  0.150486  1
  Y  Y17  1  0.971787  0.066649  0.849673  1
  Y  Y18  1  0.528586  0.564994  0.652155  1
  Y  Y19  1  0.027544  0.433760  0.347503  1
  Si  Si20  1  0.018825  0.349951  0.999577  1
  Si  Si21  1  0.475991  0.858236  0.500878  1
  Si  Si22  1  0.978630  0.140123  0.499087  1
  Si  Si23  1  0.652478  0.275611  0.789576  1
  Si  Si24  1  0.146978  0.721176  0.210122  1
  Si  Si25  1  0.352551  0.216479  0.286961  1
  Si  Si26  1  0.850466  0.783679  0.713111  1
  Si  Si27  1  0.362319  0.219538  0.711772  1
  Si  Si28  1  0.858713  0.780357  0.288512  1
  Si  Si29  1  0.648560  0.268624  0.207355  1
  Si  Si30  1  0.141246  0.728370  0.792711  1
  Si  Si31  1  0.767103  0.882965  0.000393  1
  Si  Si32  1  0.257860  0.126341  0.999545  1
  Si  Si33  1  0.233233  0.626323  0.501744  1
  Si  Si34  1  0.733787  0.373927  0.498574  1
  Os  Os35  1  0.518601  0.657034  0.000277  1
