# generated using pymatgen
data_Mg2Sc3P12Ir12Ru7
_symmetry_space_group_name_H-M   'P 1'
_cell_length_a   12.60218160
_cell_length_b   12.56918307
_cell_length_c   3.89130300
_cell_angle_alpha   90.00000000
_cell_angle_beta   90.00000000
_cell_angle_gamma   120.21050382
_symmetry_Int_Tables_number   1
_chemical_formula_structural   Mg2Sc3P12Ir12Ru7
_chemical_formula_sum   'Mg2 Sc3 P12 Ir12 Ru7'
_cell_volume   532.66398894
_cell_formula_units_Z   1
loop_
 _symmetry_equiv_pos_site_id
 _symmetry_equiv_pos_as_xyz
  1  'x, y, z'
loop_
 _atom_site_type_symbol
 _atom_site_label
 _atom_site_symmetry_multiplicity
 _atom_site_fract_x
 _atom_site_fract_y
 _atom_site_fract_z
 _atom_site_occupancy
  Mg  Mg0  1  0.820336  0.997061  0.500000  1
  Mg  Mg1  1  0.997488  0.817063  0.500000  1
  Sc  Sc2  1  0.333041  0.665288  0.000000  1
  Sc  Sc3  1  0.667534  0.336614  0.000000  1
  Sc  Sc4  1  0.183726  0.184581  0.500000  1
  P  P5  1  0.175984  0.995381  0.000000  1
  P  P6  1  0.002121  0.178159  0.000000  1
  P  P7  1  0.818253  0.818843  0.000000  1
  P  P8  1  0.173058  0.481399  0.500000  1
  P  P9  1  0.517596  0.691462  0.500000  1
  P  P10  1  0.308348  0.827748  0.500000  1
  P  P11  1  0.691742  0.519709  0.500000  1
  P  P12  1  0.831075  0.313898  0.500000  1
  P  P13  1  0.484785  0.172003  0.500000  1
  P  P14  1  0.636011  0.995109  0.000000  1
  P  P15  1  0.001009  0.640095  0.000000  1
  P  P16  1  0.358009  0.363428  0.000000  1
  Ir  Ir17  1  0.362870  0.493100  0.500000  1
  Ir  Ir18  1  0.504793  0.870908  0.500000  1
  Ir  Ir19  1  0.132908  0.636303  0.500000  1
  Ir  Ir20  1  0.868807  0.507095  0.500000  1
  Ir  Ir21  1  0.641838  0.136960  0.500000  1
  Ir  Ir22  1  0.496343  0.360462  0.500000  1
  Ir  Ir23  1  0.815946  0.186384  0.000000  1
  Ir  Ir24  1  0.370107  0.183842  0.000000  1
  Ir  Ir25  1  0.287368  0.003862  0.500000  1
  Ir  Ir26  1  0.998761  0.283924  0.500000  1
  Ir  Ir27  1  0.713054  0.713949  0.500000  1
  Ir  Ir28  1  0.999538  0.998574  0.000000  1
  Ru  Ru29  1  0.458935  0.008679  0.000000  1
  Ru  Ru30  1  0.998749  0.453034  0.000000  1
  Ru  Ru31  1  0.545644  0.542303  0.000000  1
  Ru  Ru32  1  0.179644  0.374795  0.000000  1
  Ru  Ru33  1  0.621049  0.804730  0.000000  1
  Ru  Ru34  1  0.194950  0.818104  0.000000  1
  Ru  Ru35  1  0.808581  0.625153  0.000000  1
