# generated using pymatgen
data_TbNd17(DySn8)2
_symmetry_space_group_name_H-M   'P 1'
_cell_length_a   8.26224201
_cell_length_b   8.41425636
_cell_length_c   15.94728000
_cell_angle_alpha   90.00000000
_cell_angle_beta   90.00000000
_cell_angle_gamma   89.98005408
_symmetry_Int_Tables_number   1
_chemical_formula_structural   TbNd17(DySn8)2
_chemical_formula_sum   'Tb1 Nd17 Dy2 Sn16'
_cell_volume   1108.66476453
_cell_formula_units_Z   1
loop_
 _symmetry_equiv_pos_site_id
 _symmetry_equiv_pos_as_xyz
  1  'x, y, z'
loop_
 _atom_site_type_symbol
 _atom_site_label
 _atom_site_symmetry_multiplicity
 _atom_site_fract_x
 _atom_site_fract_y
 _atom_site_fract_z
 _atom_site_occupancy
  Tb  Tb0  1  0.699057  0.998073  0.250000  1
  Nd  Nd1  1  0.018001  0.181096  0.401095  1
  Nd  Nd2  1  0.367899  0.837179  0.120681  1
  Nd  Nd3  1  0.132462  0.336650  0.620572  1
  Nd  Nd4  1  0.481415  0.681499  0.901405  1
  Nd  Nd5  1  0.867988  0.662685  0.121297  1
  Nd  Nd6  1  0.132462  0.336650  0.879428  1
  Nd  Nd7  1  0.481415  0.681499  0.598595  1
  Nd  Nd8  1  0.631365  0.162726  0.620335  1
  Nd  Nd9  1  0.802617  0.497944  0.750000  1
  Nd  Nd10  1  0.867988  0.662685  0.378703  1
  Nd  Nd11  1  0.018001  0.181096  0.098905  1
  Nd  Nd12  1  0.982176  0.819639  0.901275  1
  Nd  Nd13  1  0.631365  0.162726  0.879665  1
  Nd  Nd14  1  0.518082  0.319059  0.099212  1
  Nd  Nd15  1  0.367899  0.837179  0.379319  1
  Nd  Nd16  1  0.982176  0.819639  0.598725  1
  Nd  Nd17  1  0.518082  0.319059  0.400788  1
  Dy  Dy18  1  0.199130  0.502170  0.250000  1
  Dy  Dy19  1  0.301142  0.002418  0.750000  1
  Sn  Sn20  1  0.791728  0.463699  0.541653  1
  Sn  Sn21  1  0.708447  0.964764  0.456326  1
  Sn  Sn22  1  0.674331  0.857887  0.750000  1
  Sn  Sn23  1  0.208252  0.534825  0.456249  1
  Sn  Sn24  1  0.291694  0.035001  0.956420  1
  Sn  Sn25  1  0.824814  0.354087  0.250000  1
  Sn  Sn26  1  0.791728  0.463699  0.958347  1
  Sn  Sn27  1  0.564621  0.617156  0.250000  1
  Sn  Sn28  1  0.208252  0.534825  0.043751  1
  Sn  Sn29  1  0.431871  0.382128  0.750000  1
  Sn  Sn30  1  0.177650  0.647090  0.750000  1
  Sn  Sn31  1  0.936033  0.114986  0.750000  1
  Sn  Sn32  1  0.291694  0.035001  0.543580  1
  Sn  Sn33  1  0.708447  0.964764  0.043674  1
  Sn  Sn34  1  0.324123  0.145725  0.250000  1
  Sn  Sn35  1  0.065589  0.882696  0.250000  1
