# generated using pymatgen
data_Tb2Cr2Fe5Co5P7
_symmetry_space_group_name_H-M   'P 1'
_cell_length_a   3.62940200
_cell_length_b   8.99959834
_cell_length_c   9.00569444
_cell_angle_alpha   119.79086951
_cell_angle_beta   90.00000000
_cell_angle_gamma   90.00000000
_symmetry_Int_Tables_number   1
_chemical_formula_structural   Tb2Cr2Fe5Co5P7
_chemical_formula_sum   'Tb2 Cr2 Fe5 Co5 P7'
_cell_volume   255.28035399
_cell_formula_units_Z   1
loop_
 _symmetry_equiv_pos_site_id
 _symmetry_equiv_pos_as_xyz
  1  'x, y, z'
loop_
 _atom_site_type_symbol
 _atom_site_label
 _atom_site_symmetry_multiplicity
 _atom_site_fract_x
 _atom_site_fract_y
 _atom_site_fract_z
 _atom_site_occupancy
  Tb  Tb0  1  0.000000  0.665915  0.334126  1
  Tb  Tb1  1  0.500000  0.333224  0.666679  1
  Cr  Cr2  1  0.500000  0.117173  0.899309  1
  Cr  Cr3  1  0.500000  0.100312  0.217613  1
  Fe  Fe4  1  0.000000  0.572674  0.629869  1
  Fe  Fe5  1  0.000000  0.880655  0.726961  1
  Fe  Fe6  1  0.000000  0.275266  0.156400  1
  Fe  Fe7  1  0.000000  0.843901  0.118897  1
  Fe  Fe8  1  0.500000  0.781267  0.877748  1
  Co  Co9  1  0.000000  0.371988  0.940148  1
  Co  Co10  1  0.000000  0.058954  0.430575  1
  Co  Co11  1  0.500000  0.947896  0.564441  1
  Co  Co12  1  0.500000  0.436132  0.385452  1
  Co  Co13  1  0.500000  0.614728  0.049194  1
  P  P14  1  0.000000  0.110549  0.702181  1
  P  P15  1  0.000000  0.300435  0.411126  1
  P  P16  1  0.000000  0.593524  0.886948  1
  P  P17  1  0.500000  0.710188  0.600867  1
  P  P18  1  0.500000  0.402247  0.113187  1
  P  P19  1  0.500000  0.883388  0.288479  1
  P  P20  1  0.000000  0.999584  0.999798  1
