# generated using pymatgen
data_La2Dy3Ho(IrO7)2
_symmetry_space_group_name_H-M   'P 1'
_cell_length_a   6.49065215
_cell_length_b   6.48585636
_cell_length_c   7.52978600
_cell_angle_alpha   90.00000000
_cell_angle_beta   90.00000000
_cell_angle_gamma   109.48175081
_symmetry_Int_Tables_number   1
_chemical_formula_structural   La2Dy3Ho(IrO7)2
_chemical_formula_sum   'La2 Dy3 Ho1 Ir2 O14'
_cell_volume   298.83661302
_cell_formula_units_Z   1
loop_
 _symmetry_equiv_pos_site_id
 _symmetry_equiv_pos_as_xyz
  1  'x, y, z'
loop_
 _atom_site_type_symbol
 _atom_site_label
 _atom_site_symmetry_multiplicity
 _atom_site_fract_x
 _atom_site_fract_y
 _atom_site_fract_z
 _atom_site_occupancy
  La  La0  1  0.000032  0.000008  0.499931  1
  La  La1  1  0.000032  0.000008  0.000069  1
  Dy  Dy2  1  0.515308  0.063000  0.250000  1
  Dy  Dy3  1  0.937053  0.484713  0.750000  1
  Dy  Dy4  1  0.484668  0.936976  0.750000  1
  Ho  Ho5  1  0.062320  0.514989  0.250000  1
  Ir  Ir6  1  0.500107  0.500050  0.499944  1
  Ir  Ir7  1  0.500107  0.500050  0.000056  1
  O  O8  1  0.442932  0.181680  0.534642  1
  O  O9  1  0.818714  0.557024  0.465045  1
  O  O10  1  0.442932  0.181680  0.965358  1
  O  O11  1  0.818714  0.557024  0.034955  1
  O  O12  1  0.557102  0.818352  0.465361  1
  O  O13  1  0.181498  0.443089  0.534137  1
  O  O14  1  0.557102  0.818352  0.034639  1
  O  O15  1  0.181498  0.443089  0.965863  1
  O  O16  1  0.161019  0.876974  0.250000  1
  O  O17  1  0.121989  0.838899  0.750000  1
  O  O18  1  0.838802  0.121903  0.750000  1
  O  O19  1  0.878542  0.162124  0.250000  1
  O  O20  1  0.407788  0.408219  0.250000  1
  O  O21  1  0.591744  0.591798  0.750000  1
