# generated using pymatgen
data_PuHg3(SF3)2
_symmetry_space_group_name_H-M   'P 1'
_cell_length_a   7.79439900
_cell_length_b   7.79456499
_cell_length_c   5.45431200
_cell_angle_alpha   90.00000350
_cell_angle_beta   89.99796246
_cell_angle_gamma   120.00070997
_symmetry_Int_Tables_number   1
_chemical_formula_structural   PuHg3(SF3)2
_chemical_formula_sum   'Pu1 Hg3 S2 F6'
_cell_volume   286.97364751
_cell_formula_units_Z   1
loop_
 _symmetry_equiv_pos_site_id
 _symmetry_equiv_pos_as_xyz
  1  'x, y, z'
loop_
 _atom_site_type_symbol
 _atom_site_label
 _atom_site_symmetry_multiplicity
 _atom_site_fract_x
 _atom_site_fract_y
 _atom_site_fract_z
 _atom_site_occupancy
  Pu  Pu0  1  0.000000  0.000000  0.500000  1
  Hg  Hg1  1  0.500000  0.000000  0.000000  1
  Hg  Hg2  1  0.000000  0.500000  0.000000  1
  Hg  Hg3  1  0.500000  0.500000  0.000000  1
  S  S4  1  0.333332  0.666667  0.151922  1
  S  S5  1  0.666668  0.333334  0.848079  1
  F  F6  1  0.130392  0.260770  0.272149  1
  F  F7  1  0.130392  0.869621  0.272149  1
  F  F8  1  0.739248  0.869625  0.272145  1
  F  F9  1  0.260752  0.130376  0.727856  1
  F  F10  1  0.869609  0.130380  0.727852  1
  F  F11  1  0.869608  0.739231  0.727852  1
