# generated using pymatgen
data_CaTh2(SnRh)3
_symmetry_space_group_name_H-M   'P 1'
_cell_length_a   7.59094998
_cell_length_b   7.59094986
_cell_length_c   4.12183100
_cell_angle_alpha   90.00000000
_cell_angle_beta   90.00000000
_cell_angle_gamma   121.25049386
_symmetry_Int_Tables_number   1
_chemical_formula_structural   CaTh2(SnRh)3
_chemical_formula_sum   'Ca1 Th2 Sn3 Rh3'
_cell_volume   203.04930601
_cell_formula_units_Z   1
loop_
 _symmetry_equiv_pos_site_id
 _symmetry_equiv_pos_as_xyz
  1  'x, y, z'
loop_
 _atom_site_type_symbol
 _atom_site_label
 _atom_site_symmetry_multiplicity
 _atom_site_fract_x
 _atom_site_fract_y
 _atom_site_fract_z
 _atom_site_occupancy
  Ca  Ca0  1  0.408388  0.408388  0.500000  1
  Th  Th1  1  0.586017  0.999296  0.500000  1
  Th  Th2  1  0.999296  0.586017  0.500000  1
  Sn  Sn3  1  0.736364  0.736364  0.000000  1
  Sn  Sn4  1  0.251345  0.012779  0.000000  1
  Sn  Sn5  1  0.012779  0.251345  0.000000  1
  Rh  Rh6  1  0.689667  0.330097  0.000000  1
  Rh  Rh7  1  0.330097  0.689667  0.000000  1
  Rh  Rh8  1  0.986047  0.986047  0.500000  1
