# generated using pymatgen
data_Dy8Ta3Ti2Nb7Si16
_symmetry_space_group_name_H-M   'P 1'
_cell_length_a   7.05818346
_cell_length_b   7.05818211
_cell_length_c   13.00358402
_cell_angle_alpha   89.94838770
_cell_angle_beta   90.05161291
_cell_angle_gamma   89.98032461
_symmetry_Int_Tables_number   1
_chemical_formula_structural   Dy8Ta3Ti2Nb7Si16
_chemical_formula_sum   'Dy8 Ta3 Ti2 Nb7 Si16'
_cell_volume   647.81125982
_cell_formula_units_Z   1
loop_
 _symmetry_equiv_pos_site_id
 _symmetry_equiv_pos_as_xyz
  1  'x, y, z'
loop_
 _atom_site_type_symbol
 _atom_site_label
 _atom_site_symmetry_multiplicity
 _atom_site_fract_x
 _atom_site_fract_y
 _atom_site_fract_z
 _atom_site_occupancy
  Dy  Dy0  1  0.998617  0.657596  0.032645  1
  Dy  Dy1  1  0.001890  0.341417  0.532063  1
  Dy  Dy2  1  0.657596  0.998617  0.967355  1
  Dy  Dy3  1  0.159483  0.502926  0.782411  1
  Dy  Dy4  1  0.841496  0.497998  0.282133  1
  Dy  Dy5  1  0.502926  0.159483  0.217589  1
  Dy  Dy6  1  0.497998  0.841496  0.717867  1
  Dy  Dy7  1  0.341417  0.001890  0.467937  1
  Ta  Ta8  1  0.672156  0.672156  0.500000  1
  Ta  Ta9  1  0.829282  0.170563  0.750273  1
  Ta  Ta10  1  0.170563  0.829282  0.249727  1
  Ti  Ti11  1  0.492652  0.653038  0.123925  1
  Ti  Ti12  1  0.653038  0.492652  0.876075  1
  Nb  Nb13  1  0.346332  0.508707  0.376034  1
  Nb  Nb14  1  0.847197  0.992041  0.374521  1
  Nb  Nb15  1  0.008272  0.152973  0.126394  1
  Nb  Nb16  1  0.992041  0.847197  0.625479  1
  Nb  Nb17  1  0.508707  0.346332  0.623966  1
  Nb  Nb18  1  0.152973  0.008272  0.873606  1
  Nb  Nb19  1  0.326706  0.326706  0.000000  1
  Si  Si20  1  0.045531  0.705894  0.436061  1
  Si  Si21  1  0.952080  0.294802  0.935703  1
  Si  Si22  1  0.705894  0.045531  0.563939  1
  Si  Si23  1  0.208039  0.455488  0.185546  1
  Si  Si24  1  0.793342  0.545166  0.687402  1
  Si  Si25  1  0.455488  0.208039  0.814454  1
  Si  Si26  1  0.545166  0.793342  0.312598  1
  Si  Si27  1  0.294802  0.952080  0.064297  1
  Si  Si28  1  0.794949  0.865272  0.181992  1
  Si  Si29  1  0.296969  0.633427  0.568054  1
  Si  Si30  1  0.701242  0.368852  0.066087  1
  Si  Si31  1  0.633427  0.296969  0.431946  1
  Si  Si32  1  0.368852  0.701242  0.933913  1
  Si  Si33  1  0.133775  0.203834  0.317518  1
  Si  Si34  1  0.203834  0.133775  0.682482  1
  Si  Si35  1  0.865272  0.794949  0.818008  1
