# generated using pymatgen
data_Sc2Si7Ni12
_symmetry_space_group_name_H-M   'P 1'
_cell_length_a   9.20732600
_cell_length_b   9.20732618
_cell_length_c   3.54554300
_cell_angle_alpha   90.00000000
_cell_angle_beta   90.00000000
_cell_angle_gamma   119.99999217
_symmetry_Int_Tables_number   1
_chemical_formula_structural   Sc2Si7Ni12
_chemical_formula_sum   'Sc2 Si7 Ni12'
_cell_volume   260.30377822
_cell_formula_units_Z   1
loop_
 _symmetry_equiv_pos_site_id
 _symmetry_equiv_pos_as_xyz
  1  'x, y, z'
loop_
 _atom_site_type_symbol
 _atom_site_label
 _atom_site_symmetry_multiplicity
 _atom_site_fract_x
 _atom_site_fract_y
 _atom_site_fract_z
 _atom_site_occupancy
  Sc  Sc0  1  0.666667  0.333333  0.000000  1
  Sc  Sc1  1  0.000000  0.000000  0.500000  1
  Si  Si2  1  0.333333  0.666667  0.000000  1
  Si  Si3  1  0.449848  0.076605  0.500000  1
  Si  Si4  1  0.923395  0.373243  0.500000  1
  Si  Si5  1  0.626757  0.550152  0.500000  1
  Si  Si6  1  0.739920  0.951201  0.000000  1
  Si  Si7  1  0.048799  0.788719  0.000000  1
  Si  Si8  1  0.211281  0.260080  0.000000  1
  Ni  Ni9  1  0.489475  0.944798  0.000000  1
  Ni  Ni10  1  0.055202  0.544677  0.000000  1
  Ni  Ni11  1  0.455323  0.510525  0.000000  1
  Ni  Ni12  1  0.714117  0.100051  0.500000  1
  Ni  Ni13  1  0.899949  0.614067  0.500000  1
  Ni  Ni14  1  0.385933  0.285883  0.500000  1
  Ni  Ni15  1  0.772250  0.724461  0.000000  1
  Ni  Ni16  1  0.275539  0.047788  0.000000  1
  Ni  Ni17  1  0.952212  0.227750  0.000000  1
  Ni  Ni18  1  0.552897  0.761460  0.500000  1
  Ni  Ni19  1  0.238540  0.791437  0.500000  1
  Ni  Ni20  1  0.208563  0.447103  0.500000  1
