# generated using pymatgen
data_Ca9AcSi6F
_symmetry_space_group_name_H-M   'P 1'
_cell_length_a   9.24463635
_cell_length_b   9.17721467
_cell_length_c   9.20847235
_cell_angle_alpha   130.29978209
_cell_angle_beta   130.49372350
_cell_angle_gamma   72.79410466
_symmetry_Int_Tables_number   1
_chemical_formula_structural   Ca9AcSi6F
_chemical_formula_sum   'Ca9 Ac1 Si6 F1'
_cell_volume   442.60822807
_cell_formula_units_Z   1
loop_
 _symmetry_equiv_pos_site_id
 _symmetry_equiv_pos_as_xyz
  1  'x, y, z'
loop_
 _atom_site_type_symbol
 _atom_site_label
 _atom_site_symmetry_multiplicity
 _atom_site_fract_x
 _atom_site_fract_y
 _atom_site_fract_z
 _atom_site_occupancy
  Ca  Ca0  1  0.430310  0.775492  0.000000  1
  Ca  Ca1  1  0.936764  0.930767  0.644791  1
  Ca  Ca2  1  0.291973  0.285976  0.355209  1
  Ca  Ca3  1  0.710776  0.062971  0.000000  1
  Ca  Ca4  1  0.067988  0.710641  0.000000  1
  Ca  Ca5  1  0.563808  0.567393  0.338098  1
  Ca  Ca6  1  0.225709  0.229294  0.661902  1
  Ca  Ca7  1  0.258778  0.757601  0.507380  1
  Ca  Ca8  1  0.751398  0.250221  0.492620  1
  Ac  Ac9  1  0.779421  0.426346  0.000000  1
  Si  Si10  1  0.998213  0.503338  0.504597  1
  Si  Si11  1  0.493616  0.998741  0.495403  1
  Si  Si12  1  0.134799  0.355591  0.000000  1
  Si  Si13  1  0.364464  0.135643  0.000000  1
  Si  Si14  1  0.866797  0.865966  0.227432  1
  Si  Si15  1  0.639365  0.638534  0.772568  1
  F  F16  1  0.485820  0.505485  0.000000  1
