# generated using pymatgen
data_Gd12Ni6Pb
_symmetry_space_group_name_H-M   'P 1'
_cell_length_a   8.46196529
_cell_length_b   8.46135312
_cell_length_c   8.46196600
_cell_angle_alpha   109.47146454
_cell_angle_beta   109.46686070
_cell_angle_gamma   109.47826872
_symmetry_Int_Tables_number   1
_chemical_formula_structural   Gd12Ni6Pb
_chemical_formula_sum   'Gd12 Ni6 Pb1'
_cell_volume   466.38516255
_cell_formula_units_Z   1
loop_
 _symmetry_equiv_pos_site_id
 _symmetry_equiv_pos_as_xyz
  1  'x, y, z'
loop_
 _atom_site_type_symbol
 _atom_site_label
 _atom_site_symmetry_multiplicity
 _atom_site_fract_x
 _atom_site_fract_y
 _atom_site_fract_z
 _atom_site_occupancy
  Gd  Gd0  1  0.695374  0.882291  0.186918  1
  Gd  Gd1  1  0.304626  0.117709  0.813082  1
  Gd  Gd2  1  0.507564  0.812661  0.694811  1
  Gd  Gd3  1  0.492436  0.187339  0.305189  1
  Gd  Gd4  1  0.117851  0.812661  0.305097  1
  Gd  Gd5  1  0.882149  0.187339  0.694903  1
  Gd  Gd6  1  0.813225  0.695415  0.507808  1
  Gd  Gd7  1  0.186775  0.304585  0.492192  1
  Gd  Gd8  1  0.187607  0.695415  0.882189  1
  Gd  Gd9  1  0.812393  0.304585  0.117811  1
  Gd  Gd10  1  0.694483  0.507283  0.812799  1
  Gd  Gd11  1  0.305517  0.492717  0.187201  1
  Ni  Ni12  1  0.876317  0.376094  0.499778  1
  Ni  Ni13  1  0.123683  0.623906  0.500222  1
  Ni  Ni14  1  0.376109  0.500000  0.876109  1
  Ni  Ni15  1  0.623891  0.500000  0.123891  1
  Ni  Ni16  1  0.500585  0.876722  0.376137  1
  Ni  Ni17  1  0.499415  0.123278  0.623863  1
  Pb  Pb18  1  0.000000  0.000000  0.000000  1
