# generated using pymatgen
data_Tb12OsRu3
_symmetry_space_group_name_H-M   'P 1'
_cell_length_a   6.33273683
_cell_length_b   7.34456797
_cell_length_c   9.21648800
_cell_angle_alpha   90.00000000
_cell_angle_beta   90.00000000
_cell_angle_gamma   90.05869056
_symmetry_Int_Tables_number   1
_chemical_formula_structural   Tb12OsRu3
_chemical_formula_sum   'Tb12 Os1 Ru3'
_cell_volume   428.66983966
_cell_formula_units_Z   1
loop_
 _symmetry_equiv_pos_site_id
 _symmetry_equiv_pos_as_xyz
  1  'x, y, z'
loop_
 _atom_site_type_symbol
 _atom_site_label
 _atom_site_symmetry_multiplicity
 _atom_site_fract_x
 _atom_site_fract_y
 _atom_site_fract_z
 _atom_site_occupancy
  Tb  Tb0  1  0.331658  0.676034  0.063235  1
  Tb  Tb1  1  0.169158  0.176322  0.435624  1
  Tb  Tb2  1  0.669472  0.323903  0.564170  1
  Tb  Tb3  1  0.829954  0.823323  0.935254  1
  Tb  Tb4  1  0.669472  0.323903  0.935830  1
  Tb  Tb5  1  0.829954  0.823323  0.564746  1
  Tb  Tb6  1  0.331658  0.676034  0.436765  1
  Tb  Tb7  1  0.169158  0.176322  0.064376  1
  Tb  Tb8  1  0.866660  0.539532  0.250000  1
  Tb  Tb9  1  0.633370  0.039507  0.250000  1
  Tb  Tb10  1  0.132522  0.460790  0.750000  1
  Tb  Tb11  1  0.366450  0.961380  0.750000  1
  Os  Os12  1  0.541916  0.615634  0.750000  1
  Ru  Ru13  1  0.040782  0.884495  0.250000  1
  Ru  Ru14  1  0.458814  0.384006  0.250000  1
  Ru  Ru15  1  0.959002  0.115493  0.750000  1
