# generated using pymatgen
data_Nd12Si3CBr12
_symmetry_space_group_name_H-M   'P 1'
_cell_length_a   10.28957284
_cell_length_b   10.28957188
_cell_length_c   10.28957306
_cell_angle_alpha   109.11889836
_cell_angle_beta   109.11889514
_cell_angle_gamma   109.11888778
_symmetry_Int_Tables_number   1
_chemical_formula_structural   Nd12Si3CBr12
_chemical_formula_sum   'Nd12 Si3 C1 Br12'
_cell_volume   849.39286631
_cell_formula_units_Z   1
loop_
 _symmetry_equiv_pos_site_id
 _symmetry_equiv_pos_as_xyz
  1  'x, y, z'
loop_
 _atom_site_type_symbol
 _atom_site_label
 _atom_site_symmetry_multiplicity
 _atom_site_fract_x
 _atom_site_fract_y
 _atom_site_fract_z
 _atom_site_occupancy
  Nd  Nd0  1  0.461060  0.467846  0.240990  1
  Nd  Nd1  1  0.750000  0.240467  0.259533  1
  Nd  Nd2  1  0.750000  0.010876  0.489124  1
  Nd  Nd3  1  0.240990  0.461060  0.467846  1
  Nd  Nd4  1  0.259533  0.750000  0.240467  1
  Nd  Nd5  1  0.038940  0.259010  0.032154  1
  Nd  Nd6  1  0.032154  0.038940  0.259010  1
  Nd  Nd7  1  0.489124  0.750000  0.010876  1
  Nd  Nd8  1  0.467846  0.240990  0.461060  1
  Nd  Nd9  1  0.010876  0.489124  0.750000  1
  Nd  Nd10  1  0.259010  0.032154  0.038940  1
  Nd  Nd11  1  0.240467  0.259533  0.750000  1
  Si  Si12  1  0.498701  0.001299  0.250000  1
  Si  Si13  1  0.001299  0.250000  0.498701  1
  Si  Si14  1  0.250000  0.498701  0.001299  1
  C  C15  1  0.250000  0.250000  0.250000  1
  Br  Br16  1  0.250000  0.754702  0.745298  1
  Br  Br17  1  0.511175  0.504741  0.752444  1
  Br  Br18  1  0.988825  0.747556  0.995259  1
  Br  Br19  1  0.745298  0.250000  0.754702  1
  Br  Br20  1  0.995259  0.988825  0.747556  1
  Br  Br21  1  0.250000  0.995118  0.504882  1
  Br  Br22  1  0.752444  0.511175  0.504741  1
  Br  Br23  1  0.504882  0.250000  0.995118  1
  Br  Br24  1  0.754702  0.745298  0.250000  1
  Br  Br25  1  0.747556  0.995259  0.988825  1
  Br  Br26  1  0.995118  0.504882  0.250000  1
  Br  Br27  1  0.504741  0.752444  0.511175  1
