# generated using pymatgen
data_La6Al25Os7
_symmetry_space_group_name_H-M   'P 1'
_cell_length_a   9.01262441
_cell_length_b   9.01262393
_cell_length_c   9.73278006
_cell_angle_alpha   90.32261391
_cell_angle_beta   89.67739235
_cell_angle_gamma   119.78044894
_symmetry_Int_Tables_number   1
_chemical_formula_structural   La6Al25Os7
_chemical_formula_sum   'La6 Al25 Os7'
_cell_volume   686.14740750
_cell_formula_units_Z   1
loop_
 _symmetry_equiv_pos_site_id
 _symmetry_equiv_pos_as_xyz
  1  'x, y, z'
loop_
 _atom_site_type_symbol
 _atom_site_label
 _atom_site_symmetry_multiplicity
 _atom_site_fract_x
 _atom_site_fract_y
 _atom_site_fract_z
 _atom_site_occupancy
  La  La0  1  0.191589  0.381294  0.245278  1
  La  La1  1  0.808411  0.618706  0.754722  1
  La  La2  1  0.618706  0.808411  0.245278  1
  La  La3  1  0.381294  0.191589  0.754722  1
  La  La4  1  0.192329  0.807671  0.257787  1
  La  La5  1  0.807671  0.192329  0.742213  1
  Al  Al6  1  0.325801  0.674199  0.009352  1
  Al  Al7  1  0.674199  0.325801  0.990648  1
  Al  Al8  1  0.666607  0.333393  0.505263  1
  Al  Al9  1  0.333393  0.666607  0.494737  1
  Al  Al10  1  0.162000  0.325387  0.570742  1
  Al  Al11  1  0.838000  0.674613  0.429258  1
  Al  Al12  1  0.674613  0.838000  0.570742  1
  Al  Al13  1  0.854691  0.678900  0.081189  1
  Al  Al14  1  0.325387  0.162000  0.429258  1
  Al  Al15  1  0.145309  0.321100  0.918811  1
  Al  Al16  1  0.162585  0.837415  0.578568  1
  Al  Al17  1  0.321100  0.145309  0.081189  1
  Al  Al18  1  0.837415  0.162585  0.421432  1
  Al  Al19  1  0.678900  0.854691  0.918811  1
  Al  Al20  1  0.837441  0.162559  0.076033  1
  Al  Al21  1  0.162559  0.837441  0.923967  1
  Al  Al22  1  0.564034  0.124360  0.249045  1
  Al  Al23  1  0.435966  0.875640  0.750955  1
  Al  Al24  1  0.875640  0.435966  0.249045  1
  Al  Al25  1  0.124360  0.564034  0.750955  1
  Al  Al26  1  0.567531  0.432469  0.259888  1
  Al  Al27  1  0.432469  0.567531  0.740112  1
  Al  Al28  1  0.998865  0.001135  0.250712  1
  Al  Al29  1  0.001135  0.998865  0.749288  1
  Al  Al30  1  0.500000  0.500000  0.000000  1
  Os  Os31  1  0.500000  0.000000  0.000000  1
  Os  Os32  1  0.000000  0.500000  0.000000  1
  Os  Os33  1  0.500000  0.000000  0.500000  1
  Os  Os34  1  0.000000  0.500000  0.500000  1
  Os  Os35  1  0.500000  0.500000  0.500000  1
  Os  Os36  1  0.000000  0.000000  0.000000  1
  Os  Os37  1  0.000000  0.000000  0.500000  1
