# generated using pymatgen
data_Tm3Lu13(CoAg)4
_symmetry_space_group_name_H-M   'P 1'
_cell_length_a   9.21475297
_cell_length_b   9.21624134
_cell_length_c   9.21592409
_cell_angle_alpha   59.99030975
_cell_angle_beta   59.99992372
_cell_angle_gamma   60.00235201
_symmetry_Int_Tables_number   1
_chemical_formula_structural   Tm3Lu13(CoAg)4
_chemical_formula_sum   'Tm3 Lu13 Co4 Ag4'
_cell_volume   553.39735556
_cell_formula_units_Z   1
loop_
 _symmetry_equiv_pos_site_id
 _symmetry_equiv_pos_as_xyz
  1  'x, y, z'
loop_
 _atom_site_type_symbol
 _atom_site_label
 _atom_site_symmetry_multiplicity
 _atom_site_fract_x
 _atom_site_fract_y
 _atom_site_fract_z
 _atom_site_occupancy
  Tm  Tm0  1  0.937848  0.562148  0.937862  1
  Tm  Tm1  1  0.562156  0.562388  0.937644  1
  Tm  Tm2  1  0.937657  0.937821  0.562184  1
  Lu  Lu3  1  0.347629  0.347540  0.347840  1
  Lu  Lu4  1  0.347726  0.347417  0.957216  1
  Lu  Lu5  1  0.347890  0.957011  0.347587  1
  Lu  Lu6  1  0.957161  0.347702  0.347720  1
  Lu  Lu7  1  0.811770  0.187941  0.188272  1
  Lu  Lu8  1  0.188285  0.811965  0.811813  1
  Lu  Lu9  1  0.188262  0.811737  0.188206  1
  Lu  Lu10  1  0.811745  0.188224  0.811782  1
  Lu  Lu11  1  0.188522  0.188146  0.811554  1
  Lu  Lu12  1  0.811570  0.811765  0.188478  1
  Lu  Lu13  1  0.937898  0.562073  0.561927  1
  Lu  Lu14  1  0.561908  0.938093  0.937908  1
  Lu  Lu15  1  0.562095  0.937889  0.562120  1
  Co  Co16  1  0.141399  0.141281  0.141215  1
  Co  Co17  1  0.141363  0.141430  0.575991  1
  Co  Co18  1  0.141215  0.576098  0.141409  1
  Co  Co19  1  0.576012  0.141229  0.141350  1
  Ag  Ag20  1  0.581899  0.581946  0.581801  1
  Ag  Ag21  1  0.581816  0.581955  0.254383  1
  Ag  Ag22  1  0.581803  0.254341  0.581910  1
  Ag  Ag23  1  0.254371  0.581859  0.581825  1
