# generated using pymatgen
data_HfNb5Co16Si7
_symmetry_space_group_name_H-M   'P 1'
_cell_length_a   7.93341732
_cell_length_b   7.94392013
_cell_length_c   7.93341785
_cell_angle_alpha   59.95621139
_cell_angle_beta   60.08760417
_cell_angle_gamma   59.95621553
_symmetry_Int_Tables_number   1
_chemical_formula_structural   HfNb5Co16Si7
_chemical_formula_sum   'Hf1 Nb5 Co16 Si7'
_cell_volume   353.54042395
_cell_formula_units_Z   1
loop_
 _symmetry_equiv_pos_site_id
 _symmetry_equiv_pos_as_xyz
  1  'x, y, z'
loop_
 _atom_site_type_symbol
 _atom_site_label
 _atom_site_symmetry_multiplicity
 _atom_site_fract_x
 _atom_site_fract_y
 _atom_site_fract_z
 _atom_site_occupancy
  Hf  Hf0  1  0.203349  0.796651  0.203349  1
  Nb  Nb1  1  0.203910  0.796090  0.795220  1
  Nb  Nb2  1  0.795220  0.204780  0.203910  1
  Nb  Nb3  1  0.795220  0.796090  0.203910  1
  Nb  Nb4  1  0.203910  0.204780  0.795220  1
  Nb  Nb5  1  0.798502  0.201498  0.798502  1
  Co  Co6  1  0.166970  0.167864  0.166970  1
  Co  Co7  1  0.501804  0.833030  0.832136  1
  Co  Co8  1  0.833172  0.500492  0.833172  1
  Co  Co9  1  0.832136  0.833030  0.501804  1
  Co  Co10  1  0.166970  0.498196  0.166970  1
  Co  Co11  1  0.166835  0.166828  0.499508  1
  Co  Co12  1  0.499508  0.166828  0.166835  1
  Co  Co13  1  0.833172  0.833165  0.833172  1
  Co  Co14  1  0.382058  0.377853  0.382058  1
  Co  Co15  1  0.141969  0.617942  0.622147  1
  Co  Co16  1  0.618696  0.144711  0.618696  1
  Co  Co17  1  0.622147  0.617942  0.141969  1
  Co  Co18  1  0.382058  0.858031  0.382058  1
  Co  Co19  1  0.382103  0.381304  0.855289  1
  Co  Co20  1  0.855289  0.381304  0.382103  1
  Co  Co21  1  0.618696  0.617897  0.618696  1
  Si  Si22  1  0.497965  0.502035  0.497965  1
  Si  Si23  1  0.000112  0.499888  0.000112  1
  Si  Si24  1  0.500659  0.001600  0.998400  1
  Si  Si25  1  0.998400  0.499341  0.500659  1
  Si  Si26  1  0.500112  0.999888  0.500112  1
  Si  Si27  1  0.998400  0.001600  0.500659  1
  Si  Si28  1  0.500659  0.499341  0.998400  1
