# generated using pymatgen
data_LaSn3Pd5
_symmetry_space_group_name_H-M   'P 1'
_cell_length_a   4.42467400
_cell_length_b   21.94148000
_cell_length_c   7.46157100
_cell_angle_alpha   90.00000000
_cell_angle_beta   90.00000000
_cell_angle_gamma   90.00000000
_symmetry_Int_Tables_number   1
_chemical_formula_structural   LaSn3Pd5
_chemical_formula_sum   'La4 Sn12 Pd20'
_cell_volume   724.39838354
_cell_formula_units_Z   4
loop_
 _symmetry_equiv_pos_site_id
 _symmetry_equiv_pos_as_xyz
  1  'x, y, z'
loop_
 _atom_site_type_symbol
 _atom_site_label
 _atom_site_symmetry_multiplicity
 _atom_site_fract_x
 _atom_site_fract_y
 _atom_site_fract_z
 _atom_site_occupancy
  La  La0  1  0.750000  0.650430  0.121636  1
  La  La1  1  0.250000  0.349570  0.878364  1
  La  La2  1  0.250000  0.849570  0.621636  1
  La  La3  1  0.750000  0.150430  0.378364  1
  Sn  Sn4  1  0.750000  0.733777  0.618934  1
  Sn  Sn5  1  0.250000  0.266223  0.381066  1
  Sn  Sn6  1  0.250000  0.766223  0.118934  1
  Sn  Sn7  1  0.750000  0.233777  0.881066  1
  Sn  Sn8  1  0.750000  0.925290  0.352685  1
  Sn  Sn9  1  0.250000  0.074710  0.647315  1
  Sn  Sn10  1  0.250000  0.574710  0.852685  1
  Sn  Sn11  1  0.750000  0.425290  0.147315  1
  Sn  Sn12  1  0.750000  0.913135  0.913243  1
  Sn  Sn13  1  0.250000  0.086865  0.086757  1
  Sn  Sn14  1  0.250000  0.586865  0.413243  1
  Sn  Sn15  1  0.750000  0.413135  0.586757  1
  Pd  Pd16  1  0.750000  0.802371  0.319120  1
  Pd  Pd17  1  0.250000  0.197629  0.680880  1
  Pd  Pd18  1  0.250000  0.697629  0.819120  1
  Pd  Pd19  1  0.750000  0.302371  0.180880  1
  Pd  Pd20  1  0.750000  0.997494  0.636103  1
  Pd  Pd21  1  0.250000  0.002506  0.363897  1
  Pd  Pd22  1  0.250000  0.502506  0.136103  1
  Pd  Pd23  1  0.750000  0.497494  0.863897  1
  Pd  Pd24  1  0.750000  0.517155  0.383240  1
  Pd  Pd25  1  0.250000  0.482845  0.616760  1
  Pd  Pd26  1  0.250000  0.982845  0.883240  1
  Pd  Pd27  1  0.750000  0.017155  0.116760  1
  Pd  Pd28  1  0.750000  0.793148  0.924710  1
  Pd  Pd29  1  0.250000  0.206852  0.075290  1
  Pd  Pd30  1  0.250000  0.706852  0.424710  1
  Pd  Pd31  1  0.750000  0.293148  0.575290  1
  Pd  Pd32  1  0.750000  0.613428  0.650149  1
  Pd  Pd33  1  0.250000  0.386571  0.349851  1
  Pd  Pd34  1  0.250000  0.886572  0.150149  1
  Pd  Pd35  1  0.750000  0.113428  0.849851  1
