# generated using pymatgen
data_Dy2B4Os3Ru
_symmetry_space_group_name_H-M   'P 1'
_cell_length_a   6.62190120
_cell_length_b   5.92835924
_cell_length_c   5.58891471
_cell_angle_alpha   70.12191039
_cell_angle_beta   57.34383134
_cell_angle_gamma   52.55482561
_symmetry_Int_Tables_number   1
_chemical_formula_structural   Dy2B4Os3Ru
_chemical_formula_sum   'Dy2 B4 Os3 Ru1'
_cell_volume   146.63355359
_cell_formula_units_Z   1
loop_
 _symmetry_equiv_pos_site_id
 _symmetry_equiv_pos_as_xyz
  1  'x, y, z'
loop_
 _atom_site_type_symbol
 _atom_site_label
 _atom_site_symmetry_multiplicity
 _atom_site_fract_x
 _atom_site_fract_y
 _atom_site_fract_z
 _atom_site_occupancy
  Dy  Dy0  1  0.999211  0.999211  0.000789  1
  Dy  Dy1  1  0.251973  0.251973  0.248027  1
  B  B2  1  0.688042  0.310987  0.691887  1
  B  B3  1  0.310987  0.688042  0.309084  1
  B  B4  1  0.942286  0.556153  0.942325  1
  B  B5  1  0.556153  0.942286  0.559236  1
  Os  Os6  1  0.612300  0.612300  0.887700  1
  Os  Os7  1  0.638473  0.638473  0.361526  1
  Os  Os8  1  0.360986  0.360987  0.639013  1
  Ru  Ru9  1  0.889589  0.889588  0.610411  1
