# generated using pymatgen
data_Sc8AgIr4Ru3
_symmetry_space_group_name_H-M   'P 1'
_cell_length_a   6.44952300
_cell_length_b   4.60314400
_cell_length_c   9.21178300
_cell_angle_alpha   90.00000000
_cell_angle_beta   89.99671181
_cell_angle_gamma   90.00000000
_symmetry_Int_Tables_number   1
_chemical_formula_structural   Sc8AgIr4Ru3
_chemical_formula_sum   'Sc8 Ag1 Ir4 Ru3'
_cell_volume   273.48017898
_cell_formula_units_Z   1
loop_
 _symmetry_equiv_pos_site_id
 _symmetry_equiv_pos_as_xyz
  1  'x, y, z'
loop_
 _atom_site_type_symbol
 _atom_site_label
 _atom_site_symmetry_multiplicity
 _atom_site_fract_x
 _atom_site_fract_y
 _atom_site_fract_z
 _atom_site_occupancy
  Sc  Sc0  1  0.989040  0.750000  0.124988  1
  Sc  Sc1  1  0.510737  0.750000  0.124996  1
  Sc  Sc2  1  0.994693  0.250000  0.380889  1
  Sc  Sc3  1  0.505108  0.250000  0.380925  1
  Sc  Sc4  1  0.499782  0.750000  0.625000  1
  Sc  Sc5  1  0.000462  0.750000  0.624997  1
  Sc  Sc6  1  0.505294  0.250000  0.869081  1
  Sc  Sc7  1  0.994912  0.250000  0.869067  1
  Ag  Ag8  1  0.249928  0.250000  0.125012  1
  Ir  Ir9  1  0.749920  0.250000  0.124975  1
  Ir  Ir10  1  0.249936  0.750000  0.374586  1
  Ir  Ir11  1  0.750076  0.250000  0.624979  1
  Ir  Ir12  1  0.250090  0.750000  0.875458  1
  Ru  Ru13  1  0.749916  0.750000  0.374382  1
  Ru  Ru14  1  0.250054  0.250000  0.624985  1
  Ru  Ru15  1  0.750054  0.750000  0.875678  1
