# generated using pymatgen
data_BiS23
_symmetry_space_group_name_H-M   'P 1'
_cell_length_a   5.52676124
_cell_length_b   9.73169328
_cell_length_c   15.62274894
_cell_angle_alpha   89.32126906
_cell_angle_beta   87.71930006
_cell_angle_gamma   90.82232912
_symmetry_Int_Tables_number   1
_chemical_formula_structural   BiS23
_chemical_formula_sum   'Bi1 S23'
_cell_volume   839.44865129
_cell_formula_units_Z   1
loop_
 _symmetry_equiv_pos_site_id
 _symmetry_equiv_pos_as_xyz
  1  'x, y, z'
loop_
 _atom_site_type_symbol
 _atom_site_label
 _atom_site_symmetry_multiplicity
 _atom_site_fract_x
 _atom_site_fract_y
 _atom_site_fract_z
 _atom_site_occupancy
  Bi  Bi0  1  0.490778  0.163022  0.381153  1
  S  S1  1  0.516899  0.799694  0.393119  1
  S  S2  1  0.001717  0.299240  0.108625  1
  S  S3  1  0.752385  0.243162  0.504044  1
  S  S4  1  0.306375  0.764794  0.503541  1
  S  S5  1  0.196818  0.258925  0.996422  1
  S  S6  1  0.800151  0.742527  0.003152  1
  S  S7  1  0.242517  0.382740  0.360260  1
  S  S8  1  0.695302  0.618508  0.362863  1
  S  S9  1  0.800227  0.125812  0.143534  1
  S  S10  1  0.204203  0.872170  0.135204  1
  S  S11  1  0.699107  0.632471  0.638740  1
  S  S12  1  0.304478  0.371110  0.631483  1
  S  S13  1  0.204999  0.878634  0.860302  1
  S  S14  1  0.794062  0.126182  0.865053  1
  S  S15  1  0.000381  0.699436  0.108910  1
  S  S16  1  0.508071  0.806239  0.608802  1
  S  S17  1  0.518564  0.203500  0.608667  1
  S  S18  1  0.004968  0.703498  0.892962  1
  S  S19  1  0.990133  0.301416  0.892357  1
  S  S20  1  0.480787  0.503653  0.285601  1
  S  S21  1  0.004881  0.996320  0.217101  1
  S  S22  1  0.479384  0.502099  0.713531  1
  S  S23  1  0.002812  0.004846  0.784575  1
