# generated using pymatgen
data_LiYb(NiH3)2
_symmetry_space_group_name_H-M   'P 1'
_cell_length_a   4.75701172
_cell_length_b   4.75700329
_cell_length_c   4.75802600
_cell_angle_alpha   120.00845873
_cell_angle_beta   120.00849942
_cell_angle_gamma   89.97060974
_symmetry_Int_Tables_number   1
_chemical_formula_structural   LiYb(NiH3)2
_chemical_formula_sum   'Li1 Yb1 Ni2 H6'
_cell_volume   76.13414725
_cell_formula_units_Z   1
loop_
 _symmetry_equiv_pos_site_id
 _symmetry_equiv_pos_as_xyz
  1  'x, y, z'
loop_
 _atom_site_type_symbol
 _atom_site_label
 _atom_site_symmetry_multiplicity
 _atom_site_fract_x
 _atom_site_fract_y
 _atom_site_fract_z
 _atom_site_occupancy
  Li  Li0  1  0.749998  0.749998  0.000000  1
  Yb  Yb1  1  0.249998  0.249999  0.000000  1
  Ni  Ni2  1  0.499990  0.000008  0.499999  1
  Ni  Ni3  1  0.000010  0.499989  0.499999  1
  H  H4  1  0.250046  0.750045  0.000090  1
  H  H5  1  0.749953  0.750046  0.499999  1
  H  H6  1  0.749954  0.249955  0.499999  1
  H  H7  1  0.250044  0.750043  0.499999  1
  H  H8  1  0.250046  0.249953  0.499999  1
  H  H9  1  0.749955  0.249954  0.999909  1
