# generated using pymatgen
data_Nd17Lu3SnPb15
_symmetry_space_group_name_H-M   'P 1'
_cell_length_a   8.36153400
_cell_length_b   8.50771760
_cell_length_c   16.12083600
_cell_angle_alpha   90.00000000
_cell_angle_beta   90.00000000
_cell_angle_gamma   90.13205821
_symmetry_Int_Tables_number   1
_chemical_formula_structural   Nd17Lu3SnPb15
_chemical_formula_sum   'Nd17 Lu3 Sn1 Pb15'
_cell_volume   1146.79405264
_cell_formula_units_Z   1
loop_
 _symmetry_equiv_pos_site_id
 _symmetry_equiv_pos_as_xyz
  1  'x, y, z'
loop_
 _atom_site_type_symbol
 _atom_site_label
 _atom_site_symmetry_multiplicity
 _atom_site_fract_x
 _atom_site_fract_y
 _atom_site_fract_z
 _atom_site_occupancy
  Nd  Nd0  1  0.022261  0.180067  0.402042  1
  Nd  Nd1  1  0.365670  0.841499  0.120923  1
  Nd  Nd2  1  0.132298  0.338284  0.622249  1
  Nd  Nd3  1  0.477776  0.680495  0.901733  1
  Nd  Nd4  1  0.866374  0.658520  0.122208  1
  Nd  Nd5  1  0.132298  0.338284  0.877751  1
  Nd  Nd6  1  0.477776  0.680495  0.598267  1
  Nd  Nd7  1  0.634811  0.158251  0.620721  1
  Nd  Nd8  1  0.804181  0.495394  0.750000  1
  Nd  Nd9  1  0.866374  0.658520  0.377792  1
  Nd  Nd10  1  0.022261  0.180067  0.097958  1
  Nd  Nd11  1  0.978467  0.822798  0.901125  1
  Nd  Nd12  1  0.634811  0.158251  0.879279  1
  Nd  Nd13  1  0.522049  0.320057  0.098962  1
  Nd  Nd14  1  0.365670  0.841499  0.379077  1
  Nd  Nd15  1  0.978467  0.822798  0.598875  1
  Nd  Nd16  1  0.522049  0.320057  0.401038  1
  Lu  Lu17  1  0.198375  0.503306  0.250000  1
  Lu  Lu18  1  0.697866  0.997046  0.250000  1
  Lu  Lu19  1  0.298707  0.005360  0.750000  1
  Sn  Sn20  1  0.939045  0.117959  0.750000  1
  Pb  Pb21  1  0.790404  0.463724  0.542310  1
  Pb  Pb22  1  0.710401  0.964356  0.454389  1
  Pb  Pb23  1  0.669450  0.851832  0.750000  1
  Pb  Pb24  1  0.209564  0.534485  0.455296  1
  Pb  Pb25  1  0.290530  0.035446  0.955038  1
  Pb  Pb26  1  0.832562  0.344084  0.250000  1
  Pb  Pb27  1  0.790404  0.463724  0.957690  1
  Pb  Pb28  1  0.558959  0.622221  0.250000  1
  Pb  Pb29  1  0.209564  0.534485  0.044704  1
  Pb  Pb30  1  0.436650  0.376931  0.750000  1
  Pb  Pb31  1  0.171937  0.655722  0.750000  1
  Pb  Pb32  1  0.290530  0.035446  0.544962  1
  Pb  Pb33  1  0.710401  0.964356  0.045611  1
  Pb  Pb34  1  0.330977  0.154422  0.250000  1
  Pb  Pb35  1  0.060086  0.879761  0.250000  1
