# generated using pymatgen
data_Ba20In2Si9Ge
_symmetry_space_group_name_H-M   'P 1'
_cell_length_a   8.54822000
_cell_length_b   8.54822000
_cell_length_c   17.37987500
_cell_angle_alpha   90.00000000
_cell_angle_beta   90.00000000
_cell_angle_gamma   90.00000000
_symmetry_Int_Tables_number   1
_chemical_formula_structural   Ba20In2Si9Ge
_chemical_formula_sum   'Ba20 In2 Si9 Ge1'
_cell_volume   1269.98335862
_cell_formula_units_Z   1
loop_
 _symmetry_equiv_pos_site_id
 _symmetry_equiv_pos_as_xyz
  1  'x, y, z'
loop_
 _atom_site_type_symbol
 _atom_site_label
 _atom_site_symmetry_multiplicity
 _atom_site_fract_x
 _atom_site_fract_y
 _atom_site_fract_z
 _atom_site_occupancy
  Ba  Ba0  1  0.315995  0.672684  0.113890  1
  Ba  Ba1  1  0.172684  0.184005  0.113890  1
  Ba  Ba2  1  0.500000  0.000000  0.728207  1
  Ba  Ba3  1  0.321668  0.687442  0.395740  1
  Ba  Ba4  1  0.669310  0.685424  0.885464  1
  Ba  Ba5  1  0.187442  0.178332  0.395740  1
  Ba  Ba6  1  0.678332  0.312558  0.395740  1
  Ba  Ba7  1  0.174496  0.807947  0.604884  1
  Ba  Ba8  1  0.330690  0.314576  0.885464  1
  Ba  Ba9  1  0.185424  0.830690  0.885464  1
  Ba  Ba10  1  0.500000  0.000000  0.245658  1
  Ba  Ba11  1  0.825504  0.192053  0.604884  1
  Ba  Ba12  1  0.307947  0.325504  0.604884  1
  Ba  Ba13  1  0.812558  0.821668  0.395740  1
  Ba  Ba14  1  0.814576  0.169310  0.885464  1
  Ba  Ba15  1  0.827316  0.815995  0.113890  1
  Ba  Ba16  1  0.000000  0.500000  0.266678  1
  Ba  Ba17  1  0.000000  0.500000  0.761386  1
  Ba  Ba18  1  0.684005  0.327316  0.113890  1
  Ba  Ba19  1  0.692053  0.674496  0.604884  1
  In  In20  1  0.000000  0.500000  0.992634  1
  In  In21  1  0.500000  0.000000  0.007130  1
  Si  Si22  1  0.099492  0.101063  0.743978  1
  Si  Si23  1  0.398937  0.599492  0.743978  1
  Si  Si24  1  0.599673  0.600755  0.255722  1
  Si  Si25  1  0.100755  0.900327  0.255722  1
  Si  Si26  1  0.601063  0.400508  0.743978  1
  Si  Si27  1  0.900508  0.898937  0.743978  1
  Si  Si28  1  0.400327  0.399245  0.255722  1
  Si  Si29  1  0.899245  0.099673  0.255722  1
  Si  Si30  1  0.000000  0.500000  0.489217  1
  Ge  Ge31  1  0.500000  0.000000  0.510370  1
