# generated using pymatgen
data_Er11TmCo4CuSn
_symmetry_space_group_name_H-M   'P 1'
_cell_length_a   8.22074970
_cell_length_b   8.21994811
_cell_length_c   8.22075015
_cell_angle_alpha   111.17790660
_cell_angle_beta   110.41178325
_cell_angle_gamma   106.85996882
_symmetry_Int_Tables_number   1
_chemical_formula_structural   Er11TmCo4CuSn
_chemical_formula_sum   'Er11 Tm1 Co4 Cu1 Sn1'
_cell_volume   426.92847023
_cell_formula_units_Z   1
loop_
 _symmetry_equiv_pos_site_id
 _symmetry_equiv_pos_as_xyz
  1  'x, y, z'
loop_
 _atom_site_type_symbol
 _atom_site_label
 _atom_site_symmetry_multiplicity
 _atom_site_fract_x
 _atom_site_fract_y
 _atom_site_fract_z
 _atom_site_occupancy
  Er  Er0  1  0.685462  0.381514  0.696052  1
  Er  Er1  1  0.314514  0.010440  0.695926  1
  Er  Er2  1  0.685373  0.989191  0.303818  1
  Er  Er3  1  0.418733  0.217584  0.201380  1
  Er  Er4  1  0.580989  0.782483  0.798335  1
  Er  Er5  1  0.016204  0.217584  0.798850  1
  Er  Er6  1  0.984148  0.782483  0.201494  1
  Er  Er7  1  0.185112  0.288624  0.473414  1
  Er  Er8  1  0.814764  0.711540  0.526405  1
  Er  Er9  1  0.185135  0.711540  0.896775  1
  Er  Er10  1  0.815208  0.288624  0.103512  1
  Tm  Tm11  1  0.314518  0.618632  0.304113  1
  Co  Co12  1  0.113599  0.613528  0.499929  1
  Co  Co13  1  0.886629  0.386645  0.500016  1
  Co  Co14  1  0.376579  0.999748  0.376650  1
  Co  Co15  1  0.623099  0.999748  0.623169  1
  Cu  Cu16  1  0.000010  0.000030  0.000020  1
  Sn  Sn17  1  0.499924  0.500065  0.000141  1
