# generated using pymatgen
data_Li4Zn(BRh2)4
_symmetry_space_group_name_H-M   'P 1'
_cell_length_a   9.44913715
_cell_length_b   9.44913778
_cell_length_c   2.86769800
_cell_angle_alpha   90.00000000
_cell_angle_beta   90.00000000
_cell_angle_gamma   126.65994580
_symmetry_Int_Tables_number   1
_chemical_formula_structural   Li4Zn(BRh2)4
_chemical_formula_sum   'Li4 Zn1 B4 Rh8'
_cell_volume   205.39825164
_cell_formula_units_Z   1
loop_
 _symmetry_equiv_pos_site_id
 _symmetry_equiv_pos_as_xyz
  1  'x, y, z'
loop_
 _atom_site_type_symbol
 _atom_site_label
 _atom_site_symmetry_multiplicity
 _atom_site_fract_x
 _atom_site_fract_y
 _atom_site_fract_z
 _atom_site_occupancy
  Li  Li0  1  0.205535  0.794465  0.500000  1
  Li  Li1  1  0.794465  0.205535  0.500000  1
  Li  Li2  1  0.354771  0.354771  0.500000  1
  Li  Li3  1  0.645229  0.645229  0.500000  1
  Zn  Zn4  1  0.000000  0.000000  0.500000  1
  B  B5  1  0.460775  0.152363  0.500000  1
  B  B6  1  0.152363  0.460775  0.500000  1
  B  B7  1  0.539225  0.847637  0.500000  1
  B  B8  1  0.847637  0.539225  0.500000  1
  Rh  Rh9  1  0.639159  0.360841  0.000000  1
  Rh  Rh10  1  0.360841  0.639159  0.000000  1
  Rh  Rh11  1  0.920257  0.734071  0.000000  1
  Rh  Rh12  1  0.079743  0.265929  0.000000  1
  Rh  Rh13  1  0.500000  0.000000  0.000000  1
  Rh  Rh14  1  0.265929  0.079743  0.000000  1
  Rh  Rh15  1  0.734071  0.920257  0.000000  1
  Rh  Rh16  1  0.000000  0.500000  0.000000  1
