# generated using pymatgen
data_Tb2Y8Bi5Te
_symmetry_space_group_name_H-M   'P 1'
_cell_length_a   8.25232200
_cell_length_b   9.47923200
_cell_length_c   12.09521700
_cell_angle_alpha   90.00000000
_cell_angle_beta   90.00000000
_cell_angle_gamma   90.00000000
_symmetry_Int_Tables_number   1
_chemical_formula_structural   Tb2Y8Bi5Te
_chemical_formula_sum   'Tb4 Y16 Bi10 Te2'
_cell_volume   946.15651140
_cell_formula_units_Z   2
loop_
 _symmetry_equiv_pos_site_id
 _symmetry_equiv_pos_as_xyz
  1  'x, y, z'
loop_
 _atom_site_type_symbol
 _atom_site_label
 _atom_site_symmetry_multiplicity
 _atom_site_fract_x
 _atom_site_fract_y
 _atom_site_fract_z
 _atom_site_occupancy
  Tb  Tb0  1  0.318005  0.250000  0.218555  1
  Tb  Tb1  1  0.818005  0.250000  0.281445  1
  Tb  Tb2  1  0.677019  0.750000  0.784580  1
  Tb  Tb3  1  0.177019  0.750000  0.715420  1
  Y  Y4  1  0.353554  0.750000  0.212959  1
  Y  Y5  1  0.853554  0.750000  0.287041  1
  Y  Y6  1  0.647138  0.250000  0.785143  1
  Y  Y7  1  0.147138  0.250000  0.714857  1
  Y  Y8  1  0.690759  0.565229  0.058836  1
  Y  Y9  1  0.190759  0.934771  0.441164  1
  Y  Y10  1  0.309384  0.059696  0.940891  1
  Y  Y11  1  0.809384  0.440304  0.559109  1
  Y  Y12  1  0.309384  0.440304  0.940891  1
  Y  Y13  1  0.809384  0.059696  0.559109  1
  Y  Y14  1  0.690759  0.934771  0.058836  1
  Y  Y15  1  0.190759  0.565229  0.441164  1
  Y  Y16  1  0.475994  0.250000  0.489870  1
  Y  Y17  1  0.975994  0.250000  0.010130  1
  Y  Y18  1  0.526697  0.750000  0.512761  1
  Y  Y19  1  0.026697  0.750000  0.987239  1
  Bi  Bi20  1  0.593920  0.250000  0.041895  1
  Bi  Bi21  1  0.093920  0.250000  0.458105  1
  Bi  Bi22  1  0.568259  0.995250  0.326984  1
  Bi  Bi23  1  0.068259  0.504750  0.173016  1
  Bi  Bi24  1  0.431565  0.496478  0.675191  1
  Bi  Bi25  1  0.931565  0.003522  0.824809  1
  Bi  Bi26  1  0.431565  0.003522  0.675191  1
  Bi  Bi27  1  0.931565  0.496478  0.824809  1
  Bi  Bi28  1  0.568259  0.504750  0.326984  1
  Bi  Bi29  1  0.068259  0.995250  0.173016  1
  Te  Te30  1  0.407741  0.750000  0.960845  1
  Te  Te31  1  0.907741  0.750000  0.539155  1
