# generated using pymatgen
data_Zr6Zn19AsIr4
_symmetry_space_group_name_H-M   'P 1'
_cell_length_a   8.75469777
_cell_length_b   8.80773533
_cell_length_c   8.80773547
_cell_angle_alpha   59.93336428
_cell_angle_beta   59.73028648
_cell_angle_gamma   59.73028601
_symmetry_Int_Tables_number   1
_chemical_formula_structural   Zr6Zn19AsIr4
_chemical_formula_sum   'Zr6 Zn19 As1 Ir4'
_cell_volume   478.02951329
_cell_formula_units_Z   1
loop_
 _symmetry_equiv_pos_site_id
 _symmetry_equiv_pos_as_xyz
  1  'x, y, z'
loop_
 _atom_site_type_symbol
 _atom_site_label
 _atom_site_symmetry_multiplicity
 _atom_site_fract_x
 _atom_site_fract_y
 _atom_site_fract_z
 _atom_site_occupancy
  Zr  Zr0  1  0.710575  0.285328  0.285328  1
  Zr  Zr1  1  0.289425  0.714672  0.714672  1
  Zr  Zr2  1  0.286092  0.721972  0.278666  1
  Zr  Zr3  1  0.713908  0.278028  0.721334  1
  Zr  Zr4  1  0.286092  0.278666  0.721972  1
  Zr  Zr5  1  0.713908  0.721334  0.278028  1
  Zn  Zn6  1  0.123169  0.117880  0.632730  1
  Zn  Zn7  1  0.123169  0.632730  0.117880  1
  Zn  Zn8  1  0.876831  0.882120  0.367270  1
  Zn  Zn9  1  0.876831  0.367270  0.882120  1
  Zn  Zn10  1  0.626387  0.124707  0.124707  1
  Zn  Zn11  1  0.373613  0.875293  0.875293  1
  Zn  Zn12  1  0.500000  0.000000  0.000000  1
  Zn  Zn13  1  0.000000  0.500000  0.500000  1
  Zn  Zn14  1  0.000000  0.500000  0.000000  1
  Zn  Zn15  1  0.000000  0.000000  0.500000  1
  Zn  Zn16  1  0.332710  0.339577  0.339577  1
  Zn  Zn17  1  0.667290  0.660423  0.660423  1
  Zn  Zn18  1  0.330340  0.331913  0.998814  1
  Zn  Zn19  1  0.330340  0.998814  0.331913  1
  Zn  Zn20  1  0.669660  0.668087  0.001186  1
  Zn  Zn21  1  0.669660  0.001186  0.668087  1
  Zn  Zn22  1  0.993036  0.332140  0.332140  1
  Zn  Zn23  1  0.006964  0.667860  0.667860  1
  Zn  Zn24  1  0.000000  0.000000  0.000000  1
  As  As25  1  0.500000  0.500000  0.500000  1
  Ir  Ir26  1  0.116630  0.118804  0.118804  1
  Ir  Ir27  1  0.883370  0.881196  0.881196  1
  Ir  Ir28  1  0.500000  0.000000  0.500000  1
  Ir  Ir29  1  0.500000  0.500000  0.000000  1
