# generated using pymatgen
data_La2Y4IrBr10
_symmetry_space_group_name_H-M   'P 1'
_cell_length_a   7.51752025
_cell_length_b   9.43878640
_cell_length_c   9.44482935
_cell_angle_alpha   109.56096828
_cell_angle_beta   96.89205454
_cell_angle_gamma   104.04448389
_symmetry_Int_Tables_number   1
_chemical_formula_structural   La2Y4IrBr10
_chemical_formula_sum   'La2 Y4 Ir1 Br10'
_cell_volume   597.58393084
_cell_formula_units_Z   1
loop_
 _symmetry_equiv_pos_site_id
 _symmetry_equiv_pos_as_xyz
  1  'x, y, z'
loop_
 _atom_site_type_symbol
 _atom_site_label
 _atom_site_symmetry_multiplicity
 _atom_site_fract_x
 _atom_site_fract_y
 _atom_site_fract_z
 _atom_site_occupancy
  La  La0  1  0.969972  0.295949  0.098376  1
  La  La1  1  0.030028  0.704051  0.901624  1
  Y  Y2  1  0.638064  0.868110  0.816460  1
  Y  Y3  1  0.361936  0.131890  0.183540  1
  Y  Y4  1  0.124144  0.043073  0.749152  1
  Y  Y5  1  0.875856  0.956927  0.250848  1
  Ir  Ir6  1  0.000000  0.000000  0.000000  1
  Br  Br7  1  0.538166  0.170041  0.916528  1
  Br  Br8  1  0.461834  0.829959  0.083472  1
  Br  Br9  1  0.753877  0.916909  0.542576  1
  Br  Br10  1  0.246123  0.083091  0.457424  1
  Br  Br11  1  0.093772  0.359580  0.821413  1
  Br  Br12  1  0.906228  0.640420  0.178587  1
  Br  Br13  1  0.225624  0.752539  0.642835  1
  Br  Br14  1  0.774376  0.247461  0.357165  1
  Br  Br15  1  0.630096  0.552839  0.725663  1
  Br  Br16  1  0.369904  0.447161  0.274337  1
