# generated using pymatgen
data_Ti3Ga2W
_symmetry_space_group_name_H-M   'P 1'
_cell_length_a   4.46538600
_cell_length_b   4.46538675
_cell_length_c   5.50177500
_cell_angle_alpha   90.00000000
_cell_angle_beta   90.00000000
_cell_angle_gamma   120.00000928
_symmetry_Int_Tables_number   1
_chemical_formula_structural   Ti3Ga2W
_chemical_formula_sum   'Ti3 Ga2 W1'
_cell_volume   95.00610254
_cell_formula_units_Z   1
loop_
 _symmetry_equiv_pos_site_id
 _symmetry_equiv_pos_as_xyz
  1  'x, y, z'
loop_
 _atom_site_type_symbol
 _atom_site_label
 _atom_site_symmetry_multiplicity
 _atom_site_fract_x
 _atom_site_fract_y
 _atom_site_fract_z
 _atom_site_occupancy
  Ti  Ti0  1  0.666667  0.333333  0.184776  1
  Ti  Ti1  1  0.333333  0.666667  0.815224  1
  Ti  Ti2  1  0.000000  0.000000  0.500000  1
  Ga  Ga3  1  0.666667  0.333333  0.703628  1
  Ga  Ga4  1  0.333333  0.666667  0.296372  1
  W  W5  1  0.000000  0.000000  0.000000  1
