# generated using pymatgen
data_Tm10CdSb5
_symmetry_space_group_name_H-M   'P 1'
_cell_length_a   8.82572600
_cell_length_b   8.82837624
_cell_length_c   6.33244500
_cell_angle_alpha   90.00000000
_cell_angle_beta   90.00000000
_cell_angle_gamma   119.99007012
_symmetry_Int_Tables_number   1
_chemical_formula_structural   Tm10CdSb5
_chemical_formula_sum   'Tm10 Cd1 Sb5'
_cell_volume   427.34318107
_cell_formula_units_Z   1
loop_
 _symmetry_equiv_pos_site_id
 _symmetry_equiv_pos_as_xyz
  1  'x, y, z'
loop_
 _atom_site_type_symbol
 _atom_site_label
 _atom_site_symmetry_multiplicity
 _atom_site_fract_x
 _atom_site_fract_y
 _atom_site_fract_z
 _atom_site_occupancy
  Tm  Tm0  1  0.337606  0.671981  0.998142  1
  Tm  Tm1  1  0.665625  0.328019  0.501858  1
  Tm  Tm2  1  0.665625  0.328019  0.998142  1
  Tm  Tm3  1  0.337606  0.671981  0.501858  1
  Tm  Tm4  1  0.241808  0.000000  0.250000  1
  Tm  Tm5  1  0.759128  0.000000  0.750000  1
  Tm  Tm6  1  0.992299  0.236489  0.250000  1
  Tm  Tm7  1  0.755810  0.763511  0.250000  1
  Tm  Tm8  1  0.243997  0.241606  0.750000  1
  Tm  Tm9  1  0.002391  0.758394  0.750000  1
  Cd  Cd10  1  0.604052  0.000000  0.250000  1
  Sb  Sb11  1  0.392476  0.000000  0.750000  1
  Sb  Sb12  1  0.998591  0.609241  0.250000  1
  Sb  Sb13  1  0.389350  0.390759  0.250000  1
  Sb  Sb14  1  0.610972  0.608308  0.750000  1
  Sb  Sb15  1  0.002664  0.391692  0.750000  1
