# generated using pymatgen
data_AcDy3Np2O12
_symmetry_space_group_name_H-M   'P 1'
_cell_length_a   5.62171700
_cell_length_b   7.94243716
_cell_length_c   11.95262200
_cell_angle_alpha   73.93723955
_cell_angle_beta   90.00000000
_cell_angle_gamma   90.00000000
_symmetry_Int_Tables_number   1
_chemical_formula_structural   AcDy3Np2O12
_chemical_formula_sum   'Ac2 Dy6 Np4 O24'
_cell_volume   512.85063483
_cell_formula_units_Z   2
loop_
 _symmetry_equiv_pos_site_id
 _symmetry_equiv_pos_as_xyz
  1  'x, y, z'
loop_
 _atom_site_type_symbol
 _atom_site_label
 _atom_site_symmetry_multiplicity
 _atom_site_fract_x
 _atom_site_fract_y
 _atom_site_fract_z
 _atom_site_occupancy
  Ac  Ac0  1  0.694320  0.500000  0.750000  1
  Ac  Ac1  1  0.305680  0.500000  0.250000  1
  Dy  Dy2  1  0.746820  0.000000  0.750000  1
  Dy  Dy3  1  0.253180  0.000000  0.250000  1
  Dy  Dy4  1  0.188412  0.798775  0.576482  1
  Dy  Dy5  1  0.811588  0.798775  0.076482  1
  Dy  Dy6  1  0.188412  0.201225  0.923518  1
  Dy  Dy7  1  0.811588  0.201225  0.423518  1
  Np  Np8  1  0.252519  0.732214  0.884004  1
  Np  Np9  1  0.747481  0.732214  0.384004  1
  Np  Np10  1  0.252519  0.267786  0.615996  1
  Np  Np11  1  0.747481  0.267786  0.115996  1
  O  O12  1  0.039866  0.949364  0.897084  1
  O  O13  1  0.553819  0.848205  0.931393  1
  O  O14  1  0.960134  0.949364  0.397084  1
  O  O15  1  0.447074  0.806429  0.725031  1
  O  O16  1  0.446181  0.848205  0.431393  1
  O  O17  1  0.971985  0.730730  0.766114  1
  O  O18  1  0.552926  0.806429  0.225031  1
  O  O19  1  0.880141  0.639461  0.547817  1
  O  O20  1  0.358267  0.487081  0.887175  1
  O  O21  1  0.028015  0.730730  0.266114  1
  O  O22  1  0.358267  0.512919  0.612825  1
  O  O23  1  0.880141  0.360539  0.952183  1
  O  O24  1  0.119859  0.639461  0.047817  1
  O  O25  1  0.641733  0.487081  0.387175  1
  O  O26  1  0.971985  0.269270  0.733886  1
  O  O27  1  0.641733  0.512919  0.112825  1
  O  O28  1  0.119859  0.360539  0.452183  1
  O  O29  1  0.447074  0.193571  0.774969  1
  O  O30  1  0.028015  0.269270  0.233886  1
  O  O31  1  0.553819  0.151795  0.568607  1
  O  O32  1  0.552926  0.193571  0.274969  1
  O  O33  1  0.039866  0.050636  0.602916  1
  O  O34  1  0.446181  0.151795  0.068607  1
  O  O35  1  0.960134  0.050636  0.102916  1
