# generated using pymatgen
data_Y16AlCd2HgPd4
_symmetry_space_group_name_H-M   'P 1'
_cell_length_a   9.70091543
_cell_length_b   9.70091557
_cell_length_c   9.68939223
_cell_angle_alpha   60.17118078
_cell_angle_beta   60.17117978
_cell_angle_gamma   60.21282055
_symmetry_Int_Tables_number   1
_chemical_formula_structural   Y16AlCd2HgPd4
_chemical_formula_sum   'Y16 Al1 Cd2 Hg1 Pd4'
_cell_volume   647.47513304
_cell_formula_units_Z   1
loop_
 _symmetry_equiv_pos_site_id
 _symmetry_equiv_pos_as_xyz
  1  'x, y, z'
loop_
 _atom_site_type_symbol
 _atom_site_label
 _atom_site_symmetry_multiplicity
 _atom_site_fract_x
 _atom_site_fract_y
 _atom_site_fract_z
 _atom_site_occupancy
  Y  Y0  1  0.352429  0.352429  0.352128  1
  Y  Y1  1  0.358599  0.358599  0.932359  1
  Y  Y2  1  0.359427  0.930114  0.358781  1
  Y  Y3  1  0.930114  0.359427  0.358781  1
  Y  Y4  1  0.810447  0.189334  0.190597  1
  Y  Y5  1  0.192321  0.808808  0.808753  1
  Y  Y6  1  0.189334  0.810447  0.190597  1
  Y  Y7  1  0.808808  0.192321  0.808753  1
  Y  Y8  1  0.189466  0.189466  0.811081  1
  Y  Y9  1  0.808500  0.808500  0.193162  1
  Y  Y10  1  0.932508  0.566505  0.567263  1
  Y  Y11  1  0.563276  0.935752  0.937144  1
  Y  Y12  1  0.566505  0.932508  0.567263  1
  Y  Y13  1  0.935752  0.563276  0.937144  1
  Y  Y14  1  0.566408  0.566408  0.934592  1
  Y  Y15  1  0.935950  0.935950  0.564241  1
  Al  Al16  1  0.581749  0.581749  0.582018  1
  Cd  Cd17  1  0.580148  0.255789  0.581127  1
  Cd  Cd18  1  0.255789  0.580148  0.581127  1
  Hg  Hg19  1  0.584607  0.584607  0.243830  1
  Pd  Pd20  1  0.146363  0.146363  0.146967  1
  Pd  Pd21  1  0.142823  0.142823  0.565547  1
  Pd  Pd22  1  0.142522  0.566150  0.143372  1
  Pd  Pd23  1  0.566150  0.142522  0.143372  1
