# generated using pymatgen
data_Mn(Zn11Ni)2
_symmetry_space_group_name_H-M   'P 1'
_cell_length_a   7.71674445
_cell_length_b   7.71674572
_cell_length_c   7.70524660
_cell_angle_alpha   71.70240300
_cell_angle_beta   71.70240334
_cell_angle_gamma   57.52083794
_symmetry_Int_Tables_number   1
_chemical_formula_structural   Mn(Zn11Ni)2
_chemical_formula_sum   'Mn1 Zn22 Ni2'
_cell_volume   361.39194490
_cell_formula_units_Z   1
loop_
 _symmetry_equiv_pos_site_id
 _symmetry_equiv_pos_as_xyz
  1  'x, y, z'
loop_
 _atom_site_type_symbol
 _atom_site_label
 _atom_site_symmetry_multiplicity
 _atom_site_fract_x
 _atom_site_fract_y
 _atom_site_fract_z
 _atom_site_occupancy
  Mn  Mn0  1  0.000000  0.000000  0.500000  1
  Zn  Zn1  1  0.345419  0.740065  0.310779  1
  Zn  Zn2  1  0.654581  0.259935  0.689221  1
  Zn  Zn3  1  0.259935  0.654581  0.689221  1
  Zn  Zn4  1  0.740065  0.345419  0.310779  1
  Zn  Zn5  1  0.676867  0.323133  0.000000  1
  Zn  Zn6  1  0.323133  0.676867  0.000000  1
  Zn  Zn7  1  0.829971  0.829971  0.783918  1
  Zn  Zn8  1  0.170029  0.170029  0.216082  1
  Zn  Zn9  1  0.977507  0.977507  0.175734  1
  Zn  Zn10  1  0.022493  0.022493  0.824266  1
  Zn  Zn11  1  0.351187  0.351187  0.273379  1
  Zn  Zn12  1  0.648813  0.648813  0.726621  1
  Zn  Zn13  1  0.685754  0.685754  0.375993  1
  Zn  Zn14  1  0.314246  0.314246  0.624007  1
  Zn  Zn15  1  0.661340  0.023752  0.463662  1
  Zn  Zn16  1  0.338660  0.976248  0.536338  1
  Zn  Zn17  1  0.976248  0.338660  0.536338  1
  Zn  Zn18  1  0.023752  0.661340  0.463662  1
  Zn  Zn19  1  0.616497  0.998997  0.099099  1
  Zn  Zn20  1  0.383503  0.001003  0.900901  1
  Zn  Zn21  1  0.001003  0.383503  0.900901  1
  Zn  Zn22  1  0.998997  0.616497  0.099099  1
  Ni  Ni23  1  0.657530  0.657530  0.054680  1
  Ni  Ni24  1  0.342470  0.342470  0.945320  1
