# generated using pymatgen
data_Yb2ErTm(FeB4)4
_symmetry_space_group_name_H-M   'P 1'
_cell_length_a   3.33745300
_cell_length_b   5.87009388
_cell_length_c   11.35370017
_cell_angle_alpha   89.90008789
_cell_angle_beta   90.00000000
_cell_angle_gamma   90.00000000
_symmetry_Int_Tables_number   1
_chemical_formula_structural   Yb2ErTm(FeB4)4
_chemical_formula_sum   'Yb2 Er1 Tm1 Fe4 B16'
_cell_volume   222.43184612
_cell_formula_units_Z   1
loop_
 _symmetry_equiv_pos_site_id
 _symmetry_equiv_pos_as_xyz
  1  'x, y, z'
loop_
 _atom_site_type_symbol
 _atom_site_label
 _atom_site_symmetry_multiplicity
 _atom_site_fract_x
 _atom_site_fract_y
 _atom_site_fract_z
 _atom_site_occupancy
  Yb  Yb0  1  0.000000  0.625707  0.849730  1
  Yb  Yb1  1  0.000000  0.374118  0.150420  1
  Er  Er2  1  0.000000  0.126577  0.650798  1
  Tm  Tm3  1  0.000000  0.873328  0.349126  1
  Fe  Fe4  1  0.000000  0.127619  0.914853  1
  Fe  Fe5  1  0.000000  0.872247  0.085065  1
  Fe  Fe6  1  0.000000  0.633389  0.587056  1
  Fe  Fe7  1  0.000000  0.366678  0.413113  1
  B  B8  1  0.500000  0.361356  0.967510  1
  B  B9  1  0.500000  0.638665  0.032243  1
  B  B10  1  0.500000  0.861323  0.531548  1
  B  B11  1  0.500000  0.138606  0.468339  1
  B  B12  1  0.500000  0.474701  0.690786  1
  B  B13  1  0.500000  0.525591  0.309470  1
  B  B14  1  0.500000  0.975905  0.809545  1
  B  B15  1  0.500000  0.024059  0.190444  1
  B  B16  1  0.500000  0.281130  0.817247  1
  B  B17  1  0.500000  0.718948  0.182787  1
  B  B18  1  0.500000  0.780685  0.683773  1
  B  B19  1  0.500000  0.218984  0.316438  1
  B  B20  1  0.500000  0.388672  0.546500  1
  B  B21  1  0.500000  0.611772  0.453499  1
  B  B22  1  0.500000  0.887253  0.953666  1
  B  B23  1  0.500000  0.112686  0.046042  1
