# generated using pymatgen
data_Er20Bi5Ir4Pb3
_symmetry_space_group_name_H-M   'P 1'
_cell_length_a   7.89493276
_cell_length_b   9.00309801
_cell_length_c   12.38113004
_cell_angle_alpha   90.16360096
_cell_angle_beta   90.05004279
_cell_angle_gamma   89.99476099
_symmetry_Int_Tables_number   1
_chemical_formula_structural   Er20Bi5Ir4Pb3
_chemical_formula_sum   'Er20 Bi5 Ir4 Pb3'
_cell_volume   880.03260076
_cell_formula_units_Z   1
loop_
 _symmetry_equiv_pos_site_id
 _symmetry_equiv_pos_as_xyz
  1  'x, y, z'
loop_
 _atom_site_type_symbol
 _atom_site_label
 _atom_site_symmetry_multiplicity
 _atom_site_fract_x
 _atom_site_fract_y
 _atom_site_fract_z
 _atom_site_occupancy
  Er  Er0  1  0.662677  0.754046  0.709119  1
  Er  Er1  1  0.335986  0.248045  0.291716  1
  Er  Er2  1  0.162061  0.246323  0.791006  1
  Er  Er3  1  0.840296  0.752223  0.208089  1
  Er  Er4  1  0.128425  0.753288  0.809600  1
  Er  Er5  1  0.874477  0.247996  0.190969  1
  Er  Er6  1  0.628161  0.246621  0.691165  1
  Er  Er7  1  0.369379  0.751688  0.309819  1
  Er  Er8  1  0.552952  0.751872  0.996152  1
  Er  Er9  1  0.444945  0.248425  0.001154  1
  Er  Er10  1  0.053553  0.246076  0.502767  1
  Er  Er11  1  0.946111  0.754033  0.497234  1
  Er  Er12  1  0.825751  0.457908  0.932042  1
  Er  Er13  1  0.175098  0.542113  0.067683  1
  Er  Er14  1  0.325507  0.542052  0.568474  1
  Er  Er15  1  0.173476  0.959520  0.069454  1
  Er  Er16  1  0.673919  0.458597  0.431832  1
  Er  Er17  1  0.824928  0.039246  0.929162  1
  Er  Er18  1  0.677058  0.039872  0.432440  1
  Er  Er19  1  0.324121  0.960036  0.569706  1
  Bi  Bi20  1  0.064291  0.506630  0.327643  1
  Bi  Bi21  1  0.564773  0.007366  0.172648  1
  Bi  Bi22  1  0.936003  0.493383  0.672364  1
  Bi  Bi23  1  0.563792  0.493041  0.172716  1
  Bi  Bi24  1  0.436786  0.506576  0.827154  1
  Ir  Ir25  1  0.928796  0.749396  0.992183  1
  Ir  Ir26  1  0.071400  0.250090  0.007757  1
  Ir  Ir27  1  0.429567  0.250412  0.507687  1
  Ir  Ir28  1  0.570605  0.749469  0.492108  1
  Pb  Pb29  1  0.935433  0.006910  0.672684  1
  Pb  Pb30  1  0.064356  0.993161  0.327425  1
  Pb  Pb31  1  0.435315  0.993586  0.828050  1
