# generated using pymatgen
data_Tb5GaCoTe
_symmetry_space_group_name_H-M   'P 1'
_cell_length_a   7.79322700
_cell_length_b   8.77094000
_cell_length_c   12.11937100
_cell_angle_alpha   90.00000000
_cell_angle_beta   90.00000000
_cell_angle_gamma   90.00000000
_symmetry_Int_Tables_number   1
_chemical_formula_structural   Tb5GaCoTe
_chemical_formula_sum   'Tb20 Ga4 Co4 Te4'
_cell_volume   828.40659363
_cell_formula_units_Z   4
loop_
 _symmetry_equiv_pos_site_id
 _symmetry_equiv_pos_as_xyz
  1  'x, y, z'
loop_
 _atom_site_type_symbol
 _atom_site_label
 _atom_site_symmetry_multiplicity
 _atom_site_fract_x
 _atom_site_fract_y
 _atom_site_fract_z
 _atom_site_occupancy
  Tb  Tb0  1  0.155890  0.764291  0.206430  1
  Tb  Tb1  1  0.655890  0.235709  0.293570  1
  Tb  Tb2  1  0.844110  0.264291  0.793570  1
  Tb  Tb3  1  0.344110  0.735709  0.706430  1
  Tb  Tb4  1  0.455440  0.750459  0.998913  1
  Tb  Tb5  1  0.955440  0.249541  0.501087  1
  Tb  Tb6  1  0.544560  0.250459  0.001087  1
  Tb  Tb7  1  0.044560  0.749541  0.498913  1
  Tb  Tb8  1  0.623296  0.761870  0.303698  1
  Tb  Tb9  1  0.123296  0.238130  0.196302  1
  Tb  Tb10  1  0.376704  0.261870  0.696302  1
  Tb  Tb11  1  0.876704  0.738130  0.803698  1
  Tb  Tb12  1  0.818085  0.965990  0.078259  1
  Tb  Tb13  1  0.318085  0.034010  0.421741  1
  Tb  Tb14  1  0.181915  0.465990  0.921741  1
  Tb  Tb15  1  0.681915  0.534010  0.578259  1
  Tb  Tb16  1  0.175099  0.037290  0.937285  1
  Tb  Tb17  1  0.675099  0.962710  0.562715  1
  Tb  Tb18  1  0.824901  0.537290  0.062715  1
  Tb  Tb19  1  0.324901  0.462710  0.437285  1
  Ga  Ga20  1  0.929290  0.992887  0.333897  1
  Ga  Ga21  1  0.429290  0.007113  0.166103  1
  Ga  Ga22  1  0.070710  0.492887  0.666103  1
  Ga  Ga23  1  0.570710  0.507113  0.833897  1
  Co  Co24  1  0.427952  0.750694  0.489411  1
  Co  Co25  1  0.927952  0.249306  0.010589  1
  Co  Co26  1  0.572048  0.250694  0.510589  1
  Co  Co27  1  0.072048  0.749306  0.989411  1
  Te  Te28  1  0.071020  0.008273  0.676724  1
  Te  Te29  1  0.571020  0.991727  0.823276  1
  Te  Te30  1  0.928980  0.508273  0.323276  1
  Te  Te31  1  0.428980  0.491727  0.176724  1
