# generated using pymatgen
data_Y3ErGa18(PtRh2)2
_symmetry_space_group_name_H-M   'P 1'
_cell_length_a   7.61685315
_cell_length_b   7.61598658
_cell_length_c   9.51432406
_cell_angle_alpha   89.95282584
_cell_angle_beta   89.96265992
_cell_angle_gamma   119.77129664
_symmetry_Int_Tables_number   1
_chemical_formula_structural   Y3ErGa18(PtRh2)2
_chemical_formula_sum   'Y3 Er1 Ga18 Pt2 Rh4'
_cell_volume   479.07786676
_cell_formula_units_Z   1
loop_
 _symmetry_equiv_pos_site_id
 _symmetry_equiv_pos_as_xyz
  1  'x, y, z'
loop_
 _atom_site_type_symbol
 _atom_site_label
 _atom_site_symmetry_multiplicity
 _atom_site_fract_x
 _atom_site_fract_y
 _atom_site_fract_z
 _atom_site_occupancy
  Y  Y0  1  0.002486  0.332384  0.750058  1
  Y  Y1  1  0.667918  0.997789  0.249949  1
  Y  Y2  1  0.332242  0.002341  0.750059  1
  Er  Er3  1  0.997925  0.668122  0.250134  1
  Ga  Ga4  1  0.330439  0.330450  0.563391  1
  Ga  Ga5  1  0.670224  0.669565  0.436010  1
  Ga  Ga6  1  0.672272  0.671567  0.069064  1
  Ga  Ga7  1  0.328391  0.328383  0.931503  1
  Ga  Ga8  1  0.339782  0.544546  0.253993  1
  Ga  Ga9  1  0.659770  0.455297  0.745980  1
  Ga  Ga10  1  0.545280  0.340903  0.253952  1
  Ga  Ga11  1  0.455199  0.659637  0.746000  1
  Ga  Ga12  1  0.000301  0.331093  0.083168  1
  Ga  Ga13  1  0.999695  0.669611  0.917876  1
  Ga  Ga14  1  0.001030  0.665819  0.578172  1
  Ga  Ga15  1  0.333496  0.998250  0.420719  1
  Ga  Ga16  1  0.998981  0.334976  0.420701  1
  Ga  Ga17  1  0.665762  0.001025  0.578737  1
  Ga  Ga18  1  0.669629  0.999707  0.917380  1
  Ga  Ga19  1  0.329681  0.999525  0.083172  1
  Ga  Ga20  1  0.122431  0.121912  0.250921  1
  Ga  Ga21  1  0.877441  0.877309  0.749085  1
  Pt  Pt22  1  0.671257  0.328697  0.000238  1
  Pt  Pt23  1  0.328621  0.671310  0.000280  1
  Rh  Rh24  1  0.999882  0.999842  0.000252  1
  Rh  Rh25  1  0.999886  0.999848  0.499779  1
  Rh  Rh26  1  0.328170  0.671745  0.499694  1
  Rh  Rh27  1  0.671807  0.328348  0.499732  1
