# generated using pymatgen
data_Sr2PrPa3Se10
_symmetry_space_group_name_H-M   'P 1'
_cell_length_a   7.88298800
_cell_length_b   8.60503938
_cell_length_c   12.35991000
_cell_angle_alpha   89.71509928
_cell_angle_beta   90.00000000
_cell_angle_gamma   90.00000000
_symmetry_Int_Tables_number   1
_chemical_formula_structural   Sr2PrPa3Se10
_chemical_formula_sum   'Sr4 Pr2 Pa6 Se20'
_cell_volume   838.40462811
_cell_formula_units_Z   2
loop_
 _symmetry_equiv_pos_site_id
 _symmetry_equiv_pos_as_xyz
  1  'x, y, z'
loop_
 _atom_site_type_symbol
 _atom_site_label
 _atom_site_symmetry_multiplicity
 _atom_site_fract_x
 _atom_site_fract_y
 _atom_site_fract_z
 _atom_site_occupancy
  Sr  Sr0  1  0.043223  0.495685  0.326149  1
  Sr  Sr1  1  0.543223  0.504315  0.173851  1
  Sr  Sr2  1  0.953583  0.506009  0.671298  1
  Sr  Sr3  1  0.453583  0.493991  0.828702  1
  Pr  Pr4  1  0.031626  0.999348  0.319621  1
  Pr  Pr5  1  0.531626  0.000652  0.180379  1
  Pa  Pa6  1  0.969200  0.001773  0.680516  1
  Pa  Pa7  1  0.469200  0.998227  0.819484  1
  Pa  Pa8  1  0.070475  0.751665  0.006820  1
  Pa  Pa9  1  0.570475  0.248335  0.493180  1
  Pa  Pa10  1  0.926487  0.246985  0.988458  1
  Pa  Pa11  1  0.426487  0.753015  0.511542  1
  Se  Se12  1  0.666546  0.956142  0.411220  1
  Se  Se13  1  0.166546  0.043858  0.088780  1
  Se  Se14  1  0.330162  0.048591  0.597073  1
  Se  Se15  1  0.830162  0.951409  0.902927  1
  Se  Se16  1  0.451620  0.773165  0.996298  1
  Se  Se17  1  0.951620  0.226835  0.503702  1
  Se  Se18  1  0.547338  0.224455  0.991341  1
  Se  Se19  1  0.047338  0.775545  0.508659  1
  Se  Se20  1  0.841041  0.759968  0.185743  1
  Se  Se21  1  0.341041  0.240032  0.314257  1
  Se  Se22  1  0.160980  0.224763  0.809930  1
  Se  Se23  1  0.660980  0.775237  0.690070  1
  Se  Se24  1  0.316090  0.755035  0.288506  1
  Se  Se25  1  0.816090  0.244965  0.211494  1
  Se  Se26  1  0.687832  0.232440  0.717287  1
  Se  Se27  1  0.187832  0.767560  0.782713  1
  Se  Se28  1  0.177243  0.456693  0.074419  1
  Se  Se29  1  0.677243  0.543307  0.425581  1
  Se  Se30  1  0.826555  0.541596  0.914657  1
  Se  Se31  1  0.326555  0.458404  0.585343  1
