# generated using pymatgen
data_PrErFe6(CoB4)2
_symmetry_space_group_name_H-M   'P 1'
_cell_length_a   7.00398250
_cell_length_b   7.00460051
_cell_length_c   3.80500700
_cell_angle_alpha   90.00000000
_cell_angle_beta   90.00000000
_cell_angle_gamma   89.75887512
_symmetry_Int_Tables_number   1
_chemical_formula_structural   PrErFe6(CoB4)2
_chemical_formula_sum   'Pr1 Er1 Fe6 Co2 B8'
_cell_volume   186.67236861
_cell_formula_units_Z   1
loop_
 _symmetry_equiv_pos_site_id
 _symmetry_equiv_pos_as_xyz
  1  'x, y, z'
loop_
 _atom_site_type_symbol
 _atom_site_label
 _atom_site_symmetry_multiplicity
 _atom_site_fract_x
 _atom_site_fract_y
 _atom_site_fract_z
 _atom_site_occupancy
  Pr  Pr0  1  0.500000  0.500000  0.498807  1
  Er  Er1  1  0.000000  0.000000  0.998719  1
  Fe  Fe2  1  0.869976  0.384623  0.106458  1
  Fe  Fe3  1  0.130024  0.615377  0.106458  1
  Fe  Fe4  1  0.887515  0.635388  0.606382  1
  Fe  Fe5  1  0.112485  0.364612  0.606382  1
  Fe  Fe6  1  0.634839  0.112325  0.393185  1
  Fe  Fe7  1  0.365161  0.887675  0.393185  1
  Co  Co8  1  0.615611  0.866438  0.892637  1
  Co  Co9  1  0.384389  0.133562  0.892637  1
  B  B10  1  0.329924  0.802340  0.896575  1
  B  B11  1  0.670076  0.197660  0.896575  1
  B  B12  1  0.290608  0.160705  0.394659  1
  B  B13  1  0.709392  0.839295  0.394659  1
  B  B14  1  0.162932  0.707658  0.605990  1
  B  B15  1  0.837068  0.292342  0.605990  1
  B  B16  1  0.192433  0.332013  0.105351  1
  B  B17  1  0.807567  0.667987  0.105351  1
