# generated using pymatgen
data_TbDy3LuRu2
_symmetry_space_group_name_H-M   'P 1'
_cell_length_a   6.33397549
_cell_length_b   7.23110896
_cell_length_c   8.47402940
_cell_angle_alpha   96.64000338
_cell_angle_beta   111.92019839
_cell_angle_gamma   89.97046869
_symmetry_Int_Tables_number   1
_chemical_formula_structural   TbDy3LuRu2
_chemical_formula_sum   'Tb2 Dy6 Lu2 Ru4'
_cell_volume   357.26655726
_cell_formula_units_Z   2
loop_
 _symmetry_equiv_pos_site_id
 _symmetry_equiv_pos_as_xyz
  1  'x, y, z'
loop_
 _atom_site_type_symbol
 _atom_site_label
 _atom_site_symmetry_multiplicity
 _atom_site_fract_x
 _atom_site_fract_y
 _atom_site_fract_z
 _atom_site_occupancy
  Tb  Tb0  1  0.523475  0.083345  0.814365  1
  Tb  Tb1  1  0.476525  0.916655  0.185635  1
  Dy  Dy2  1  0.708716  0.416664  0.185425  1
  Dy  Dy3  1  0.291284  0.583336  0.814575  1
  Dy  Dy4  1  0.296215  0.312925  0.432184  1
  Dy  Dy5  1  0.703785  0.687075  0.567816  1
  Dy  Dy6  1  0.864362  0.187379  0.567741  1
  Dy  Dy7  1  0.135638  0.812621  0.432259  1
  Lu  Lu8  1  0.076682  0.250359  0.000117  1
  Lu  Lu9  1  0.923318  0.749641  0.999883  1
  Ru  Ru10  1  0.319413  0.573999  0.217577  1
  Ru  Ru11  1  0.680587  0.426001  0.782423  1
  Ru  Ru12  1  0.101367  0.925546  0.782211  1
  Ru  Ru13  1  0.898633  0.074454  0.217789  1
