# generated using pymatgen
data_Ho3Er13In4OsRh3
_symmetry_space_group_name_H-M   'P 1'
_cell_length_a   9.56924106
_cell_length_b   9.60525616
_cell_length_c   9.58130700
_cell_angle_alpha   60.08244822
_cell_angle_beta   59.95828414
_cell_angle_gamma   60.08409851
_symmetry_Int_Tables_number   1
_chemical_formula_structural   Ho3Er13In4OsRh3
_chemical_formula_sum   'Ho3 Er13 In4 Os1 Rh3'
_cell_volume   623.31021742
_cell_formula_units_Z   1
loop_
 _symmetry_equiv_pos_site_id
 _symmetry_equiv_pos_as_xyz
  1  'x, y, z'
loop_
 _atom_site_type_symbol
 _atom_site_label
 _atom_site_symmetry_multiplicity
 _atom_site_fract_x
 _atom_site_fract_y
 _atom_site_fract_z
 _atom_site_occupancy
  Ho  Ho0  1  0.189136  0.192841  0.809011  1
  Ho  Ho1  1  0.438016  0.061279  0.062727  1
  Ho  Ho2  1  0.438016  0.061279  0.437977  1
  Er  Er3  1  0.058934  0.436995  0.059289  1
  Er  Er4  1  0.649072  0.048948  0.650990  1
  Er  Er5  1  0.191580  0.808419  0.808953  1
  Er  Er6  1  0.061200  0.060595  0.439103  1
  Er  Er7  1  0.809838  0.192981  0.189063  1
  Er  Er8  1  0.810423  0.808249  0.190664  1
  Er  Er9  1  0.651171  0.650516  0.045849  1
  Er  Er10  1  0.651171  0.650516  0.652464  1
  Er  Er11  1  0.058934  0.436995  0.444781  1
  Er  Er12  1  0.046891  0.649641  0.651734  1
  Er  Er13  1  0.809838  0.192981  0.808118  1
  Er  Er14  1  0.444613  0.436858  0.059264  1
  Er  Er15  1  0.191580  0.808419  0.191048  1
  In  In16  1  0.417726  0.747370  0.417452  1
  In  In17  1  0.417583  0.416833  0.749153  1
  In  In18  1  0.749185  0.416598  0.417109  1
  In  In19  1  0.417583  0.416833  0.416431  1
  Os  Os20  1  0.857586  0.424669  0.858873  1
  Rh  Rh21  1  0.858415  0.860473  0.423131  1
  Rh  Rh22  1  0.423089  0.859239  0.858835  1
  Rh  Rh23  1  0.858415  0.860473  0.857980  1
