# generated using pymatgen
data_Mn3S4I
_symmetry_space_group_name_H-M   'P 1'
_cell_length_a   5.99105100
_cell_length_b   9.75631586
_cell_length_c   11.02700200
_cell_angle_alpha   90.00000000
_cell_angle_beta   90.00000000
_cell_angle_gamma   80.74871027
_symmetry_Int_Tables_number   1
_chemical_formula_structural   Mn3S4I
_chemical_formula_sum   'Mn12 S16 I4'
_cell_volume   636.15110181
_cell_formula_units_Z   4
loop_
 _symmetry_equiv_pos_site_id
 _symmetry_equiv_pos_as_xyz
  1  'x, y, z'
loop_
 _atom_site_type_symbol
 _atom_site_label
 _atom_site_symmetry_multiplicity
 _atom_site_fract_x
 _atom_site_fract_y
 _atom_site_fract_z
 _atom_site_occupancy
  Mn  Mn0  1  0.745693  0.440324  0.026299  1
  Mn  Mn1  1  0.882518  0.659290  0.052829  1
  Mn  Mn2  1  0.089315  0.454202  0.147204  1
  Mn  Mn3  1  0.589315  0.954201  0.352795  1
  Mn  Mn4  1  0.382518  0.159290  0.447171  1
  Mn  Mn5  1  0.245695  0.940325  0.473701  1
  Mn  Mn6  1  0.754306  0.059676  0.526299  1
  Mn  Mn7  1  0.617481  0.840711  0.552829  1
  Mn  Mn8  1  0.410685  0.045799  0.647204  1
  Mn  Mn9  1  0.910684  0.545797  0.852796  1
  Mn  Mn10  1  0.117483  0.340710  0.947171  1
  Mn  Mn11  1  0.254308  0.559676  0.973701  1
  S  S12  1  0.418617  0.351066  0.066641  1
  S  S13  1  0.961031  0.254055  0.108951  1
  S  S14  1  0.201973  0.662520  0.155546  1
  S  S15  1  0.741341  0.549813  0.205516  1
  S  S16  1  0.241342  0.049814  0.294484  1
  S  S17  1  0.701974  0.162520  0.344454  1
  S  S18  1  0.461030  0.754055  0.391048  1
  S  S19  1  0.918617  0.851066  0.433358  1
  S  S20  1  0.081384  0.148934  0.566642  1
  S  S21  1  0.538971  0.245944  0.608952  1
  S  S22  1  0.298026  0.837481  0.655545  1
  S  S23  1  0.758658  0.950187  0.705515  1
  S  S24  1  0.258658  0.450187  0.794484  1
  S  S25  1  0.798028  0.337480  0.844454  1
  S  S26  1  0.038970  0.745944  0.891049  1
  S  S27  1  0.581382  0.648935  0.933358  1
  I  I28  1  0.714767  0.915944  0.123081  1
  I  I29  1  0.214767  0.415944  0.376919  1
  I  I30  1  0.785234  0.584056  0.623081  1
  I  I31  1  0.285234  0.084056  0.876918  1
