# generated using pymatgen
data_Sc3AlGePIr3
_symmetry_space_group_name_H-M   'P 1'
_cell_length_a   6.59240000
_cell_length_b   6.59240148
_cell_length_c   3.88090600
_cell_angle_alpha   90.00000000
_cell_angle_beta   90.00000000
_cell_angle_gamma   120.00000262
_symmetry_Int_Tables_number   1
_chemical_formula_structural   Sc3AlGePIr3
_chemical_formula_sum   'Sc3 Al1 Ge1 P1 Ir3'
_cell_volume   146.06660753
_cell_formula_units_Z   1
loop_
 _symmetry_equiv_pos_site_id
 _symmetry_equiv_pos_as_xyz
  1  'x, y, z'
loop_
 _atom_site_type_symbol
 _atom_site_label
 _atom_site_symmetry_multiplicity
 _atom_site_fract_x
 _atom_site_fract_y
 _atom_site_fract_z
 _atom_site_occupancy
  Sc  Sc0  1  0.005573  0.433736  0.500000  1
  Sc  Sc1  1  0.566264  0.571837  0.500000  1
  Sc  Sc2  1  0.428163  0.994427  0.500000  1
  Al  Al3  1  0.000000  0.000000  0.500000  1
  Ge  Ge4  1  0.666667  0.333333  0.000000  1
  P  P5  1  0.333333  0.666667  0.000000  1
  Ir  Ir6  1  0.012423  0.759804  0.000000  1
  Ir  Ir7  1  0.240196  0.252619  0.000000  1
  Ir  Ir8  1  0.747381  0.987577  0.000000  1
