# generated using pymatgen
data_Tb2Mn9Mo3P7
_symmetry_space_group_name_H-M   'P 1'
_cell_length_a   3.68833664
_cell_length_b   9.38379213
_cell_length_c   9.37888633
_cell_angle_alpha   120.04642156
_cell_angle_beta   89.99962487
_cell_angle_gamma   90.00198739
_symmetry_Int_Tables_number   1
_chemical_formula_structural   Tb2Mn9Mo3P7
_chemical_formula_sum   'Tb2 Mn9 Mo3 P7'
_cell_volume   280.98781923
_cell_formula_units_Z   1
loop_
 _symmetry_equiv_pos_site_id
 _symmetry_equiv_pos_as_xyz
  1  'x, y, z'
loop_
 _atom_site_type_symbol
 _atom_site_label
 _atom_site_symmetry_multiplicity
 _atom_site_fract_x
 _atom_site_fract_y
 _atom_site_fract_z
 _atom_site_occupancy
  Tb  Tb0  1  0.261916  0.666564  0.333482  1
  Tb  Tb1  1  0.761917  0.333365  0.666600  1
  Mn  Mn2  1  0.261901  0.878391  0.162222  1
  Mn  Mn3  1  0.261908  0.837564  0.715804  1
  Mn  Mn4  1  0.261892  0.283987  0.121786  1
  Mn  Mn5  1  0.761893  0.616062  0.570348  1
  Mn  Mn6  1  0.761906  0.429709  0.045809  1
  Mn  Mn7  1  0.761919  0.954306  0.384037  1
  Mn  Mn8  1  0.261904  0.382692  0.429827  1
  Mn  Mn9  1  0.261917  0.570298  0.952707  1
  Mn  Mn10  1  0.261913  0.047192  0.617624  1
  Mo  Mo11  1  0.761882  0.091371  0.873415  1
  Mo  Mo12  1  0.761876  0.126485  0.217941  1
  Mo  Mo13  1  0.761906  0.781951  0.908272  1
  P  P14  1  0.261863  0.999903  0.999794  1
  P  P15  1  0.761935  0.874021  0.581814  1
  P  P16  1  0.761900  0.418443  0.292645  1
  P  P17  1  0.761938  0.707743  0.125969  1
  P  P18  1  0.261882  0.122825  0.413126  1
  P  P19  1  0.261917  0.586952  0.709605  1
  P  P20  1  0.261916  0.290173  0.877174  1
