# generated using pymatgen
data_Dy2Co2Cl
_symmetry_space_group_name_H-M   'P 1'
_cell_length_a   3.88739600
_cell_length_b   3.88739490
_cell_length_c   15.83435800
_cell_angle_alpha   90.00000000
_cell_angle_beta   90.00000000
_cell_angle_gamma   119.99999232
_symmetry_Int_Tables_number   1
_chemical_formula_structural   Dy2Co2Cl
_chemical_formula_sum   'Dy4 Co4 Cl2'
_cell_volume   207.22806378
_cell_formula_units_Z   2
loop_
 _symmetry_equiv_pos_site_id
 _symmetry_equiv_pos_as_xyz
  1  'x, y, z'
loop_
 _atom_site_type_symbol
 _atom_site_label
 _atom_site_symmetry_multiplicity
 _atom_site_fract_x
 _atom_site_fract_y
 _atom_site_fract_z
 _atom_site_occupancy
  Dy  Dy0  1  0.000000  0.000000  0.110984  1
  Dy  Dy1  1  0.000000  0.000000  0.389016  1
  Dy  Dy2  1  0.000000  0.000000  0.610984  1
  Dy  Dy3  1  0.000000  0.000000  0.889016  1
  Co  Co4  1  0.666666  0.333334  0.996930  1
  Co  Co5  1  0.333334  0.666667  0.003070  1
  Co  Co6  1  0.666666  0.333334  0.503070  1
  Co  Co7  1  0.333334  0.666667  0.496930  1
  Cl  Cl8  1  0.666666  0.333334  0.250000  1
  Cl  Cl9  1  0.333334  0.666667  0.750000  1
