# generated using pymatgen
data_HoLuHf2(NiP)4
_symmetry_space_group_name_H-M   'P 1'
_cell_length_a   3.83123400
_cell_length_b   3.83123402
_cell_length_c   14.47463600
_cell_angle_alpha   90.00000000
_cell_angle_beta   90.00000000
_cell_angle_gamma   119.99999979
_symmetry_Int_Tables_number   1
_chemical_formula_structural   HoLuHf2(NiP)4
_chemical_formula_sum   'Ho1 Lu1 Hf2 Ni4 P4'
_cell_volume   183.99907632
_cell_formula_units_Z   1
loop_
 _symmetry_equiv_pos_site_id
 _symmetry_equiv_pos_as_xyz
  1  'x, y, z'
loop_
 _atom_site_type_symbol
 _atom_site_label
 _atom_site_symmetry_multiplicity
 _atom_site_fract_x
 _atom_site_fract_y
 _atom_site_fract_z
 _atom_site_occupancy
  Ho  Ho0  1  0.000000  0.000000  0.500000  1
  Lu  Lu1  1  0.000000  0.000000  0.000000  1
  Hf  Hf2  1  0.000000  0.000000  0.248250  1
  Hf  Hf3  1  0.000000  0.000000  0.751750  1
  Ni  Ni4  1  0.333333  0.666667  0.351281  1
  Ni  Ni5  1  0.666667  0.333333  0.648719  1
  Ni  Ni6  1  0.666667  0.333333  0.855654  1
  Ni  Ni7  1  0.333333  0.666667  0.144346  1
  P  P8  1  0.333333  0.666667  0.877914  1
  P  P9  1  0.666667  0.333333  0.122086  1
  P  P10  1  0.666667  0.333333  0.374079  1
  P  P11  1  0.333333  0.666667  0.625921  1
