# generated using pymatgen
data_Ce4HoLuIn10
_symmetry_space_group_name_H-M   'P 1'
_cell_length_a   6.55748400
_cell_length_b   6.55748482
_cell_length_c   10.51084700
_cell_angle_alpha   90.00000000
_cell_angle_beta   90.00000000
_cell_angle_gamma   102.83879219
_symmetry_Int_Tables_number   1
_chemical_formula_structural   Ce4HoLuIn10
_chemical_formula_sum   'Ce4 Ho1 Lu1 In10'
_cell_volume   440.67303480
_cell_formula_units_Z   1
loop_
 _symmetry_equiv_pos_site_id
 _symmetry_equiv_pos_as_xyz
  1  'x, y, z'
loop_
 _atom_site_type_symbol
 _atom_site_label
 _atom_site_symmetry_multiplicity
 _atom_site_fract_x
 _atom_site_fract_y
 _atom_site_fract_z
 _atom_site_occupancy
  Ce  Ce0  1  0.203729  0.796573  0.500227  1
  Ce  Ce1  1  0.203729  0.796573  0.999773  1
  Ce  Ce2  1  0.796573  0.203729  0.500227  1
  Ce  Ce3  1  0.796573  0.203729  0.999773  1
  Ho  Ho4  1  0.371131  0.371131  0.750000  1
  Lu  Lu5  1  0.629239  0.629239  0.250000  1
  In  In6  1  0.010018  0.010018  0.250000  1
  In  In7  1  0.989607  0.989607  0.750000  1
  In  In8  1  0.311816  0.311816  0.047211  1
  In  In9  1  0.688362  0.688362  0.953706  1
  In  In10  1  0.311816  0.311816  0.452789  1
  In  In11  1  0.688362  0.688362  0.546294  1
  In  In12  1  0.500103  0.068227  0.250000  1
  In  In13  1  0.930419  0.500293  0.750000  1
  In  In14  1  0.500293  0.930419  0.750000  1
  In  In15  1  0.068227  0.500103  0.250000  1
