# generated using pymatgen
data_PrNd3(Re2Si)8
_symmetry_space_group_name_H-M   'P 1'
_cell_length_a   4.16886900
_cell_length_b   7.34510621
_cell_length_c   15.57702679
_cell_angle_alpha   89.89297161
_cell_angle_beta   90.00000000
_cell_angle_gamma   90.00000000
_symmetry_Int_Tables_number   1
_chemical_formula_structural   PrNd3(Re2Si)8
_chemical_formula_sum   'Pr1 Nd3 Re16 Si8'
_cell_volume   476.97996486
_cell_formula_units_Z   1
loop_
 _symmetry_equiv_pos_site_id
 _symmetry_equiv_pos_as_xyz
  1  'x, y, z'
loop_
 _atom_site_type_symbol
 _atom_site_label
 _atom_site_symmetry_multiplicity
 _atom_site_fract_x
 _atom_site_fract_y
 _atom_site_fract_z
 _atom_site_occupancy
  Pr  Pr0  1  0.000000  0.579198  0.118244  1
  Nd  Nd1  1  0.000000  0.420312  0.881361  1
  Nd  Nd2  1  0.500000  0.079738  0.382010  1
  Nd  Nd3  1  0.500000  0.920506  0.618383  1
  Re  Re4  1  0.000000  0.136820  0.051636  1
  Re  Re5  1  0.000000  0.861703  0.947492  1
  Re  Re6  1  0.500000  0.637777  0.448383  1
  Re  Re7  1  0.500000  0.362262  0.552104  1
  Re  Re8  1  0.000000  0.733533  0.321509  1
  Re  Re9  1  0.000000  0.267140  0.678878  1
  Re  Re10  1  0.500000  0.232292  0.179075  1
  Re  Re11  1  0.500000  0.767246  0.820731  1
  Re  Re12  1  0.000000  0.432787  0.418971  1
  Re  Re13  1  0.000000  0.567353  0.581476  1
  Re  Re14  1  0.500000  0.932401  0.081056  1
  Re  Re15  1  0.500000  0.067161  0.918219  1
  Re  Re16  1  0.000000  0.992210  0.206468  1
  Re  Re17  1  0.000000  0.008891  0.793455  1
  Re  Re18  1  0.500000  0.491440  0.294165  1
  Re  Re19  1  0.500000  0.508916  0.706173  1
  Si  Si20  1  0.000000  0.828204  0.475986  1
  Si  Si21  1  0.000000  0.171932  0.524463  1
  Si  Si22  1  0.500000  0.326652  0.024017  1
  Si  Si23  1  0.500000  0.672113  0.975125  1
  Si  Si24  1  0.000000  0.293196  0.273968  1
  Si  Si25  1  0.000000  0.707106  0.726462  1
  Si  Si26  1  0.500000  0.794042  0.226891  1
  Si  Si27  1  0.500000  0.207071  0.773300  1
