# generated using pymatgen
data_HoEr3Re4F28
_symmetry_space_group_name_H-M   'P 1'
_cell_length_a   5.56213605
_cell_length_b   8.86731290
_cell_length_c   12.02072251
_cell_angle_alpha   62.73862311
_cell_angle_beta   89.98559683
_cell_angle_gamma   89.98877152
_symmetry_Int_Tables_number   1
_chemical_formula_structural   HoEr3Re4F28
_chemical_formula_sum   'Ho1 Er3 Re4 F28'
_cell_volume   527.02341121
_cell_formula_units_Z   1
loop_
 _symmetry_equiv_pos_site_id
 _symmetry_equiv_pos_as_xyz
  1  'x, y, z'
loop_
 _atom_site_type_symbol
 _atom_site_label
 _atom_site_symmetry_multiplicity
 _atom_site_fract_x
 _atom_site_fract_y
 _atom_site_fract_z
 _atom_site_occupancy
  Ho  Ho0  1  0.758256  0.814145  0.764614  1
  Er  Er1  1  0.258250  0.186223  0.735454  1
  Er  Er2  1  0.241739  0.185745  0.235513  1
  Er  Er3  1  0.741755  0.814334  0.264507  1
  Re  Re4  1  0.758304  0.272614  0.957094  1
  Re  Re5  1  0.258292  0.727218  0.542850  1
  Re  Re6  1  0.241805  0.727205  0.043122  1
  Re  Re7  1  0.741671  0.272802  0.456942  1
  F  F8  1  0.441066  0.705715  0.915218  1
  F  F9  1  0.941519  0.294102  0.584993  1
  F  F10  1  0.558381  0.293982  0.085078  1
  F  F11  1  0.058064  0.705932  0.414708  1
  F  F12  1  0.439561  0.274209  0.545947  1
  F  F13  1  0.939926  0.725574  0.954555  1
  F  F14  1  0.560702  0.725886  0.453828  1
  F  F15  1  0.060396  0.274042  0.046043  1
  F  F16  1  0.777020  0.522659  0.858854  1
  F  F17  1  0.276969  0.476618  0.641319  1
  F  F18  1  0.223068  0.476567  0.141431  1
  F  F19  1  0.723020  0.523640  0.358538  1
  F  F20  1  0.755023  0.022269  0.053783  1
  F  F21  1  0.255044  0.977282  0.446345  1
  F  F22  1  0.244935  0.977272  0.946485  1
  F  F23  1  0.744952  0.023023  0.553207  1
  F  F24  1  0.968690  0.726152  0.638942  1
  F  F25  1  0.468321  0.273561  0.860751  1
  F  F26  1  0.031628  0.273601  0.360688  1
  F  F27  1  0.531949  0.726462  0.139425  1
  F  F28  1  0.047815  0.747340  0.175117  1
  F  F29  1  0.547977  0.252742  0.325015  1
  F  F30  1  0.951996  0.252646  0.825053  1
  F  F31  1  0.451039  0.747034  0.674710  1
  F  F32  1  0.419216  0.970358  0.232840  1
  F  F33  1  0.919155  0.029534  0.267159  1
  F  F34  1  0.580342  0.030571  0.767205  1
  F  F35  1  0.082154  0.970940  0.732668  1
