# generated using pymatgen
data_PrErCo2(B4Os3)2
_symmetry_space_group_name_H-M   'P 1'
_cell_length_a   7.30437889
_cell_length_b   7.55694619
_cell_length_c   3.99165100
_cell_angle_alpha   90.00000000
_cell_angle_beta   90.00000000
_cell_angle_gamma   87.73522615
_symmetry_Int_Tables_number   1
_chemical_formula_structural   PrErCo2(B4Os3)2
_chemical_formula_sum   'Pr1 Er1 Co2 B8 Os6'
_cell_volume   220.16223056
_cell_formula_units_Z   1
loop_
 _symmetry_equiv_pos_site_id
 _symmetry_equiv_pos_as_xyz
  1  'x, y, z'
loop_
 _atom_site_type_symbol
 _atom_site_label
 _atom_site_symmetry_multiplicity
 _atom_site_fract_x
 _atom_site_fract_y
 _atom_site_fract_z
 _atom_site_occupancy
  Pr  Pr0  1  0.000000  0.000000  0.022347  1
  Er  Er1  1  0.500000  0.500000  0.601895  1
  Co  Co2  1  0.613739  0.870407  0.881119  1
  Co  Co3  1  0.386261  0.129593  0.881119  1
  B  B4  1  0.337265  0.791328  0.881196  1
  B  B5  1  0.662735  0.208672  0.881196  1
  B  B6  1  0.312148  0.158307  0.382503  1
  B  B7  1  0.687852  0.841693  0.382503  1
  B  B8  1  0.167491  0.715081  0.602835  1
  B  B9  1  0.832509  0.284919  0.602835  1
  B  B10  1  0.229445  0.325850  0.101956  1
  B  B11  1  0.770555  0.674150  0.101956  1
  Os  Os12  1  0.844294  0.398925  0.104517  1
  Os  Os13  1  0.155706  0.601075  0.104517  1
  Os  Os14  1  0.885453  0.651716  0.604280  1
  Os  Os15  1  0.114547  0.348284  0.604280  1
  Os  Os16  1  0.628013  0.120984  0.379475  1
  Os  Os17  1  0.371987  0.879016  0.379475  1
