# generated using pymatgen
data_Np2Al7Ge
_symmetry_space_group_name_H-M   'P 1'
_cell_length_a   8.00554963
_cell_length_b   7.73987860
_cell_length_c   7.73987888
_cell_angle_alpha   146.37792288
_cell_angle_beta   134.47570599
_cell_angle_gamma   57.39348788
_symmetry_Int_Tables_number   1
_chemical_formula_structural   Np2Al7Ge
_chemical_formula_sum   'Np2 Al7 Ge1'
_cell_volume   188.27391733
_cell_formula_units_Z   1
loop_
 _symmetry_equiv_pos_site_id
 _symmetry_equiv_pos_as_xyz
  1  'x, y, z'
loop_
 _atom_site_type_symbol
 _atom_site_label
 _atom_site_symmetry_multiplicity
 _atom_site_fract_x
 _atom_site_fract_y
 _atom_site_fract_z
 _atom_site_occupancy
  Np  Np0  1  0.129021  0.897131  0.231890  1
  Np  Np1  1  0.870979  0.102869  0.768110  1
  Al  Al2  1  0.500000  0.500000  0.000000  1
  Al  Al3  1  0.388414  0.120036  0.268379  1
  Al  Al4  1  0.611586  0.879964  0.731621  1
  Al  Al5  1  0.219003  0.699320  0.519684  1
  Al  Al6  1  0.780997  0.300680  0.480316  1
  Al  Al7  1  0.311642  0.300521  0.011120  1
  Al  Al8  1  0.688358  0.699479  0.988880  1
  Ge  Ge9  1  0.000000  0.500000  0.500000  1
