# generated using pymatgen
data_Dy8ErSc(SiB4)4
_symmetry_space_group_name_H-M   'P 1'
_cell_length_a   7.19709800
_cell_length_b   7.19709800
_cell_length_c   8.01336900
_cell_angle_alpha   90.00000000
_cell_angle_beta   90.00000000
_cell_angle_gamma   90.00000000
_symmetry_Int_Tables_number   1
_chemical_formula_structural   Dy8ErSc(SiB4)4
_chemical_formula_sum   'Dy8 Er1 Sc1 Si4 B16'
_cell_volume   415.07824737
_cell_formula_units_Z   1
loop_
 _symmetry_equiv_pos_site_id
 _symmetry_equiv_pos_as_xyz
  1  'x, y, z'
loop_
 _atom_site_type_symbol
 _atom_site_label
 _atom_site_symmetry_multiplicity
 _atom_site_fract_x
 _atom_site_fract_y
 _atom_site_fract_z
 _atom_site_occupancy
  Dy  Dy0  1  0.679718  0.181121  0.226538  1
  Dy  Dy1  1  0.320282  0.818879  0.773462  1
  Dy  Dy2  1  0.320282  0.818879  0.226538  1
  Dy  Dy3  1  0.818879  0.679718  0.226538  1
  Dy  Dy4  1  0.818879  0.679718  0.773462  1
  Dy  Dy5  1  0.679718  0.181121  0.773462  1
  Dy  Dy6  1  0.181121  0.320282  0.773462  1
  Dy  Dy7  1  0.181121  0.320282  0.226538  1
  Er  Er8  1  0.000000  0.000000  0.500000  1
  Sc  Sc9  1  0.500000  0.500000  0.500000  1
  Si  Si10  1  0.120731  0.612386  0.500000  1
  Si  Si11  1  0.879269  0.387614  0.500000  1
  Si  Si12  1  0.387614  0.120731  0.500000  1
  Si  Si13  1  0.612386  0.879269  0.500000  1
  B  B14  1  0.172318  0.039290  0.000000  1
  B  B15  1  0.827682  0.960710  0.000000  1
  B  B16  1  0.960710  0.172318  0.000000  1
  B  B17  1  0.327492  0.539131  0.000000  1
  B  B18  1  0.039290  0.827682  0.000000  1
  B  B19  1  0.672508  0.460869  0.000000  1
  B  B20  1  0.539131  0.672508  0.000000  1
  B  B21  1  0.460869  0.327492  0.000000  1
  B  B22  1  0.089730  0.589880  0.000000  1
  B  B23  1  0.910270  0.410120  0.000000  1
  B  B24  1  0.410120  0.089730  0.000000  1
  B  B25  1  0.589880  0.910270  0.000000  1
  B  B26  1  0.000000  0.000000  0.163592  1
  B  B27  1  0.000000  0.000000  0.836408  1
  B  B28  1  0.500000  0.500000  0.835475  1
  B  B29  1  0.500000  0.500000  0.164525  1
