# generated using pymatgen
data_Dy3Y(Ho4Bi3)4
_symmetry_space_group_name_H-M   'P 1'
_cell_length_a   8.24771709
_cell_length_b   9.50643600
_cell_length_c   12.01870713
_cell_angle_alpha   90.00000000
_cell_angle_beta   89.98332590
_cell_angle_gamma   90.00000000
_symmetry_Int_Tables_number   1
_chemical_formula_structural   Dy3Y(Ho4Bi3)4
_chemical_formula_sum   'Dy3 Y1 Ho16 Bi12'
_cell_volume   942.34345414
_cell_formula_units_Z   1
loop_
 _symmetry_equiv_pos_site_id
 _symmetry_equiv_pos_as_xyz
  1  'x, y, z'
loop_
 _atom_site_type_symbol
 _atom_site_label
 _atom_site_symmetry_multiplicity
 _atom_site_fract_x
 _atom_site_fract_y
 _atom_site_fract_z
 _atom_site_occupancy
  Dy  Dy0  1  0.812509  0.250000  0.281401  1
  Dy  Dy1  1  0.687495  0.750000  0.781407  1
  Dy  Dy2  1  0.187456  0.750000  0.718622  1
  Y  Y3  1  0.312554  0.250000  0.218629  1
  Ho  Ho4  1  0.352573  0.750000  0.215582  1
  Ho  Ho5  1  0.852535  0.750000  0.284408  1
  Ho  Ho6  1  0.647477  0.250000  0.784428  1
  Ho  Ho7  1  0.147433  0.250000  0.715594  1
  Ho  Ho8  1  0.692749  0.564281  0.058667  1
  Ho  Ho9  1  0.192756  0.935726  0.441346  1
  Ho  Ho10  1  0.307266  0.064290  0.941302  1
  Ho  Ho11  1  0.807265  0.435690  0.558632  1
  Ho  Ho12  1  0.307266  0.435710  0.941302  1
  Ho  Ho13  1  0.807265  0.064310  0.558632  1
  Ho  Ho14  1  0.692749  0.935719  0.058667  1
  Ho  Ho15  1  0.192756  0.564274  0.441346  1
  Ho  Ho16  1  0.475600  0.250000  0.488458  1
  Ho  Ho17  1  0.975403  0.250000  0.011589  1
  Ho  Ho18  1  0.524489  0.750000  0.511633  1
  Ho  Ho19  1  0.024478  0.750000  0.988368  1
  Bi  Bi20  1  0.407027  0.750000  0.957178  1
  Bi  Bi21  1  0.907037  0.750000  0.542833  1
  Bi  Bi22  1  0.592976  0.250000  0.042758  1
  Bi  Bi23  1  0.092942  0.250000  0.457202  1
  Bi  Bi24  1  0.564937  0.995289  0.325454  1
  Bi  Bi25  1  0.064851  0.504737  0.174557  1
  Bi  Bi26  1  0.435089  0.495304  0.674576  1
  Bi  Bi27  1  0.935097  0.004704  0.825422  1
  Bi  Bi28  1  0.435089  0.004696  0.674576  1
  Bi  Bi29  1  0.935097  0.495296  0.825422  1
  Bi  Bi30  1  0.564937  0.504711  0.325454  1
  Bi  Bi31  1  0.064851  0.995263  0.174557  1
