# generated using pymatgen
data_Er2Si2NiRu
_symmetry_space_group_name_H-M   'P 1'
_cell_length_a   4.21358200
_cell_length_b   6.85472140
_cell_length_c   7.15599864
_cell_angle_alpha   91.31205739
_cell_angle_beta   90.00000000
_cell_angle_gamma   90.00000000
_symmetry_Int_Tables_number   1
_chemical_formula_structural   Er2Si2NiRu
_chemical_formula_sum   'Er4 Si4 Ni2 Ru2'
_cell_volume   206.63202243
_cell_formula_units_Z   2
loop_
 _symmetry_equiv_pos_site_id
 _symmetry_equiv_pos_as_xyz
  1  'x, y, z'
loop_
 _atom_site_type_symbol
 _atom_site_label
 _atom_site_symmetry_multiplicity
 _atom_site_fract_x
 _atom_site_fract_y
 _atom_site_fract_z
 _atom_site_occupancy
  Er  Er0  1  0.250000  0.991555  0.799446  1
  Er  Er1  1  0.750000  0.008445  0.200554  1
  Er  Er2  1  0.250000  0.489550  0.684005  1
  Er  Er3  1  0.750000  0.510450  0.315995  1
  Si  Si4  1  0.250000  0.298615  0.099609  1
  Si  Si5  1  0.750000  0.701385  0.900391  1
  Si  Si6  1  0.250000  0.802970  0.398660  1
  Si  Si7  1  0.750000  0.197030  0.601340  1
  Ni  Ni8  1  0.750000  0.836864  0.574903  1
  Ni  Ni9  1  0.250000  0.163136  0.425097  1
  Ru  Ru10  1  0.750000  0.343401  0.931112  1
  Ru  Ru11  1  0.250000  0.656599  0.068888  1
