# generated using pymatgen
data_Yb10Pt3Au5
_symmetry_space_group_name_H-M   'P 1'
_cell_length_a   7.66091578
_cell_length_b   7.71589803
_cell_length_c   14.96241600
_cell_angle_alpha   90.00000000
_cell_angle_beta   90.00000000
_cell_angle_gamma   89.49585188
_symmetry_Int_Tables_number   1
_chemical_formula_structural   Yb10Pt3Au5
_chemical_formula_sum   'Yb20 Pt6 Au10'
_cell_volume   884.40681569
_cell_formula_units_Z   2
loop_
 _symmetry_equiv_pos_site_id
 _symmetry_equiv_pos_as_xyz
  1  'x, y, z'
loop_
 _atom_site_type_symbol
 _atom_site_label
 _atom_site_symmetry_multiplicity
 _atom_site_fract_x
 _atom_site_fract_y
 _atom_site_fract_z
 _atom_site_occupancy
  Yb  Yb0  1  0.029743  0.179688  0.394631  1
  Yb  Yb1  1  0.859875  0.656857  0.374951  1
  Yb  Yb2  1  0.530562  0.327378  0.109085  1
  Yb  Yb3  1  0.140125  0.343143  0.625049  1
  Yb  Yb4  1  0.374458  0.836953  0.375621  1
  Yb  Yb5  1  0.140125  0.343143  0.874951  1
  Yb  Yb6  1  0.374458  0.836953  0.124379  1
  Yb  Yb7  1  0.206261  0.489893  0.250000  1
  Yb  Yb8  1  0.530562  0.327378  0.390915  1
  Yb  Yb9  1  0.793739  0.510107  0.750000  1
  Yb  Yb10  1  0.970257  0.820312  0.894631  1
  Yb  Yb11  1  0.970257  0.820312  0.605369  1
  Yb  Yb12  1  0.469438  0.672622  0.609085  1
  Yb  Yb13  1  0.625542  0.163047  0.624379  1
  Yb  Yb14  1  0.300919  0.992019  0.750000  1
  Yb  Yb15  1  0.625542  0.163047  0.875621  1
  Yb  Yb16  1  0.699081  0.007981  0.250000  1
  Yb  Yb17  1  0.859875  0.656857  0.125049  1
  Yb  Yb18  1  0.469438  0.672622  0.890915  1
  Yb  Yb19  1  0.029743  0.179688  0.105369  1
  Pt  Pt20  1  0.834034  0.359285  0.250000  1
  Pt  Pt21  1  0.431071  0.381321  0.750000  1
  Pt  Pt22  1  0.666252  0.862943  0.750000  1
  Pt  Pt23  1  0.165966  0.640715  0.750000  1
  Pt  Pt24  1  0.333748  0.137057  0.250000  1
  Pt  Pt25  1  0.568929  0.618679  0.250000  1
  Au  Au26  1  0.798378  0.471902  0.545496  1
  Au  Au27  1  0.706004  0.976982  0.045459  1
  Au  Au28  1  0.798378  0.471902  0.954504  1
  Au  Au29  1  0.201622  0.528098  0.454504  1
  Au  Au30  1  0.201622  0.528098  0.045496  1
  Au  Au31  1  0.069997  0.880766  0.250000  1
  Au  Au32  1  0.293996  0.023018  0.954541  1
  Au  Au33  1  0.930003  0.119234  0.750000  1
  Au  Au34  1  0.706004  0.976982  0.454541  1
  Au  Au35  1  0.293996  0.023018  0.545459  1
