# generated using pymatgen
data_Na3Li2TiBi3
_symmetry_space_group_name_H-M   'P 1'
_cell_length_a   12.86933626
_cell_length_b   12.86933618
_cell_length_c   12.86933578
_cell_angle_alpha   150.10442937
_cell_angle_beta   108.85801678
_cell_angle_gamma   79.03791697
_symmetry_Int_Tables_number   1
_chemical_formula_structural   Na3Li2TiBi3
_chemical_formula_sum   'Na12 Li8 Ti4 Bi12'
_cell_volume   986.82440453
_cell_formula_units_Z   4
loop_
 _symmetry_equiv_pos_site_id
 _symmetry_equiv_pos_as_xyz
  1  'x, y, z'
loop_
 _atom_site_type_symbol
 _atom_site_label
 _atom_site_symmetry_multiplicity
 _atom_site_fract_x
 _atom_site_fract_y
 _atom_site_fract_z
 _atom_site_occupancy
  Na  Na0  1  0.588527  0.944147  0.194722  1
  Na  Na1  1  0.078588  0.750000  0.828588  1
  Na  Na2  1  0.911473  0.106196  0.355620  1
  Na  Na3  1  0.411473  0.055853  0.805278  1
  Na  Na4  1  0.750576  0.606196  0.694722  1
  Na  Na5  1  0.249424  0.393804  0.305278  1
  Na  Na6  1  0.088527  0.893804  0.644380  1
  Na  Na7  1  0.421412  0.250000  0.671412  1
  Na  Na8  1  0.749424  0.444147  0.855620  1
  Na  Na9  1  0.250576  0.555853  0.144380  1
  Na  Na10  1  0.921412  0.250000  0.171412  1
  Na  Na11  1  0.578588  0.750000  0.328588  1
  Li  Li12  1  0.002053  0.252053  0.750000  1
  Li  Li13  1  0.664066  0.914066  0.750000  1
  Li  Li14  1  0.997947  0.747947  0.250000  1
  Li  Li15  1  0.497947  0.247947  0.250000  1
  Li  Li16  1  0.502053  0.752053  0.750000  1
  Li  Li17  1  0.164066  0.414066  0.750000  1
  Li  Li18  1  0.335934  0.085934  0.250000  1
  Li  Li19  1  0.835934  0.585934  0.250000  1
  Ti  Ti20  1  0.665900  0.415900  0.250000  1
  Ti  Ti21  1  0.165900  0.915900  0.250000  1
  Ti  Ti22  1  0.834100  0.084100  0.750000  1
  Ti  Ti23  1  0.334100  0.584100  0.750000  1
  Bi  Bi24  1  0.355214  0.750000  0.105214  1
  Bi  Bi25  1  0.474848  0.563218  0.362944  1
  Bi  Bi26  1  0.974848  0.611906  0.911631  1
  Bi  Bi27  1  0.525152  0.436782  0.637056  1
  Bi  Bi28  1  0.299726  0.888094  0.862944  1
  Bi  Bi29  1  0.700274  0.111906  0.137056  1
  Bi  Bi30  1  0.025152  0.388094  0.088369  1
  Bi  Bi31  1  0.644786  0.250000  0.894786  1
  Bi  Bi32  1  0.799726  0.936782  0.411631  1
  Bi  Bi33  1  0.144786  0.250000  0.394786  1
  Bi  Bi34  1  0.200274  0.063218  0.588369  1
  Bi  Bi35  1  0.855214  0.750000  0.605214  1
