# generated using pymatgen
data_MnNb12Al7GaCu3C4
_symmetry_space_group_name_H-M   'P 1'
_cell_length_a   8.27375524
_cell_length_b   8.31742523
_cell_length_c   8.27375400
_cell_angle_alpha   60.17352807
_cell_angle_beta   59.99999695
_cell_angle_gamma   60.17352450
_symmetry_Int_Tables_number   1
_chemical_formula_structural   MnNb12Al7GaCu3C4
_chemical_formula_sum   'Mn1 Nb12 Al7 Ga1 Cu3 C4'
_cell_volume   403.65774877
_cell_formula_units_Z   1
loop_
 _symmetry_equiv_pos_site_id
 _symmetry_equiv_pos_as_xyz
  1  'x, y, z'
loop_
 _atom_site_type_symbol
 _atom_site_label
 _atom_site_symmetry_multiplicity
 _atom_site_fract_x
 _atom_site_fract_y
 _atom_site_fract_z
 _atom_site_occupancy
  Mn  Mn0  1  0.125653  0.624312  0.125653  1
  Nb  Nb1  1  0.566592  0.932059  0.566592  1
  Nb  Nb2  1  0.311437  0.681414  0.696030  1
  Nb  Nb3  1  0.683253  0.317743  0.315405  1
  Nb  Nb4  1  0.311073  0.681334  0.311073  1
  Nb  Nb5  1  0.696030  0.681414  0.311437  1
  Nb  Nb6  1  0.315405  0.317743  0.683253  1
  Nb  Nb7  1  0.553730  0.568640  0.938679  1
  Nb  Nb8  1  0.938679  0.568640  0.553730  1
  Nb  Nb9  1  0.567039  0.932044  0.934432  1
  Nb  Nb10  1  0.934432  0.932044  0.567039  1
  Nb  Nb11  1  0.683499  0.317660  0.683499  1
  Nb  Nb12  1  0.938776  0.568852  0.938776  1
  Al  Al13  1  0.003294  0.332167  0.332231  1
  Al  Al14  1  0.335813  0.992468  0.335813  1
  Al  Al15  1  0.332231  0.332167  0.003294  1
  Al  Al16  1  0.914093  0.257746  0.914093  1
  Al  Al17  1  0.917562  0.917914  0.246927  1
  Al  Al18  1  0.246927  0.917914  0.917562  1
  Al  Al19  1  0.332241  0.332091  0.332241  1
  Ga  Ga20  1  0.917383  0.917317  0.917383  1
  Cu  Cu21  1  0.124712  0.124863  0.124712  1
  Cu  Cu22  1  0.624061  0.125781  0.125919  1
  Cu  Cu23  1  0.125919  0.125781  0.624061  1
  C  C24  1  0.624829  0.624843  0.624829  1
  C  C25  1  0.124995  0.625062  0.625148  1
  C  C26  1  0.625193  0.124926  0.625193  1
  C  C27  1  0.625148  0.625062  0.124995  1
