# generated using pymatgen
data_Tb8ZnSi14Pd
_symmetry_space_group_name_H-M   'P 1'
_cell_length_a   8.21204300
_cell_length_b   8.14033612
_cell_length_c   8.01961301
_cell_angle_alpha   90.00423820
_cell_angle_beta   90.00001412
_cell_angle_gamma   120.29176783
_symmetry_Int_Tables_number   1
_chemical_formula_structural   Tb8ZnSi14Pd
_chemical_formula_sum   'Tb8 Zn1 Si14 Pd1'
_cell_volume   462.90644303
_cell_formula_units_Z   1
loop_
 _symmetry_equiv_pos_site_id
 _symmetry_equiv_pos_as_xyz
  1  'x, y, z'
loop_
 _atom_site_type_symbol
 _atom_site_label
 _atom_site_symmetry_multiplicity
 _atom_site_fract_x
 _atom_site_fract_y
 _atom_site_fract_z
 _atom_site_occupancy
  Tb  Tb0  1  0.502604  0.005208  0.247042  1
  Tb  Tb1  1  0.502848  0.005697  0.753109  1
  Tb  Tb2  1  0.992902  0.499748  0.249208  1
  Tb  Tb3  1  0.992408  0.499475  0.750851  1
  Tb  Tb4  1  0.506846  0.499748  0.249208  1
  Tb  Tb5  1  0.507067  0.499475  0.750851  1
  Tb  Tb6  1  0.997289  0.994579  0.252542  1
  Tb  Tb7  1  0.997272  0.994544  0.747237  1
  Zn  Zn8  1  0.165719  0.331439  0.999586  1
  Si  Si9  1  0.334953  0.669906  0.000429  1
  Si  Si10  1  0.665770  0.331541  0.000337  1
  Si  Si11  1  0.666394  0.332788  0.499466  1
  Si  Si12  1  0.832499  0.664999  0.000197  1
  Si  Si13  1  0.668606  0.832665  0.999667  1
  Si  Si14  1  0.835361  0.670722  0.500036  1
  Si  Si15  1  0.334129  0.168309  0.000155  1
  Si  Si16  1  0.167539  0.335078  0.499710  1
  Si  Si17  1  0.164059  0.832665  0.999667  1
  Si  Si18  1  0.330767  0.165808  0.500113  1
  Si  Si19  1  0.834180  0.168309  0.000155  1
  Si  Si20  1  0.663727  0.831662  0.499793  1
  Si  Si21  1  0.835041  0.165808  0.500113  1
  Si  Si22  1  0.167935  0.831662  0.499792  1
  Pd  Pd23  1  0.334084  0.668168  0.500731  1
