# generated using pymatgen
data_Dy6Ho9Tm(CdIr)4
_symmetry_space_group_name_H-M   'P 1'
_cell_length_a   9.60803997
_cell_length_b   9.60818655
_cell_length_c   9.61343000
_cell_angle_alpha   59.98168413
_cell_angle_beta   59.98146641
_cell_angle_gamma   59.93591654
_symmetry_Int_Tables_number   1
_chemical_formula_structural   Dy6Ho9Tm(CdIr)4
_chemical_formula_sum   'Dy6 Ho9 Tm1 Cd4 Ir4'
_cell_volume   627.05832425
_cell_formula_units_Z   1
loop_
 _symmetry_equiv_pos_site_id
 _symmetry_equiv_pos_as_xyz
  1  'x, y, z'
loop_
 _atom_site_type_symbol
 _atom_site_label
 _atom_site_symmetry_multiplicity
 _atom_site_fract_x
 _atom_site_fract_y
 _atom_site_fract_z
 _atom_site_occupancy
  Dy  Dy0  1  0.188752  0.811535  0.811230  1
  Dy  Dy1  1  0.811535  0.188757  0.188483  1
  Dy  Dy2  1  0.811535  0.188750  0.811229  1
  Dy  Dy3  1  0.188751  0.811531  0.188487  1
  Dy  Dy4  1  0.811495  0.811508  0.188501  1
  Dy  Dy5  1  0.188690  0.188693  0.811307  1
  Ho  Ho6  1  0.598932  0.598930  0.598440  1
  Ho  Ho7  1  0.598932  0.598933  0.203697  1
  Ho  Ho8  1  0.599832  0.202808  0.598681  1
  Ho  Ho9  1  0.202799  0.599821  0.598689  1
  Ho  Ho10  1  0.060655  0.438192  0.439542  1
  Ho  Ho11  1  0.438201  0.060656  0.061604  1
  Ho  Ho12  1  0.438196  0.060655  0.439542  1
  Ho  Ho13  1  0.060647  0.438198  0.061604  1
  Ho  Ho14  1  0.439059  0.439048  0.060953  1
  Tm  Tm15  1  0.061108  0.061103  0.438896  1
  Cd  Cd16  1  0.830712  0.830713  0.830687  1
  Cd  Cd17  1  0.830712  0.830714  0.507887  1
  Cd  Cd18  1  0.830816  0.507258  0.830968  1
  Cd  Cd19  1  0.507256  0.830812  0.830966  1
  Ir  Ir20  1  0.392151  0.392153  0.391137  1
  Ir  Ir21  1  0.392155  0.392154  0.824553  1
  Ir  Ir22  1  0.391680  0.825403  0.391458  1
  Ir  Ir23  1  0.825402  0.391679  0.391460  1
