# generated using pymatgen
data_SrFeNi(Sb6Os)2
_symmetry_space_group_name_H-M   'P 1'
_cell_length_a   8.05343884
_cell_length_b   8.11565764
_cell_length_c   8.05981273
_cell_angle_alpha   109.54236317
_cell_angle_beta   109.07990143
_cell_angle_gamma   109.54119533
_symmetry_Int_Tables_number   1
_chemical_formula_structural   SrFeNi(Sb6Os)2
_chemical_formula_sum   'Sr1 Fe1 Ni1 Sb12 Os2'
_cell_volume   406.75687796
_cell_formula_units_Z   1
loop_
 _symmetry_equiv_pos_site_id
 _symmetry_equiv_pos_as_xyz
  1  'x, y, z'
loop_
 _atom_site_type_symbol
 _atom_site_label
 _atom_site_symmetry_multiplicity
 _atom_site_fract_x
 _atom_site_fract_y
 _atom_site_fract_z
 _atom_site_occupancy
  Sr  Sr0  1  0.000000  0.000000  0.000000  1
  Fe  Fe1  1  0.500000  0.500000  0.500000  1
  Ni  Ni2  1  0.000000  0.500000  0.000000  1
  Sb  Sb3  1  0.342138  0.183745  0.842378  1
  Sb  Sb4  1  0.657862  0.816255  0.157622  1
  Sb  Sb5  1  0.658088  0.502696  0.835633  1
  Sb  Sb6  1  0.341912  0.497304  0.164367  1
  Sb  Sb7  1  0.184734  0.840106  0.339439  1
  Sb  Sb8  1  0.815266  0.159894  0.660561  1
  Sb  Sb9  1  0.501939  0.832335  0.656439  1
  Sb  Sb10  1  0.498061  0.167665  0.343561  1
  Sb  Sb11  1  0.844749  0.343868  0.184363  1
  Sb  Sb12  1  0.155251  0.656132  0.815637  1
  Sb  Sb13  1  0.833813  0.657913  0.502178  1
  Sb  Sb14  1  0.166187  0.342087  0.497822  1
  Os  Os15  1  0.000000  0.000000  0.500000  1
  Os  Os16  1  0.500000  0.000000  0.000000  1
