# generated using pymatgen
data_RbSm(NbBr3)6
_symmetry_space_group_name_H-M   'P 1'
_cell_length_a   10.80982945
_cell_length_b   10.80982902
_cell_length_c   10.80982864
_cell_angle_alpha   55.43119508
_cell_angle_beta   55.43119781
_cell_angle_gamma   55.43120387
_symmetry_Int_Tables_number   1
_chemical_formula_structural   RbSm(NbBr3)6
_chemical_formula_sum   'Rb1 Sm1 Nb6 Br18'
_cell_volume   798.40865409
_cell_formula_units_Z   1
loop_
 _symmetry_equiv_pos_site_id
 _symmetry_equiv_pos_as_xyz
  1  'x, y, z'
loop_
 _atom_site_type_symbol
 _atom_site_label
 _atom_site_symmetry_multiplicity
 _atom_site_fract_x
 _atom_site_fract_y
 _atom_site_fract_z
 _atom_site_occupancy
  Rb  Rb0  1  0.221009  0.221009  0.221009  1
  Sm  Sm1  1  0.498534  0.498534  0.498534  1
  Nb  Nb2  1  0.808610  0.142360  0.916990  1
  Nb  Nb3  1  0.916990  0.808610  0.142360  1
  Nb  Nb4  1  0.142360  0.916990  0.808610  1
  Nb  Nb5  1  0.192352  0.858082  0.082397  1
  Nb  Nb6  1  0.082397  0.192352  0.858082  1
  Nb  Nb7  1  0.858082  0.082397  0.192352  1
  Br  Br8  1  0.863955  0.410627  0.727344  1
  Br  Br9  1  0.727344  0.863955  0.410627  1
  Br  Br10  1  0.410627  0.727344  0.863955  1
  Br  Br11  1  0.135418  0.589489  0.275029  1
  Br  Br12  1  0.275029  0.135418  0.589489  1
  Br  Br13  1  0.589489  0.275029  0.135418  1
  Br  Br14  1  0.531653  0.339381  0.810101  1
  Br  Br15  1  0.810101  0.531653  0.339381  1
  Br  Br16  1  0.339381  0.810101  0.531653  1
  Br  Br17  1  0.464807  0.662651  0.191776  1
  Br  Br18  1  0.191776  0.464807  0.662651  1
  Br  Br19  1  0.662651  0.191776  0.464807  1
  Br  Br20  1  0.664290  0.937759  0.071484  1
  Br  Br21  1  0.071484  0.664290  0.937759  1
  Br  Br22  1  0.937759  0.071484  0.664290  1
  Br  Br23  1  0.338576  0.061051  0.925417  1
  Br  Br24  1  0.925417  0.338576  0.061051  1
  Br  Br25  1  0.061051  0.925417  0.338576  1
