# generated using pymatgen
data_Ac2Sn2IrRh
_symmetry_space_group_name_H-M   'P 1'
_cell_length_a   7.76252000
_cell_length_b   7.76251869
_cell_length_c   8.69103100
_cell_angle_alpha   90.00000000
_cell_angle_beta   90.00000000
_cell_angle_gamma   120.00000560
_symmetry_Int_Tables_number   1
_chemical_formula_structural   Ac2Sn2IrRh
_chemical_formula_sum   'Ac6 Sn6 Ir3 Rh3'
_cell_volume   453.53133356
_cell_formula_units_Z   3
loop_
 _symmetry_equiv_pos_site_id
 _symmetry_equiv_pos_as_xyz
  1  'x, y, z'
loop_
 _atom_site_type_symbol
 _atom_site_label
 _atom_site_symmetry_multiplicity
 _atom_site_fract_x
 _atom_site_fract_y
 _atom_site_fract_z
 _atom_site_occupancy
  Ac  Ac0  1  0.583652  0.000700  0.750703  1
  Ac  Ac1  1  0.417050  0.416348  0.750703  1
  Ac  Ac2  1  0.999300  0.582950  0.750703  1
  Ac  Ac3  1  0.583775  0.001025  0.249324  1
  Ac  Ac4  1  0.417250  0.416225  0.249324  1
  Ac  Ac5  1  0.998975  0.582750  0.249324  1
  Sn  Sn6  1  0.242433  0.999789  0.000066  1
  Sn  Sn7  1  0.757421  0.758344  0.500032  1
  Sn  Sn8  1  0.000922  0.242579  0.500032  1
  Sn  Sn9  1  0.000211  0.242645  0.000066  1
  Sn  Sn10  1  0.757355  0.757567  0.000066  1
  Sn  Sn11  1  0.241656  0.999078  0.500032  1
  Ir  Ir12  1  0.666667  0.333333  0.999906  1
  Ir  Ir13  1  0.666667  0.333333  0.500503  1
  Ir  Ir14  1  0.333333  0.666667  0.000007  1
  Rh  Rh15  1  0.333333  0.666667  0.498966  1
  Rh  Rh16  1  0.000000  0.000000  0.750494  1
  Rh  Rh17  1  0.000000  0.000000  0.249752  1
