# generated using pymatgen
data_Tb7Sn23Ir6
_symmetry_space_group_name_H-M   'P 1'
_cell_length_a   9.87654000
_cell_length_b   9.87654003
_cell_length_c   10.13910300
_cell_angle_alpha   90.00000000
_cell_angle_beta   90.00000000
_cell_angle_gamma   120.00000659
_symmetry_Int_Tables_number   1
_chemical_formula_structural   Tb7Sn23Ir6
_chemical_formula_sum   'Tb7 Sn23 Ir6'
_cell_volume   856.52450602
_cell_formula_units_Z   1
loop_
 _symmetry_equiv_pos_site_id
 _symmetry_equiv_pos_as_xyz
  1  'x, y, z'
loop_
 _atom_site_type_symbol
 _atom_site_label
 _atom_site_symmetry_multiplicity
 _atom_site_fract_x
 _atom_site_fract_y
 _atom_site_fract_z
 _atom_site_occupancy
  Tb  Tb0  1  0.000000  0.000000  0.000000  1
  Tb  Tb1  1  0.479155  0.520845  0.307260  1
  Tb  Tb2  1  0.520845  0.479155  0.692740  1
  Tb  Tb3  1  0.479155  0.958309  0.307260  1
  Tb  Tb4  1  0.520845  0.041691  0.692740  1
  Tb  Tb5  1  0.041691  0.520845  0.307260  1
  Tb  Tb6  1  0.958309  0.479155  0.692740  1
  Sn  Sn7  1  0.352634  0.000000  0.000000  1
  Sn  Sn8  1  0.647366  0.000000  0.000000  1
  Sn  Sn9  1  0.000000  0.352634  0.000000  1
  Sn  Sn10  1  0.000000  0.647366  0.000000  1
  Sn  Sn11  1  0.647366  0.647366  0.000000  1
  Sn  Sn12  1  0.352634  0.352634  0.000000  1
  Sn  Sn13  1  0.333333  0.666667  0.822969  1
  Sn  Sn14  1  0.666667  0.333333  0.177031  1
  Sn  Sn15  1  0.000000  0.000000  0.500000  1
  Sn  Sn16  1  0.778495  0.221505  0.455642  1
  Sn  Sn17  1  0.221505  0.778495  0.544358  1
  Sn  Sn18  1  0.778495  0.556990  0.455642  1
  Sn  Sn19  1  0.221505  0.443010  0.544358  1
  Sn  Sn20  1  0.443010  0.221505  0.455642  1
  Sn  Sn21  1  0.556990  0.778495  0.544358  1
  Sn  Sn22  1  0.333333  0.666667  0.119259  1
  Sn  Sn23  1  0.666667  0.333333  0.880741  1
  Sn  Sn24  1  0.118805  0.881195  0.282866  1
  Sn  Sn25  1  0.881195  0.118805  0.717134  1
  Sn  Sn26  1  0.118805  0.237611  0.282866  1
  Sn  Sn27  1  0.881195  0.762389  0.717134  1
  Sn  Sn28  1  0.762389  0.881195  0.282866  1
  Sn  Sn29  1  0.237611  0.118805  0.717134  1
  Ir  Ir30  1  0.831310  0.168690  0.197966  1
  Ir  Ir31  1  0.168690  0.831310  0.802034  1
  Ir  Ir32  1  0.831310  0.662620  0.197966  1
  Ir  Ir33  1  0.168690  0.337380  0.802034  1
  Ir  Ir34  1  0.337380  0.168690  0.197966  1
  Ir  Ir35  1  0.662620  0.831310  0.802034  1
