# generated using pymatgen
data_LuU(CoB4)2
_symmetry_space_group_name_H-M   'P 1'
_cell_length_a   3.33948800
_cell_length_b   5.87235558
_cell_length_c   11.37177612
_cell_angle_alpha   90.20460476
_cell_angle_beta   90.00000000
_cell_angle_gamma   90.00000000
_symmetry_Int_Tables_number   1
_chemical_formula_structural   LuU(CoB4)2
_chemical_formula_sum   'Lu2 U2 Co4 B16'
_cell_volume   223.00662429
_cell_formula_units_Z   2
loop_
 _symmetry_equiv_pos_site_id
 _symmetry_equiv_pos_as_xyz
  1  'x, y, z'
loop_
 _atom_site_type_symbol
 _atom_site_label
 _atom_site_symmetry_multiplicity
 _atom_site_fract_x
 _atom_site_fract_y
 _atom_site_fract_z
 _atom_site_occupancy
  Lu  Lu0  1  0.000000  0.627933  0.351643  1
  Lu  Lu1  1  0.000000  0.372067  0.648357  1
  U  U2  1  0.000000  0.127405  0.151082  1
  U  U3  1  0.000000  0.872595  0.848918  1
  Co  Co4  1  0.000000  0.633215  0.090051  1
  Co  Co5  1  0.000000  0.366785  0.909949  1
  Co  Co6  1  0.000000  0.134704  0.410491  1
  Co  Co7  1  0.000000  0.865296  0.589509  1
  B  B8  1  0.500000  0.783656  0.186656  1
  B  B9  1  0.500000  0.216344  0.813344  1
  B  B10  1  0.500000  0.284690  0.315410  1
  B  B11  1  0.500000  0.715310  0.684590  1
  B  B12  1  0.500000  0.863885  0.034185  1
  B  B13  1  0.500000  0.136115  0.965815  1
  B  B14  1  0.500000  0.363427  0.467502  1
  B  B15  1  0.500000  0.636573  0.532498  1
  B  B16  1  0.500000  0.886394  0.454296  1
  B  B17  1  0.500000  0.113606  0.545704  1
  B  B18  1  0.500000  0.387283  0.046889  1
  B  B19  1  0.500000  0.612717  0.953111  1
  B  B20  1  0.500000  0.975887  0.310102  1
  B  B21  1  0.500000  0.024113  0.689898  1
  B  B22  1  0.500000  0.478288  0.192558  1
  B  B23  1  0.500000  0.521712  0.807442  1
