# generated using pymatgen
data_Zn5(NF2)2
_symmetry_space_group_name_H-M   'P 1'
_cell_length_a   5.71136789
_cell_length_b   5.53436613
_cell_length_c   6.48979187
_cell_angle_alpha   89.47451741
_cell_angle_beta   91.90796065
_cell_angle_gamma   60.45942066
_symmetry_Int_Tables_number   1
_chemical_formula_structural   Zn5(NF2)2
_chemical_formula_sum   'Zn5 N2 F4'
_cell_volume   178.29224532
_cell_formula_units_Z   1
loop_
 _symmetry_equiv_pos_site_id
 _symmetry_equiv_pos_as_xyz
  1  'x, y, z'
loop_
 _atom_site_type_symbol
 _atom_site_label
 _atom_site_symmetry_multiplicity
 _atom_site_fract_x
 _atom_site_fract_y
 _atom_site_fract_z
 _atom_site_occupancy
  Zn  Zn0  1  0.143373  0.579187  0.940985  1
  Zn  Zn1  1  0.790781  0.794288  0.559178  1
  Zn  Zn2  1  0.531279  0.957264  0.996225  1
  Zn  Zn3  1  0.758388  0.345668  0.885614  1
  Zn  Zn4  1  0.478804  0.450644  0.315138  1
  N  N5  1  0.491572  0.317523  0.043535  1
  N  N6  1  0.799785  0.665176  0.833658  1
  F  F7  1  0.572681  0.766361  0.319298  1
  F  F8  1  0.145439  0.984382  0.930899  1
  F  F9  1  0.659210  0.223008  0.567806  1
  F  F10  1  0.098093  0.698754  0.388618  1
