# generated using pymatgen
data_Tb4Al4OsRu3
_symmetry_space_group_name_H-M   'P 1'
_cell_length_a   4.02631900
_cell_length_b   7.07390716
_cell_length_c   8.10915012
_cell_angle_alpha   89.96087122
_cell_angle_beta   90.00000000
_cell_angle_gamma   90.00000000
_symmetry_Int_Tables_number   1
_chemical_formula_structural   Tb4Al4OsRu3
_chemical_formula_sum   'Tb4 Al4 Os1 Ru3'
_cell_volume   230.96319293
_cell_formula_units_Z   1
loop_
 _symmetry_equiv_pos_site_id
 _symmetry_equiv_pos_as_xyz
  1  'x, y, z'
loop_
 _atom_site_type_symbol
 _atom_site_label
 _atom_site_symmetry_multiplicity
 _atom_site_fract_x
 _atom_site_fract_y
 _atom_site_fract_z
 _atom_site_occupancy
  Tb  Tb0  1  0.250000  0.531612  0.821464  1
  Tb  Tb1  1  0.750000  0.469113  0.179595  1
  Tb  Tb2  1  0.250000  0.031896  0.678983  1
  Tb  Tb3  1  0.750000  0.967228  0.321489  1
  Al  Al4  1  0.250000  0.637447  0.442213  1
  Al  Al5  1  0.750000  0.362812  0.557675  1
  Al  Al6  1  0.250000  0.137212  0.058076  1
  Al  Al7  1  0.750000  0.861791  0.940595  1
  Os  Os8  1  0.750000  0.728407  0.626406  1
  Ru  Ru9  1  0.250000  0.271181  0.373122  1
  Ru  Ru10  1  0.750000  0.228978  0.874923  1
  Ru  Ru11  1  0.250000  0.772323  0.125457  1
