# generated using pymatgen
data_Y8SiAuI12
_symmetry_space_group_name_H-M   'P 1'
_cell_length_a   4.20500200
_cell_length_b   14.28746967
_cell_length_c   14.82991100
_cell_angle_alpha   90.03500113
_cell_angle_beta   90.00000000
_cell_angle_gamma   90.00000000
_symmetry_Int_Tables_number   1
_chemical_formula_structural   Y8SiAuI12
_chemical_formula_sum   'Y8 Si1 Au1 I12'
_cell_volume   890.96366199
_cell_formula_units_Z   1
loop_
 _symmetry_equiv_pos_site_id
 _symmetry_equiv_pos_as_xyz
  1  'x, y, z'
loop_
 _atom_site_type_symbol
 _atom_site_label
 _atom_site_symmetry_multiplicity
 _atom_site_fract_x
 _atom_site_fract_y
 _atom_site_fract_z
 _atom_site_occupancy
  Y  Y0  1  0.500000  0.122717  0.348454  1
  Y  Y1  1  0.500000  0.877283  0.651546  1
  Y  Y2  1  0.500000  0.617916  0.147870  1
  Y  Y3  1  0.500000  0.382084  0.852130  1
  Y  Y4  1  0.000000  0.107876  0.581153  1
  Y  Y5  1  0.000000  0.892124  0.418847  1
  Y  Y6  1  0.000000  0.605752  0.921209  1
  Y  Y7  1  0.000000  0.394248  0.078791  1
  Si  Si8  1  0.500000  0.500000  0.000000  1
  Au  Au9  1  0.500000  0.000000  0.500000  1
  I  I10  1  0.500000  0.259357  0.173587  1
  I  I11  1  0.500000  0.740643  0.826413  1
  I  I12  1  0.500000  0.757845  0.321685  1
  I  I13  1  0.500000  0.242155  0.678315  1
  I  I14  1  0.000000  0.262621  0.424377  1
  I  I15  1  0.000000  0.737379  0.575623  1
  I  I16  1  0.000000  0.757681  0.075164  1
  I  I17  1  0.000000  0.242319  0.924836  1
  I  I18  1  0.000000  0.011497  0.235673  1
  I  I19  1  0.000000  0.988503  0.764327  1
  I  I20  1  0.000000  0.509441  0.259732  1
  I  I21  1  0.000000  0.490559  0.740268  1
