# generated using pymatgen
data_Tb6Dy4GaSb5
_symmetry_space_group_name_H-M   'P 1'
_cell_length_a   6.38961400
_cell_length_b   8.96147741
_cell_length_c   8.93859355
_cell_angle_alpha   120.08473569
_cell_angle_beta   90.00000000
_cell_angle_gamma   90.00000000
_symmetry_Int_Tables_number   1
_chemical_formula_structural   Tb6Dy4GaSb5
_chemical_formula_sum   'Tb6 Dy4 Ga1 Sb5'
_cell_volume   442.87646432
_cell_formula_units_Z   1
loop_
 _symmetry_equiv_pos_site_id
 _symmetry_equiv_pos_as_xyz
  1  'x, y, z'
loop_
 _atom_site_type_symbol
 _atom_site_label
 _atom_site_symmetry_multiplicity
 _atom_site_fract_x
 _atom_site_fract_y
 _atom_site_fract_z
 _atom_site_occupancy
  Tb  Tb0  1  0.749998  0.249857  0.000000  1
  Tb  Tb1  1  0.750002  0.752771  0.763318  1
  Tb  Tb2  1  0.750002  0.989454  0.236682  1
  Tb  Tb3  1  0.250000  0.755183  0.000000  1
  Tb  Tb4  1  0.250000  0.245145  0.244751  1
  Tb  Tb5  1  0.250000  0.000394  0.755249  1
  Dy  Dy6  1  0.501038  0.340074  0.675048  1
  Dy  Dy7  1  0.501038  0.665026  0.324952  1
  Dy  Dy8  1  0.998962  0.665028  0.324955  1
  Dy  Dy9  1  0.998962  0.340073  0.675045  1
  Ga  Ga10  1  0.750000  0.606836  0.000000  1
  Sb  Sb11  1  0.750001  0.388164  0.390137  1
  Sb  Sb12  1  0.750001  0.998027  0.609863  1
  Sb  Sb13  1  0.249999  0.390495  0.000000  1
  Sb  Sb14  1  0.250002  0.610586  0.607701  1
  Sb  Sb15  1  0.250002  0.002886  0.392299  1
