# generated using pymatgen
data_Dy13Ho3(LuPb4)4
_symmetry_space_group_name_H-M   'P 1'
_cell_length_a   8.16208700
_cell_length_b   8.24941700
_cell_length_c   15.61121400
_cell_angle_alpha   90.00191638
_cell_angle_beta   90.00029420
_cell_angle_gamma   90.00277197
_symmetry_Int_Tables_number   1
_chemical_formula_structural   Dy13Ho3(LuPb4)4
_chemical_formula_sum   'Dy13 Ho3 Lu4 Pb16'
_cell_volume   1051.14142963
_cell_formula_units_Z   1
loop_
 _symmetry_equiv_pos_site_id
 _symmetry_equiv_pos_as_xyz
  1  'x, y, z'
loop_
 _atom_site_type_symbol
 _atom_site_label
 _atom_site_symmetry_multiplicity
 _atom_site_fract_x
 _atom_site_fract_y
 _atom_site_fract_z
 _atom_site_occupancy
  Dy  Dy0  1  0.123381  0.341433  0.120845  1
  Dy  Dy1  1  0.623370  0.158596  0.120872  1
  Dy  Dy2  1  0.123361  0.341410  0.379146  1
  Dy  Dy3  1  0.376631  0.841410  0.620865  1
  Dy  Dy4  1  0.876641  0.658580  0.879143  1
  Dy  Dy5  1  0.535948  0.323474  0.900095  1
  Dy  Dy6  1  0.035957  0.176533  0.599908  1
  Dy  Dy7  1  0.464044  0.676532  0.400095  1
  Dy  Dy8  1  0.964045  0.823477  0.099908  1
  Dy  Dy9  1  0.464039  0.676516  0.099882  1
  Dy  Dy10  1  0.964025  0.823501  0.400120  1
  Dy  Dy11  1  0.535979  0.323502  0.599884  1
  Dy  Dy12  1  0.035971  0.176493  0.900090  1
  Ho  Ho13  1  0.376608  0.841434  0.879137  1
  Ho  Ho14  1  0.876598  0.658562  0.620859  1
  Ho  Ho15  1  0.623390  0.158561  0.379147  1
  Lu  Lu16  1  0.208498  0.504381  0.750004  1
  Lu  Lu17  1  0.708501  0.995628  0.749997  1
  Lu  Lu18  1  0.791468  0.495638  0.250019  1
  Lu  Lu19  1  0.291524  0.004334  0.250009  1
  Pb  Pb20  1  0.281237  0.032646  0.043490  1
  Pb  Pb21  1  0.781177  0.467248  0.456497  1
  Pb  Pb22  1  0.718824  0.967252  0.543516  1
  Pb  Pb23  1  0.218852  0.532809  0.956437  1
  Pb  Pb24  1  0.718709  0.967262  0.956430  1
  Pb  Pb25  1  0.218703  0.532741  0.543563  1
  Pb  Pb26  1  0.281288  0.032734  0.456438  1
  Pb  Pb27  1  0.781206  0.467292  0.043547  1
  Pb  Pb28  1  0.571030  0.626145  0.750010  1
  Pb  Pb29  1  0.071026  0.873853  0.749996  1
  Pb  Pb30  1  0.429027  0.373854  0.250027  1
  Pb  Pb31  1  0.928928  0.126096  0.250015  1
  Pb  Pb32  1  0.347695  0.154877  0.750018  1
  Pb  Pb33  1  0.847712  0.345137  0.749984  1
  Pb  Pb34  1  0.652301  0.845134  0.250013  1
  Pb  Pb35  1  0.152305  0.654925  0.249995  1
