# generated using pymatgen
data_Ba4TiGe3N8
_symmetry_space_group_name_H-M   'P 1'
_cell_length_a   6.70814387
_cell_length_b   6.70814499
_cell_length_c   7.80896802
_cell_angle_alpha   90.05162284
_cell_angle_beta   89.94838024
_cell_angle_gamma   127.51892227
_symmetry_Int_Tables_number   1
_chemical_formula_structural   Ba4TiGe3N8
_chemical_formula_sum   'Ba4 Ti1 Ge3 N8'
_cell_volume   278.71143992
_cell_formula_units_Z   1
loop_
 _symmetry_equiv_pos_site_id
 _symmetry_equiv_pos_as_xyz
  1  'x, y, z'
loop_
 _atom_site_type_symbol
 _atom_site_label
 _atom_site_symmetry_multiplicity
 _atom_site_fract_x
 _atom_site_fract_y
 _atom_site_fract_z
 _atom_site_occupancy
  Ba  Ba0  1  0.167472  0.832528  0.572306  1
  Ba  Ba1  1  0.827159  0.172841  0.429453  1
  Ba  Ba2  1  0.327679  0.672321  0.063802  1
  Ba  Ba3  1  0.671397  0.328603  0.931931  1
  Ti  Ti4  1  0.446080  0.553920  0.637167  1
  Ge  Ge5  1  0.943418  0.056582  0.859090  1
  Ge  Ge6  1  0.554961  0.445039  0.352714  1
  Ge  Ge7  1  0.054463  0.945537  0.147744  1
  N  N8  1  0.129492  0.366787  0.751858  1
  N  N9  1  0.370685  0.127271  0.252385  1
  N  N10  1  0.872729  0.629315  0.252385  1
  N  N11  1  0.633213  0.870508  0.751858  1
  N  N12  1  0.100235  0.899765  0.910670  1
  N  N13  1  0.604075  0.395925  0.591385  1
  N  N14  1  0.398163  0.601837  0.398782  1
  N  N15  1  0.898779  0.101221  0.096472  1
