# generated using pymatgen
data_LaZnHgPd3
_symmetry_space_group_name_H-M   'P 1'
_cell_length_a   5.60756770
_cell_length_b   5.60756779
_cell_length_c   5.30996186
_cell_angle_alpha   58.12799850
_cell_angle_beta   58.12800391
_cell_angle_gamma   60.00000275
_symmetry_Int_Tables_number   1
_chemical_formula_structural   LaZnHgPd3
_chemical_formula_sum   'La1 Zn1 Hg1 Pd3'
_cell_volume   114.61438026
_cell_formula_units_Z   1
loop_
 _symmetry_equiv_pos_site_id
 _symmetry_equiv_pos_as_xyz
  1  'x, y, z'
loop_
 _atom_site_type_symbol
 _atom_site_label
 _atom_site_symmetry_multiplicity
 _atom_site_fract_x
 _atom_site_fract_y
 _atom_site_fract_z
 _atom_site_occupancy
  La  La0  1  0.249131  0.249131  0.252607  1
  Zn  Zn1  1  0.626140  0.626140  0.121579  1
  Hg  Hg2  1  0.996203  0.996203  0.011390  1
  Pd  Pd3  1  0.627157  0.124213  0.621474  1
  Pd  Pd4  1  0.124213  0.627157  0.621474  1
  Pd  Pd5  1  0.627157  0.627157  0.621474  1
