# generated using pymatgen
data_Pr16Cd4PdRh3
_symmetry_space_group_name_H-M   'P 1'
_cell_length_a   10.01267783
_cell_length_b   10.04140378
_cell_length_c   10.04140400
_cell_angle_alpha   59.99999929
_cell_angle_beta   59.90504943
_cell_angle_gamma   59.90505155
_symmetry_Int_Tables_number   1
_chemical_formula_structural   Pr16Cd4PdRh3
_chemical_formula_sum   'Pr16 Cd4 Pd1 Rh3'
_cell_volume   712.85194381
_cell_formula_units_Z   1
loop_
 _symmetry_equiv_pos_site_id
 _symmetry_equiv_pos_as_xyz
  1  'x, y, z'
loop_
 _atom_site_type_symbol
 _atom_site_label
 _atom_site_symmetry_multiplicity
 _atom_site_fract_x
 _atom_site_fract_y
 _atom_site_fract_z
 _atom_site_occupancy
  Pr  Pr0  1  0.346278  0.351159  0.351159  1
  Pr  Pr1  1  0.346278  0.351159  0.951405  1
  Pr  Pr2  1  0.346278  0.951405  0.351159  1
  Pr  Pr3  1  0.956338  0.347888  0.347888  1
  Pr  Pr4  1  0.813774  0.190482  0.190482  1
  Pr  Pr5  1  0.190078  0.810461  0.810461  1
  Pr  Pr6  1  0.190078  0.810461  0.188999  1
  Pr  Pr7  1  0.813774  0.190482  0.805262  1
  Pr  Pr8  1  0.190078  0.188999  0.810461  1
  Pr  Pr9  1  0.813774  0.805262  0.190482  1
  Pr  Pr10  1  0.935228  0.563408  0.563408  1
  Pr  Pr11  1  0.561489  0.937187  0.937187  1
  Pr  Pr12  1  0.561489  0.937187  0.564137  1
  Pr  Pr13  1  0.935228  0.563408  0.937955  1
  Pr  Pr14  1  0.561489  0.564137  0.937187  1
  Pr  Pr15  1  0.935228  0.937955  0.563408  1
  Cd  Cd16  1  0.579516  0.579297  0.579297  1
  Cd  Cd17  1  0.579516  0.579297  0.261889  1
  Cd  Cd18  1  0.579516  0.261889  0.579297  1
  Cd  Cd19  1  0.261759  0.579413  0.579413  1
  Pd  Pd20  1  0.571938  0.142687  0.142687  1
  Rh  Rh21  1  0.143625  0.141939  0.141939  1
  Rh  Rh22  1  0.143625  0.141939  0.572497  1
  Rh  Rh23  1  0.143625  0.572497  0.141939  1
