# generated using pymatgen
data_Dy2Fe11CoP7
_symmetry_space_group_name_H-M   'P 1'
_cell_length_a   3.64708700
_cell_length_b   8.96887324
_cell_length_c   8.94505700
_cell_angle_alpha   119.98665948
_cell_angle_beta   90.00000000
_cell_angle_gamma   90.00000000
_symmetry_Int_Tables_number   1
_chemical_formula_structural   Dy2Fe11CoP7
_chemical_formula_sum   'Dy2 Fe11 Co1 P7'
_cell_volume   253.42888873
_cell_formula_units_Z   1
loop_
 _symmetry_equiv_pos_site_id
 _symmetry_equiv_pos_as_xyz
  1  'x, y, z'
loop_
 _atom_site_type_symbol
 _atom_site_label
 _atom_site_symmetry_multiplicity
 _atom_site_fract_x
 _atom_site_fract_y
 _atom_site_fract_z
 _atom_site_occupancy
  Dy  Dy0  1  0.000000  0.665917  0.333081  1
  Dy  Dy1  1  0.500000  0.333503  0.667324  1
  Fe  Fe2  1  0.000000  0.369229  0.944509  1
  Fe  Fe3  1  0.000000  0.056266  0.426619  1
  Fe  Fe4  1  0.000000  0.573729  0.631232  1
  Fe  Fe5  1  0.000000  0.880909  0.724688  1
  Fe  Fe6  1  0.000000  0.273934  0.155091  1
  Fe  Fe7  1  0.000000  0.845687  0.119178  1
  Fe  Fe8  1  0.500000  0.432436  0.383852  1
  Fe  Fe9  1  0.500000  0.616088  0.049188  1
  Fe  Fe10  1  0.500000  0.119510  0.902786  1
  Fe  Fe11  1  0.500000  0.095758  0.214275  1
  Fe  Fe12  1  0.500000  0.787660  0.882602  1
  Co  Co13  1  0.500000  0.949457  0.564340  1
  P  P14  1  0.000000  0.112653  0.702329  1
  P  P15  1  0.000000  0.298829  0.411962  1
  P  P16  1  0.000000  0.588917  0.888808  1
  P  P17  1  0.500000  0.710312  0.600709  1
  P  P18  1  0.500000  0.401280  0.111341  1
  P  P19  1  0.500000  0.888299  0.287209  1
  P  P20  1  0.000000  0.999624  0.998873  1
