# generated using pymatgen
data_Cs2UPtS6
_symmetry_space_group_name_H-M   'P 1'
_cell_length_a   7.62057200
_cell_length_b   7.62057082
_cell_length_c   6.20890400
_cell_angle_alpha   90.00000000
_cell_angle_beta   90.00000000
_cell_angle_gamma   120.00001382
_symmetry_Int_Tables_number   1
_chemical_formula_structural   Cs2UPtS6
_chemical_formula_sum   'Cs2 U1 Pt1 S6'
_cell_volume   312.26304487
_cell_formula_units_Z   1
loop_
 _symmetry_equiv_pos_site_id
 _symmetry_equiv_pos_as_xyz
  1  'x, y, z'
loop_
 _atom_site_type_symbol
 _atom_site_label
 _atom_site_symmetry_multiplicity
 _atom_site_fract_x
 _atom_site_fract_y
 _atom_site_fract_z
 _atom_site_occupancy
  Cs  Cs0  1  0.666667  0.333333  0.232364  1
  Cs  Cs1  1  0.333333  0.666667  0.776084  1
  U  U2  1  0.000000  0.000000  0.507487  1
  Pt  Pt3  1  0.000000  0.000000  0.007697  1
  S  S4  1  0.295617  0.147809  0.775541  1
  S  S5  1  0.852191  0.704383  0.775541  1
  S  S6  1  0.852191  0.147809  0.775541  1
  S  S7  1  0.704395  0.852198  0.239048  1
  S  S8  1  0.147802  0.295605  0.239048  1
  S  S9  1  0.147802  0.852198  0.239048  1
