# generated using pymatgen
data_Pr19NdSi15Tc
_symmetry_space_group_name_H-M   'P 1'
_cell_length_a   7.92999057
_cell_length_b   7.92883300
_cell_length_c   15.27050160
_cell_angle_alpha   90.22595756
_cell_angle_beta   89.93137248
_cell_angle_gamma   90.06935253
_symmetry_Int_Tables_number   1
_chemical_formula_structural   Pr19NdSi15Tc
_chemical_formula_sum   'Pr19 Nd1 Si15 Tc1'
_cell_volume   960.13265317
_cell_formula_units_Z   1
loop_
 _symmetry_equiv_pos_site_id
 _symmetry_equiv_pos_as_xyz
  1  'x, y, z'
loop_
 _atom_site_type_symbol
 _atom_site_label
 _atom_site_symmetry_multiplicity
 _atom_site_fract_x
 _atom_site_fract_y
 _atom_site_fract_z
 _atom_site_occupancy
  Pr  Pr0  1  0.192108  0.809571  0.249985  1
  Pr  Pr1  1  0.822918  0.190104  0.748702  1
  Pr  Pr2  1  0.695425  0.689862  0.502379  1
  Pr  Pr3  1  0.371218  0.011781  0.451205  1
  Pr  Pr4  1  0.483882  0.882387  0.696099  1
  Pr  Pr5  1  0.510571  0.123587  0.199045  1
  Pr  Pr6  1  0.876225  0.488917  0.300710  1
  Pr  Pr7  1  0.128151  0.503245  0.798410  1
  Pr  Pr8  1  0.625908  0.988416  0.949129  1
  Pr  Pr9  1  0.008163  0.377333  0.551321  1
  Pr  Pr10  1  0.988643  0.625323  0.050585  1
  Pr  Pr11  1  0.131651  0.983278  0.872455  1
  Pr  Pr12  1  0.516544  0.629412  0.126298  1
  Pr  Pr13  1  0.471998  0.360826  0.628513  1
  Pr  Pr14  1  0.627701  0.515706  0.875151  1
  Pr  Pr15  1  0.374814  0.483677  0.373872  1
  Pr  Pr16  1  0.873171  0.019786  0.376285  1
  Pr  Pr17  1  0.982584  0.127039  0.124582  1
  Pr  Pr18  1  0.025301  0.881031  0.627416  1
  Nd  Nd19  1  0.307204  0.305877  0.997898  1
  Si  Si20  1  0.332957  0.694328  0.951641  1
  Si  Si21  1  0.664779  0.301500  0.450781  1
  Si  Si22  1  0.696620  0.333688  0.050307  1
  Si  Si23  1  0.303226  0.668516  0.547103  1
  Si  Si24  1  0.805149  0.832060  0.202595  1
  Si  Si25  1  0.168019  0.198060  0.298369  1
  Si  Si26  1  0.831135  0.801705  0.800121  1
  Si  Si27  1  0.288710  0.922950  0.058270  1
  Si  Si28  1  0.579948  0.787509  0.310529  1
  Si  Si29  1  0.421023  0.211170  0.812507  1
  Si  Si30  1  0.779232  0.582957  0.692006  1
  Si  Si31  1  0.212052  0.421427  0.189854  1
  Si  Si32  1  0.705306  0.075470  0.558237  1
  Si  Si33  1  0.920927  0.287887  0.941870  1
  Si  Si34  1  0.079085  0.714517  0.440735  1
  Tc  Tc35  1  0.197650  0.169094  0.695032  1
