# generated using pymatgen
data_Tb7Y(SiI6)2
_symmetry_space_group_name_H-M   'P 1'
_cell_length_a   4.22406700
_cell_length_b   14.06448918
_cell_length_c   14.84246719
_cell_angle_alpha   90.01850462
_cell_angle_beta   90.00000000
_cell_angle_gamma   90.00000000
_symmetry_Int_Tables_number   1
_chemical_formula_structural   Tb7Y(SiI6)2
_chemical_formula_sum   'Tb7 Y1 Si2 I12'
_cell_volume   881.78120269
_cell_formula_units_Z   1
loop_
 _symmetry_equiv_pos_site_id
 _symmetry_equiv_pos_as_xyz
  1  'x, y, z'
loop_
 _atom_site_type_symbol
 _atom_site_label
 _atom_site_symmetry_multiplicity
 _atom_site_fract_x
 _atom_site_fract_y
 _atom_site_fract_z
 _atom_site_occupancy
  Tb  Tb0  1  0.500000  0.114044  0.347572  1
  Tb  Tb1  1  0.500000  0.885954  0.652426  1
  Tb  Tb2  1  0.500000  0.614027  0.152402  1
  Tb  Tb3  1  0.000000  0.111540  0.574552  1
  Tb  Tb4  1  0.000000  0.888448  0.425445  1
  Tb  Tb5  1  0.000000  0.611540  0.925436  1
  Tb  Tb6  1  0.000000  0.388442  0.074540  1
  Y  Y7  1  0.500000  0.386019  0.847662  1
  Si  Si8  1  0.500000  0.000000  0.500001  1
  Si  Si9  1  0.500000  0.499948  0.999931  1
  I  I10  1  0.500000  0.244923  0.161216  1
  I  I11  1  0.500000  0.755076  0.838784  1
  I  I12  1  0.500000  0.744918  0.338776  1
  I  I13  1  0.500000  0.255126  0.661268  1
  I  I14  1  0.000000  0.258732  0.413784  1
  I  I15  1  0.000000  0.741267  0.586213  1
  I  I16  1  0.000000  0.758724  0.086216  1
  I  I17  1  0.000000  0.241368  0.913720  1
  I  I18  1  0.000000  0.999151  0.240409  1
  I  I19  1  0.000000  0.000846  0.759590  1
  I  I20  1  0.000000  0.499154  0.259585  1
  I  I21  1  0.000000  0.500752  0.740472  1
