# generated using pymatgen
data_NdY3ScBi3
_symmetry_space_group_name_H-M   'P 1'
_cell_length_a   8.22537200
_cell_length_b   9.48394400
_cell_length_c   12.11464900
_cell_angle_alpha   90.00000000
_cell_angle_beta   90.00000000
_cell_angle_gamma   90.00000000
_symmetry_Int_Tables_number   1
_chemical_formula_structural   NdY3ScBi3
_chemical_formula_sum   'Nd4 Y12 Sc4 Bi12'
_cell_volume   945.05125923
_cell_formula_units_Z   4
loop_
 _symmetry_equiv_pos_site_id
 _symmetry_equiv_pos_as_xyz
  1  'x, y, z'
loop_
 _atom_site_type_symbol
 _atom_site_label
 _atom_site_symmetry_multiplicity
 _atom_site_fract_x
 _atom_site_fract_y
 _atom_site_fract_z
 _atom_site_occupancy
  Nd  Nd0  1  0.182889  0.750000  0.721678  1
  Nd  Nd1  1  0.682889  0.750000  0.778322  1
  Nd  Nd2  1  0.817111  0.250000  0.278322  1
  Nd  Nd3  1  0.317111  0.250000  0.221678  1
  Y  Y4  1  0.303643  0.436739  0.940621  1
  Y  Y5  1  0.803643  0.063261  0.559379  1
  Y  Y6  1  0.696357  0.936739  0.059379  1
  Y  Y7  1  0.196357  0.563261  0.440621  1
  Y  Y8  1  0.696357  0.563261  0.059379  1
  Y  Y9  1  0.196357  0.936739  0.440621  1
  Y  Y10  1  0.303643  0.063261  0.940621  1
  Y  Y11  1  0.803643  0.436739  0.559379  1
  Y  Y12  1  0.354206  0.750000  0.216254  1
  Y  Y13  1  0.854206  0.750000  0.283746  1
  Y  Y14  1  0.645794  0.250000  0.783746  1
  Y  Y15  1  0.145794  0.250000  0.716254  1
  Sc  Sc16  1  0.025918  0.750000  0.988290  1
  Sc  Sc17  1  0.525918  0.750000  0.511710  1
  Sc  Sc18  1  0.974082  0.250000  0.011710  1
  Sc  Sc19  1  0.474082  0.250000  0.488290  1
  Bi  Bi20  1  0.434857  0.007655  0.666353  1
  Bi  Bi21  1  0.934857  0.492345  0.833647  1
  Bi  Bi22  1  0.565143  0.507655  0.333647  1
  Bi  Bi23  1  0.065143  0.992345  0.166353  1
  Bi  Bi24  1  0.565143  0.992345  0.333647  1
  Bi  Bi25  1  0.065143  0.507655  0.166353  1
  Bi  Bi26  1  0.434857  0.492345  0.666353  1
  Bi  Bi27  1  0.934857  0.007655  0.833647  1
  Bi  Bi28  1  0.403891  0.750000  0.961850  1
  Bi  Bi29  1  0.903891  0.750000  0.538150  1
  Bi  Bi30  1  0.596109  0.250000  0.038150  1
  Bi  Bi31  1  0.096109  0.250000  0.461850  1
