# generated using pymatgen
data_CsGaSiO4
_symmetry_space_group_name_H-M   'P 1'
_cell_length_a   5.49321000
_cell_length_b   9.35841500
_cell_length_c   9.48130400
_cell_angle_alpha   90.00000000
_cell_angle_beta   90.00000000
_cell_angle_gamma   90.00000000
_symmetry_Int_Tables_number   1
_chemical_formula_structural   CsGaSiO4
_chemical_formula_sum   'Cs4 Ga4 Si4 O16'
_cell_volume   487.41240010
_cell_formula_units_Z   4
loop_
 _symmetry_equiv_pos_site_id
 _symmetry_equiv_pos_as_xyz
  1  'x, y, z'
loop_
 _atom_site_type_symbol
 _atom_site_label
 _atom_site_symmetry_multiplicity
 _atom_site_fract_x
 _atom_site_fract_y
 _atom_site_fract_z
 _atom_site_occupancy
  Cs  Cs0  1  0.495646  0.001382  0.299000  1
  Cs  Cs1  1  0.995646  0.998618  0.701000  1
  Cs  Cs2  1  0.995646  0.498618  0.799000  1
  Cs  Cs3  1  0.495646  0.501382  0.201000  1
  Ga  Ga4  1  0.981320  0.821243  0.086203  1
  Ga  Ga5  1  0.481320  0.178757  0.913797  1
  Ga  Ga6  1  0.481320  0.678757  0.586203  1
  Ga  Ga7  1  0.981320  0.321243  0.413797  1
  Si  Si8  1  0.980455  0.689620  0.415165  1
  Si  Si9  1  0.480455  0.310380  0.584835  1
  Si  Si10  1  0.480455  0.810380  0.915165  1
  Si  Si11  1  0.980455  0.189620  0.084835  1
  O  O12  1  0.979258  0.516443  0.402084  1
  O  O13  1  0.479258  0.483557  0.597916  1
  O  O14  1  0.479258  0.983557  0.902084  1
  O  O15  1  0.979258  0.016443  0.097916  1
  O  O16  1  0.785258  0.745866  0.535804  1
  O  O17  1  0.285258  0.254134  0.464196  1
  O  O18  1  0.285258  0.754134  0.035804  1
  O  O19  1  0.785258  0.245866  0.964196  1
  O  O20  1  0.252662  0.749204  0.459857  1
  O  O21  1  0.752662  0.250796  0.540143  1
  O  O22  1  0.752662  0.750796  0.959857  1
  O  O23  1  0.252662  0.249204  0.040143  1
  O  O24  1  0.897399  0.758661  0.263981  1
  O  O25  1  0.397399  0.241339  0.736019  1
  O  O26  1  0.397399  0.741339  0.763981  1
  O  O27  1  0.897399  0.258661  0.236019  1
