# generated using pymatgen
data_Lu2Si5IrOs2
_symmetry_space_group_name_H-M   'P 1'
_cell_length_a   8.06487492
_cell_length_b   8.06487362
_cell_length_c   5.74475292
_cell_angle_alpha   71.11405109
_cell_angle_beta   71.11405747
_cell_angle_gamma   94.39452451
_symmetry_Int_Tables_number   1
_chemical_formula_structural   Lu2Si5IrOs2
_chemical_formula_sum   'Lu4 Si10 Ir2 Os4'
_cell_volume   327.56424985
_cell_formula_units_Z   2
loop_
 _symmetry_equiv_pos_site_id
 _symmetry_equiv_pos_as_xyz
  1  'x, y, z'
loop_
 _atom_site_type_symbol
 _atom_site_label
 _atom_site_symmetry_multiplicity
 _atom_site_fract_x
 _atom_site_fract_y
 _atom_site_fract_z
 _atom_site_occupancy
  Lu  Lu0  1  0.866944  0.597696  0.757729  1
  Lu  Lu1  1  0.402304  0.133056  0.742271  1
  Lu  Lu2  1  0.129756  0.400895  0.247059  1
  Lu  Lu3  1  0.599105  0.870244  0.252941  1
  Si  Si4  1  0.065916  0.259805  0.836638  1
  Si  Si5  1  0.740195  0.934084  0.663362  1
  Si  Si6  1  0.932314  0.736221  0.168069  1
  Si  Si7  1  0.263779  0.067686  0.331931  1
  Si  Si8  1  0.206783  0.793217  0.750000  1
  Si  Si9  1  0.793922  0.206078  0.250000  1
  Si  Si10  1  0.515030  0.484970  0.750000  1
  Si  Si11  1  0.486912  0.513088  0.250000  1
  Si  Si12  1  0.773930  0.226070  0.750000  1
  Si  Si13  1  0.223133  0.776867  0.250000  1
  Ir  Ir14  1  0.254076  0.542752  0.630162  1
  Ir  Ir15  1  0.457248  0.745924  0.869838  1
  Os  Os16  1  0.743351  0.456905  0.368665  1
  Os  Os17  1  0.543095  0.256649  0.131335  1
  Os  Os18  1  0.005819  0.994181  0.750000  1
  Os  Os19  1  0.996386  0.003614  0.250000  1
