# generated using pymatgen
data_Li4Nd5Th3(ZnRh2)4
_symmetry_space_group_name_H-M   'P 1'
_cell_length_a   3.95340200
_cell_length_b   7.46640861
_cell_length_c   16.61988994
_cell_angle_alpha   90.42716172
_cell_angle_beta   90.00000000
_cell_angle_gamma   90.00000000
_symmetry_Int_Tables_number   1
_chemical_formula_structural   Li4Nd5Th3(ZnRh2)4
_chemical_formula_sum   'Li4 Nd5 Th3 Zn4 Rh8'
_cell_volume   490.56753614
_cell_formula_units_Z   1
loop_
 _symmetry_equiv_pos_site_id
 _symmetry_equiv_pos_as_xyz
  1  'x, y, z'
loop_
 _atom_site_type_symbol
 _atom_site_label
 _atom_site_symmetry_multiplicity
 _atom_site_fract_x
 _atom_site_fract_y
 _atom_site_fract_z
 _atom_site_occupancy
  Li  Li0  1  0.750000  0.011354  0.558530  1
  Li  Li1  1  0.250000  0.627239  0.349673  1
  Li  Li2  1  0.750000  0.374391  0.651180  1
  Li  Li3  1  0.250000  0.497696  0.058111  1
  Nd  Nd4  1  0.750000  0.949362  0.283883  1
  Nd  Nd5  1  0.750000  0.830904  0.061352  1
  Nd  Nd6  1  0.750000  0.450157  0.213650  1
  Nd  Nd7  1  0.250000  0.047444  0.717159  1
  Nd  Nd8  1  0.250000  0.553322  0.787853  1
  Th  Th9  1  0.250000  0.169359  0.939938  1
  Th  Th10  1  0.250000  0.670967  0.561411  1
  Th  Th11  1  0.750000  0.327983  0.438319  1
  Zn  Zn12  1  0.750000  0.508832  0.943306  1
  Zn  Zn13  1  0.250000  0.987080  0.438822  1
  Zn  Zn14  1  0.250000  0.122741  0.150994  1
  Zn  Zn15  1  0.750000  0.879621  0.846076  1
  Rh  Rh16  1  0.750000  0.732827  0.445395  1
  Rh  Rh17  1  0.250000  0.244042  0.316654  1
  Rh  Rh18  1  0.750000  0.246568  0.821834  1
  Rh  Rh19  1  0.750000  0.753217  0.683142  1
  Rh  Rh20  1  0.250000  0.268224  0.554223  1
  Rh  Rh21  1  0.250000  0.748657  0.186776  1
  Rh  Rh22  1  0.750000  0.240740  0.057740  1
  Rh  Rh23  1  0.250000  0.757272  0.933978  1
