# generated using pymatgen
data_TmLuPt2F14
_symmetry_space_group_name_H-M   'P 1'
_cell_length_a   5.48055098
_cell_length_b   8.75732095
_cell_length_c   11.85594331
_cell_angle_alpha   62.65071667
_cell_angle_beta   89.94731839
_cell_angle_gamma   90.08474773
_symmetry_Int_Tables_number   1
_chemical_formula_structural   TmLuPt2F14
_chemical_formula_sum   'Tm2 Lu2 Pt4 F28'
_cell_volume   505.41967264
_cell_formula_units_Z   2
loop_
 _symmetry_equiv_pos_site_id
 _symmetry_equiv_pos_as_xyz
  1  'x, y, z'
loop_
 _atom_site_type_symbol
 _atom_site_label
 _atom_site_symmetry_multiplicity
 _atom_site_fract_x
 _atom_site_fract_y
 _atom_site_fract_z
 _atom_site_occupancy
  Tm  Tm0  1  0.260474  0.815863  0.264089  1
  Tm  Tm1  1  0.739526  0.184137  0.735911  1
  Lu  Lu2  1  0.762091  0.185018  0.235799  1
  Lu  Lu3  1  0.237909  0.814982  0.764201  1
  Pt  Pt4  1  0.758894  0.726351  0.042484  1
  Pt  Pt5  1  0.241106  0.273649  0.957516  1
  Pt  Pt6  1  0.259981  0.271127  0.455995  1
  Pt  Pt7  1  0.740019  0.728873  0.544005  1
  F  F8  1  0.939209  0.702926  0.415834  1
  F  F9  1  0.060791  0.297074  0.584166  1
  F  F10  1  0.438231  0.299543  0.086083  1
  F  F11  1  0.561769  0.700457  0.913917  1
  F  F12  1  0.462239  0.724174  0.136634  1
  F  F13  1  0.537761  0.275826  0.863366  1
  F  F14  1  0.964985  0.274820  0.360301  1
  F  F15  1  0.035015  0.725180  0.639699  1
  F  F16  1  0.950435  0.744722  0.176827  1
  F  F17  1  0.049565  0.255278  0.823173  1
  F  F18  1  0.452372  0.251688  0.322493  1
  F  F19  1  0.547628  0.748312  0.677507  1
  F  F20  1  0.774995  0.474348  0.142657  1
  F  F21  1  0.225005  0.525652  0.857343  1
  F  F22  1  0.276329  0.523538  0.356005  1
  F  F23  1  0.723671  0.476462  0.643995  1
  F  F24  1  0.936018  0.278715  0.044712  1
  F  F25  1  0.063982  0.721285  0.955288  1
  F  F26  1  0.436161  0.723376  0.456545  1
  F  F27  1  0.563839  0.276624  0.543455  1
  F  F28  1  0.745180  0.980929  0.449249  1
  F  F29  1  0.254820  0.019071  0.550751  1
  F  F30  1  0.245849  0.021565  0.051836  1
  F  F31  1  0.754151  0.978435  0.948164  1
  F  F32  1  0.583492  0.972878  0.232721  1
  F  F33  1  0.416508  0.027122  0.767279  1
  F  F34  1  0.081652  0.030835  0.267179  1
  F  F35  1  0.918348  0.969165  0.732821  1
