# generated using pymatgen
data_Sc4Si7GeRh16
_symmetry_space_group_name_H-M   'P 1'
_cell_length_a   4.06965400
_cell_length_b   8.98396024
_cell_length_c   11.15060831
_cell_angle_alpha   90.02666813
_cell_angle_beta   90.00000000
_cell_angle_gamma   90.00000000
_symmetry_Int_Tables_number   1
_chemical_formula_structural   Sc4Si7GeRh16
_chemical_formula_sum   'Sc4 Si7 Ge1 Rh16'
_cell_volume   407.68414494
_cell_formula_units_Z   1
loop_
 _symmetry_equiv_pos_site_id
 _symmetry_equiv_pos_as_xyz
  1  'x, y, z'
loop_
 _atom_site_type_symbol
 _atom_site_label
 _atom_site_symmetry_multiplicity
 _atom_site_fract_x
 _atom_site_fract_y
 _atom_site_fract_z
 _atom_site_occupancy
  Sc  Sc0  1  0.250000  0.143644  0.826366  1
  Sc  Sc1  1  0.250000  0.357371  0.325047  1
  Sc  Sc2  1  0.750000  0.855838  0.173821  1
  Sc  Sc3  1  0.750000  0.644355  0.674511  1
  Si  Si4  1  0.250000  0.414599  0.638955  1
  Si  Si5  1  0.250000  0.086865  0.136983  1
  Si  Si6  1  0.750000  0.586899  0.361176  1
  Si  Si7  1  0.750000  0.911934  0.862233  1
  Si  Si8  1  0.250000  0.619340  0.058953  1
  Si  Si9  1  0.250000  0.879577  0.559973  1
  Si  Si10  1  0.750000  0.381090  0.940632  1
  Ge  Ge11  1  0.750000  0.121400  0.440635  1
  Rh  Rh12  1  0.250000  0.616180  0.501658  1
  Rh  Rh13  1  0.250000  0.884316  0.001380  1
  Rh  Rh14  1  0.750000  0.390528  0.501586  1
  Rh  Rh15  1  0.750000  0.115658  0.996312  1
  Rh  Rh16  1  0.250000  0.696665  0.265952  1
  Rh  Rh17  1  0.250000  0.800913  0.766915  1
  Rh  Rh18  1  0.750000  0.301291  0.734431  1
  Rh  Rh19  1  0.750000  0.198999  0.228759  1
  Rh  Rh20  1  0.250000  0.172225  0.566689  1
  Rh  Rh21  1  0.250000  0.328430  0.061164  1
  Rh  Rh22  1  0.750000  0.826363  0.438730  1
  Rh  Rh23  1  0.750000  0.671297  0.938660  1
  Rh  Rh24  1  0.250000  0.005940  0.338881  1
  Rh  Rh25  1  0.250000  0.490332  0.842463  1
  Rh  Rh26  1  0.750000  0.988698  0.659725  1
  Rh  Rh27  1  0.750000  0.509254  0.157411  1
