# generated using pymatgen
data_Y3Al3SiAu2
_symmetry_space_group_name_H-M   'P 1'
_cell_length_a   7.03117400
_cell_length_b   7.03117424
_cell_length_c   4.31611000
_cell_angle_alpha   90.00000000
_cell_angle_beta   90.00000000
_cell_angle_gamma   120.00000829
_symmetry_Int_Tables_number   1
_chemical_formula_structural   Y3Al3SiAu2
_chemical_formula_sum   'Y3 Al3 Si1 Au2'
_cell_volume   184.79014478
_cell_formula_units_Z   1
loop_
 _symmetry_equiv_pos_site_id
 _symmetry_equiv_pos_as_xyz
  1  'x, y, z'
loop_
 _atom_site_type_symbol
 _atom_site_label
 _atom_site_symmetry_multiplicity
 _atom_site_fract_x
 _atom_site_fract_y
 _atom_site_fract_z
 _atom_site_occupancy
  Y  Y0  1  0.424637  0.420794  0.500000  1
  Y  Y1  1  0.579206  0.003843  0.500000  1
  Y  Y2  1  0.996157  0.575363  0.500000  1
  Al  Al3  1  0.008150  0.249200  0.000000  1
  Al  Al4  1  0.750800  0.758949  0.000000  1
  Al  Al5  1  0.241051  0.991850  0.000000  1
  Si  Si6  1  0.666667  0.333333  0.000000  1
  Au  Au7  1  0.000000  0.000000  0.500000  1
  Au  Au8  1  0.333333  0.666667  0.000000  1
