# generated using pymatgen
data_Tm3Al3SnPt2
_symmetry_space_group_name_H-M   'P 1'
_cell_length_a   7.10630500
_cell_length_b   7.10630605
_cell_length_c   4.20398700
_cell_angle_alpha   90.00000000
_cell_angle_beta   90.00000000
_cell_angle_gamma   120.00000909
_symmetry_Int_Tables_number   1
_chemical_formula_structural   Tm3Al3SnPt2
_chemical_formula_sum   'Tm3 Al3 Sn1 Pt2'
_cell_volume   183.85680419
_cell_formula_units_Z   1
loop_
 _symmetry_equiv_pos_site_id
 _symmetry_equiv_pos_as_xyz
  1  'x, y, z'
loop_
 _atom_site_type_symbol
 _atom_site_label
 _atom_site_symmetry_multiplicity
 _atom_site_fract_x
 _atom_site_fract_y
 _atom_site_fract_z
 _atom_site_occupancy
  Tm  Tm0  1  0.595546  0.017048  0.500000  1
  Tm  Tm1  1  0.421501  0.404454  0.500000  1
  Tm  Tm2  1  0.982952  0.578499  0.500000  1
  Al  Al3  1  0.776564  0.755687  0.000000  1
  Al  Al4  1  0.979122  0.223436  0.000000  1
  Al  Al5  1  0.244313  0.020878  0.000000  1
  Sn  Sn6  1  0.333333  0.666667  0.000000  1
  Pt  Pt7  1  0.666667  0.333333  0.000000  1
  Pt  Pt8  1  0.000000  0.000000  0.500000  1
