# generated using pymatgen
data_Tb8Ho12Si15Ru
_symmetry_space_group_name_H-M   'P 1'
_cell_length_a   7.34719462
_cell_length_b   7.75398561
_cell_length_c   14.56201300
_cell_angle_alpha   90.00000000
_cell_angle_beta   90.00000000
_cell_angle_gamma   90.01455257
_symmetry_Int_Tables_number   1
_chemical_formula_structural   Tb8Ho12Si15Ru
_chemical_formula_sum   'Tb8 Ho12 Si15 Ru1'
_cell_volume   829.59845634
_cell_formula_units_Z   1
loop_
 _symmetry_equiv_pos_site_id
 _symmetry_equiv_pos_as_xyz
  1  'x, y, z'
loop_
 _atom_site_type_symbol
 _atom_site_label
 _atom_site_symmetry_multiplicity
 _atom_site_fract_x
 _atom_site_fract_y
 _atom_site_fract_z
 _atom_site_occupancy
  Tb  Tb0  1  0.019677  0.184189  0.096384  1
  Tb  Tb1  1  0.983940  0.825508  0.905536  1
  Tb  Tb2  1  0.482632  0.680814  0.904897  1
  Tb  Tb3  1  0.983940  0.825508  0.594464  1
  Tb  Tb4  1  0.518604  0.318337  0.095964  1
  Tb  Tb5  1  0.019677  0.184189  0.403616  1
  Tb  Tb6  1  0.518604  0.318337  0.404036  1
  Tb  Tb7  1  0.482632  0.680814  0.595103  1
  Ho  Ho8  1  0.155161  0.517961  0.750000  1
  Ho  Ho9  1  0.841274  0.486309  0.250000  1
  Ho  Ho10  1  0.341953  0.015905  0.250000  1
  Ho  Ho11  1  0.667354  0.986174  0.750000  1
  Ho  Ho12  1  0.312672  0.174551  0.627646  1
  Ho  Ho13  1  0.676593  0.822716  0.375913  1
  Ho  Ho14  1  0.175188  0.681200  0.376066  1
  Ho  Ho15  1  0.676593  0.822716  0.124087  1
  Ho  Ho16  1  0.835357  0.314469  0.626297  1
  Ho  Ho17  1  0.312672  0.174551  0.872354  1
  Ho  Ho18  1  0.835357  0.314469  0.873703  1
  Ho  Ho19  1  0.175188  0.681200  0.123934  1
  Si  Si20  1  0.970068  0.896241  0.250000  1
  Si  Si21  1  0.471672  0.607062  0.250000  1
  Si  Si22  1  0.527970  0.395987  0.750000  1
  Si  Si23  1  0.278647  0.867241  0.750000  1
  Si  Si24  1  0.722977  0.128559  0.250000  1
  Si  Si25  1  0.224831  0.373496  0.250000  1
  Si  Si26  1  0.767686  0.622255  0.750000  1
  Si  Si27  1  0.156416  0.472412  0.537681  1
  Si  Si28  1  0.847319  0.530910  0.462255  1
  Si  Si29  1  0.346549  0.970515  0.461527  1
  Si  Si30  1  0.847319  0.530910  0.037745  1
  Si  Si31  1  0.648709  0.031000  0.538248  1
  Si  Si32  1  0.156416  0.472412  0.962319  1
  Si  Si33  1  0.648709  0.031000  0.961752  1
  Si  Si34  1  0.346549  0.970515  0.038473  1
  Ru  Ru35  1  0.023094  0.089564  0.750000  1
