# generated using pymatgen
data_Pr3In2AgRh3
_symmetry_space_group_name_H-M   'P 1'
_cell_length_a   7.54943935
_cell_length_b   7.54943965
_cell_length_c   4.10253000
_cell_angle_alpha   90.00000000
_cell_angle_beta   90.00000000
_cell_angle_gamma   118.45817610
_symmetry_Int_Tables_number   1
_chemical_formula_structural   Pr3In2AgRh3
_chemical_formula_sum   'Pr3 In2 Ag1 Rh3'
_cell_volume   205.56618040
_cell_formula_units_Z   1
loop_
 _symmetry_equiv_pos_site_id
 _symmetry_equiv_pos_as_xyz
  1  'x, y, z'
loop_
 _atom_site_type_symbol
 _atom_site_label
 _atom_site_symmetry_multiplicity
 _atom_site_fract_x
 _atom_site_fract_y
 _atom_site_fract_z
 _atom_site_occupancy
  Pr  Pr0  1  0.996713  0.594958  0.500000  1
  Pr  Pr1  1  0.412964  0.412964  0.500000  1
  Pr  Pr2  1  0.594958  0.996713  0.500000  1
  In  In3  1  0.996469  0.249492  0.000000  1
  In  In4  1  0.249492  0.996469  0.000000  1
  Ag  Ag5  1  0.751702  0.751702  0.000000  1
  Rh  Rh6  1  0.323427  0.656865  0.000000  1
  Rh  Rh7  1  0.017412  0.017412  0.500000  1
  Rh  Rh8  1  0.656865  0.323427  0.000000  1
