# generated using pymatgen
data_Ti5GaAs2
_symmetry_space_group_name_H-M   'P 1'
_cell_length_a   5.09481796
_cell_length_b   7.50504972
_cell_length_c   7.50504961
_cell_angle_alpha   83.35168691
_cell_angle_beta   70.08624060
_cell_angle_gamma   70.08623992
_symmetry_Int_Tables_number   1
_chemical_formula_structural   Ti5GaAs2
_chemical_formula_sum   'Ti10 Ga2 As4'
_cell_volume   253.67762491
_cell_formula_units_Z   2
loop_
 _symmetry_equiv_pos_site_id
 _symmetry_equiv_pos_as_xyz
  1  'x, y, z'
loop_
 _atom_site_type_symbol
 _atom_site_label
 _atom_site_symmetry_multiplicity
 _atom_site_fract_x
 _atom_site_fract_y
 _atom_site_fract_z
 _atom_site_occupancy
  Ti  Ti0  1  0.723057  0.855555  0.699427  1
  Ti  Ti1  1  0.276943  0.144445  0.300573  1
  Ti  Ti2  1  0.776943  0.300573  0.144445  1
  Ti  Ti3  1  0.223057  0.699427  0.855555  1
  Ti  Ti4  1  0.578177  0.699357  0.144395  1
  Ti  Ti5  1  0.421823  0.300643  0.855605  1
  Ti  Ti6  1  0.078177  0.144395  0.699357  1
  Ti  Ti7  1  0.921823  0.855605  0.300643  1
  Ti  Ti8  1  0.750000  0.499579  0.500421  1
  Ti  Ti9  1  0.250000  0.500421  0.499579  1
  Ga  Ga10  1  0.250000  0.000073  0.999927  1
  Ga  Ga11  1  0.750000  0.999927  0.000073  1
  As  As12  1  0.161979  0.500069  0.176553  1
  As  As13  1  0.838021  0.499931  0.823447  1
  As  As14  1  0.338021  0.823447  0.499931  1
  As  As15  1  0.661979  0.176553  0.500069  1
