# generated using pymatgen
data_Th3GaSn2Rh3
_symmetry_space_group_name_H-M   'P 1'
_cell_length_a   7.49966021
_cell_length_b   7.49965931
_cell_length_c   4.10255300
_cell_angle_alpha   90.00000000
_cell_angle_beta   90.00000000
_cell_angle_gamma   120.25249839
_symmetry_Int_Tables_number   1
_chemical_formula_structural   Th3GaSn2Rh3
_chemical_formula_sum   'Th3 Ga1 Sn2 Rh3'
_cell_volume   199.32296011
_cell_formula_units_Z   1
loop_
 _symmetry_equiv_pos_site_id
 _symmetry_equiv_pos_as_xyz
  1  'x, y, z'
loop_
 _atom_site_type_symbol
 _atom_site_label
 _atom_site_symmetry_multiplicity
 _atom_site_fract_x
 _atom_site_fract_y
 _atom_site_fract_z
 _atom_site_occupancy
  Th  Th0  1  0.426857  0.426857  0.500000  1
  Th  Th1  1  0.587289  0.989989  0.500000  1
  Th  Th2  1  0.989989  0.587289  0.500000  1
  Ga  Ga3  1  0.751491  0.751491  0.000000  1
  Sn  Sn4  1  0.246684  0.000265  0.000000  1
  Sn  Sn5  1  0.000265  0.246684  0.000000  1
  Rh  Rh6  1  0.668572  0.341019  0.000000  1
  Rh  Rh7  1  0.341019  0.668572  0.000000  1
  Rh  Rh8  1  0.987834  0.987834  0.500000  1
