# generated using pymatgen
data_Tb7Co6CuSn22
_symmetry_space_group_name_H-M   'P 1'
_cell_length_a   9.68626600
_cell_length_b   9.68626527
_cell_length_c   9.89480100
_cell_angle_alpha   90.00000000
_cell_angle_beta   90.00000000
_cell_angle_gamma   120.00000933
_symmetry_Int_Tables_number   1
_chemical_formula_structural   Tb7Co6CuSn22
_chemical_formula_sum   'Tb7 Co6 Cu1 Sn22'
_cell_volume   803.98955160
_cell_formula_units_Z   1
loop_
 _symmetry_equiv_pos_site_id
 _symmetry_equiv_pos_as_xyz
  1  'x, y, z'
loop_
 _atom_site_type_symbol
 _atom_site_label
 _atom_site_symmetry_multiplicity
 _atom_site_fract_x
 _atom_site_fract_y
 _atom_site_fract_z
 _atom_site_occupancy
  Tb  Tb0  1  0.000000  0.000000  0.000000  1
  Tb  Tb1  1  0.478885  0.521115  0.306008  1
  Tb  Tb2  1  0.521115  0.478885  0.693992  1
  Tb  Tb3  1  0.478885  0.957770  0.306008  1
  Tb  Tb4  1  0.521115  0.042230  0.693992  1
  Tb  Tb5  1  0.042230  0.521115  0.306008  1
  Tb  Tb6  1  0.957770  0.478885  0.693992  1
  Co  Co7  1  0.831990  0.168010  0.196592  1
  Co  Co8  1  0.168010  0.831990  0.803408  1
  Co  Co9  1  0.831990  0.663979  0.196592  1
  Co  Co10  1  0.168010  0.336021  0.803408  1
  Co  Co11  1  0.336021  0.168010  0.196592  1
  Co  Co12  1  0.663979  0.831990  0.803408  1
  Cu  Cu13  1  0.000000  0.000000  0.500000  1
  Sn  Sn14  1  0.346167  0.000000  0.000000  1
  Sn  Sn15  1  0.653833  0.000000  0.000000  1
  Sn  Sn16  1  0.000000  0.346167  0.000000  1
  Sn  Sn17  1  0.000000  0.653833  0.000000  1
  Sn  Sn18  1  0.653833  0.653833  0.000000  1
  Sn  Sn19  1  0.346167  0.346167  0.000000  1
  Sn  Sn20  1  0.333333  0.666667  0.816626  1
  Sn  Sn21  1  0.666667  0.333333  0.183374  1
  Sn  Sn22  1  0.784142  0.215858  0.453152  1
  Sn  Sn23  1  0.215858  0.784142  0.546848  1
  Sn  Sn24  1  0.784142  0.568285  0.453152  1
  Sn  Sn25  1  0.215858  0.431715  0.546848  1
  Sn  Sn26  1  0.431715  0.215858  0.453152  1
  Sn  Sn27  1  0.568285  0.784142  0.546848  1
  Sn  Sn28  1  0.333333  0.666667  0.116914  1
  Sn  Sn29  1  0.666667  0.333333  0.883086  1
  Sn  Sn30  1  0.111104  0.888896  0.282699  1
  Sn  Sn31  1  0.888896  0.111104  0.717301  1
  Sn  Sn32  1  0.111104  0.222209  0.282699  1
  Sn  Sn33  1  0.888896  0.777791  0.717301  1
  Sn  Sn34  1  0.777791  0.888896  0.282699  1
  Sn  Sn35  1  0.222209  0.111104  0.717301  1
