# generated using pymatgen
data_YHoU2(ReB6)2
_symmetry_space_group_name_H-M   'P 1'
_cell_length_a   3.63333300
_cell_length_b   9.29476601
_cell_length_c   11.40443801
_cell_angle_alpha   90.00445711
_cell_angle_beta   90.00000000
_cell_angle_gamma   90.00000000
_symmetry_Int_Tables_number   1
_chemical_formula_structural   YHoU2(ReB6)2
_chemical_formula_sum   'Y2 Ho2 U4 Re4 B24'
_cell_volume   385.13904743
_cell_formula_units_Z   2
loop_
 _symmetry_equiv_pos_site_id
 _symmetry_equiv_pos_as_xyz
  1  'x, y, z'
loop_
 _atom_site_type_symbol
 _atom_site_label
 _atom_site_symmetry_multiplicity
 _atom_site_fract_x
 _atom_site_fract_y
 _atom_site_fract_z
 _atom_site_occupancy
  Y  Y0  1  0.000000  0.836612  0.092338  1
  Y  Y1  1  0.000000  0.163388  0.907662  1
  Ho  Ho2  1  0.000000  0.336683  0.407737  1
  Ho  Ho3  1  0.000000  0.663317  0.592263  1
  U  U4  1  0.000000  0.956493  0.396627  1
  U  U5  1  0.000000  0.043507  0.603373  1
  U  U6  1  0.000000  0.456425  0.103625  1
  U  U7  1  0.000000  0.543575  0.896375  1
  Re  Re8  1  0.000000  0.645263  0.318656  1
  Re  Re9  1  0.000000  0.354737  0.681344  1
  Re  Re10  1  0.000000  0.145820  0.181866  1
  Re  Re11  1  0.000000  0.854180  0.818134  1
  B  B12  1  0.500000  0.551573  0.431084  1
  B  B13  1  0.500000  0.448427  0.568916  1
  B  B14  1  0.500000  0.051934  0.069248  1
  B  B15  1  0.500000  0.948066  0.930752  1
  B  B16  1  0.500000  0.742828  0.423202  1
  B  B17  1  0.500000  0.257172  0.576798  1
  B  B18  1  0.500000  0.243180  0.077184  1
  B  B19  1  0.500000  0.756820  0.922816  1
  B  B20  1  0.500000  0.801749  0.275385  1
  B  B21  1  0.500000  0.198251  0.724615  1
  B  B22  1  0.500000  0.301986  0.225027  1
  B  B23  1  0.500000  0.698014  0.774973  1
  B  B24  1  0.500000  0.643761  0.188698  1
  B  B25  1  0.500000  0.356239  0.811302  1
  B  B26  1  0.500000  0.144171  0.311600  1
  B  B27  1  0.500000  0.855829  0.688400  1
  B  B28  1  0.500000  0.989108  0.219742  1
  B  B29  1  0.500000  0.010892  0.780258  1
  B  B30  1  0.500000  0.488742  0.280633  1
  B  B31  1  0.500000  0.511258  0.719367  1
  B  B32  1  0.500000  0.639693  0.038735  1
  B  B33  1  0.500000  0.360307  0.961265  1
  B  B34  1  0.500000  0.140253  0.461171  1
  B  B35  1  0.500000  0.859747  0.538829  1
