# generated using pymatgen
data_Cs3ScAs2
_symmetry_space_group_name_H-M   'P 1'
_cell_length_a   9.85621776
_cell_length_b   9.85621864
_cell_length_c   9.85621881
_cell_angle_alpha   127.23902635
_cell_angle_beta   70.34645650
_cell_angle_gamma   136.98626324
_symmetry_Int_Tables_number   1
_chemical_formula_structural   Cs3ScAs2
_chemical_formula_sum   'Cs6 Sc2 As4'
_cell_volume   509.97209116
_cell_formula_units_Z   2
loop_
 _symmetry_equiv_pos_site_id
 _symmetry_equiv_pos_as_xyz
  1  'x, y, z'
loop_
 _atom_site_type_symbol
 _atom_site_label
 _atom_site_symmetry_multiplicity
 _atom_site_fract_x
 _atom_site_fract_y
 _atom_site_fract_z
 _atom_site_occupancy
  Cs  Cs0  1  0.815269  0.203413  0.018682  1
  Cs  Cs1  1  0.684731  0.703413  0.388143  1
  Cs  Cs2  1  0.750000  0.250001  0.500000  1
  Cs  Cs3  1  0.250001  0.750001  0.500000  1
  Cs  Cs4  1  0.315269  0.296587  0.611856  1
  Cs  Cs5  1  0.184731  0.796587  0.981318  1
  Sc  Sc6  1  0.250001  0.250001  0.000000  1
  Sc  Sc7  1  0.750001  0.750001  0.000000  1
  As  As8  1  0.414989  0.671684  0.086674  1
  As  As9  1  0.085011  0.171684  0.256695  1
  As  As10  1  0.914989  0.828316  0.743305  1
  As  As11  1  0.585010  0.328316  0.913326  1
