# generated using pymatgen
data_Sm6CuBi2Au3O20
_symmetry_space_group_name_H-M   'P 1'
_cell_length_a   8.54476752
_cell_length_b   8.61056527
_cell_length_c   5.84066463
_cell_angle_alpha   88.67027849
_cell_angle_beta   91.39903448
_cell_angle_gamma   89.86189650
_symmetry_Int_Tables_number   1
_chemical_formula_structural   Sm6CuBi2Au3O20
_chemical_formula_sum   'Sm6 Cu1 Bi2 Au3 O20'
_cell_volume   429.48283073
_cell_formula_units_Z   1
loop_
 _symmetry_equiv_pos_site_id
 _symmetry_equiv_pos_as_xyz
  1  'x, y, z'
loop_
 _atom_site_type_symbol
 _atom_site_label
 _atom_site_symmetry_multiplicity
 _atom_site_fract_x
 _atom_site_fract_y
 _atom_site_fract_z
 _atom_site_occupancy
  Sm  Sm0  1  0.352431  0.658281  0.249084  1
  Sm  Sm1  1  0.847101  0.149380  0.745586  1
  Sm  Sm2  1  0.650733  0.652499  0.747782  1
  Sm  Sm3  1  0.648816  0.344879  0.253554  1
  Sm  Sm4  1  0.842234  0.852455  0.252218  1
  Sm  Sm5  1  0.149930  0.846742  0.752170  1
  Cu  Cu6  1  0.493086  0.998453  0.403896  1
  Bi  Bi7  1  0.357795  0.356236  0.749131  1
  Bi  Bi8  1  0.152021  0.140666  0.249639  1
  Au  Au9  1  0.501795  0.006183  0.902004  1
  Au  Au10  1  0.997495  0.492986  0.097962  1
  Au  Au11  1  0.006443  0.500931  0.595592  1
  O  O12  1  0.113028  0.292372  0.599249  1
  O  O13  1  0.910526  0.276783  0.120469  1
  O  O14  1  0.910424  0.716087  0.608515  1
  O  O15  1  0.717971  0.912614  0.887772  1
  O  O16  1  0.222576  0.588796  0.620945  1
  O  O17  1  0.411261  0.791414  0.894887  1
  O  O18  1  0.401652  0.195259  0.398435  1
  O  O19  1  0.781262  0.590563  0.111964  1
  O  O20  1  0.291182  0.919868  0.382104  1
  O  O21  1  0.586614  0.222047  0.878897  1
  O  O22  1  0.487113  0.496521  0.993468  1
  O  O23  1  0.495331  0.487611  0.502380  1
  O  O24  1  0.790443  0.407397  0.603009  1
  O  O25  1  0.091018  0.708813  0.104944  1
  O  O26  1  0.291977  0.108511  0.897149  1
  O  O27  1  0.578181  0.797822  0.396524  1
  O  O28  1  0.208079  0.387430  0.103273  1
  O  O29  1  0.013726  0.003756  0.006755  1
  O  O30  1  0.004785  0.013183  0.491030  1
  O  O31  1  0.692968  0.083463  0.399613  1
