# generated using pymatgen
data_Ca3Hf(Co5As3)4
_symmetry_space_group_name_H-M   'P 1'
_cell_length_a   3.75468600
_cell_length_b   12.19824569
_cell_length_c   10.67314466
_cell_angle_alpha   89.94791499
_cell_angle_beta   90.00000000
_cell_angle_gamma   90.00000000
_symmetry_Int_Tables_number   1
_chemical_formula_structural   Ca3Hf(Co5As3)4
_chemical_formula_sum   'Ca3 Hf1 Co20 As12'
_cell_volume   488.83603866
_cell_formula_units_Z   1
loop_
 _symmetry_equiv_pos_site_id
 _symmetry_equiv_pos_as_xyz
  1  'x, y, z'
loop_
 _atom_site_type_symbol
 _atom_site_label
 _atom_site_symmetry_multiplicity
 _atom_site_fract_x
 _atom_site_fract_y
 _atom_site_fract_z
 _atom_site_occupancy
  Ca  Ca0  1  0.250000  0.295893  0.917988  1
  Ca  Ca1  1  0.250000  0.797008  0.583362  1
  Ca  Ca2  1  0.750000  0.203579  0.417401  1
  Hf  Hf3  1  0.750000  0.698635  0.077096  1
  Co  Co4  1  0.750000  0.696749  0.378025  1
  Co  Co5  1  0.250000  0.304763  0.618045  1
  Co  Co6  1  0.250000  0.799997  0.890050  1
  Co  Co7  1  0.750000  0.194946  0.117126  1
  Co  Co8  1  0.750000  0.989169  0.211422  1
  Co  Co9  1  0.250000  0.008213  0.790481  1
  Co  Co10  1  0.250000  0.512438  0.709349  1
  Co  Co11  1  0.750000  0.490447  0.286791  1
  Co  Co12  1  0.750000  0.678473  0.786431  1
  Co  Co13  1  0.250000  0.325284  0.212757  1
  Co  Co14  1  0.250000  0.821949  0.282065  1
  Co  Co15  1  0.750000  0.176981  0.715761  1
  Co  Co16  1  0.750000  0.926941  0.971672  1
  Co  Co17  1  0.250000  0.063266  0.033210  1
  Co  Co18  1  0.250000  0.567853  0.465418  1
  Co  Co19  1  0.750000  0.434648  0.532203  1
  Co  Co20  1  0.750000  0.989646  0.593741  1
  Co  Co21  1  0.250000  0.010624  0.406221  1
  Co  Co22  1  0.250000  0.519952  0.093973  1
  Co  Co23  1  0.750000  0.492593  0.909869  1
  As  As24  1  0.750000  0.615867  0.583268  1
  As  As25  1  0.250000  0.386241  0.415056  1
  As  As26  1  0.250000  0.881250  0.086327  1
  As  As27  1  0.750000  0.111159  0.916161  1
  As  As28  1  0.750000  0.890621  0.401158  1
  As  As29  1  0.250000  0.109441  0.600513  1
  As  As30  1  0.250000  0.610111  0.899597  1
  As  As31  1  0.750000  0.390232  0.098984  1
  As  As32  1  0.750000  0.870732  0.768664  1
  As  As33  1  0.250000  0.130444  0.231602  1
  As  As34  1  0.250000  0.632589  0.265246  1
  As  As35  1  0.750000  0.371267  0.732966  1
