# generated using pymatgen
data_CsBaScO3
_symmetry_space_group_name_H-M   'P 1'
_cell_length_a   6.87323218
_cell_length_b   6.87323182
_cell_length_c   13.41543200
_cell_angle_alpha   90.00000000
_cell_angle_beta   90.00000000
_cell_angle_gamma   125.58795149
_symmetry_Int_Tables_number   1
_chemical_formula_structural   CsBaScO3
_chemical_formula_sum   'Cs4 Ba4 Sc4 O12'
_cell_volume   515.39049557
_cell_formula_units_Z   4
loop_
 _symmetry_equiv_pos_site_id
 _symmetry_equiv_pos_as_xyz
  1  'x, y, z'
loop_
 _atom_site_type_symbol
 _atom_site_label
 _atom_site_symmetry_multiplicity
 _atom_site_fract_x
 _atom_site_fract_y
 _atom_site_fract_z
 _atom_site_occupancy
  Cs  Cs0  1  0.460805  0.539195  0.640615  1
  Cs  Cs1  1  0.539195  0.460805  0.359385  1
  Cs  Cs2  1  0.039195  0.960805  0.140615  1
  Cs  Cs3  1  0.960805  0.039195  0.859385  1
  Ba  Ba4  1  0.642045  0.357955  0.920678  1
  Ba  Ba5  1  0.857955  0.142045  0.420678  1
  Ba  Ba6  1  0.142045  0.857955  0.579322  1
  Ba  Ba7  1  0.357955  0.642045  0.079322  1
  Sc  Sc8  1  0.229477  0.770523  0.336031  1
  Sc  Sc9  1  0.729477  0.270523  0.163969  1
  Sc  Sc10  1  0.770523  0.229477  0.663969  1
  Sc  Sc11  1  0.270523  0.729477  0.836031  1
  O  O12  1  0.976403  0.523597  0.750000  1
  O  O13  1  0.523597  0.976403  0.250000  1
  O  O14  1  0.023597  0.476403  0.250000  1
  O  O15  1  0.476403  0.023597  0.750000  1
  O  O16  1  0.423479  0.576521  0.887009  1
  O  O17  1  0.576521  0.423479  0.112991  1
  O  O18  1  0.076521  0.923479  0.387009  1
  O  O19  1  0.681742  0.318258  0.543651  1
  O  O20  1  0.181742  0.818258  0.956349  1
  O  O21  1  0.818258  0.181742  0.043651  1
  O  O22  1  0.318258  0.681742  0.456349  1
  O  O23  1  0.923479  0.076521  0.612991  1
