# generated using pymatgen
data_Tb6Al24CoNiOs6
_symmetry_space_group_name_H-M   'P 1'
_cell_length_a   8.81055600
_cell_length_b   8.81055609
_cell_length_c   9.48526100
_cell_angle_alpha   90.00000000
_cell_angle_beta   90.00000000
_cell_angle_gamma   119.99999215
_symmetry_Int_Tables_number   1
_chemical_formula_structural   Tb6Al24CoNiOs6
_chemical_formula_sum   'Tb6 Al24 Co1 Ni1 Os6'
_cell_volume   637.65620182
_cell_formula_units_Z   1
loop_
 _symmetry_equiv_pos_site_id
 _symmetry_equiv_pos_as_xyz
  1  'x, y, z'
loop_
 _atom_site_type_symbol
 _atom_site_label
 _atom_site_symmetry_multiplicity
 _atom_site_fract_x
 _atom_site_fract_y
 _atom_site_fract_z
 _atom_site_occupancy
  Tb  Tb0  1  0.194007  0.388015  0.249713  1
  Tb  Tb1  1  0.805993  0.611985  0.750287  1
  Tb  Tb2  1  0.611985  0.805993  0.249713  1
  Tb  Tb3  1  0.388015  0.194007  0.750287  1
  Tb  Tb4  1  0.194007  0.805993  0.249713  1
  Tb  Tb5  1  0.805993  0.194007  0.750287  1
  Al  Al6  1  0.333333  0.666667  0.015891  1
  Al  Al7  1  0.666667  0.333333  0.984109  1
  Al  Al8  1  0.666667  0.333333  0.514509  1
  Al  Al9  1  0.333333  0.666667  0.485491  1
  Al  Al10  1  0.159311  0.318622  0.575643  1
  Al  Al11  1  0.840689  0.681378  0.424357  1
  Al  Al12  1  0.681378  0.840689  0.575643  1
  Al  Al13  1  0.838800  0.677601  0.076420  1
  Al  Al14  1  0.318622  0.159311  0.424357  1
  Al  Al15  1  0.161200  0.322399  0.923580  1
  Al  Al16  1  0.159311  0.840689  0.575643  1
  Al  Al17  1  0.322399  0.161200  0.076420  1
  Al  Al18  1  0.840689  0.159311  0.424357  1
  Al  Al19  1  0.677601  0.838800  0.923580  1
  Al  Al20  1  0.838800  0.161200  0.076420  1
  Al  Al21  1  0.161200  0.838800  0.923580  1
  Al  Al22  1  0.560407  0.120814  0.250387  1
  Al  Al23  1  0.439593  0.879186  0.749613  1
  Al  Al24  1  0.879186  0.439593  0.250387  1
  Al  Al25  1  0.120814  0.560407  0.749613  1
  Al  Al26  1  0.560407  0.439593  0.250387  1
  Al  Al27  1  0.439593  0.560407  0.749613  1
  Al  Al28  1  0.000000  0.000000  0.251528  1
  Al  Al29  1  0.000000  0.000000  0.748472  1
  Co  Co30  1  0.000000  0.000000  0.500000  1
  Ni  Ni31  1  0.000000  0.000000  0.000000  1
  Os  Os32  1  0.500000  0.000000  0.000000  1
  Os  Os33  1  0.000000  0.500000  0.000000  1
  Os  Os34  1  0.500000  0.000000  0.500000  1
  Os  Os35  1  0.500000  0.500000  0.000000  1
  Os  Os36  1  0.000000  0.500000  0.500000  1
  Os  Os37  1  0.500000  0.500000  0.500000  1
