# generated using pymatgen
data_Tb13Gd7(CoSb2)4
_symmetry_space_group_name_H-M   'P 1'
_cell_length_a   7.97199584
_cell_length_b   8.75329500
_cell_length_c   12.25214600
_cell_angle_alpha   90.00000000
_cell_angle_beta   89.97366635
_cell_angle_gamma   90.00000000
_symmetry_Int_Tables_number   1
_chemical_formula_structural   Tb13Gd7(CoSb2)4
_chemical_formula_sum   'Tb13 Gd7 Co4 Sb8'
_cell_volume   854.96974418
_cell_formula_units_Z   1
loop_
 _symmetry_equiv_pos_site_id
 _symmetry_equiv_pos_as_xyz
  1  'x, y, z'
loop_
 _atom_site_type_symbol
 _atom_site_label
 _atom_site_symmetry_multiplicity
 _atom_site_fract_x
 _atom_site_fract_y
 _atom_site_fract_z
 _atom_site_occupancy
  Tb  Tb0  1  0.043392  0.750000  0.498064  1
  Tb  Tb1  1  0.622895  0.750000  0.306116  1
  Tb  Tb2  1  0.122693  0.250000  0.193391  1
  Tb  Tb3  1  0.377197  0.250000  0.694000  1
  Tb  Tb4  1  0.877637  0.750000  0.806478  1
  Tb  Tb5  1  0.820062  0.965803  0.064728  1
  Tb  Tb6  1  0.319764  0.034034  0.435022  1
  Tb  Tb7  1  0.180035  0.465662  0.935079  1
  Tb  Tb8  1  0.679430  0.534725  0.564774  1
  Tb  Tb9  1  0.180035  0.034338  0.935079  1
  Tb  Tb10  1  0.679430  0.965275  0.564774  1
  Tb  Tb11  1  0.820062  0.534197  0.064728  1
  Tb  Tb12  1  0.319764  0.465966  0.435022  1
  Gd  Gd13  1  0.152553  0.750000  0.201756  1
  Gd  Gd14  1  0.653029  0.250000  0.298738  1
  Gd  Gd15  1  0.847895  0.250000  0.797669  1
  Gd  Gd16  1  0.347808  0.750000  0.702336  1
  Gd  Gd17  1  0.456066  0.750000  0.997640  1
  Gd  Gd18  1  0.956893  0.250000  0.502593  1
  Gd  Gd19  1  0.543564  0.250000  0.002210  1
  Co  Co20  1  0.436655  0.750000  0.490479  1
  Co  Co21  1  0.938733  0.250000  0.009003  1
  Co  Co22  1  0.561536  0.250000  0.509496  1
  Co  Co23  1  0.061490  0.750000  0.990987  1
  Sb  Sb24  1  0.927508  0.992126  0.326443  1
  Sb  Sb25  1  0.427346  0.007524  0.173632  1
  Sb  Sb26  1  0.073005  0.492968  0.673681  1
  Sb  Sb27  1  0.572832  0.507408  0.826162  1
  Sb  Sb28  1  0.073005  0.007032  0.673681  1
  Sb  Sb29  1  0.572832  0.992592  0.826162  1
  Sb  Sb30  1  0.927508  0.507874  0.326443  1
  Sb  Sb31  1  0.427346  0.492476  0.173632  1
