# generated using pymatgen
data_Dy9(BiO)5
_symmetry_space_group_name_H-M   'P 1'
_cell_length_a   10.02691600
_cell_length_b   10.02691600
_cell_length_c   8.95804600
_cell_angle_alpha   90.00000000
_cell_angle_beta   90.00000000
_cell_angle_gamma   90.00000000
_symmetry_Int_Tables_number   1
_chemical_formula_structural   Dy9(BiO)5
_chemical_formula_sum   'Dy18 Bi10 O10'
_cell_volume   900.63338517
_cell_formula_units_Z   2
loop_
 _symmetry_equiv_pos_site_id
 _symmetry_equiv_pos_as_xyz
  1  'x, y, z'
loop_
 _atom_site_type_symbol
 _atom_site_label
 _atom_site_symmetry_multiplicity
 _atom_site_fract_x
 _atom_site_fract_y
 _atom_site_fract_z
 _atom_site_occupancy
  Dy  Dy0  1  0.500000  0.000000  0.679831  1
  Dy  Dy1  1  0.793163  0.105204  0.335681  1
  Dy  Dy2  1  0.274523  0.083767  0.002418  1
  Dy  Dy3  1  0.583767  0.225477  0.002418  1
  Dy  Dy4  1  0.206837  0.894796  0.335681  1
  Dy  Dy5  1  0.605204  0.706837  0.335681  1
  Dy  Dy6  1  0.293163  0.605204  0.664319  1
  Dy  Dy7  1  0.416233  0.774523  0.002418  1
  Dy  Dy8  1  0.225477  0.416233  0.997582  1
  Dy  Dy9  1  0.894796  0.793163  0.664319  1
  Dy  Dy10  1  0.000000  0.500000  0.320169  1
  Dy  Dy11  1  0.083767  0.725477  0.997582  1
  Dy  Dy12  1  0.916233  0.274523  0.997582  1
  Dy  Dy13  1  0.774523  0.583767  0.997582  1
  Dy  Dy14  1  0.725477  0.916233  0.002418  1
  Dy  Dy15  1  0.394796  0.293163  0.335681  1
  Dy  Dy16  1  0.706837  0.394796  0.664319  1
  Dy  Dy17  1  0.105204  0.206837  0.664319  1
  Bi  Bi18  1  0.594919  0.693985  0.697169  1
  Bi  Bi19  1  0.905081  0.806015  0.302831  1
  Bi  Bi20  1  0.693985  0.405081  0.302831  1
  Bi  Bi21  1  0.000000  0.500000  0.681192  1
  Bi  Bi22  1  0.306015  0.594919  0.302831  1
  Bi  Bi23  1  0.806015  0.094919  0.697169  1
  Bi  Bi24  1  0.405081  0.306015  0.697169  1
  Bi  Bi25  1  0.193985  0.905081  0.697169  1
  Bi  Bi26  1  0.094919  0.193985  0.302831  1
  Bi  Bi27  1  0.500000  0.000000  0.318808  1
  O  O28  1  0.226078  0.879857  0.084141  1
  O  O29  1  0.273922  0.620143  0.915859  1
  O  O30  1  0.120143  0.226078  0.915859  1
  O  O31  1  0.879857  0.773922  0.915859  1
  O  O32  1  0.726078  0.379857  0.915859  1
  O  O33  1  0.500000  0.000000  0.936694  1
  O  O34  1  0.773922  0.120143  0.084141  1
  O  O35  1  0.000000  0.500000  0.063306  1
  O  O36  1  0.379857  0.273922  0.084141  1
  O  O37  1  0.620143  0.726078  0.084141  1
