# generated using pymatgen
data_Ho3Co4P6Rh4W
_symmetry_space_group_name_H-M   'P 1'
_cell_length_a   3.78689000
_cell_length_b   10.88765300
_cell_length_c   12.53564400
_cell_angle_alpha   90.00000000
_cell_angle_beta   90.00000000
_cell_angle_gamma   90.00000000
_symmetry_Int_Tables_number   1
_chemical_formula_structural   Ho3Co4P6Rh4W
_chemical_formula_sum   'Ho6 Co8 P12 Rh8 W2'
_cell_volume   516.84891776
_cell_formula_units_Z   2
loop_
 _symmetry_equiv_pos_site_id
 _symmetry_equiv_pos_as_xyz
  1  'x, y, z'
loop_
 _atom_site_type_symbol
 _atom_site_label
 _atom_site_symmetry_multiplicity
 _atom_site_fract_x
 _atom_site_fract_y
 _atom_site_fract_z
 _atom_site_occupancy
  Ho  Ho0  1  0.000000  0.500000  0.518658  1
  Ho  Ho1  1  0.500000  0.000000  0.476783  1
  Ho  Ho2  1  0.500000  0.815418  0.195833  1
  Ho  Ho3  1  0.500000  0.184582  0.195833  1
  Ho  Ho4  1  0.000000  0.680762  0.806306  1
  Ho  Ho5  1  0.000000  0.319238  0.806306  1
  Co  Co6  1  0.000000  0.500000  0.989516  1
  Co  Co7  1  0.500000  0.000000  0.014596  1
  Co  Co8  1  0.000000  0.619646  0.282927  1
  Co  Co9  1  0.000000  0.380354  0.282927  1
  Co  Co10  1  0.500000  0.333951  0.994744  1
  Co  Co11  1  0.500000  0.666049  0.994744  1
  Co  Co12  1  0.000000  0.167617  0.009984  1
  Co  Co13  1  0.000000  0.832383  0.009984  1
  P  P14  1  0.500000  0.315878  0.618592  1
  P  P15  1  0.500000  0.684122  0.618592  1
  P  P16  1  0.000000  0.192851  0.373255  1
  P  P17  1  0.000000  0.807149  0.373255  1
  P  P18  1  0.500000  0.500000  0.890886  1
  P  P19  1  0.000000  0.000000  0.111862  1
  P  P20  1  0.500000  0.842559  0.903790  1
  P  P21  1  0.500000  0.157441  0.903790  1
  P  P22  1  0.000000  0.655017  0.104909  1
  P  P23  1  0.000000  0.344983  0.104909  1
  P  P24  1  0.500000  0.500000  0.339187  1
  P  P25  1  0.000000  0.000000  0.657148  1
  Rh  Rh26  1  0.500000  0.300528  0.424518  1
  Rh  Rh27  1  0.500000  0.699472  0.424518  1
  Rh  Rh28  1  0.000000  0.206514  0.567057  1
  Rh  Rh29  1  0.000000  0.793486  0.567057  1
  Rh  Rh30  1  0.500000  0.873293  0.716443  1
  Rh  Rh31  1  0.500000  0.126707  0.716443  1
  Rh  Rh32  1  0.500000  0.500000  0.705157  1
  Rh  Rh33  1  0.000000  0.000000  0.296930  1
  W  W34  1  0.500000  0.500000  0.150805  1
  W  W35  1  0.000000  0.000000  0.851757  1
