# generated using pymatgen
data_SrThCo9Mo3As7
_symmetry_space_group_name_H-M   'P 1'
_cell_length_a   3.90032500
_cell_length_b   9.48768901
_cell_length_c   9.48768800
_cell_angle_alpha   119.99999647
_cell_angle_beta   90.00000000
_cell_angle_gamma   90.00000000
_symmetry_Int_Tables_number   1
_chemical_formula_structural   SrThCo9Mo3As7
_chemical_formula_sum   'Sr1 Th1 Co9 Mo3 As7'
_cell_volume   304.05509093
_cell_formula_units_Z   1
loop_
 _symmetry_equiv_pos_site_id
 _symmetry_equiv_pos_as_xyz
  1  'x, y, z'
loop_
 _atom_site_type_symbol
 _atom_site_label
 _atom_site_symmetry_multiplicity
 _atom_site_fract_x
 _atom_site_fract_y
 _atom_site_fract_z
 _atom_site_occupancy
  Sr  Sr0  1  0.500000  0.333333  0.666667  1
  Th  Th1  1  0.000000  0.666667  0.333333  1
  Co  Co2  1  0.000000  0.573239  0.946322  1
  Co  Co3  1  0.000000  0.373083  0.426761  1
  Co  Co4  1  0.000000  0.053678  0.626917  1
  Co  Co5  1  0.000000  0.876725  0.156646  1
  Co  Co6  1  0.000000  0.279921  0.123275  1
  Co  Co7  1  0.000000  0.843354  0.720079  1
  Co  Co8  1  0.500000  0.942675  0.376556  1
  Co  Co9  1  0.500000  0.433880  0.057325  1
  Co  Co10  1  0.500000  0.623444  0.566120  1
  Mo  Mo11  1  0.500000  0.783728  0.899494  1
  Mo  Mo12  1  0.500000  0.115766  0.216272  1
  Mo  Mo13  1  0.500000  0.100506  0.884234  1
  As  As14  1  0.000000  0.000000  0.000000  1
  As  As15  1  0.500000  0.705523  0.110280  1
  As  As16  1  0.500000  0.404759  0.294477  1
  As  As17  1  0.500000  0.889720  0.595241  1
  As  As18  1  0.000000  0.589671  0.700012  1
  As  As19  1  0.000000  0.110342  0.410329  1
  As  As20  1  0.000000  0.299988  0.889658  1
