# generated using pymatgen
data_Ta3AlCuN
_symmetry_space_group_name_H-M   'P 1'
_cell_length_a   6.97832600
_cell_length_b   6.97832600
_cell_length_c   6.97832600
_cell_angle_alpha   90.00000000
_cell_angle_beta   90.00000000
_cell_angle_gamma   90.00000000
_symmetry_Int_Tables_number   1
_chemical_formula_structural   Ta3AlCuN
_chemical_formula_sum   'Ta12 Al4 Cu4 N4'
_cell_volume   339.82377683
_cell_formula_units_Z   4
loop_
 _symmetry_equiv_pos_site_id
 _symmetry_equiv_pos_as_xyz
  1  'x, y, z'
loop_
 _atom_site_type_symbol
 _atom_site_label
 _atom_site_symmetry_multiplicity
 _atom_site_fract_x
 _atom_site_fract_y
 _atom_site_fract_z
 _atom_site_occupancy
  Ta  Ta0  1  0.791482  0.957049  0.374182  1
  Ta  Ta1  1  0.708518  0.042951  0.874182  1
  Ta  Ta2  1  0.208518  0.457049  0.125818  1
  Ta  Ta3  1  0.291482  0.542951  0.625818  1
  Ta  Ta4  1  0.957049  0.374182  0.791482  1
  Ta  Ta5  1  0.042951  0.874182  0.708518  1
  Ta  Ta6  1  0.457049  0.125818  0.208518  1
  Ta  Ta7  1  0.542951  0.625818  0.291482  1
  Ta  Ta8  1  0.374182  0.791482  0.957049  1
  Ta  Ta9  1  0.874182  0.708518  0.042951  1
  Ta  Ta10  1  0.125818  0.208518  0.457049  1
  Ta  Ta11  1  0.625818  0.291482  0.542951  1
  Al  Al12  1  0.572751  0.427249  0.927249  1
  Al  Al13  1  0.427249  0.927249  0.572751  1
  Al  Al14  1  0.927249  0.572751  0.427249  1
  Al  Al15  1  0.072751  0.072751  0.072751  1
  Cu  Cu16  1  0.179421  0.820579  0.320579  1
  Cu  Cu17  1  0.320579  0.179421  0.820579  1
  Cu  Cu18  1  0.820579  0.320579  0.179421  1
  Cu  Cu19  1  0.679421  0.679421  0.679421  1
  N  N20  1  0.877136  0.122864  0.622864  1
  N  N21  1  0.622864  0.877136  0.122864  1
  N  N22  1  0.122864  0.622864  0.877136  1
  N  N23  1  0.377136  0.377136  0.377136  1
