# generated using pymatgen
data_YbGd4SiSn3
_symmetry_space_group_name_H-M   'P 1'
_cell_length_a   7.63640800
_cell_length_b   8.24951400
_cell_length_c   15.42111500
_cell_angle_alpha   90.00000000
_cell_angle_beta   90.00000000
_cell_angle_gamma   90.00000000
_symmetry_Int_Tables_number   1
_chemical_formula_structural   YbGd4SiSn3
_chemical_formula_sum   'Yb4 Gd16 Si4 Sn12'
_cell_volume   971.47865683
_cell_formula_units_Z   4
loop_
 _symmetry_equiv_pos_site_id
 _symmetry_equiv_pos_as_xyz
  1  'x, y, z'
loop_
 _atom_site_type_symbol
 _atom_site_label
 _atom_site_symmetry_multiplicity
 _atom_site_fract_x
 _atom_site_fract_y
 _atom_site_fract_z
 _atom_site_occupancy
  Yb  Yb0  1  0.821176  0.503498  0.750000  1
  Yb  Yb1  1  0.321176  0.996502  0.750000  1
  Yb  Yb2  1  0.178824  0.496502  0.250000  1
  Yb  Yb3  1  0.678824  0.003498  0.250000  1
  Gd  Gd4  1  0.659119  0.181451  0.631043  1
  Gd  Gd5  1  0.159119  0.318549  0.868957  1
  Gd  Gd6  1  0.340881  0.818549  0.131043  1
  Gd  Gd7  1  0.840881  0.681451  0.368957  1
  Gd  Gd8  1  0.340881  0.818549  0.368957  1
  Gd  Gd9  1  0.840881  0.681451  0.131043  1
  Gd  Gd10  1  0.659119  0.181451  0.868957  1
  Gd  Gd11  1  0.159119  0.318549  0.631043  1
  Gd  Gd12  1  0.499969  0.678055  0.596124  1
  Gd  Gd13  1  0.999969  0.821945  0.903876  1
  Gd  Gd14  1  0.500031  0.321945  0.096124  1
  Gd  Gd15  1  0.000031  0.178055  0.403876  1
  Gd  Gd16  1  0.500031  0.321945  0.403876  1
  Gd  Gd17  1  0.000031  0.178055  0.096124  1
  Gd  Gd18  1  0.499969  0.678055  0.903876  1
  Gd  Gd19  1  0.999969  0.821945  0.596124  1
  Si  Si20  1  0.455104  0.392068  0.750000  1
  Si  Si21  1  0.955104  0.107932  0.750000  1
  Si  Si22  1  0.544896  0.607932  0.250000  1
  Si  Si23  1  0.044896  0.892068  0.250000  1
  Sn  Sn24  1  0.679745  0.965049  0.465171  1
  Sn  Sn25  1  0.179745  0.534951  0.034829  1
  Sn  Sn26  1  0.320255  0.034951  0.965171  1
  Sn  Sn27  1  0.820255  0.465049  0.534829  1
  Sn  Sn28  1  0.320255  0.034951  0.534829  1
  Sn  Sn29  1  0.820255  0.465049  0.965171  1
  Sn  Sn30  1  0.679745  0.965049  0.034829  1
  Sn  Sn31  1  0.179745  0.534951  0.465171  1
  Sn  Sn32  1  0.708713  0.865291  0.750000  1
  Sn  Sn33  1  0.208713  0.634709  0.750000  1
  Sn  Sn34  1  0.291287  0.134709  0.250000  1
  Sn  Sn35  1  0.791287  0.365291  0.250000  1
