# generated using pymatgen
data_Dy3Sn3IrRh2
_symmetry_space_group_name_H-M   'P 1'
_cell_length_a   7.63981600
_cell_length_b   7.63981623
_cell_length_c   3.78853400
_cell_angle_alpha   90.00000000
_cell_angle_beta   90.00000000
_cell_angle_gamma   119.99999901
_symmetry_Int_Tables_number   1
_chemical_formula_structural   Dy3Sn3IrRh2
_chemical_formula_sum   'Dy3 Sn3 Ir1 Rh2'
_cell_volume   191.49949638
_cell_formula_units_Z   1
loop_
 _symmetry_equiv_pos_site_id
 _symmetry_equiv_pos_as_xyz
  1  'x, y, z'
loop_
 _atom_site_type_symbol
 _atom_site_label
 _atom_site_symmetry_multiplicity
 _atom_site_fract_x
 _atom_site_fract_y
 _atom_site_fract_z
 _atom_site_occupancy
  Dy  Dy0  1  0.407547  0.404226  0.500000  1
  Dy  Dy1  1  0.595774  0.003321  0.500000  1
  Dy  Dy2  1  0.996679  0.592453  0.500000  1
  Sn  Sn3  1  0.735866  0.738072  0.000000  1
  Sn  Sn4  1  0.261928  0.997794  0.000000  1
  Sn  Sn5  1  0.002206  0.264134  0.000000  1
  Ir  Ir6  1  0.666667  0.333333  0.000000  1
  Rh  Rh7  1  0.333333  0.666667  0.000000  1
  Rh  Rh8  1  0.000000  0.000000  0.500000  1
