# generated using pymatgen
data_PrLu7(Si4W3)4
_symmetry_space_group_name_H-M   'P 1'
_cell_length_a   6.72997576
_cell_length_b   6.90506330
_cell_length_c   12.85583862
_cell_angle_alpha   89.85968284
_cell_angle_beta   90.03314935
_cell_angle_gamma   89.91067976
_symmetry_Int_Tables_number   1
_chemical_formula_structural   PrLu7(Si4W3)4
_chemical_formula_sum   'Pr1 Lu7 Si16 W12'
_cell_volume   597.41988237
_cell_formula_units_Z   1
loop_
 _symmetry_equiv_pos_site_id
 _symmetry_equiv_pos_as_xyz
  1  'x, y, z'
loop_
 _atom_site_type_symbol
 _atom_site_label
 _atom_site_symmetry_multiplicity
 _atom_site_fract_x
 _atom_site_fract_y
 _atom_site_fract_z
 _atom_site_occupancy
  Pr  Pr0  1  0.997593  0.833714  0.591744  1
  Lu  Lu1  1  0.495121  0.667819  0.593087  1
  Lu  Lu2  1  0.994981  0.831559  0.906826  1
  Lu  Lu3  1  0.505171  0.331123  0.093117  1
  Lu  Lu4  1  0.005891  0.168541  0.405117  1
  Lu  Lu5  1  0.505740  0.332725  0.405683  1
  Lu  Lu6  1  0.005101  0.168601  0.093078  1
  Lu  Lu7  1  0.494821  0.668352  0.908616  1
  Si  Si8  1  0.660705  0.960569  0.450788  1
  Si  Si9  1  0.163257  0.540380  0.046862  1
  Si  Si10  1  0.335965  0.039927  0.954536  1
  Si  Si11  1  0.835070  0.453850  0.545699  1
  Si  Si12  1  0.343579  0.044364  0.545441  1
  Si  Si13  1  0.836722  0.460193  0.953980  1
  Si  Si14  1  0.663438  0.959902  0.046831  1
  Si  Si15  1  0.163788  0.537326  0.450953  1
  Si  Si16  1  0.464577  0.373609  0.751145  1
  Si  Si17  1  0.963696  0.131685  0.752470  1
  Si  Si18  1  0.534354  0.626587  0.248877  1
  Si  Si19  1  0.034757  0.872142  0.249894  1
  Si  Si20  1  0.692774  0.864200  0.752429  1
  Si  Si21  1  0.200486  0.633253  0.752709  1
  Si  Si22  1  0.303409  0.136184  0.249312  1
  Si  Si23  1  0.802511  0.362696  0.248814  1
  W  W24  1  0.666063  0.165319  0.626346  1
  W  W25  1  0.169454  0.337382  0.876319  1
  W  W26  1  0.330474  0.836662  0.125018  1
  W  W27  1  0.829104  0.660305  0.373018  1
  W  W28  1  0.332410  0.836502  0.373681  1
  W  W29  1  0.831068  0.662662  0.124794  1
  W  W30  1  0.667818  0.163900  0.876231  1
  W  W31  1  0.169715  0.337128  0.625266  1
  W  W32  1  0.832034  0.500850  0.751336  1
  W  W33  1  0.333836  0.000690  0.751842  1
  W  W34  1  0.167066  0.497357  0.249194  1
  W  W35  1  0.667452  0.001946  0.248950  1
