# generated using pymatgen
data_YHo9In8(PdAu)2
_symmetry_space_group_name_H-M   'P 1'
_cell_length_a   3.63792300
_cell_length_b   8.15427935
_cell_length_c   18.29677076
_cell_angle_alpha   89.95177924
_cell_angle_beta   90.00000000
_cell_angle_gamma   90.00000000
_symmetry_Int_Tables_number   1
_chemical_formula_structural   YHo9In8(PdAu)2
_chemical_formula_sum   'Y1 Ho9 In8 Pd2 Au2'
_cell_volume   542.76693264
_cell_formula_units_Z   1
loop_
 _symmetry_equiv_pos_site_id
 _symmetry_equiv_pos_as_xyz
  1  'x, y, z'
loop_
 _atom_site_type_symbol
 _atom_site_label
 _atom_site_symmetry_multiplicity
 _atom_site_fract_x
 _atom_site_fract_y
 _atom_site_fract_z
 _atom_site_occupancy
  Y  Y0  1  0.000000  0.500000  0.500000  1
  Ho  Ho1  1  0.000000  0.000000  0.000000  1
  Ho  Ho2  1  0.000000  0.746428  0.282533  1
  Ho  Ho3  1  0.000000  0.253572  0.717467  1
  Ho  Ho4  1  0.000000  0.767463  0.779429  1
  Ho  Ho5  1  0.000000  0.232537  0.220571  1
  Ho  Ho6  1  0.000000  0.618623  0.080078  1
  Ho  Ho7  1  0.000000  0.381377  0.919922  1
  Ho  Ho8  1  0.000000  0.886171  0.582680  1
  Ho  Ho9  1  0.000000  0.113829  0.417320  1
  In  In10  1  0.500000  0.712456  0.932189  1
  In  In11  1  0.500000  0.287544  0.067811  1
  In  In12  1  0.500000  0.790452  0.432424  1
  In  In13  1  0.500000  0.209548  0.567576  1
  In  In14  1  0.500000  0.583318  0.647699  1
  In  In15  1  0.500000  0.416682  0.352301  1
  In  In16  1  0.500000  0.921757  0.148362  1
  In  In17  1  0.500000  0.078243  0.851638  1
  Pd  Pd18  1  0.500000  0.974774  0.695942  1
  Pd  Pd19  1  0.500000  0.025226  0.304058  1
  Au  Au20  1  0.500000  0.527036  0.197076  1
  Au  Au21  1  0.500000  0.472964  0.802924  1
