# generated using pymatgen
data_Ho16MgIn2AgIr4
_symmetry_space_group_name_H-M   'P 1'
_cell_length_a   9.61410828
_cell_length_b   9.61410748
_cell_length_c   9.60625949
_cell_angle_alpha   59.77683771
_cell_angle_beta   59.77684026
_cell_angle_gamma   59.76276793
_symmetry_Int_Tables_number   1
_chemical_formula_structural   Ho16MgIn2AgIr4
_chemical_formula_sum   'Ho16 Mg1 In2 Ag1 Ir4'
_cell_volume   624.60392217
_cell_formula_units_Z   1
loop_
 _symmetry_equiv_pos_site_id
 _symmetry_equiv_pos_as_xyz
  1  'x, y, z'
loop_
 _atom_site_type_symbol
 _atom_site_label
 _atom_site_symmetry_multiplicity
 _atom_site_fract_x
 _atom_site_fract_y
 _atom_site_fract_z
 _atom_site_occupancy
  Ho  Ho0  1  0.440827  0.440827  0.055623  1
  Ho  Ho1  1  0.651180  0.651180  0.047934  1
  Ho  Ho2  1  0.189915  0.811577  0.190606  1
  Ho  Ho3  1  0.067496  0.439930  0.055007  1
  Ho  Ho4  1  0.191783  0.809087  0.807113  1
  Ho  Ho5  1  0.062740  0.438009  0.434935  1
  Ho  Ho6  1  0.811577  0.189915  0.190606  1
  Ho  Ho7  1  0.650375  0.650375  0.648162  1
  Ho  Ho8  1  0.809087  0.191783  0.807113  1
  Ho  Ho9  1  0.187376  0.187376  0.814674  1
  Ho  Ho10  1  0.045097  0.650026  0.651380  1
  Ho  Ho11  1  0.439930  0.067496  0.055007  1
  Ho  Ho12  1  0.061735  0.061735  0.436704  1
  Ho  Ho13  1  0.650026  0.045097  0.651380  1
  Ho  Ho14  1  0.807997  0.807997  0.192191  1
  Ho  Ho15  1  0.438009  0.062740  0.434935  1
  Mg  Mg16  1  0.422716  0.422716  0.432313  1
  In  In17  1  0.416526  0.746810  0.420747  1
  In  In18  1  0.746810  0.416526  0.420747  1
  Ag  Ag19  1  0.414205  0.414205  0.753614  1
  Ir  Ir20  1  0.424369  0.854614  0.858578  1
  Ir  Ir21  1  0.857841  0.857841  0.858249  1
  Ir  Ir22  1  0.854614  0.424369  0.858578  1
  Ir  Ir23  1  0.857770  0.857770  0.423805  1
