# generated using pymatgen
data_La3Zn4(PtRh)2
_symmetry_space_group_name_H-M   'P 1'
_cell_length_a   8.39326029
_cell_length_b   8.39326044
_cell_length_c   8.39325967
_cell_angle_alpha   151.33934762
_cell_angle_beta   126.60195520
_cell_angle_gamma   61.72343592
_symmetry_Int_Tables_number   1
_chemical_formula_structural   La3Zn4(PtRh)2
_chemical_formula_sum   'La3 Zn4 Pt2 Rh2'
_cell_volume   225.77809045
_cell_formula_units_Z   1
loop_
 _symmetry_equiv_pos_site_id
 _symmetry_equiv_pos_as_xyz
  1  'x, y, z'
loop_
 _atom_site_type_symbol
 _atom_site_label
 _atom_site_symmetry_multiplicity
 _atom_site_fract_x
 _atom_site_fract_y
 _atom_site_fract_z
 _atom_site_occupancy
  La  La0  1  0.500000  0.000000  0.500000  1
  La  La1  1  0.870066  0.870066  0.000000  1
  La  La2  1  0.129934  0.129934  0.000000  1
  Zn  Zn3  1  0.483747  0.675236  0.808511  1
  Zn  Zn4  1  0.866725  0.675236  0.191489  1
  Zn  Zn5  1  0.133275  0.324764  0.808511  1
  Zn  Zn6  1  0.516253  0.324764  0.191489  1
  Pt  Pt7  1  0.801585  0.500000  0.301585  1
  Pt  Pt8  1  0.198415  0.500000  0.698415  1
  Rh  Rh9  1  0.281923  0.781923  0.500000  1
  Rh  Rh10  1  0.718077  0.218077  0.500000  1
