# generated using pymatgen
data_Th3Zr(PN3)4
_symmetry_space_group_name_H-M   'P 1'
_cell_length_a   6.99427113
_cell_length_b   6.99427042
_cell_length_c   5.45134606
_cell_angle_alpha   79.88868443
_cell_angle_beta   79.88866703
_cell_angle_gamma   88.26362604
_symmetry_Int_Tables_number   1
_chemical_formula_structural   Th3Zr(PN3)4
_chemical_formula_sum   'Th3 Zr1 P4 N12'
_cell_volume   258.45933489
_cell_formula_units_Z   1
loop_
 _symmetry_equiv_pos_site_id
 _symmetry_equiv_pos_as_xyz
  1  'x, y, z'
loop_
 _atom_site_type_symbol
 _atom_site_label
 _atom_site_symmetry_multiplicity
 _atom_site_fract_x
 _atom_site_fract_y
 _atom_site_fract_z
 _atom_site_occupancy
  Th  Th0  1  0.665302  0.334698  0.750000  1
  Th  Th1  1  0.902755  0.097245  0.250000  1
  Th  Th2  1  0.328359  0.671641  0.250000  1
  Zr  Zr3  1  0.115744  0.884256  0.750000  1
  P  P4  1  0.195472  0.374261  0.759332  1
  P  P5  1  0.372497  0.198669  0.266659  1
  P  P6  1  0.801331  0.627503  0.233341  1
  P  P7  1  0.625739  0.804528  0.740668  1
  N  N8  1  0.311112  0.367849  0.015422  1
  N  N9  1  0.026838  0.213277  0.817498  1
  N  N10  1  0.986123  0.774202  0.142115  1
  N  N11  1  0.370629  0.330403  0.506389  1
  N  N12  1  0.590801  0.144599  0.161445  1
  N  N13  1  0.401239  0.863613  0.830588  1
  N  N14  1  0.855401  0.409199  0.338555  1
  N  N15  1  0.669597  0.629371  0.993611  1
  N  N16  1  0.786723  0.973162  0.682502  1
  N  N17  1  0.136387  0.598761  0.669412  1
  N  N18  1  0.225798  0.013877  0.357885  1
  N  N19  1  0.632151  0.688888  0.484578  1
