# generated using pymatgen
data_HoEr(ZnRu)2
_symmetry_space_group_name_H-M   'P 1'
_cell_length_a   5.34306694
_cell_length_b   5.34306602
_cell_length_c   5.34306636
_cell_angle_alpha   121.63616794
_cell_angle_beta   118.81041057
_cell_angle_gamma   89.63121957
_symmetry_Int_Tables_number   1
_chemical_formula_structural   HoEr(ZnRu)2
_chemical_formula_sum   'Ho1 Er1 Zn2 Ru2'
_cell_volume   107.41027535
_cell_formula_units_Z   1
loop_
 _symmetry_equiv_pos_site_id
 _symmetry_equiv_pos_as_xyz
  1  'x, y, z'
loop_
 _atom_site_type_symbol
 _atom_site_label
 _atom_site_symmetry_multiplicity
 _atom_site_fract_x
 _atom_site_fract_y
 _atom_site_fract_z
 _atom_site_occupancy
  Ho  Ho0  1  0.619548  0.869548  0.750000  1
  Er  Er1  1  0.380438  0.130438  0.250000  1
  Zn  Zn2  1  0.999935  0.500006  0.000071  1
  Zn  Zn3  1  0.999935  0.999865  0.499929  1
  Ru  Ru4  1  0.499470  0.500072  0.999398  1
  Ru  Ru5  1  0.000674  0.500072  0.500602  1
