# generated using pymatgen
data_CeSm(GaIr)2
_symmetry_space_group_name_H-M   'P 1'
_cell_length_a   4.36906900
_cell_length_b   6.92033236
_cell_length_c   7.89711764
_cell_angle_alpha   90.33128041
_cell_angle_beta   90.00000000
_cell_angle_gamma   90.00000000
_symmetry_Int_Tables_number   1
_chemical_formula_structural   CeSm(GaIr)2
_chemical_formula_sum   'Ce2 Sm2 Ga4 Ir4'
_cell_volume   238.76859536
_cell_formula_units_Z   2
loop_
 _symmetry_equiv_pos_site_id
 _symmetry_equiv_pos_as_xyz
  1  'x, y, z'
loop_
 _atom_site_type_symbol
 _atom_site_label
 _atom_site_symmetry_multiplicity
 _atom_site_fract_x
 _atom_site_fract_y
 _atom_site_fract_z
 _atom_site_occupancy
  Ce  Ce0  1  0.750000  0.968261  0.688853  1
  Ce  Ce1  1  0.250000  0.031739  0.311147  1
  Sm  Sm2  1  0.250000  0.530760  0.188619  1
  Sm  Sm3  1  0.750000  0.469240  0.811381  1
  Ga  Ga4  1  0.250000  0.647665  0.567155  1
  Ga  Ga5  1  0.750000  0.352335  0.432845  1
  Ga  Ga6  1  0.750000  0.847307  0.068160  1
  Ga  Ga7  1  0.250000  0.152693  0.931840  1
  Ir  Ir8  1  0.250000  0.771648  0.883295  1
  Ir  Ir9  1  0.750000  0.228352  0.116705  1
  Ir  Ir10  1  0.750000  0.742477  0.393453  1
  Ir  Ir11  1  0.250000  0.257523  0.606547  1
