# generated using pymatgen
data_Tb2YIn4Hg
_symmetry_space_group_name_H-M   'P 1'
_cell_length_a   6.37596897
_cell_length_b   6.37596860
_cell_length_c   10.51978300
_cell_angle_alpha   90.00000000
_cell_angle_beta   90.00000000
_cell_angle_gamma   102.91824331
_symmetry_Int_Tables_number   1
_chemical_formula_structural   Tb2YIn4Hg
_chemical_formula_sum   'Tb4 Y2 In8 Hg2'
_cell_volume   416.83644533
_cell_formula_units_Z   2
loop_
 _symmetry_equiv_pos_site_id
 _symmetry_equiv_pos_as_xyz
  1  'x, y, z'
loop_
 _atom_site_type_symbol
 _atom_site_label
 _atom_site_symmetry_multiplicity
 _atom_site_fract_x
 _atom_site_fract_y
 _atom_site_fract_z
 _atom_site_occupancy
  Tb  Tb0  1  0.202958  0.797042  0.500000  1
  Tb  Tb1  1  0.202958  0.797042  0.000000  1
  Tb  Tb2  1  0.797042  0.202958  0.500000  1
  Tb  Tb3  1  0.797042  0.202958  0.000000  1
  Y  Y4  1  0.622855  0.622855  0.250000  1
  Y  Y5  1  0.377145  0.377145  0.750000  1
  In  In6  1  0.312222  0.312222  0.043812  1
  In  In7  1  0.687778  0.687778  0.956188  1
  In  In8  1  0.312222  0.312222  0.456188  1
  In  In9  1  0.687778  0.687778  0.543812  1
  In  In10  1  0.507433  0.076304  0.250000  1
  In  In11  1  0.923696  0.492567  0.750000  1
  In  In12  1  0.492567  0.923696  0.750000  1
  In  In13  1  0.076304  0.507433  0.250000  1
  Hg  Hg14  1  0.004511  0.004511  0.250000  1
  Hg  Hg15  1  0.995489  0.995489  0.750000  1
