# generated using pymatgen
data_SrPr6RuCl12
_symmetry_space_group_name_H-M   'P 1'
_cell_length_a   9.46146034
_cell_length_b   9.29013717
_cell_length_c   9.30307447
_cell_angle_alpha   106.00847352
_cell_angle_beta   106.41706281
_cell_angle_gamma   106.28970878
_symmetry_Int_Tables_number   1
_chemical_formula_structural   SrPr6RuCl12
_chemical_formula_sum   'Sr1 Pr6 Ru1 Cl12'
_cell_volume   694.66396130
_cell_formula_units_Z   1
loop_
 _symmetry_equiv_pos_site_id
 _symmetry_equiv_pos_as_xyz
  1  'x, y, z'
loop_
 _atom_site_type_symbol
 _atom_site_label
 _atom_site_symmetry_multiplicity
 _atom_site_fract_x
 _atom_site_fract_y
 _atom_site_fract_z
 _atom_site_occupancy
  Sr  Sr0  1  0.500000  0.500000  0.500000  1
  Pr  Pr1  1  0.108817  0.313569  0.015859  1
  Pr  Pr2  1  0.323328  0.015784  0.114991  1
  Pr  Pr3  1  0.015168  0.109355  0.312259  1
  Pr  Pr4  1  0.984833  0.890645  0.687742  1
  Pr  Pr5  1  0.676672  0.984217  0.885009  1
  Pr  Pr6  1  0.891183  0.686431  0.984141  1
  Ru  Ru7  1  0.000000  0.000000  0.000000  1
  Cl  Cl8  1  0.208371  0.680617  0.073379  1
  Cl  Cl9  1  0.443748  0.358675  0.158527  1
  Cl  Cl10  1  0.681410  0.072707  0.207199  1
  Cl  Cl11  1  0.928546  0.791042  0.319377  1
  Cl  Cl12  1  0.161191  0.446525  0.359810  1
  Cl  Cl13  1  0.357122  0.157155  0.445215  1
  Cl  Cl14  1  0.642878  0.842845  0.554786  1
  Cl  Cl15  1  0.838810  0.553475  0.640190  1
  Cl  Cl16  1  0.071455  0.208958  0.680624  1
  Cl  Cl17  1  0.318591  0.927294  0.792801  1
  Cl  Cl18  1  0.556252  0.641325  0.841474  1
  Cl  Cl19  1  0.791629  0.319383  0.926621  1
