# generated using pymatgen
data_Zr2TaNbSi2
_symmetry_space_group_name_H-M   'P 1'
_cell_length_a   3.66172000
_cell_length_b   7.01611800
_cell_length_c   8.51099500
_cell_angle_alpha   90.00000000
_cell_angle_beta   90.00000000
_cell_angle_gamma   90.00000000
_symmetry_Int_Tables_number   1
_chemical_formula_structural   Zr2TaNbSi2
_chemical_formula_sum   'Zr4 Ta2 Nb2 Si4'
_cell_volume   218.65647983
_cell_formula_units_Z   2
loop_
 _symmetry_equiv_pos_site_id
 _symmetry_equiv_pos_as_xyz
  1  'x, y, z'
loop_
 _atom_site_type_symbol
 _atom_site_label
 _atom_site_symmetry_multiplicity
 _atom_site_fract_x
 _atom_site_fract_y
 _atom_site_fract_z
 _atom_site_occupancy
  Zr  Zr0  1  0.250000  0.043251  0.332364  1
  Zr  Zr1  1  0.250000  0.543251  0.167636  1
  Zr  Zr2  1  0.750000  0.955034  0.667437  1
  Zr  Zr3  1  0.750000  0.455034  0.832563  1
  Ta  Ta4  1  0.750000  0.869308  0.059445  1
  Ta  Ta5  1  0.750000  0.369308  0.440555  1
  Nb  Nb6  1  0.250000  0.133360  0.940870  1
  Nb  Nb7  1  0.250000  0.633360  0.559130  1
  Si  Si8  1  0.250000  0.252900  0.638100  1
  Si  Si9  1  0.250000  0.752900  0.861900  1
  Si  Si10  1  0.750000  0.746147  0.358646  1
  Si  Si11  1  0.750000  0.246147  0.141354  1
