# generated using pymatgen
data_Nd4HoIr2
_symmetry_space_group_name_H-M   'P 1'
_cell_length_a   6.66588275
_cell_length_b   7.25129305
_cell_length_c   8.88619269
_cell_angle_alpha   96.30914296
_cell_angle_beta   112.02861853
_cell_angle_gamma   89.99999649
_symmetry_Int_Tables_number   1
_chemical_formula_structural   Nd4HoIr2
_chemical_formula_sum   'Nd8 Ho2 Ir4'
_cell_volume   395.36087913
_cell_formula_units_Z   2
loop_
 _symmetry_equiv_pos_site_id
 _symmetry_equiv_pos_as_xyz
  1  'x, y, z'
loop_
 _atom_site_type_symbol
 _atom_site_label
 _atom_site_symmetry_multiplicity
 _atom_site_fract_x
 _atom_site_fract_y
 _atom_site_fract_z
 _atom_site_occupancy
  Nd  Nd0  1  0.973872  0.922505  0.181280  1
  Nd  Nd1  1  0.792593  0.577495  0.818720  1
  Nd  Nd2  1  0.026128  0.077495  0.818720  1
  Nd  Nd3  1  0.207407  0.422505  0.181280  1
  Nd  Nd4  1  0.648557  0.813697  0.433241  1
  Nd  Nd5  1  0.215316  0.686303  0.566759  1
  Nd  Nd6  1  0.351443  0.186303  0.566759  1
  Nd  Nd7  1  0.784684  0.313697  0.433241  1
  Ho  Ho8  1  0.436651  0.750000  0.000000  1
  Ho  Ho9  1  0.563349  0.250000  0.000000  1
  Ir  Ir10  1  0.811334  0.570256  0.211234  1
  Ir  Ir11  1  0.600102  0.929744  0.788766  1
  Ir  Ir12  1  0.188666  0.429744  0.788766  1
  Ir  Ir13  1  0.399898  0.070256  0.211234  1
