# generated using pymatgen
data_Sr4LaNd(CoO3)4
_symmetry_space_group_name_H-M   'P 1'
_cell_length_a   6.59369904
_cell_length_b   6.58968403
_cell_length_c   6.58433246
_cell_angle_alpha   92.05485597
_cell_angle_beta   91.92377704
_cell_angle_gamma   91.86047690
_symmetry_Int_Tables_number   1
_chemical_formula_structural   Sr4LaNd(CoO3)4
_chemical_formula_sum   'Sr4 La1 Nd1 Co4 O12'
_cell_volume   285.58431561
_cell_formula_units_Z   1
loop_
 _symmetry_equiv_pos_site_id
 _symmetry_equiv_pos_as_xyz
  1  'x, y, z'
loop_
 _atom_site_type_symbol
 _atom_site_label
 _atom_site_symmetry_multiplicity
 _atom_site_fract_x
 _atom_site_fract_y
 _atom_site_fract_z
 _atom_site_occupancy
  Sr  Sr0  1  0.250053  0.619530  0.884234  1
  Sr  Sr1  1  0.612513  0.882336  0.249377  1
  Sr  Sr2  1  0.383340  0.113139  0.750164  1
  Sr  Sr3  1  0.119235  0.749068  0.384348  1
  La  La4  1  0.890027  0.251183  0.613251  1
  Nd  Nd5  1  0.749785  0.388192  0.114099  1
  Co  Co6  1  0.993693  0.003111  0.002525  1
  Co  Co7  1  0.746287  0.755399  0.749166  1
  Co  Co8  1  0.504061  0.494850  0.500710  1
  Co  Co9  1  0.256225  0.247028  0.245521  1
  O  O10  1  0.219161  0.406194  0.542852  1
  O  O11  1  0.417472  0.529831  0.215430  1
  O  O12  1  0.551718  0.217505  0.409777  1
  O  O13  1  0.904259  0.715373  0.044317  1
  O  O14  1  0.715504  0.054554  0.916331  1
  O  O15  1  0.029841  0.914177  0.717298  1
  O  O16  1  0.787312  0.571370  0.450358  1
  O  O17  1  0.602263  0.453377  0.785450  1
  O  O18  1  0.468637  0.777343  0.593998  1
  O  O19  1  0.071594  0.287479  0.954844  1
  O  O20  1  0.275566  0.966494  0.093545  1
  O  O21  1  0.951456  0.102465  0.282404  1
