# generated using pymatgen
data_Zr2Al9Ir2Os
_symmetry_space_group_name_H-M   'P 1'
_cell_length_a   7.47236534
_cell_length_b   7.47236568
_cell_length_c   9.28128500
_cell_angle_alpha   90.00000000
_cell_angle_beta   90.00000000
_cell_angle_gamma   119.58239949
_symmetry_Int_Tables_number   1
_chemical_formula_structural   Zr2Al9Ir2Os
_chemical_formula_sum   'Zr4 Al18 Ir4 Os2'
_cell_volume   450.67880801
_cell_formula_units_Z   2
loop_
 _symmetry_equiv_pos_site_id
 _symmetry_equiv_pos_as_xyz
  1  'x, y, z'
loop_
 _atom_site_type_symbol
 _atom_site_label
 _atom_site_symmetry_multiplicity
 _atom_site_fract_x
 _atom_site_fract_y
 _atom_site_fract_z
 _atom_site_occupancy
  Zr  Zr0  1  0.991878  0.674920  0.250000  1
  Zr  Zr1  1  0.008122  0.325080  0.750000  1
  Zr  Zr2  1  0.674920  0.991878  0.250000  1
  Zr  Zr3  1  0.325080  0.008122  0.750000  1
  Al  Al4  1  0.125705  0.125705  0.250000  1
  Al  Al5  1  0.874295  0.874295  0.750000  1
  Al  Al6  1  0.998449  0.334755  0.076739  1
  Al  Al7  1  0.001551  0.665245  0.923261  1
  Al  Al8  1  0.001551  0.665245  0.576739  1
  Al  Al9  1  0.334755  0.998449  0.423261  1
  Al  Al10  1  0.998449  0.334755  0.423261  1
  Al  Al11  1  0.665245  0.001551  0.576739  1
  Al  Al12  1  0.665245  0.001551  0.923261  1
  Al  Al13  1  0.334755  0.998449  0.076739  1
  Al  Al14  1  0.330596  0.330596  0.555294  1
  Al  Al15  1  0.669404  0.669404  0.444706  1
  Al  Al16  1  0.669404  0.669404  0.055294  1
  Al  Al17  1  0.330596  0.330596  0.944706  1
  Al  Al18  1  0.341158  0.555459  0.250000  1
  Al  Al19  1  0.658842  0.444541  0.750000  1
  Al  Al20  1  0.555459  0.341158  0.250000  1
  Al  Al21  1  0.444541  0.658842  0.750000  1
  Ir  Ir22  1  0.672341  0.327659  0.000000  1
  Ir  Ir23  1  0.327659  0.672341  0.000000  1
  Ir  Ir24  1  0.327659  0.672341  0.500000  1
  Ir  Ir25  1  0.672341  0.327659  0.500000  1
  Os  Os26  1  0.000000  0.000000  0.000000  1
  Os  Os27  1  0.000000  0.000000  0.500000  1
