# generated using pymatgen
data_Tb2Ho4BCCl6
_symmetry_space_group_name_H-M   'P 1'
_cell_length_a   9.29812448
_cell_length_b   9.29811812
_cell_length_c   9.38006968
_cell_angle_alpha   109.44787975
_cell_angle_beta   109.44785601
_cell_angle_gamma   109.16156425
_symmetry_Int_Tables_number   1
_chemical_formula_structural   Tb2Ho4BCCl6
_chemical_formula_sum   'Tb4 Ho8 B2 C2 Cl12'
_cell_volume   626.99964946
_cell_formula_units_Z   2
loop_
 _symmetry_equiv_pos_site_id
 _symmetry_equiv_pos_as_xyz
  1  'x, y, z'
loop_
 _atom_site_type_symbol
 _atom_site_label
 _atom_site_symmetry_multiplicity
 _atom_site_fract_x
 _atom_site_fract_y
 _atom_site_fract_z
 _atom_site_occupancy
  Tb  Tb0  1  0.481359  0.231359  0.462715  1
  Tb  Tb1  1  0.013615  0.486384  0.750000  1
  Tb  Tb2  1  0.268642  0.018642  0.037285  1
  Tb  Tb3  1  0.236385  0.263614  0.750000  1
  Ho  Ho4  1  0.465859  0.478090  0.234994  1
  Ho  Ho5  1  0.743096  0.230865  0.265006  1
  Ho  Ho6  1  0.744748  0.014886  0.478718  1
  Ho  Ho7  1  0.233969  0.463831  0.478717  1
  Ho  Ho8  1  0.269136  0.756904  0.234995  1
  Ho  Ho9  1  0.036169  0.266030  0.021282  1
  Ho  Ho10  1  0.021910  0.034142  0.265006  1
  Ho  Ho11  1  0.485113  0.755252  0.021283  1
  B  B12  1  0.998849  0.248848  0.497696  1
  B  B13  1  0.251152  0.501152  0.002304  1
  C  C14  1  0.248227  0.251773  0.250000  1
  C  C15  1  0.501773  0.998227  0.250000  1
  Cl  Cl16  1  0.255730  0.759341  0.746226  1
  Cl  Cl17  1  0.513118  0.509506  0.753775  1
  Cl  Cl18  1  0.986732  0.746148  0.997274  1
  Cl  Cl19  1  0.740657  0.244271  0.753775  1
  Cl  Cl20  1  0.990494  0.986880  0.746224  1
  Cl  Cl21  1  0.248872  0.989458  0.502725  1
  Cl  Cl22  1  0.753853  0.513269  0.502726  1
  Cl  Cl23  1  0.510544  0.251128  0.997275  1
  Cl  Cl24  1  0.754960  0.745039  0.249999  1
  Cl  Cl25  1  0.745299  0.995299  0.990598  1
  Cl  Cl26  1  0.995040  0.504961  0.250001  1
  Cl  Cl27  1  0.504701  0.754700  0.509402  1
