# generated using pymatgen
data_Tb12Co4Ni2Ir
_symmetry_space_group_name_H-M   'P 1'
_cell_length_a   11.38443800
_cell_length_b   8.32670702
_cell_length_c   11.15809171
_cell_angle_alpha   54.63964306
_cell_angle_beta   90.00000000
_cell_angle_gamma   90.00000000
_symmetry_Int_Tables_number   1
_chemical_formula_structural   Tb12Co4Ni2Ir
_chemical_formula_sum   'Tb24 Co8 Ni4 Ir2'
_cell_volume   862.60883091
_cell_formula_units_Z   2
loop_
 _symmetry_equiv_pos_site_id
 _symmetry_equiv_pos_as_xyz
  1  'x, y, z'
loop_
 _atom_site_type_symbol
 _atom_site_label
 _atom_site_symmetry_multiplicity
 _atom_site_fract_x
 _atom_site_fract_y
 _atom_site_fract_z
 _atom_site_occupancy
  Tb  Tb0  1  0.706458  0.238760  0.539025  1
  Tb  Tb1  1  0.206458  0.761240  0.960975  1
  Tb  Tb2  1  0.840444  0.495038  0.663438  1
  Tb  Tb3  1  0.340444  0.504962  0.836562  1
  Tb  Tb4  1  0.159556  0.504962  0.336562  1
  Tb  Tb5  1  0.659556  0.495038  0.163438  1
  Tb  Tb6  1  0.002355  0.834060  0.356254  1
  Tb  Tb7  1  0.502355  0.165940  0.143746  1
  Tb  Tb8  1  0.997645  0.165940  0.643746  1
  Tb  Tb9  1  0.497645  0.834060  0.856254  1
  Tb  Tb10  1  0.793542  0.238760  0.039025  1
  Tb  Tb11  1  0.293542  0.761240  0.460975  1
  Tb  Tb12  1  0.930749  0.769524  0.084748  1
  Tb  Tb13  1  0.430749  0.230476  0.415252  1
  Tb  Tb14  1  0.069251  0.230476  0.915252  1
  Tb  Tb15  1  0.569251  0.769524  0.584748  1
  Tb  Tb16  1  0.300132  0.244794  0.675396  1
  Tb  Tb17  1  0.800132  0.755206  0.824604  1
  Tb  Tb18  1  0.699868  0.755206  0.324604  1
  Tb  Tb19  1  0.199868  0.244794  0.175396  1
  Tb  Tb20  1  0.929043  0.263338  0.308983  1
  Tb  Tb21  1  0.429043  0.736662  0.191017  1
  Tb  Tb22  1  0.070957  0.736662  0.691017  1
  Tb  Tb23  1  0.570957  0.263338  0.808983  1
  Co  Co24  1  0.397751  0.493155  0.102670  1
  Co  Co25  1  0.897751  0.506845  0.397330  1
  Co  Co26  1  0.602249  0.506845  0.897330  1
  Co  Co27  1  0.102249  0.493155  0.602670  1
  Co  Co28  1  0.816838  0.099287  0.845385  1
  Co  Co29  1  0.316838  0.900713  0.654615  1
  Co  Co30  1  0.183162  0.900713  0.154615  1
  Co  Co31  1  0.683162  0.099287  0.345385  1
  Ni  Ni32  1  0.674564  0.903270  0.028701  1
  Ni  Ni33  1  0.174564  0.096730  0.471299  1
  Ni  Ni34  1  0.325436  0.096730  0.971299  1
  Ni  Ni35  1  0.825436  0.903270  0.528701  1
  Ir  Ir36  1  0.500000  0.500000  0.500000  1
  Ir  Ir37  1  0.000000  0.500000  0.000000  1
