# generated using pymatgen
data_Y3Er5Cd2NiOs
_symmetry_space_group_name_H-M   'P 1'
_cell_length_a   9.55153368
_cell_length_b   9.55153409
_cell_length_c   9.64954500
_cell_angle_alpha   59.65997178
_cell_angle_beta   59.65997035
_cell_angle_gamma   59.44016806
_symmetry_Int_Tables_number   1
_chemical_formula_structural   Y3Er5Cd2NiOs
_chemical_formula_sum   'Y6 Er10 Cd4 Ni2 Os2'
_cell_volume   616.64398454
_cell_formula_units_Z   2
loop_
 _symmetry_equiv_pos_site_id
 _symmetry_equiv_pos_as_xyz
  1  'x, y, z'
loop_
 _atom_site_type_symbol
 _atom_site_label
 _atom_site_symmetry_multiplicity
 _atom_site_fract_x
 _atom_site_fract_y
 _atom_site_fract_z
 _atom_site_occupancy
  Y  Y0  1  0.190352  0.804839  0.815170  1
  Y  Y1  1  0.804839  0.190352  0.189639  1
  Y  Y2  1  0.804839  0.190352  0.815170  1
  Y  Y3  1  0.190352  0.804839  0.189639  1
  Y  Y4  1  0.814868  0.814868  0.185132  1
  Y  Y5  1  0.191998  0.191998  0.808002  1
  Er  Er6  1  0.600462  0.600462  0.590623  1
  Er  Er7  1  0.600462  0.600462  0.208452  1
  Er  Er8  1  0.601656  0.207255  0.595544  1
  Er  Er9  1  0.207255  0.601656  0.595544  1
  Er  Er10  1  0.062020  0.435165  0.439677  1
  Er  Er11  1  0.435165  0.062020  0.063138  1
  Er  Er12  1  0.435165  0.062020  0.439677  1
  Er  Er13  1  0.062020  0.435165  0.063138  1
  Er  Er14  1  0.437700  0.437700  0.062300  1
  Er  Er15  1  0.060497  0.060497  0.439503  1
  Cd  Cd16  1  0.828155  0.828155  0.833698  1
  Cd  Cd17  1  0.828155  0.828155  0.509991  1
  Cd  Cd18  1  0.829050  0.506693  0.832127  1
  Cd  Cd19  1  0.506693  0.829050  0.832127  1
  Ni  Ni20  1  0.391585  0.828119  0.390149  1
  Ni  Ni21  1  0.828119  0.391585  0.390149  1
  Os  Os22  1  0.394296  0.394296  0.387926  1
  Os  Os23  1  0.394296  0.394296  0.823484  1
