# generated using pymatgen
data_SrTb6IrBr12
_symmetry_space_group_name_H-M   'P 1'
_cell_length_a   9.31402147
_cell_length_b   9.31402122
_cell_length_c   9.31402095
_cell_angle_alpha   106.09966554
_cell_angle_beta   106.09966500
_cell_angle_gamma   106.09966414
_symmetry_Int_Tables_number   1
_chemical_formula_structural   SrTb6IrBr12
_chemical_formula_sum   'Sr1 Tb6 Ir1 Br12'
_cell_volume   688.76956637
_cell_formula_units_Z   1
loop_
 _symmetry_equiv_pos_site_id
 _symmetry_equiv_pos_as_xyz
  1  'x, y, z'
loop_
 _atom_site_type_symbol
 _atom_site_label
 _atom_site_symmetry_multiplicity
 _atom_site_fract_x
 _atom_site_fract_y
 _atom_site_fract_z
 _atom_site_occupancy
  Sr  Sr0  1  0.500000  0.500000  0.500000  1
  Tb  Tb1  1  0.310028  0.103016  0.022105  1
  Tb  Tb2  1  0.022105  0.310028  0.103016  1
  Tb  Tb3  1  0.103016  0.022105  0.310028  1
  Tb  Tb4  1  0.689972  0.896984  0.977895  1
  Tb  Tb5  1  0.977895  0.689972  0.896984  1
  Tb  Tb6  1  0.896984  0.977895  0.689972  1
  Ir  Ir7  1  0.000000  0.000000  0.000000  1
  Br  Br8  1  0.677878  0.216776  0.071725  1
  Br  Br9  1  0.071725  0.677878  0.216776  1
  Br  Br10  1  0.216776  0.071725  0.677878  1
  Br  Br11  1  0.322122  0.783224  0.928275  1
  Br  Br12  1  0.928275  0.322122  0.783224  1
  Br  Br13  1  0.783224  0.928275  0.322122  1
  Br  Br14  1  0.449289  0.142803  0.366583  1
  Br  Br15  1  0.366583  0.449289  0.142803  1
  Br  Br16  1  0.142803  0.366583  0.449289  1
  Br  Br17  1  0.550711  0.857197  0.633417  1
  Br  Br18  1  0.633417  0.550711  0.857197  1
  Br  Br19  1  0.857197  0.633417  0.550711  1
