# generated using pymatgen
data_Nd8Si13Au3
_symmetry_space_group_name_H-M   'P 1'
_cell_length_a   8.28505500
_cell_length_b   8.28507378
_cell_length_c   8.57006000
_cell_angle_alpha   89.99971453
_cell_angle_beta   90.00002766
_cell_angle_gamma   119.99973531
_symmetry_Int_Tables_number   1
_chemical_formula_structural   Nd8Si13Au3
_chemical_formula_sum   'Nd8 Si13 Au3'
_cell_volume   509.45687625
_cell_formula_units_Z   1
loop_
 _symmetry_equiv_pos_site_id
 _symmetry_equiv_pos_as_xyz
  1  'x, y, z'
loop_
 _atom_site_type_symbol
 _atom_site_label
 _atom_site_symmetry_multiplicity
 _atom_site_fract_x
 _atom_site_fract_y
 _atom_site_fract_z
 _atom_site_occupancy
  Nd  Nd0  1  0.999999  0.000000  0.753452  1
  Nd  Nd1  1  0.000000  0.000000  0.246656  1
  Nd  Nd2  1  0.495295  0.504702  0.756890  1
  Nd  Nd3  1  0.495297  0.990592  0.756891  1
  Nd  Nd4  1  0.009409  0.504703  0.756891  1
  Nd  Nd5  1  0.496275  0.503733  0.243044  1
  Nd  Nd6  1  0.007459  0.503734  0.243044  1
  Nd  Nd7  1  0.496270  0.992541  0.243041  1
  Si  Si8  1  0.836546  0.163453  0.999602  1
  Si  Si9  1  0.836544  0.673091  0.999601  1
  Si  Si10  1  0.326909  0.163455  0.999602  1
  Si  Si11  1  0.835738  0.164262  0.500491  1
  Si  Si12  1  0.835739  0.671474  0.500490  1
  Si  Si13  1  0.328525  0.164263  0.500491  1
  Si  Si14  1  0.163450  0.836546  0.499571  1
  Si  Si15  1  0.673096  0.836548  0.499570  1
  Si  Si16  1  0.163452  0.326903  0.499570  1
  Si  Si17  1  0.166172  0.833826  0.000646  1
  Si  Si18  1  0.667657  0.833828  0.000646  1
  Si  Si19  1  0.166171  0.332343  0.000646  1
  Si  Si20  1  0.333331  0.666668  0.000982  1
  Au  Au21  1  0.666666  0.333333  0.998052  1
  Au  Au22  1  0.666667  0.333334  0.501591  1
  Au  Au23  1  0.333333  0.666666  0.498537  1
