# generated using pymatgen
data_Mn2Al11ZnCr
_symmetry_space_group_name_H-M   'P 1'
_cell_length_a   5.07283424
_cell_length_b   5.10962941
_cell_length_c   8.90954413
_cell_angle_alpha   105.50458926
_cell_angle_beta   86.60112667
_cell_angle_gamma   100.59776552
_symmetry_Int_Tables_number   1
_chemical_formula_structural   Mn2Al11ZnCr
_chemical_formula_sum   'Mn2 Al11 Zn1 Cr1'
_cell_volume   218.72566165
_cell_formula_units_Z   1
loop_
 _symmetry_equiv_pos_site_id
 _symmetry_equiv_pos_as_xyz
  1  'x, y, z'
loop_
 _atom_site_type_symbol
 _atom_site_label
 _atom_site_symmetry_multiplicity
 _atom_site_fract_x
 _atom_site_fract_y
 _atom_site_fract_z
 _atom_site_occupancy
  Mn  Mn0  1  0.671431  0.612955  0.867831  1
  Mn  Mn1  1  0.321161  0.379077  0.130847  1
  Al  Al2  1  0.018730  0.985981  0.979929  1
  Al  Al3  1  0.914730  0.838084  0.663532  1
  Al  Al4  1  0.017369  0.134049  0.289913  1
  Al  Al5  1  0.887300  0.308901  0.609849  1
  Al  Al6  1  0.831683  0.543861  0.132644  1
  Al  Al7  1  0.159333  0.469033  0.886845  1
  Al  Al8  1  0.478057  0.887146  0.132651  1
  Al  Al9  1  0.557642  0.117728  0.893823  1
  Al  Al10  1  0.550879  0.334814  0.368696  1
  Al  Al11  1  0.404334  0.667341  0.636777  1
  Al  Al12  1  0.148758  0.701025  0.376353  1
  Zn  Zn13  1  0.373309  0.160515  0.626513  1
  Cr  Cr14  1  0.665285  0.859492  0.403798  1
