# generated using pymatgen
data_Ca2Si7Ni12
_symmetry_space_group_name_H-M   'P 1'
_cell_length_a   9.27774600
_cell_length_b   9.27774501
_cell_length_c   3.64176800
_cell_angle_alpha   90.00000000
_cell_angle_beta   90.00000000
_cell_angle_gamma   120.00001068
_symmetry_Int_Tables_number   1
_chemical_formula_structural   Ca2Si7Ni12
_chemical_formula_sum   'Ca2 Si7 Ni12'
_cell_volume   271.47370551
_cell_formula_units_Z   1
loop_
 _symmetry_equiv_pos_site_id
 _symmetry_equiv_pos_as_xyz
  1  'x, y, z'
loop_
 _atom_site_type_symbol
 _atom_site_label
 _atom_site_symmetry_multiplicity
 _atom_site_fract_x
 _atom_site_fract_y
 _atom_site_fract_z
 _atom_site_occupancy
  Ca  Ca0  1  0.000000  0.000000  0.000000  1
  Ca  Ca1  1  0.666667  0.333333  0.500000  1
  Si  Si2  1  0.615370  0.550282  0.000000  1
  Si  Si3  1  0.934912  0.384630  0.000000  1
  Si  Si4  1  0.449718  0.065088  0.000000  1
  Si  Si5  1  0.734677  0.962334  0.500000  1
  Si  Si6  1  0.227657  0.265323  0.500000  1
  Si  Si7  1  0.037666  0.772343  0.500000  1
  Si  Si8  1  0.333333  0.666667  0.000000  1
  Ni  Ni9  1  0.388738  0.283318  0.000000  1
  Ni  Ni10  1  0.894579  0.611262  0.000000  1
  Ni  Ni11  1  0.716682  0.105421  0.000000  1
  Ni  Ni12  1  0.610317  0.792850  0.000000  1
  Ni  Ni13  1  0.182533  0.389683  0.000000  1
  Ni  Ni14  1  0.207150  0.817467  0.000000  1
  Ni  Ni15  1  0.761656  0.718074  0.500000  1
  Ni  Ni16  1  0.956419  0.238344  0.500000  1
  Ni  Ni17  1  0.281926  0.043581  0.500000  1
  Ni  Ni18  1  0.427613  0.550434  0.500000  1
  Ni  Ni19  1  0.122821  0.572387  0.500000  1
  Ni  Ni20  1  0.449566  0.877179  0.500000  1
