# generated using pymatgen
data_Dy3LuCo18(P6Ru)2
_symmetry_space_group_name_H-M   'P 1'
_cell_length_a   3.66450600
_cell_length_b   10.31450896
_cell_length_c   11.73637509
_cell_angle_alpha   89.95059441
_cell_angle_beta   90.00000000
_cell_angle_gamma   90.00000000
_symmetry_Int_Tables_number   1
_chemical_formula_structural   Dy3LuCo18(P6Ru)2
_chemical_formula_sum   'Dy3 Lu1 Co18 P12 Ru2'
_cell_volume   443.60641109
_cell_formula_units_Z   1
loop_
 _symmetry_equiv_pos_site_id
 _symmetry_equiv_pos_as_xyz
  1  'x, y, z'
loop_
 _atom_site_type_symbol
 _atom_site_label
 _atom_site_symmetry_multiplicity
 _atom_site_fract_x
 _atom_site_fract_y
 _atom_site_fract_z
 _atom_site_occupancy
  Dy  Dy0  1  0.250000  0.582098  0.702357  1
  Dy  Dy1  1  0.250000  0.917586  0.202235  1
  Dy  Dy2  1  0.750000  0.086440  0.795311  1
  Lu  Lu3  1  0.750000  0.414018  0.295924  1
  Co  Co4  1  0.750000  0.283715  0.008156  1
  Co  Co5  1  0.750000  0.216539  0.507897  1
  Co  Co6  1  0.250000  0.405406  0.485760  1
  Co  Co7  1  0.250000  0.094165  0.987823  1
  Co  Co8  1  0.750000  0.589869  0.509626  1
  Co  Co9  1  0.750000  0.909387  0.010170  1
  Co  Co10  1  0.250000  0.221649  0.176991  1
  Co  Co11  1  0.250000  0.279864  0.676346  1
  Co  Co12  1  0.750000  0.778261  0.823063  1
  Co  Co13  1  0.750000  0.721132  0.322855  1
  Co  Co14  1  0.250000  0.886609  0.701559  1
  Co  Co15  1  0.250000  0.611747  0.203000  1
  Co  Co16  1  0.750000  0.117381  0.300499  1
  Co  Co17  1  0.750000  0.384045  0.801202  1
  Co  Co18  1  0.250000  0.464509  0.933744  1
  Co  Co19  1  0.250000  0.036259  0.431812  1
  Co  Co20  1  0.750000  0.531872  0.070805  1
  Co  Co21  1  0.750000  0.967398  0.568649  1
  P  P22  1  0.250000  0.417124  0.114217  1
  P  P23  1  0.250000  0.083176  0.611713  1
  P  P24  1  0.750000  0.578717  0.888046  1
  P  P25  1  0.750000  0.921428  0.386696  1
  P  P26  1  0.250000  0.270892  0.869316  1
  P  P27  1  0.250000  0.231190  0.368138  1
  P  P28  1  0.750000  0.728619  0.132853  1
  P  P29  1  0.750000  0.771075  0.632512  1
  P  P30  1  0.250000  0.593250  0.390007  1
  P  P31  1  0.250000  0.905120  0.890369  1
  P  P32  1  0.750000  0.396789  0.608483  1
  P  P33  1  0.750000  0.103212  0.108313  1
  Ru  Ru34  1  0.250000  0.715310  0.992355  1
  Ru  Ru35  1  0.250000  0.784147  0.491199  1
