# generated using pymatgen
data_Ca3TmAl16(SiIr3)2
_symmetry_space_group_name_H-M   'P 1'
_cell_length_a   7.54520004
_cell_length_b   7.55219310
_cell_length_c   9.43888100
_cell_angle_alpha   90.00000000
_cell_angle_beta   90.00000000
_cell_angle_gamma   119.53445846
_symmetry_Int_Tables_number   1
_chemical_formula_structural   Ca3TmAl16(SiIr3)2
_chemical_formula_sum   'Ca3 Tm1 Al16 Si2 Ir6'
_cell_volume   467.96487092
_cell_formula_units_Z   1
loop_
 _symmetry_equiv_pos_site_id
 _symmetry_equiv_pos_as_xyz
  1  'x, y, z'
loop_
 _atom_site_type_symbol
 _atom_site_label
 _atom_site_symmetry_multiplicity
 _atom_site_fract_x
 _atom_site_fract_y
 _atom_site_fract_z
 _atom_site_occupancy
  Ca  Ca0  1  0.993147  0.676531  0.250000  1
  Ca  Ca1  1  0.004224  0.324406  0.750000  1
  Ca  Ca2  1  0.677712  0.994053  0.250000  1
  Tm  Tm3  1  0.322411  0.001827  0.750000  1
  Al  Al4  1  0.001617  0.336597  0.071555  1
  Al  Al5  1  0.999146  0.662645  0.925114  1
  Al  Al6  1  0.999146  0.662645  0.574886  1
  Al  Al7  1  0.336680  0.001703  0.427519  1
  Al  Al8  1  0.001617  0.336597  0.428445  1
  Al  Al9  1  0.663824  0.000220  0.575224  1
  Al  Al10  1  0.663824  0.000220  0.924776  1
  Al  Al11  1  0.336680  0.001703  0.072481  1
  Al  Al12  1  0.334286  0.334403  0.556123  1
  Al  Al13  1  0.663967  0.663963  0.453619  1
  Al  Al14  1  0.663967  0.663963  0.046381  1
  Al  Al15  1  0.334286  0.334403  0.943877  1
  Al  Al16  1  0.332653  0.545923  0.250000  1
  Al  Al17  1  0.663177  0.450880  0.750000  1
  Al  Al18  1  0.545948  0.333389  0.250000  1
  Al  Al19  1  0.454399  0.668808  0.750000  1
  Si  Si20  1  0.133739  0.135028  0.250000  1
  Si  Si21  1  0.871020  0.868236  0.750000  1
  Ir  Ir22  1  0.669864  0.328706  0.998994  1
  Ir  Ir23  1  0.330075  0.672096  0.998965  1
  Ir  Ir24  1  0.330075  0.672096  0.501035  1
  Ir  Ir25  1  0.669864  0.328706  0.501006  1
  Ir  Ir26  1  0.001326  0.000129  0.997811  1
  Ir  Ir27  1  0.001326  0.000129  0.502189  1
