# generated using pymatgen
data_Dy5Nb3Co9P12Ru7
_symmetry_space_group_name_H-M   'P 1'
_cell_length_a   12.50503860
_cell_length_b   12.47362348
_cell_length_c   3.74932200
_cell_angle_alpha   90.00000000
_cell_angle_beta   90.00000000
_cell_angle_gamma   119.84406256
_symmetry_Int_Tables_number   1
_chemical_formula_structural   Dy5Nb3Co9P12Ru7
_chemical_formula_sum   'Dy5 Nb3 Co9 P12 Ru7'
_cell_volume   507.27249645
_cell_formula_units_Z   1
loop_
 _symmetry_equiv_pos_site_id
 _symmetry_equiv_pos_as_xyz
  1  'x, y, z'
loop_
 _atom_site_type_symbol
 _atom_site_label
 _atom_site_symmetry_multiplicity
 _atom_site_fract_x
 _atom_site_fract_y
 _atom_site_fract_z
 _atom_site_occupancy
  Dy  Dy0  1  0.664597  0.333684  0.000000  1
  Dy  Dy1  1  0.333487  0.666708  0.000000  1
  Dy  Dy2  1  0.183091  0.181540  0.500000  1
  Dy  Dy3  1  0.818301  0.997368  0.500000  1
  Dy  Dy4  1  0.999517  0.819229  0.500000  1
  Nb  Nb5  1  0.562821  0.561831  0.000000  1
  Nb  Nb6  1  0.434830  0.998687  0.000000  1
  Nb  Nb7  1  0.004837  0.441989  0.000000  1
  Co  Co8  1  0.804037  0.632266  0.000000  1
  Co  Co9  1  0.366749  0.171605  0.000000  1
  Co  Co10  1  0.195258  0.828545  0.000000  1
  Co  Co11  1  0.631365  0.802381  0.000000  1
  Co  Co12  1  0.175618  0.369920  0.000000  1
  Co  Co13  1  0.721085  0.720887  0.500000  1
  Co  Co14  1  0.277571  0.999733  0.500000  1
  Co  Co15  1  0.007277  0.282260  0.500000  1
  Co  Co16  1  0.999926  0.999146  0.000000  1
  P  P17  1  0.356239  0.355958  0.000000  1
  P  P18  1  0.639391  0.995049  0.000000  1
  P  P19  1  0.999838  0.645786  0.000000  1
  P  P20  1  0.835737  0.313660  0.500000  1
  P  P21  1  0.688545  0.524084  0.500000  1
  P  P22  1  0.474396  0.163742  0.500000  1
  P  P23  1  0.310705  0.835266  0.500000  1
  P  P24  1  0.523584  0.687205  0.500000  1
  P  P25  1  0.166254  0.477408  0.500000  1
  P  P26  1  0.821019  0.821251  0.000000  1
  P  P27  1  0.178307  0.000087  0.000000  1
  P  P28  1  0.005629  0.180299  0.000000  1
  Ru  Ru29  1  0.826684  0.195926  0.000000  1
  Ru  Ru30  1  0.641900  0.124276  0.500000  1
  Ru  Ru31  1  0.873104  0.520566  0.500000  1
  Ru  Ru32  1  0.479545  0.352320  0.500000  1
  Ru  Ru33  1  0.126947  0.648667  0.500000  1
  Ru  Ru34  1  0.518200  0.870574  0.500000  1
  Ru  Ru35  1  0.353609  0.480096  0.500000  1
