# generated using pymatgen
data_LiTiAlRh
_symmetry_space_group_name_H-M   'P 1'
_cell_length_a   4.32482757
_cell_length_b   4.32482748
_cell_length_c   4.32482800
_cell_angle_alpha   60.00001129
_cell_angle_beta   60.00001204
_cell_angle_gamma   59.99999845
_symmetry_Int_Tables_number   1
_chemical_formula_structural   LiTiAlRh
_chemical_formula_sum   'Li1 Ti1 Al1 Rh1'
_cell_volume   57.19940332
_cell_formula_units_Z   1
loop_
 _symmetry_equiv_pos_site_id
 _symmetry_equiv_pos_as_xyz
  1  'x, y, z'
loop_
 _atom_site_type_symbol
 _atom_site_label
 _atom_site_symmetry_multiplicity
 _atom_site_fract_x
 _atom_site_fract_y
 _atom_site_fract_z
 _atom_site_occupancy
  Li  Li0  1  0.000000  0.000000  0.000000  1
  Ti  Ti1  1  0.250000  0.250000  0.250000  1
  Al  Al2  1  0.750000  0.750000  0.750000  1
  Rh  Rh3  1  0.500000  0.500000  0.500000  1
