# generated using pymatgen
data_Pa4Ti5NbGe8
_symmetry_space_group_name_H-M   'P 1'
_cell_length_a   7.13135514
_cell_length_b   7.07908809
_cell_length_c   7.18284234
_cell_angle_alpha   69.82140600
_cell_angle_beta   89.98102158
_cell_angle_gamma   90.00560843
_symmetry_Int_Tables_number   1
_chemical_formula_structural   Pa4Ti5NbGe8
_chemical_formula_sum   'Pa4 Ti5 Nb1 Ge8'
_cell_volume   340.35833650
_cell_formula_units_Z   1
loop_
 _symmetry_equiv_pos_site_id
 _symmetry_equiv_pos_as_xyz
  1  'x, y, z'
loop_
 _atom_site_type_symbol
 _atom_site_label
 _atom_site_symmetry_multiplicity
 _atom_site_fract_x
 _atom_site_fract_y
 _atom_site_fract_z
 _atom_site_occupancy
  Pa  Pa0  1  0.670535  0.942833  0.687931  1
  Pa  Pa1  1  0.329465  0.057167  0.312069  1
  Pa  Pa2  1  0.169097  0.560019  0.311734  1
  Pa  Pa3  1  0.830903  0.439981  0.688266  1
  Ti  Ti4  1  0.665551  0.747964  0.251197  1
  Ti  Ti5  1  0.334449  0.252036  0.748803  1
  Ti  Ti6  1  0.164617  0.753771  0.749894  1
  Ti  Ti7  1  0.835383  0.246229  0.250106  1
  Ti  Ti8  1  0.500000  0.500000  0.000000  1
  Nb  Nb9  1  0.000000  0.000000  0.000000  1
  Ge  Ge10  1  0.952581  0.855575  0.413765  1
  Ge  Ge11  1  0.047419  0.144425  0.586235  1
  Ge  Ge12  1  0.453619  0.642346  0.590447  1
  Ge  Ge13  1  0.546381  0.357654  0.409553  1
  Ge  Ge14  1  0.862605  0.631917  0.001865  1
  Ge  Ge15  1  0.137395  0.368083  0.998135  1
  Ge  Ge16  1  0.367845  0.863464  0.998164  1
  Ge  Ge17  1  0.632155  0.136536  0.001836  1
