# generated using pymatgen
data_Ho3Lu(ScSb)6
_symmetry_space_group_name_H-M   'P 1'
_cell_length_a   7.76973200
_cell_length_b   8.92698000
_cell_length_c   11.56888600
_cell_angle_alpha   90.00000000
_cell_angle_beta   90.00000000
_cell_angle_gamma   90.00000000
_symmetry_Int_Tables_number   1
_chemical_formula_structural   Ho3Lu(ScSb)6
_chemical_formula_sum   'Ho6 Lu2 Sc12 Sb12'
_cell_volume   802.42073459
_cell_formula_units_Z   2
loop_
 _symmetry_equiv_pos_site_id
 _symmetry_equiv_pos_as_xyz
  1  'x, y, z'
loop_
 _atom_site_type_symbol
 _atom_site_label
 _atom_site_symmetry_multiplicity
 _atom_site_fract_x
 _atom_site_fract_y
 _atom_site_fract_z
 _atom_site_occupancy
  Ho  Ho0  1  0.184524  0.750000  0.721518  1
  Ho  Ho1  1  0.684524  0.750000  0.778482  1
  Ho  Ho2  1  0.816196  0.250000  0.278750  1
  Ho  Ho3  1  0.316196  0.250000  0.221250  1
  Ho  Ho4  1  0.851577  0.750000  0.283638  1
  Ho  Ho5  1  0.351577  0.750000  0.216362  1
  Lu  Lu6  1  0.148226  0.250000  0.717144  1
  Lu  Lu7  1  0.648226  0.250000  0.782856  1
  Sc  Sc8  1  0.193790  0.562068  0.441092  1
  Sc  Sc9  1  0.693790  0.937932  0.058908  1
  Sc  Sc10  1  0.806025  0.062299  0.560072  1
  Sc  Sc11  1  0.306025  0.437701  0.939928  1
  Sc  Sc12  1  0.806025  0.437701  0.560072  1
  Sc  Sc13  1  0.306025  0.062299  0.939928  1
  Sc  Sc14  1  0.193790  0.937932  0.441092  1
  Sc  Sc15  1  0.693790  0.562068  0.058908  1
  Sc  Sc16  1  0.024768  0.750000  0.989846  1
  Sc  Sc17  1  0.524768  0.750000  0.510154  1
  Sc  Sc18  1  0.975368  0.250000  0.009050  1
  Sc  Sc19  1  0.475368  0.250000  0.490950  1
  Sb  Sb20  1  0.935655  0.494604  0.832193  1
  Sb  Sb21  1  0.435655  0.005396  0.667807  1
  Sb  Sb22  1  0.064255  0.996386  0.166678  1
  Sb  Sb23  1  0.564255  0.503614  0.333322  1
  Sb  Sb24  1  0.064255  0.503614  0.166678  1
  Sb  Sb25  1  0.564255  0.996386  0.333322  1
  Sb  Sb26  1  0.935655  0.005396  0.832193  1
  Sb  Sb27  1  0.435655  0.494604  0.667807  1
  Sb  Sb28  1  0.908999  0.750000  0.539125  1
  Sb  Sb29  1  0.408999  0.750000  0.960875  1
  Sb  Sb30  1  0.090890  0.250000  0.463030  1
  Sb  Sb31  1  0.590890  0.250000  0.036970  1
