# generated using pymatgen
data_La4CeGa2Ru3
_symmetry_space_group_name_H-M   'P 1'
_cell_length_a   8.71064726
_cell_length_b   8.60828761
_cell_length_c   8.57942335
_cell_angle_alpha   110.23255569
_cell_angle_beta   109.19936666
_cell_angle_gamma   110.36666948
_symmetry_Int_Tables_number   1
_chemical_formula_structural   La4CeGa2Ru3
_chemical_formula_sum   'La8 Ce2 Ga4 Ru6'
_cell_volume   486.53269565
_cell_formula_units_Z   2
loop_
 _symmetry_equiv_pos_site_id
 _symmetry_equiv_pos_as_xyz
  1  'x, y, z'
loop_
 _atom_site_type_symbol
 _atom_site_label
 _atom_site_symmetry_multiplicity
 _atom_site_fract_x
 _atom_site_fract_y
 _atom_site_fract_z
 _atom_site_occupancy
  La  La0  1  0.253916  0.197584  0.943707  1
  La  La1  1  0.786156  0.790552  0.783716  1
  La  La2  1  0.310376  0.558678  0.754179  1
  La  La3  1  0.754540  0.307757  0.559846  1
  La  La4  1  0.557991  0.752398  0.305841  1
  La  La5  1  0.724134  0.502479  0.998702  1
  La  La6  1  0.995101  0.715933  0.498691  1
  La  La7  1  0.500565  0.992025  0.716761  1
  Ce  Ce8  1  0.947635  0.250721  0.199732  1
  Ce  Ce9  1  0.198327  0.946133  0.249867  1
  Ga  Ga10  1  0.410543  0.405305  0.407610  1
  Ga  Ga11  1  0.089470  0.492609  0.003119  1
  Ga  Ga12  1  0.002025  0.088895  0.494975  1
  Ga  Ga13  1  0.502092  0.012050  0.095934  1
  Ru  Ru14  1  0.874612  0.118908  0.739338  1
  Ru  Ru15  1  0.758528  0.914885  0.122556  1
  Ru  Ru16  1  0.128301  0.765410  0.921927  1
  Ru  Ru17  1  0.219323  0.584246  0.361357  1
  Ru  Ru18  1  0.358847  0.216664  0.589797  1
  Ru  Ru19  1  0.627522  0.386767  0.252346  1
