# generated using pymatgen
data_Pr3Ag(Pt2O7)2
_symmetry_space_group_name_H-M   'P 1'
_cell_length_a   7.33891321
_cell_length_b   7.33891353
_cell_length_c   7.33891114
_cell_angle_alpha   61.31391481
_cell_angle_beta   61.31391373
_cell_angle_gamma   61.31390515
_symmetry_Int_Tables_number   1
_chemical_formula_structural   Pr3Ag(Pt2O7)2
_chemical_formula_sum   'Pr3 Ag1 Pt4 O14'
_cell_volume   287.75314524
_cell_formula_units_Z   1
loop_
 _symmetry_equiv_pos_site_id
 _symmetry_equiv_pos_as_xyz
  1  'x, y, z'
loop_
 _atom_site_type_symbol
 _atom_site_label
 _atom_site_symmetry_multiplicity
 _atom_site_fract_x
 _atom_site_fract_y
 _atom_site_fract_z
 _atom_site_occupancy
  Pr  Pr0  1  0.625000  0.625000  0.125000  1
  Pr  Pr1  1  0.625000  0.125000  0.625000  1
  Pr  Pr2  1  0.125000  0.625000  0.625000  1
  Ag  Ag3  1  0.625000  0.625000  0.625000  1
  Pt  Pt4  1  0.125000  0.125000  0.625000  1
  Pt  Pt5  1  0.125000  0.625000  0.125000  1
  Pt  Pt6  1  0.625000  0.125000  0.125000  1
  Pt  Pt7  1  0.125000  0.125000  0.125000  1
  O  O8  1  0.508845  0.508845  0.508845  1
  O  O9  1  0.741155  0.741155  0.741155  1
  O  O10  1  0.451707  0.054788  0.451707  1
  O  O11  1  0.212171  0.790451  0.212171  1
  O  O12  1  0.451707  0.451707  0.054788  1
  O  O13  1  0.054788  0.451707  0.451707  1
  O  O14  1  0.459549  0.037829  0.037829  1
  O  O15  1  0.037829  0.037829  0.459549  1
  O  O16  1  0.037829  0.459549  0.037829  1
  O  O17  1  0.790451  0.212171  0.212171  1
  O  O18  1  0.195212  0.798293  0.798293  1
  O  O19  1  0.798293  0.195212  0.798293  1
  O  O20  1  0.212171  0.212171  0.790451  1
  O  O21  1  0.798293  0.798293  0.195212  1
