# generated using pymatgen
data_Er4Ga4Sn2Ir7
_symmetry_space_group_name_H-M   'P 1'
_cell_length_a   7.36406989
_cell_length_b   7.36406891
_cell_length_c   7.38693737
_cell_angle_alpha   109.48813399
_cell_angle_beta   109.48812676
_cell_angle_gamma   109.31156221
_symmetry_Int_Tables_number   1
_chemical_formula_structural   Er4Ga4Sn2Ir7
_chemical_formula_sum   'Er4 Ga4 Sn2 Ir7'
_cell_volume   308.85161730
_cell_formula_units_Z   1
loop_
 _symmetry_equiv_pos_site_id
 _symmetry_equiv_pos_as_xyz
  1  'x, y, z'
loop_
 _atom_site_type_symbol
 _atom_site_label
 _atom_site_symmetry_multiplicity
 _atom_site_fract_x
 _atom_site_fract_y
 _atom_site_fract_z
 _atom_site_occupancy
  Er  Er0  1  0.006634  0.006634  0.464753  1
  Er  Er1  1  0.007402  0.507402  0.014803  1
  Er  Er2  1  0.507402  0.007402  0.014803  1
  Er  Er3  1  0.458119  0.458119  0.464753  1
  Ga  Ga4  1  0.677507  0.677507  0.986290  1
  Ga  Ga5  1  0.330080  0.993011  0.323090  1
  Ga  Ga6  1  0.993011  0.330080  0.323090  1
  Ga  Ga7  1  0.308783  0.308783  0.986290  1
  Sn  Sn8  1  0.699993  0.992280  0.692273  1
  Sn  Sn9  1  0.992280  0.699993  0.692273  1
  Ir  Ir10  1  0.751675  0.251675  0.503350  1
  Ir  Ir11  1  0.741280  0.500837  0.242117  1
  Ir  Ir12  1  0.501429  0.250312  0.751740  1
  Ir  Ir13  1  0.250312  0.501429  0.751740  1
  Ir  Ir14  1  0.251675  0.751675  0.503350  1
  Ir  Ir15  1  0.500837  0.741280  0.242117  1
  Ir  Ir16  1  0.021584  0.021584  0.043167  1
