# generated using pymatgen
data_Y3Ho5(BCl6)2
_symmetry_space_group_name_H-M   'P 1'
_cell_length_a   3.86369600
_cell_length_b   12.62913524
_cell_length_c   13.09375925
_cell_angle_alpha   90.02226081
_cell_angle_beta   90.00000000
_cell_angle_gamma   90.00000000
_symmetry_Int_Tables_number   1
_chemical_formula_structural   Y3Ho5(BCl6)2
_chemical_formula_sum   'Y3 Ho5 B2 Cl12'
_cell_volume   638.91175825
_cell_formula_units_Z   1
loop_
 _symmetry_equiv_pos_site_id
 _symmetry_equiv_pos_as_xyz
  1  'x, y, z'
loop_
 _atom_site_type_symbol
 _atom_site_label
 _atom_site_symmetry_multiplicity
 _atom_site_fract_x
 _atom_site_fract_y
 _atom_site_fract_z
 _atom_site_occupancy
  Y  Y0  1  0.500000  0.126499  0.851164  1
  Y  Y1  1  0.500000  0.873546  0.148894  1
  Y  Y2  1  0.500000  0.626412  0.648778  1
  Ho  Ho3  1  0.000000  0.106116  0.084026  1
  Ho  Ho4  1  0.000000  0.893987  0.916054  1
  Ho  Ho5  1  0.000000  0.605950  0.416065  1
  Ho  Ho6  1  0.000000  0.394016  0.583899  1
  Ho  Ho7  1  0.500000  0.373808  0.351493  1
  B  B8  1  0.500000  0.000041  0.000042  1
  B  B9  1  0.500000  0.499546  0.499465  1
  Cl  Cl10  1  0.500000  0.268473  0.682258  1
  Cl  Cl11  1  0.500000  0.731498  0.317705  1
  Cl  Cl12  1  0.500000  0.768415  0.817659  1
  Cl  Cl13  1  0.500000  0.231927  0.182767  1
  Cl  Cl14  1  0.000000  0.256771  0.930078  1
  Cl  Cl15  1  0.000000  0.743258  0.069966  1
  Cl  Cl16  1  0.000000  0.477904  0.244000  1
  Cl  Cl17  1  0.000000  0.521013  0.756560  1
  Cl  Cl18  1  0.000000  0.979025  0.256627  1
  Cl  Cl19  1  0.000000  0.021006  0.743412  1
  Cl  Cl20  1  0.000000  0.244080  0.429134  1
  Cl  Cl21  1  0.000000  0.756711  0.569956  1
