# generated using pymatgen
data_PrSm2Nb(Co4P3)2
_symmetry_space_group_name_H-M   'P 1'
_cell_length_a   3.76526000
_cell_length_b   10.75416300
_cell_length_c   12.49030000
_cell_angle_alpha   90.00000000
_cell_angle_beta   90.00000000
_cell_angle_gamma   90.00000000
_symmetry_Int_Tables_number   1
_chemical_formula_structural   PrSm2Nb(Co4P3)2
_chemical_formula_sum   'Pr2 Sm4 Nb2 Co16 P12'
_cell_volume   505.75997269
_cell_formula_units_Z   2
loop_
 _symmetry_equiv_pos_site_id
 _symmetry_equiv_pos_as_xyz
  1  'x, y, z'
loop_
 _atom_site_type_symbol
 _atom_site_label
 _atom_site_symmetry_multiplicity
 _atom_site_fract_x
 _atom_site_fract_y
 _atom_site_fract_z
 _atom_site_occupancy
  Pr  Pr0  1  0.000000  0.500000  0.526209  1
  Pr  Pr1  1  0.500000  0.000000  0.473791  1
  Sm  Sm2  1  0.500000  0.819465  0.204908  1
  Sm  Sm3  1  0.500000  0.180535  0.204908  1
  Sm  Sm4  1  0.000000  0.680535  0.795092  1
  Sm  Sm5  1  0.000000  0.319465  0.795092  1
  Nb  Nb6  1  0.500000  0.500000  0.154085  1
  Nb  Nb7  1  0.000000  0.000000  0.845915  1
  Co  Co8  1  0.500000  0.500000  0.704815  1
  Co  Co9  1  0.000000  0.000000  0.295185  1
  Co  Co10  1  0.000000  0.500000  0.986271  1
  Co  Co11  1  0.500000  0.000000  0.013729  1
  Co  Co12  1  0.500000  0.332268  0.991969  1
  Co  Co13  1  0.500000  0.667732  0.991969  1
  Co  Co14  1  0.000000  0.167732  0.008031  1
  Co  Co15  1  0.000000  0.832268  0.008031  1
  Co  Co16  1  0.500000  0.295038  0.431469  1
  Co  Co17  1  0.500000  0.704962  0.431469  1
  Co  Co18  1  0.000000  0.204962  0.568531  1
  Co  Co19  1  0.000000  0.795038  0.568531  1
  Co  Co20  1  0.500000  0.879172  0.706612  1
  Co  Co21  1  0.500000  0.120828  0.706612  1
  Co  Co22  1  0.000000  0.620828  0.293388  1
  Co  Co23  1  0.000000  0.379172  0.293388  1
  P  P24  1  0.500000  0.500000  0.884824  1
  P  P25  1  0.000000  0.000000  0.115176  1
  P  P26  1  0.500000  0.500000  0.349906  1
  P  P27  1  0.000000  0.000000  0.650094  1
  P  P28  1  0.500000  0.306095  0.615348  1
  P  P29  1  0.500000  0.693905  0.615348  1
  P  P30  1  0.000000  0.193905  0.384652  1
  P  P31  1  0.000000  0.806095  0.384652  1
  P  P32  1  0.500000  0.842841  0.895617  1
  P  P33  1  0.500000  0.157159  0.895617  1
  P  P34  1  0.000000  0.657159  0.104383  1
  P  P35  1  0.000000  0.342841  0.104383  1
