# generated using pymatgen
data_Ba4Ni(IrO6)2
_symmetry_space_group_name_H-M   'P 1'
_cell_length_a   5.83053593
_cell_length_b   5.82969944
_cell_length_c   10.11184179
_cell_angle_alpha   89.97082751
_cell_angle_beta   73.26319062
_cell_angle_gamma   120.00180101
_symmetry_Int_Tables_number   1
_chemical_formula_structural   Ba4Ni(IrO6)2
_chemical_formula_sum   'Ba4 Ni1 Ir2 O12'
_cell_volume   280.68157408
_cell_formula_units_Z   1
loop_
 _symmetry_equiv_pos_site_id
 _symmetry_equiv_pos_as_xyz
  1  'x, y, z'
loop_
 _atom_site_type_symbol
 _atom_site_label
 _atom_site_symmetry_multiplicity
 _atom_site_fract_x
 _atom_site_fract_y
 _atom_site_fract_z
 _atom_site_occupancy
  Ba  Ba0  1  0.569516  0.284734  0.145687  1
  Ba  Ba1  1  0.419317  0.709637  0.871132  1
  Ba  Ba2  1  0.250913  0.125446  0.623751  1
  Ba  Ba3  1  0.745450  0.872724  0.381788  1
  Ni  Ni4  1  0.819945  0.410145  0.769812  1
  Ir  Ir5  1  0.999608  0.999759  0.000557  1
  Ir  Ir6  1  0.010129  0.505078  0.484970  1
  O  O7  1  0.769770  0.613403  0.616890  1
  O  O8  1  0.226685  0.613326  0.616960  1
  O  O9  1  0.769728  0.156321  0.616954  1
  O  O10  1  0.238162  0.378957  0.383087  1
  O  O11  1  0.757912  0.378981  0.383074  1
  O  O12  1  0.238153  0.859194  0.383045  1
  O  O13  1  0.080109  0.808493  0.111239  1
  O  O14  1  0.617290  0.808600  0.111382  1
  O  O15  1  0.080113  0.271528  0.111232  1
  O  O16  1  0.921793  0.198684  0.879162  1
  O  O17  1  0.397639  0.198852  0.879099  1
  O  O18  1  0.921771  0.723136  0.879181  1
