# generated using pymatgen
data_Gd12Co2Ni3Hg
_symmetry_space_group_name_H-M   'P 1'
_cell_length_a   8.40864231
_cell_length_b   8.40856629
_cell_length_c   8.40864300
_cell_angle_alpha   110.52348456
_cell_angle_beta   109.93419410
_cell_angle_gamma   107.96729129
_symmetry_Int_Tables_number   1
_chemical_formula_structural   Gd12Co2Ni3Hg
_chemical_formula_sum   'Gd12 Co2 Ni3 Hg1'
_cell_volume   457.41912321
_cell_formula_units_Z   1
loop_
 _symmetry_equiv_pos_site_id
 _symmetry_equiv_pos_as_xyz
  1  'x, y, z'
loop_
 _atom_site_type_symbol
 _atom_site_label
 _atom_site_symmetry_multiplicity
 _atom_site_fract_x
 _atom_site_fract_y
 _atom_site_fract_z
 _atom_site_occupancy
  Gd  Gd0  1  0.819800  0.707980  0.526679  1
  Gd  Gd1  1  0.180200  0.292020  0.473321  1
  Gd  Gd2  1  0.181303  0.707980  0.888179  1
  Gd  Gd3  1  0.818697  0.292020  0.111821  1
  Gd  Gd4  1  0.680142  0.371499  0.691358  1
  Gd  Gd5  1  0.319858  0.628501  0.308642  1
  Gd  Gd6  1  0.680367  0.990089  0.309722  1
  Gd  Gd7  1  0.319633  0.009911  0.690278  1
  Gd  Gd8  1  0.595437  0.784161  0.810705  1
  Gd  Gd9  1  0.404563  0.215839  0.189295  1
  Gd  Gd10  1  0.973456  0.784161  0.188723  1
  Gd  Gd11  1  0.026544  0.215839  0.811277  1
  Co  Co12  1  0.116213  0.616467  0.500254  1
  Co  Co13  1  0.883787  0.383533  0.499746  1
  Ni  Ni14  1  0.636866  0.000000  0.636866  1
  Ni  Ni15  1  0.363134  0.000000  0.363134  1
  Ni  Ni16  1  0.000000  0.000000  0.000000  1
  Hg  Hg17  1  0.500000  0.500000  0.000000  1
