# generated using pymatgen
data_CoCu(Sb6Ru)2
_symmetry_space_group_name_H-M   'P 1'
_cell_length_a   8.04108549
_cell_length_b   8.04055037
_cell_length_c   9.30452875
_cell_angle_alpha   54.95649686
_cell_angle_beta   55.14609424
_cell_angle_gamma   70.99929305
_symmetry_Int_Tables_number   1
_chemical_formula_structural   CoCu(Sb6Ru)2
_chemical_formula_sum   'Co1 Cu1 Sb12 Ru2'
_cell_volume   404.16892652
_cell_formula_units_Z   1
loop_
 _symmetry_equiv_pos_site_id
 _symmetry_equiv_pos_as_xyz
  1  'x, y, z'
loop_
 _atom_site_type_symbol
 _atom_site_label
 _atom_site_symmetry_multiplicity
 _atom_site_fract_x
 _atom_site_fract_y
 _atom_site_fract_z
 _atom_site_occupancy
  Co  Co0  1  0.500000  0.000000  0.500000  1
  Cu  Cu1  1  0.000000  0.500000  0.500000  1
  Sb  Sb2  1  0.155796  0.155788  0.177769  1
  Sb  Sb3  1  0.844204  0.844212  0.822231  1
  Sb  Sb4  1  0.834211  0.851243  0.499624  1
  Sb  Sb5  1  0.165789  0.148757  0.500376  1
  Sb  Sb6  1  0.811471  0.502599  0.339740  1
  Sb  Sb7  1  0.188529  0.497401  0.660260  1
  Sb  Sb8  1  0.507961  0.825558  0.336979  1
  Sb  Sb9  1  0.492039  0.174442  0.663021  1
  Sb  Sb10  1  0.654498  0.341547  0.847462  1
  Sb  Sb11  1  0.345502  0.658453  0.152538  1
  Sb  Sb12  1  0.661054  0.328826  0.164275  1
  Sb  Sb13  1  0.338946  0.671174  0.835725  1
  Ru  Ru14  1  0.000000  0.500000  0.000000  1
  Ru  Ru15  1  0.500000  0.000000  0.000000  1
