# generated using pymatgen
data_Zr12Co8MoW3N4
_symmetry_space_group_name_H-M   'P 1'
_cell_length_a   8.43331026
_cell_length_b   8.45220171
_cell_length_c   8.43330900
_cell_angle_alpha   60.07390976
_cell_angle_beta   60.00000103
_cell_angle_gamma   60.07390264
_symmetry_Int_Tables_number   1
_chemical_formula_structural   Zr12Co8MoW3N4
_chemical_formula_sum   'Zr12 Co8 Mo1 W3 N4'
_cell_volume   425.53491005
_cell_formula_units_Z   1
loop_
 _symmetry_equiv_pos_site_id
 _symmetry_equiv_pos_as_xyz
  1  'x, y, z'
loop_
 _atom_site_type_symbol
 _atom_site_label
 _atom_site_symmetry_multiplicity
 _atom_site_fract_x
 _atom_site_fract_y
 _atom_site_fract_z
 _atom_site_occupancy
  Zr  Zr0  1  0.692198  0.307876  0.692198  1
  Zr  Zr1  1  0.557121  0.557967  0.942456  1
  Zr  Zr2  1  0.557802  0.942124  0.557802  1
  Zr  Zr3  1  0.942271  0.942124  0.557802  1
  Zr  Zr4  1  0.942456  0.557967  0.557121  1
  Zr  Zr5  1  0.942456  0.557967  0.942456  1
  Zr  Zr6  1  0.692198  0.307876  0.307729  1
  Zr  Zr7  1  0.307544  0.692033  0.307544  1
  Zr  Zr8  1  0.307729  0.307876  0.692198  1
  Zr  Zr9  1  0.307544  0.692033  0.692879  1
  Zr  Zr10  1  0.692879  0.692033  0.307544  1
  Zr  Zr11  1  0.557802  0.942124  0.942271  1
  Co  Co12  1  0.225466  0.926541  0.923997  1
  Co  Co13  1  0.924628  0.226117  0.924628  1
  Co  Co14  1  0.923997  0.926541  0.923997  1
  Co  Co15  1  0.923997  0.926541  0.225466  1
  Co  Co16  1  0.024534  0.323459  0.326003  1
  Co  Co17  1  0.326003  0.323459  0.024534  1
  Co  Co18  1  0.325372  0.023883  0.325372  1
  Co  Co19  1  0.326003  0.323459  0.326003  1
  Mo  Mo20  1  0.125000  0.625000  0.125000  1
  W  W21  1  0.625000  0.125000  0.125000  1
  W  W22  1  0.125000  0.125000  0.625000  1
  W  W23  1  0.125000  0.125000  0.125000  1
  N  N24  1  0.625000  0.625000  0.625000  1
  N  N25  1  0.125000  0.625000  0.625000  1
  N  N26  1  0.625000  0.125000  0.625000  1
  N  N27  1  0.625000  0.625000  0.125000  1
