# generated using pymatgen
data_Sm8Si(PdPt5)4
_symmetry_space_group_name_H-M   'P 1'
_cell_length_a   8.42085414
_cell_length_b   8.41695300
_cell_length_c   8.44843314
_cell_angle_alpha   90.00000000
_cell_angle_beta   89.97927485
_cell_angle_gamma   90.00000000
_symmetry_Int_Tables_number   1
_chemical_formula_structural   Sm8Si(PdPt5)4
_chemical_formula_sum   'Sm8 Si1 Pd4 Pt20'
_cell_volume   598.80744295
_cell_formula_units_Z   1
loop_
 _symmetry_equiv_pos_site_id
 _symmetry_equiv_pos_as_xyz
  1  'x, y, z'
loop_
 _atom_site_type_symbol
 _atom_site_label
 _atom_site_symmetry_multiplicity
 _atom_site_fract_x
 _atom_site_fract_y
 _atom_site_fract_z
 _atom_site_occupancy
  Sm  Sm0  1  0.252839  0.252858  0.253138  1
  Sm  Sm1  1  0.747069  0.746910  0.746793  1
  Sm  Sm2  1  0.747129  0.747117  0.253207  1
  Sm  Sm3  1  0.747069  0.253090  0.746793  1
  Sm  Sm4  1  0.252937  0.252847  0.746815  1
  Sm  Sm5  1  0.252839  0.747142  0.253138  1
  Sm  Sm6  1  0.252937  0.747153  0.746815  1
  Sm  Sm7  1  0.747129  0.252883  0.253207  1
  Si  Si8  1  0.000423  0.000000  0.000368  1
  Pd  Pd9  1  0.499998  0.000000  0.741807  1
  Pd  Pd10  1  0.741898  0.000000  0.499970  1
  Pd  Pd11  1  0.999973  0.500000  0.258574  1
  Pd  Pd12  1  0.999953  0.500000  0.741635  1
  Pt  Pt13  1  0.258083  0.500000  0.999977  1
  Pt  Pt14  1  0.742110  0.500000  0.999953  1
  Pt  Pt15  1  0.000078  0.258258  0.500077  1
  Pt  Pt16  1  0.500043  0.258287  0.000056  1
  Pt  Pt17  1  0.000078  0.741742  0.500077  1
  Pt  Pt18  1  0.500043  0.741713  0.000056  1
  Pt  Pt19  1  0.499905  0.000000  0.258367  1
  Pt  Pt20  1  0.258159  0.000000  0.499892  1
  Pt  Pt21  1  0.252017  0.500000  0.500141  1
  Pt  Pt22  1  0.747845  0.500000  0.500070  1
  Pt  Pt23  1  0.499786  0.252478  0.499783  1
  Pt  Pt24  1  0.499786  0.747522  0.499783  1
  Pt  Pt25  1  0.500094  0.500000  0.252442  1
  Pt  Pt26  1  0.500027  0.500000  0.747429  1
  Pt  Pt27  1  0.282358  0.000000  0.999784  1
  Pt  Pt28  1  0.717965  0.000000  0.999845  1
  Pt  Pt29  1  0.999964  0.282641  0.999920  1
  Pt  Pt30  1  0.999964  0.717359  0.999920  1
  Pt  Pt31  1  0.999732  0.000000  0.282222  1
  Pt  Pt32  1  0.999770  0.000000  0.717947  1
