# generated using pymatgen
data_Tb2Ho6Cd2OsPt
_symmetry_space_group_name_H-M   'P 1'
_cell_length_a   9.63903304
_cell_length_b   9.63504025
_cell_length_c   9.68064484
_cell_angle_alpha   59.87062836
_cell_angle_beta   59.82976724
_cell_angle_gamma   59.79461753
_symmetry_Int_Tables_number   1
_chemical_formula_structural   Tb2Ho6Cd2OsPt
_chemical_formula_sum   'Tb4 Ho12 Cd4 Os2 Pt2'
_cell_volume   633.30588625
_cell_formula_units_Z   2
loop_
 _symmetry_equiv_pos_site_id
 _symmetry_equiv_pos_as_xyz
  1  'x, y, z'
loop_
 _atom_site_type_symbol
 _atom_site_label
 _atom_site_symmetry_multiplicity
 _atom_site_fract_x
 _atom_site_fract_y
 _atom_site_fract_z
 _atom_site_occupancy
  Tb  Tb0  1  0.555090  0.938941  0.566501  1
  Tb  Tb1  1  0.938941  0.555090  0.939467  1
  Tb  Tb2  1  0.564605  0.564605  0.935395  1
  Tb  Tb3  1  0.939140  0.939140  0.560860  1
  Ho  Ho4  1  0.350672  0.350062  0.350057  1
  Ho  Ho5  1  0.350062  0.350672  0.949210  1
  Ho  Ho6  1  0.345576  0.954932  0.350013  1
  Ho  Ho7  1  0.954932  0.345576  0.349478  1
  Ho  Ho8  1  0.815398  0.186762  0.190362  1
  Ho  Ho9  1  0.186762  0.815398  0.807478  1
  Ho  Ho10  1  0.187081  0.814982  0.190699  1
  Ho  Ho11  1  0.814982  0.187081  0.807238  1
  Ho  Ho12  1  0.188341  0.188341  0.811659  1
  Ho  Ho13  1  0.808279  0.808279  0.191721  1
  Ho  Ho14  1  0.940369  0.553038  0.565618  1
  Ho  Ho15  1  0.553038  0.940369  0.940976  1
  Cd  Cd16  1  0.580629  0.579242  0.580764  1
  Cd  Cd17  1  0.579242  0.580629  0.259364  1
  Cd  Cd18  1  0.581998  0.255117  0.581912  1
  Cd  Cd19  1  0.255117  0.581998  0.580973  1
  Os  Os20  1  0.146259  0.144655  0.135106  1
  Os  Os21  1  0.144655  0.146259  0.573980  1
  Pt  Pt22  1  0.144395  0.574438  0.141253  1
  Pt  Pt23  1  0.574438  0.144395  0.139916  1
