# generated using pymatgen
data_Pr7NdSe12
_symmetry_space_group_name_H-M   'P 1'
_cell_length_a   7.89109505
_cell_length_b   4.24209100
_cell_length_c   16.46305510
_cell_angle_alpha   90.00000000
_cell_angle_beta   89.98718183
_cell_angle_gamma   90.00000000
_symmetry_Int_Tables_number   1
_chemical_formula_structural   Pr7NdSe12
_chemical_formula_sum   'Pr7 Nd1 Se12'
_cell_volume   551.09652954
_cell_formula_units_Z   1
loop_
 _symmetry_equiv_pos_site_id
 _symmetry_equiv_pos_as_xyz
  1  'x, y, z'
loop_
 _atom_site_type_symbol
 _atom_site_label
 _atom_site_symmetry_multiplicity
 _atom_site_fract_x
 _atom_site_fract_y
 _atom_site_fract_z
 _atom_site_occupancy
  Pr  Pr0  1  0.142324  0.000000  0.203985  1
  Pr  Pr1  1  0.642422  0.000000  0.295953  1
  Pr  Pr2  1  0.233829  0.499999  0.456249  1
  Pr  Pr3  1  0.766163  0.000000  0.543753  1
  Pr  Pr4  1  0.357608  0.499999  0.704025  1
  Pr  Pr5  1  0.857498  0.499999  0.796069  1
  Pr  Pr6  1  0.266276  0.000000  0.956274  1
  Nd  Nd7  1  0.733771  0.499999  0.043782  1
  Se  Se8  1  0.123910  0.499999  0.067257  1
  Se  Se9  1  0.507948  0.000000  0.109533  1
  Se  Se10  1  0.853467  0.499999  0.218405  1
  Se  Se11  1  0.353756  0.499999  0.281203  1
  Se  Se12  1  0.006765  0.000000  0.390122  1
  Se  Se13  1  0.624534  0.499999  0.432692  1
  Se  Se14  1  0.375463  0.000000  0.567305  1
  Se  Se15  1  0.993225  0.499999  0.609868  1
  Se  Se16  1  0.646252  0.000000  0.718773  1
  Se  Se17  1  0.146215  0.000000  0.781241  1
  Se  Se18  1  0.493586  0.499999  0.890355  1
  Se  Se19  1  0.874978  0.000000  0.933157  1
