# generated using pymatgen
data_LiErZr2(Al8Pt3)3
_symmetry_space_group_name_H-M   'P 1'
_cell_length_a   7.47606059
_cell_length_b   7.47533260
_cell_length_c   13.04025832
_cell_angle_alpha   84.56102414
_cell_angle_beta   100.80641100
_cell_angle_gamma   119.91165529
_symmetry_Int_Tables_number   1
_chemical_formula_structural   LiErZr2(Al8Pt3)3
_chemical_formula_sum   'Li1 Er1 Zr2 Al24 Pt9'
_cell_volume   620.49005433
_cell_formula_units_Z   1
loop_
 _symmetry_equiv_pos_site_id
 _symmetry_equiv_pos_as_xyz
  1  'x, y, z'
loop_
 _atom_site_type_symbol
 _atom_site_label
 _atom_site_symmetry_multiplicity
 _atom_site_fract_x
 _atom_site_fract_y
 _atom_site_fract_z
 _atom_site_occupancy
  Li  Li0  1  0.071449  0.671599  0.208102  1
  Er  Er1  1  0.940585  0.334300  0.810276  1
  Zr  Zr2  1  0.730892  0.998635  0.189327  1
  Zr  Zr3  1  0.266260  0.998213  0.810963  1
  Al  Al4  1  0.813407  0.868651  0.815166  1
  Al  Al5  1  0.182186  0.126855  0.182773  1
  Al  Al6  1  0.982785  0.667851  0.949141  1
  Al  Al7  1  0.014479  0.338818  0.062774  1
  Al  Al8  1  0.400058  0.668332  0.815959  1
  Al  Al9  1  0.605339  0.330471  0.181582  1
  Al  Al10  1  0.885672  0.666416  0.673372  1
  Al  Al11  1  0.111463  0.338546  0.319446  1
  Al  Al12  1  0.598340  0.451832  0.815475  1
  Al  Al13  1  0.401151  0.551668  0.182660  1
  Al  Al14  1  0.230898  0.336859  0.672872  1
  Al  Al15  1  0.773310  0.663641  0.319839  1
  Al  Al16  1  0.853586  0.333255  0.558730  1
  Al  Al17  1  0.187566  0.999210  0.559529  1
  Al  Al18  1  0.812872  0.000404  0.438573  1
  Al  Al19  1  0.347916  0.989878  0.061374  1
  Al  Al20  1  0.644819  0.999988  0.942998  1
  Al  Al21  1  0.555846  0.993860  0.673961  1
  Al  Al22  1  0.438039  0.000583  0.320151  1
  Al  Al23  1  0.520403  0.666853  0.561911  1
  Al  Al24  1  0.478245  0.332938  0.435400  1
  Al  Al25  1  0.694434  0.672585  0.055454  1
  Al  Al26  1  0.317688  0.331444  0.953874  1
  Al  Al27  1  0.146333  0.667056  0.438264  1
  Pt  Pt28  1  0.328163  0.670698  0.997995  1
  Pt  Pt29  1  0.545631  0.323558  0.636510  1
  Pt  Pt30  1  0.456861  0.675500  0.362790  1
  Pt  Pt31  1  0.888820  0.009061  0.638337  1
  Pt  Pt32  1  0.112203  0.993942  0.360806  1
  Pt  Pt33  1  0.665861  0.323811  0.997035  1
  Pt  Pt34  1  0.203785  0.665898  0.638711  1
  Pt  Pt35  1  0.793536  0.331973  0.360473  1
  Pt  Pt36  1  0.999121  0.004817  0.997396  1
