# generated using pymatgen
data_NdEr2Mg(Co4P3)2
_symmetry_space_group_name_H-M   'P 1'
_cell_length_a   3.74539800
_cell_length_b   10.66252200
_cell_length_c   12.32008200
_cell_angle_alpha   90.00000000
_cell_angle_beta   90.00000000
_cell_angle_gamma   90.00000000
_symmetry_Int_Tables_number   1
_chemical_formula_structural   NdEr2Mg(Co4P3)2
_chemical_formula_sum   'Nd2 Er4 Mg2 Co16 P12'
_cell_volume   492.00726193
_cell_formula_units_Z   2
loop_
 _symmetry_equiv_pos_site_id
 _symmetry_equiv_pos_as_xyz
  1  'x, y, z'
loop_
 _atom_site_type_symbol
 _atom_site_label
 _atom_site_symmetry_multiplicity
 _atom_site_fract_x
 _atom_site_fract_y
 _atom_site_fract_z
 _atom_site_occupancy
  Nd  Nd0  1  0.750000  0.250000  0.472574  1
  Nd  Nd1  1  0.250000  0.750000  0.527426  1
  Er  Er2  1  0.250000  0.927959  0.794690  1
  Er  Er3  1  0.250000  0.572041  0.794690  1
  Er  Er4  1  0.750000  0.072041  0.205310  1
  Er  Er5  1  0.750000  0.427959  0.205310  1
  Mg  Mg6  1  0.250000  0.250000  0.845187  1
  Mg  Mg7  1  0.750000  0.750000  0.154813  1
  Co  Co8  1  0.250000  0.250000  0.291085  1
  Co  Co9  1  0.750000  0.750000  0.708915  1
  Co  Co10  1  0.750000  0.250000  0.011136  1
  Co  Co11  1  0.250000  0.750000  0.988864  1
  Co  Co12  1  0.250000  0.417586  0.003219  1
  Co  Co13  1  0.250000  0.082414  0.003219  1
  Co  Co14  1  0.750000  0.582414  0.996781  1
  Co  Co15  1  0.750000  0.917586  0.996781  1
  Co  Co16  1  0.250000  0.454514  0.569353  1
  Co  Co17  1  0.250000  0.045486  0.569353  1
  Co  Co18  1  0.750000  0.545486  0.430647  1
  Co  Co19  1  0.750000  0.954514  0.430647  1
  Co  Co20  1  0.250000  0.872226  0.292150  1
  Co  Co21  1  0.250000  0.627774  0.292150  1
  Co  Co22  1  0.750000  0.127774  0.707850  1
  Co  Co23  1  0.750000  0.372226  0.707850  1
  P  P24  1  0.250000  0.250000  0.113946  1
  P  P25  1  0.750000  0.750000  0.886054  1
  P  P26  1  0.250000  0.250000  0.647515  1
  P  P27  1  0.750000  0.750000  0.352485  1
  P  P28  1  0.250000  0.443392  0.382839  1
  P  P29  1  0.250000  0.056608  0.382839  1
  P  P30  1  0.750000  0.556608  0.617161  1
  P  P31  1  0.750000  0.943392  0.617161  1
  P  P32  1  0.250000  0.911756  0.106902  1
  P  P33  1  0.250000  0.588244  0.106902  1
  P  P34  1  0.750000  0.088244  0.893098  1
  P  P35  1  0.750000  0.411756  0.893098  1
