# generated using pymatgen
data_Cs4Hf6SiBr18
_symmetry_space_group_name_H-M   'P 1'
_cell_length_a   10.88111747
_cell_length_b   11.25638434
_cell_length_c   11.35950153
_cell_angle_alpha   118.14011537
_cell_angle_beta   100.66237449
_cell_angle_gamma   104.45958428
_symmetry_Int_Tables_number   1
_chemical_formula_structural   Cs4Hf6SiBr18
_chemical_formula_sum   'Cs4 Hf6 Si1 Br18'
_cell_volume   1110.81027365
_cell_formula_units_Z   1
loop_
 _symmetry_equiv_pos_site_id
 _symmetry_equiv_pos_as_xyz
  1  'x, y, z'
loop_
 _atom_site_type_symbol
 _atom_site_label
 _atom_site_symmetry_multiplicity
 _atom_site_fract_x
 _atom_site_fract_y
 _atom_site_fract_z
 _atom_site_occupancy
  Cs  Cs0  1  0.664648  0.537848  0.231587  1
  Cs  Cs1  1  0.335352  0.462152  0.768413  1
  Cs  Cs2  1  0.698466  0.228632  0.564484  1
  Cs  Cs3  1  0.301534  0.771368  0.435516  1
  Hf  Hf4  1  0.151113  0.056545  0.226567  1
  Hf  Hf5  1  0.848887  0.943455  0.773433  1
  Hf  Hf6  1  0.860906  0.119299  0.125744  1
  Hf  Hf7  1  0.139094  0.880701  0.874256  1
  Hf  Hf8  1  0.145379  0.235127  0.045133  1
  Hf  Hf9  1  0.854621  0.764873  0.954867  1
  Si  Si10  1  0.000000  0.000000  0.000000  1
  Br  Br11  1  0.007067  0.388190  0.185659  1
  Br  Br12  1  0.992933  0.611810  0.814341  1
  Br  Br13  1  0.322009  0.320916  0.299027  1
  Br  Br14  1  0.677991  0.679084  0.700973  1
  Br  Br15  1  0.312011  0.498774  0.098540  1
  Br  Br16  1  0.687989  0.501226  0.901460  1
  Br  Br17  1  0.004278  0.805276  0.200290  1
  Br  Br18  1  0.995722  0.194724  0.799710  1
  Br  Br19  1  0.709868  0.251348  0.265151  1
  Br  Br20  1  0.290132  0.748652  0.734849  1
  Br  Br21  1  0.309309  0.127280  0.912314  1
  Br  Br22  1  0.690691  0.872720  0.087686  1
  Br  Br23  1  0.014730  0.193287  0.386943  1
  Br  Br24  1  0.985270  0.806713  0.613057  1
  Br  Br25  1  0.313849  0.931613  0.110200  1
  Br  Br26  1  0.686151  0.068387  0.889800  1
  Br  Br27  1  0.324682  0.120286  0.479666  1
  Br  Br28  1  0.675318  0.879714  0.520334  1
