# generated using pymatgen
data_PaNi3As2
_symmetry_space_group_name_H-M   'P 1'
_cell_length_a   3.90440100
_cell_length_b   10.86782700
_cell_length_c   12.74554200
_cell_angle_alpha   90.00000000
_cell_angle_beta   90.00000000
_cell_angle_gamma   90.00000000
_symmetry_Int_Tables_number   1
_chemical_formula_structural   PaNi3As2
_chemical_formula_sum   'Pa6 Ni18 As12'
_cell_volume   540.82335780
_cell_formula_units_Z   6
loop_
 _symmetry_equiv_pos_site_id
 _symmetry_equiv_pos_as_xyz
  1  'x, y, z'
loop_
 _atom_site_type_symbol
 _atom_site_label
 _atom_site_symmetry_multiplicity
 _atom_site_fract_x
 _atom_site_fract_y
 _atom_site_fract_z
 _atom_site_occupancy
  Pa  Pa0  1  0.000000  0.500000  0.519391  1
  Pa  Pa1  1  0.500000  0.000000  0.480609  1
  Pa  Pa2  1  0.500000  0.814747  0.206454  1
  Pa  Pa3  1  0.500000  0.185253  0.206454  1
  Pa  Pa4  1  0.000000  0.685253  0.793546  1
  Pa  Pa5  1  0.000000  0.314747  0.793546  1
  Ni  Ni6  1  0.500000  0.500000  0.150139  1
  Ni  Ni7  1  0.000000  0.000000  0.849861  1
  Ni  Ni8  1  0.500000  0.500000  0.697535  1
  Ni  Ni9  1  0.000000  0.000000  0.302465  1
  Ni  Ni10  1  0.000000  0.500000  0.976830  1
  Ni  Ni11  1  0.500000  0.000000  0.023170  1
  Ni  Ni12  1  0.500000  0.328539  0.997712  1
  Ni  Ni13  1  0.500000  0.671461  0.997712  1
  Ni  Ni14  1  0.000000  0.171461  0.002288  1
  Ni  Ni15  1  0.000000  0.828539  0.002288  1
  Ni  Ni16  1  0.500000  0.306197  0.425550  1
  Ni  Ni17  1  0.500000  0.693803  0.425550  1
  Ni  Ni18  1  0.000000  0.193803  0.574450  1
  Ni  Ni19  1  0.000000  0.806197  0.574450  1
  Ni  Ni20  1  0.500000  0.877700  0.704246  1
  Ni  Ni21  1  0.500000  0.122300  0.704246  1
  Ni  Ni22  1  0.000000  0.622300  0.295754  1
  Ni  Ni23  1  0.000000  0.377700  0.295754  1
  As  As24  1  0.500000  0.500000  0.877045  1
  As  As25  1  0.000000  0.000000  0.122955  1
  As  As26  1  0.500000  0.500000  0.336385  1
  As  As27  1  0.000000  0.000000  0.663615  1
  As  As28  1  0.500000  0.312767  0.610771  1
  As  As29  1  0.500000  0.687233  0.610771  1
  As  As30  1  0.000000  0.187233  0.389229  1
  As  As31  1  0.000000  0.812767  0.389229  1
  As  As32  1  0.500000  0.852225  0.890923  1
  As  As33  1  0.500000  0.147775  0.890923  1
  As  As34  1  0.000000  0.647775  0.109077  1
  As  As35  1  0.000000  0.352225  0.109077  1
