# generated using pymatgen
data_Pr3MgCd2Si2Au
_symmetry_space_group_name_H-M   'P 1'
_cell_length_a   7.39267600
_cell_length_b   7.47982626
_cell_length_c   4.46996900
_cell_angle_alpha   90.00000000
_cell_angle_beta   90.00000000
_cell_angle_gamma   119.61531832
_symmetry_Int_Tables_number   1
_chemical_formula_structural   Pr3MgCd2Si2Au
_chemical_formula_sum   'Pr3 Mg1 Cd2 Si2 Au1'
_cell_volume   214.88137138
_cell_formula_units_Z   1
loop_
 _symmetry_equiv_pos_site_id
 _symmetry_equiv_pos_as_xyz
  1  'x, y, z'
loop_
 _atom_site_type_symbol
 _atom_site_label
 _atom_site_symmetry_multiplicity
 _atom_site_fract_x
 _atom_site_fract_y
 _atom_site_fract_z
 _atom_site_occupancy
  Pr  Pr0  1  0.587370  0.000000  0.000000  1
  Pr  Pr1  1  0.998776  0.583018  0.000000  1
  Pr  Pr2  1  0.415757  0.416982  0.000000  1
  Mg  Mg3  1  0.239232  0.000000  0.500000  1
  Cd  Cd4  1  0.001029  0.251904  0.500000  1
  Cd  Cd5  1  0.749125  0.748096  0.500000  1
  Si  Si6  1  0.333476  0.670943  0.500000  1
  Si  Si7  1  0.662534  0.329057  0.500000  1
  Au  Au8  1  0.012701  0.000000  0.000000  1
