# generated using pymatgen
data_Nd8Zn8CuIr3Rh4
_symmetry_space_group_name_H-M   'P 1'
_cell_length_a   4.05070300
_cell_length_b   7.30987834
_cell_length_c   16.61995801
_cell_angle_alpha   90.33256916
_cell_angle_beta   90.00000000
_cell_angle_gamma   90.00000000
_symmetry_Int_Tables_number   1
_chemical_formula_structural   Nd8Zn8CuIr3Rh4
_chemical_formula_sum   'Nd8 Zn8 Cu1 Ir3 Rh4'
_cell_volume   492.11109502
_cell_formula_units_Z   1
loop_
 _symmetry_equiv_pos_site_id
 _symmetry_equiv_pos_as_xyz
  1  'x, y, z'
loop_
 _atom_site_type_symbol
 _atom_site_label
 _atom_site_symmetry_multiplicity
 _atom_site_fract_x
 _atom_site_fract_y
 _atom_site_fract_z
 _atom_site_occupancy
  Nd  Nd0  1  0.250000  0.167720  0.939052  1
  Nd  Nd1  1  0.250000  0.666290  0.564829  1
  Nd  Nd2  1  0.750000  0.328339  0.439741  1
  Nd  Nd3  1  0.750000  0.955440  0.281803  1
  Nd  Nd4  1  0.750000  0.831518  0.060390  1
  Nd  Nd5  1  0.750000  0.450403  0.216099  1
  Nd  Nd6  1  0.250000  0.049967  0.715154  1
  Nd  Nd7  1  0.250000  0.547084  0.785228  1
  Zn  Zn8  1  0.750000  0.002488  0.561442  1
  Zn  Zn9  1  0.250000  0.625605  0.348868  1
  Zn  Zn10  1  0.750000  0.378539  0.651581  1
  Zn  Zn11  1  0.250000  0.498541  0.060467  1
  Zn  Zn12  1  0.750000  0.500906  0.939544  1
  Zn  Zn13  1  0.250000  0.996816  0.438318  1
  Zn  Zn14  1  0.250000  0.124257  0.150776  1
  Zn  Zn15  1  0.750000  0.877808  0.848302  1
  Cu  Cu16  1  0.750000  0.759673  0.434270  1
  Ir  Ir17  1  0.250000  0.246762  0.314585  1
  Ir  Ir18  1  0.750000  0.251991  0.813643  1
  Ir  Ir19  1  0.750000  0.753418  0.683995  1
  Rh  Rh20  1  0.250000  0.241380  0.563781  1
  Rh  Rh21  1  0.250000  0.746183  0.187714  1
  Rh  Rh22  1  0.750000  0.254009  0.065074  1
  Rh  Rh23  1  0.250000  0.744865  0.935347  1
