# generated using pymatgen
data_Pr11NdPt3RhBr12
_symmetry_space_group_name_H-M   'P 1'
_cell_length_a   10.58450876
_cell_length_b   10.57485644
_cell_length_c   10.58645860
_cell_angle_alpha   109.17293178
_cell_angle_beta   109.21654248
_cell_angle_gamma   109.14964762
_symmetry_Int_Tables_number   1
_chemical_formula_structural   Pr11NdPt3RhBr12
_chemical_formula_sum   'Pr11 Nd1 Pt3 Rh1 Br12'
_cell_volume   921.87957117
_cell_formula_units_Z   1
loop_
 _symmetry_equiv_pos_site_id
 _symmetry_equiv_pos_as_xyz
  1  'x, y, z'
loop_
 _atom_site_type_symbol
 _atom_site_label
 _atom_site_symmetry_multiplicity
 _atom_site_fract_x
 _atom_site_fract_y
 _atom_site_fract_z
 _atom_site_occupancy
  Pr  Pr0  1  0.750040  0.236054  0.264024  1
  Pr  Pr1  1  0.750032  0.015417  0.484609  1
  Pr  Pr2  1  0.237002  0.470558  0.482433  1
  Pr  Pr3  1  0.264102  0.749793  0.235949  1
  Pr  Pr4  1  0.029709  0.263302  0.017508  1
  Pr  Pr5  1  0.017314  0.029242  0.263453  1
  Pr  Pr6  1  0.484464  0.749826  0.015582  1
  Pr  Pr7  1  0.482728  0.237031  0.470466  1
  Pr  Pr8  1  0.015514  0.484516  0.749875  1
  Pr  Pr9  1  0.263428  0.017928  0.029686  1
  Pr  Pr10  1  0.236114  0.264144  0.750255  1
  Nd  Nd11  1  0.469185  0.482162  0.235937  1
  Pt  Pt12  1  0.498811  0.001212  0.250025  1
  Pt  Pt13  1  0.001296  0.249972  0.498841  1
  Pt  Pt14  1  0.250467  0.498737  0.001664  1
  Rh  Rh15  1  0.250650  0.250831  0.250153  1
  Br  Br16  1  0.250017  0.753562  0.746321  1
  Br  Br17  1  0.507075  0.504267  0.754168  1
  Br  Br18  1  0.993179  0.745996  0.995801  1
  Br  Br19  1  0.746538  0.250116  0.753695  1
  Br  Br20  1  0.995822  0.992945  0.745946  1
  Br  Br21  1  0.250151  0.995585  0.504554  1
  Br  Br22  1  0.752634  0.506866  0.502644  1
  Br  Br23  1  0.505007  0.251912  0.997421  1
  Br  Br24  1  0.752251  0.745068  0.250159  1
  Br  Br25  1  0.746033  0.995733  0.993148  1
  Br  Br26  1  0.995678  0.504581  0.250027  1
  Br  Br27  1  0.504763  0.752641  0.505657  1
