# generated using pymatgen
data_Y3Tm2(Co2Sn5)2
_symmetry_space_group_name_H-M   'P 1'
_cell_length_a   13.84060900
_cell_length_b   13.84060900
_cell_length_c   4.42783300
_cell_angle_alpha   90.00000000
_cell_angle_beta   90.00000000
_cell_angle_gamma   90.00000000
_symmetry_Int_Tables_number   1
_chemical_formula_structural   Y3Tm2(Co2Sn5)2
_chemical_formula_sum   'Y6 Tm4 Co8 Sn20'
_cell_volume   848.20657084
_cell_formula_units_Z   2
loop_
 _symmetry_equiv_pos_site_id
 _symmetry_equiv_pos_as_xyz
  1  'x, y, z'
loop_
 _atom_site_type_symbol
 _atom_site_label
 _atom_site_symmetry_multiplicity
 _atom_site_fract_x
 _atom_site_fract_y
 _atom_site_fract_z
 _atom_site_occupancy
  Y  Y0  1  0.000000  0.000000  0.000000  1
  Y  Y1  1  0.500000  0.500000  0.000000  1
  Y  Y2  1  0.891646  0.608354  0.500000  1
  Y  Y3  1  0.108354  0.391646  0.500000  1
  Y  Y4  1  0.391646  0.891646  0.500000  1
  Y  Y5  1  0.608354  0.108354  0.500000  1
  Tm  Tm6  1  0.179451  0.679451  0.500000  1
  Tm  Tm7  1  0.820549  0.320549  0.500000  1
  Tm  Tm8  1  0.679451  0.820549  0.500000  1
  Tm  Tm9  1  0.320549  0.179451  0.500000  1
  Co  Co10  1  0.254138  0.535028  0.000000  1
  Co  Co11  1  0.745862  0.464972  0.000000  1
  Co  Co12  1  0.754138  0.964972  0.000000  1
  Co  Co13  1  0.245862  0.035028  0.000000  1
  Co  Co14  1  0.464972  0.254138  0.000000  1
  Co  Co15  1  0.535028  0.745862  0.000000  1
  Co  Co16  1  0.035028  0.754138  0.000000  1
  Co  Co17  1  0.964972  0.245862  0.000000  1
  Sn  Sn18  1  0.351834  0.700672  0.000000  1
  Sn  Sn19  1  0.648166  0.299328  0.000000  1
  Sn  Sn20  1  0.851834  0.799328  0.000000  1
  Sn  Sn21  1  0.148166  0.200672  0.000000  1
  Sn  Sn22  1  0.299328  0.351834  0.000000  1
  Sn  Sn23  1  0.700672  0.648166  0.000000  1
  Sn  Sn24  1  0.200672  0.851834  0.000000  1
  Sn  Sn25  1  0.799328  0.148166  0.000000  1
  Sn  Sn26  1  0.334431  0.513236  0.500000  1
  Sn  Sn27  1  0.665569  0.486764  0.500000  1
  Sn  Sn28  1  0.834431  0.986764  0.500000  1
  Sn  Sn29  1  0.165569  0.013236  0.500000  1
  Sn  Sn30  1  0.486764  0.334431  0.500000  1
  Sn  Sn31  1  0.513236  0.665569  0.500000  1
  Sn  Sn32  1  0.013236  0.834431  0.500000  1
  Sn  Sn33  1  0.986764  0.165569  0.500000  1
  Sn  Sn34  1  0.072514  0.572514  0.000000  1
  Sn  Sn35  1  0.927486  0.427486  0.000000  1
  Sn  Sn36  1  0.572514  0.927486  0.000000  1
  Sn  Sn37  1  0.427486  0.072514  0.000000  1
