# generated using pymatgen
data_Dy5Y5Si5Pb
_symmetry_space_group_name_H-M   'P 1'
_cell_length_a   8.54569800
_cell_length_b   8.57740628
_cell_length_c   6.42972000
_cell_angle_alpha   90.00000000
_cell_angle_beta   90.00000000
_cell_angle_gamma   119.87936553
_symmetry_Int_Tables_number   1
_chemical_formula_structural   Dy5Y5Si5Pb
_chemical_formula_sum   'Dy5 Y5 Si5 Pb1'
_cell_volume   408.65127476
_cell_formula_units_Z   1
loop_
 _symmetry_equiv_pos_site_id
 _symmetry_equiv_pos_as_xyz
  1  'x, y, z'
loop_
 _atom_site_type_symbol
 _atom_site_label
 _atom_site_symmetry_multiplicity
 _atom_site_fract_x
 _atom_site_fract_y
 _atom_site_fract_z
 _atom_site_occupancy
  Dy  Dy0  1  0.240312  0.252762  0.750000  1
  Dy  Dy1  1  0.674653  0.343290  0.004012  1
  Dy  Dy2  1  0.331365  0.656679  0.495998  1
  Dy  Dy3  1  0.331365  0.656679  0.004002  1
  Dy  Dy4  1  0.674653  0.343290  0.495988  1
  Y  Y5  1  0.987614  0.747318  0.750000  1
  Y  Y6  1  0.998781  0.242859  0.250000  1
  Y  Y7  1  0.755904  0.757154  0.250000  1
  Y  Y8  1  0.766362  0.000017  0.750000  1
  Y  Y9  1  0.240646  0.000036  0.250000  1
  Si  Si10  1  0.393604  0.392205  0.250000  1
  Si  Si11  1  0.001381  0.607756  0.250000  1
  Si  Si12  1  0.998608  0.394364  0.750000  1
  Si  Si13  1  0.604189  0.605590  0.750000  1
  Si  Si14  1  0.606083  0.999986  0.250000  1
  Pb  Pb15  1  0.394478  0.000013  0.750000  1
