# generated using pymatgen
data_TbYRe8Si3P
_symmetry_space_group_name_H-M   'P 1'
_cell_length_a   7.43757650
_cell_length_b   7.43757701
_cell_length_c   4.09268800
_cell_angle_alpha   90.00000000
_cell_angle_beta   90.00000000
_cell_angle_gamma   90.02334177
_symmetry_Int_Tables_number   1
_chemical_formula_structural   TbYRe8Si3P
_chemical_formula_sum   'Tb1 Y1 Re8 Si3 P1'
_cell_volume   226.39744594
_cell_formula_units_Z   1
loop_
 _symmetry_equiv_pos_site_id
 _symmetry_equiv_pos_as_xyz
  1  'x, y, z'
loop_
 _atom_site_type_symbol
 _atom_site_label
 _atom_site_symmetry_multiplicity
 _atom_site_fract_x
 _atom_site_fract_y
 _atom_site_fract_z
 _atom_site_occupancy
  Tb  Tb0  1  0.500182  0.500182  0.000000  1
  Y  Y1  1  0.998788  0.998788  0.500000  1
  Re  Re2  1  0.657637  0.907414  0.000000  1
  Re  Re3  1  0.160457  0.590892  0.500000  1
  Re  Re4  1  0.091920  0.342904  0.000000  1
  Re  Re5  1  0.907414  0.657637  0.000000  1
  Re  Re6  1  0.413407  0.836906  0.500000  1
  Re  Re7  1  0.590892  0.160457  0.500000  1
  Re  Re8  1  0.342904  0.091920  0.000000  1
  Re  Re9  1  0.836906  0.413407  0.500000  1
  Si  Si10  1  0.209428  0.790949  0.000000  1
  Si  Si11  1  0.790949  0.209428  0.000000  1
  Si  Si12  1  0.290722  0.290722  0.500000  1
  P  P13  1  0.708393  0.708393  0.500000  1
