# generated using pymatgen
data_Yb2ZnAg6
_symmetry_space_group_name_H-M   'P 1'
_cell_length_a   5.49751514
_cell_length_b   5.49751624
_cell_length_c   13.94676600
_cell_angle_alpha   90.00000000
_cell_angle_beta   90.00000000
_cell_angle_gamma   119.85410149
_symmetry_Int_Tables_number   1
_chemical_formula_structural   Yb2ZnAg6
_chemical_formula_sum   'Yb4 Zn2 Ag12'
_cell_volume   365.57266311
_cell_formula_units_Z   2
loop_
 _symmetry_equiv_pos_site_id
 _symmetry_equiv_pos_as_xyz
  1  'x, y, z'
loop_
 _atom_site_type_symbol
 _atom_site_label
 _atom_site_symmetry_multiplicity
 _atom_site_fract_x
 _atom_site_fract_y
 _atom_site_fract_z
 _atom_site_occupancy
  Yb  Yb0  1  0.819367  0.819367  0.114400  1
  Yb  Yb1  1  0.181140  0.181140  0.883178  1
  Yb  Yb2  1  0.819367  0.819367  0.385600  1
  Yb  Yb3  1  0.181140  0.181140  0.616822  1
  Zn  Zn4  1  0.168777  0.670162  0.750000  1
  Zn  Zn5  1  0.670162  0.168777  0.750000  1
  Ag  Ag6  1  0.163279  0.490011  0.073533  1
  Ag  Ag7  1  0.509768  0.839282  0.919753  1
  Ag  Ag8  1  0.490011  0.163279  0.073533  1
  Ag  Ag9  1  0.839282  0.509768  0.580247  1
  Ag  Ag10  1  0.490011  0.163279  0.426467  1
  Ag  Ag11  1  0.839282  0.509768  0.919753  1
  Ag  Ag12  1  0.669180  0.669180  0.750000  1
  Ag  Ag13  1  0.326623  0.828704  0.250000  1
  Ag  Ag14  1  0.828704  0.326623  0.250000  1
  Ag  Ag15  1  0.509768  0.839282  0.580247  1
  Ag  Ag16  1  0.163279  0.490011  0.426467  1
  Ag  Ag17  1  0.330862  0.330862  0.250000  1
