# generated using pymatgen
data_PrNdY4CoBr10
_symmetry_space_group_name_H-M   'P 1'
_cell_length_a   7.43000750
_cell_length_b   9.27955782
_cell_length_c   9.30977223
_cell_angle_alpha   108.29382664
_cell_angle_beta   96.82233987
_cell_angle_gamma   103.88460034
_symmetry_Int_Tables_number   1
_chemical_formula_structural   PrNdY4CoBr10
_chemical_formula_sum   'Pr1 Nd1 Y4 Co1 Br10'
_cell_volume   578.36503291
_cell_formula_units_Z   1
loop_
 _symmetry_equiv_pos_site_id
 _symmetry_equiv_pos_as_xyz
  1  'x, y, z'
loop_
 _atom_site_type_symbol
 _atom_site_label
 _atom_site_symmetry_multiplicity
 _atom_site_fract_x
 _atom_site_fract_y
 _atom_site_fract_z
 _atom_site_occupancy
  Pr  Pr0  1  0.464027  0.786606  0.590372  1
  Nd  Nd1  1  0.535169  0.214676  0.409942  1
  Y  Y2  1  0.377524  0.454383  0.745676  1
  Y  Y3  1  0.622563  0.545098  0.254151  1
  Y  Y4  1  0.853534  0.626972  0.676382  1
  Y  Y5  1  0.146658  0.372507  0.323537  1
  Co  Co6  1  0.500087  0.499335  0.499792  1
  Br  Br7  1  0.411010  0.137763  0.679223  1
  Br  Br8  1  0.589344  0.862973  0.319881  1
  Br  Br9  1  0.038663  0.675179  0.413501  1
  Br  Br10  1  0.960415  0.324457  0.586052  1
  Br  Br11  1  0.268537  0.745140  0.849787  1
  Br  Br12  1  0.730771  0.254512  0.151021  1
  Br  Br13  1  0.254295  0.416377  0.043367  1
  Br  Br14  1  0.745701  0.583621  0.956636  1
  Br  Br15  1  0.855555  0.943486  0.771869  1
  Br  Br16  1  0.146145  0.056915  0.228812  1
