# generated using pymatgen
data_Ac4(NdRh)3
_symmetry_space_group_name_H-M   'P 1'
_cell_length_a   6.66109300
_cell_length_b   10.45245802
_cell_length_c   10.45245801
_cell_angle_alpha   120.00334518
_cell_angle_beta   90.00000000
_cell_angle_gamma   90.00000000
_symmetry_Int_Tables_number   1
_chemical_formula_structural   Ac4(NdRh)3
_chemical_formula_sum   'Ac8 Nd6 Rh6'
_cell_volume   630.22895455
_cell_formula_units_Z   2
loop_
 _symmetry_equiv_pos_site_id
 _symmetry_equiv_pos_as_xyz
  1  'x, y, z'
loop_
 _atom_site_type_symbol
 _atom_site_label
 _atom_site_symmetry_multiplicity
 _atom_site_fract_x
 _atom_site_fract_y
 _atom_site_fract_z
 _atom_site_occupancy
  Ac  Ac0  1  0.476188  0.333356  0.666644  1
  Ac  Ac1  1  0.976188  0.666644  0.333356  1
  Ac  Ac2  1  0.231508  0.128439  0.871561  1
  Ac  Ac3  1  0.231494  0.743142  0.871571  1
  Ac  Ac4  1  0.231494  0.128429  0.256858  1
  Ac  Ac5  1  0.731508  0.871561  0.128439  1
  Ac  Ac6  1  0.731494  0.256858  0.128429  1
  Ac  Ac7  1  0.731494  0.871571  0.743142  1
  Nd  Nd8  1  0.434798  0.541800  0.458200  1
  Nd  Nd9  1  0.434733  0.916419  0.458224  1
  Nd  Nd10  1  0.434733  0.541776  0.083581  1
  Nd  Nd11  1  0.934798  0.458200  0.541800  1
  Nd  Nd12  1  0.934733  0.083581  0.541776  1
  Nd  Nd13  1  0.934733  0.458224  0.916419  1
  Rh  Rh14  1  0.205933  0.811192  0.188808  1
  Rh  Rh15  1  0.206060  0.377486  0.188741  1
  Rh  Rh16  1  0.206060  0.811259  0.622514  1
  Rh  Rh17  1  0.705933  0.188808  0.811192  1
  Rh  Rh18  1  0.706060  0.622514  0.811259  1
  Rh  Rh19  1  0.706060  0.188741  0.377486  1
