# generated using pymatgen
data_Cs4MgCd3(SiAs2)4
_symmetry_space_group_name_H-M   'P 1'
_cell_length_a   8.84073490
_cell_length_b   8.61345071
_cell_length_c   8.77793770
_cell_angle_alpha   70.81584855
_cell_angle_beta   76.27393759
_cell_angle_gamma   73.50348326
_symmetry_Int_Tables_number   1
_chemical_formula_structural   Cs4MgCd3(SiAs2)4
_chemical_formula_sum   'Cs4 Mg1 Cd3 Si4 As8'
_cell_volume   597.62797345
_cell_formula_units_Z   1
loop_
 _symmetry_equiv_pos_site_id
 _symmetry_equiv_pos_as_xyz
  1  'x, y, z'
loop_
 _atom_site_type_symbol
 _atom_site_label
 _atom_site_symmetry_multiplicity
 _atom_site_fract_x
 _atom_site_fract_y
 _atom_site_fract_z
 _atom_site_occupancy
  Cs  Cs0  1  0.447967  0.765026  0.320230  1
  Cs  Cs1  1  0.551279  0.236957  0.678164  1
  Cs  Cs2  1  0.433703  0.800385  0.817178  1
  Cs  Cs3  1  0.567855  0.199302  0.184295  1
  Mg  Mg4  1  0.993340  0.889043  0.683064  1
  Cd  Cd5  1  0.005169  0.103624  0.310544  1
  Cd  Cd6  1  0.966456  0.816791  0.171403  1
  Cd  Cd7  1  0.030621  0.182416  0.831011  1
  Si  Si8  1  0.965320  0.582844  0.597001  1
  Si  Si9  1  0.037640  0.415085  0.404989  1
  Si  Si10  1  0.138753  0.450565  0.979609  1
  Si  Si11  1  0.861514  0.552850  0.020048  1
  As  As12  1  0.821703  0.862550  0.469535  1
  As  As13  1  0.173682  0.132927  0.536926  1
  As  As14  1  0.799182  0.413378  0.308772  1
  As  As15  1  0.201560  0.590605  0.691820  1
  As  As16  1  0.780453  0.855459  0.957588  1
  As  As17  1  0.223787  0.149050  0.036678  1
  As  As18  1  0.782397  0.455580  0.825415  1
  As  As19  1  0.217619  0.545562  0.175731  1
