# generated using pymatgen
data_EuSc(Zn4Rh)2
_symmetry_space_group_name_H-M   'P 1'
_cell_length_a   8.38663021
_cell_length_b   8.38717239
_cell_length_c   8.38662900
_cell_angle_alpha   100.18599850
_cell_angle_beta   100.18554650
_cell_angle_gamma   130.26067882
_symmetry_Int_Tables_number   1
_chemical_formula_structural   EuSc(Zn4Rh)2
_chemical_formula_sum   'Eu2 Sc2 Zn16 Rh4'
_cell_volume   408.43959517
_cell_formula_units_Z   2
loop_
 _symmetry_equiv_pos_site_id
 _symmetry_equiv_pos_as_xyz
  1  'x, y, z'
loop_
 _atom_site_type_symbol
 _atom_site_label
 _atom_site_symmetry_multiplicity
 _atom_site_fract_x
 _atom_site_fract_y
 _atom_site_fract_z
 _atom_site_occupancy
  Eu  Eu0  1  0.000030  0.000055  0.000025  1
  Eu  Eu1  1  0.249970  0.749945  0.499975  1
  Sc  Sc2  1  0.749972  0.249974  0.500003  1
  Sc  Sc3  1  0.500028  0.500026  0.999997  1
  Zn  Zn4  1  0.183352  0.515226  0.085852  1
  Zn  Zn5  1  0.183364  0.097508  0.668134  1
  Zn  Zn6  1  0.765233  0.933360  0.585864  1
  Zn  Zn7  1  0.765220  0.179369  0.831867  1
  Zn  Zn8  1  0.429374  0.515226  0.331873  1
  Zn  Zn9  1  0.429373  0.097508  0.914143  1
  Zn  Zn10  1  0.347496  0.933360  0.168127  1
  Zn  Zn11  1  0.347502  0.179369  0.414150  1
  Zn  Zn12  1  0.066648  0.234774  0.414148  1
  Zn  Zn13  1  0.066636  0.652492  0.831866  1
  Zn  Zn14  1  0.484767  0.816640  0.914136  1
  Zn  Zn15  1  0.484780  0.570631  0.668133  1
  Zn  Zn16  1  0.820626  0.234774  0.168127  1
  Zn  Zn17  1  0.820627  0.652492  0.585857  1
  Zn  Zn18  1  0.902504  0.816640  0.331873  1
  Zn  Zn19  1  0.902498  0.570631  0.085850  1
  Rh  Rh20  1  0.125000  0.375000  0.750000  1
  Rh  Rh21  1  0.625000  0.875000  0.250000  1
  Rh  Rh22  1  0.625000  0.375000  0.750000  1
  Rh  Rh23  1  0.625000  0.375000  0.250000  1
