# generated using pymatgen
data_Sr6Mg(RhO6)2
_symmetry_space_group_name_H-M   'P 1'
_cell_length_a   8.81708404
_cell_length_b   8.81708442
_cell_length_c   6.96344546
_cell_angle_alpha   67.68996443
_cell_angle_beta   67.68996464
_cell_angle_gamma   36.94035875
_symmetry_Int_Tables_number   1
_chemical_formula_structural   Sr6Mg(RhO6)2
_chemical_formula_sum   'Sr6 Mg1 Rh2 O12'
_cell_volume   298.14509579
_cell_formula_units_Z   1
loop_
 _symmetry_equiv_pos_site_id
 _symmetry_equiv_pos_as_xyz
  1  'x, y, z'
loop_
 _atom_site_type_symbol
 _atom_site_label
 _atom_site_symmetry_multiplicity
 _atom_site_fract_x
 _atom_site_fract_y
 _atom_site_fract_z
 _atom_site_occupancy
  Sr  Sr0  1  0.209517  0.209517  0.709612  1
  Sr  Sr1  1  0.885862  0.885862  0.709475  1
  Sr  Sr2  1  0.548347  0.548347  0.711562  1
  Sr  Sr3  1  0.790483  0.790483  0.290388  1
  Sr  Sr4  1  0.451653  0.451653  0.288438  1
  Sr  Sr5  1  0.114138  0.114138  0.290525  1
  Mg  Mg6  1  0.000000  0.000000  0.000000  1
  Rh  Rh7  1  0.666156  0.666156  0.000244  1
  Rh  Rh8  1  0.333844  0.333844  0.999756  1
  O  O9  1  0.280624  0.280624  0.322335  1
  O  O10  1  0.943543  0.943543  0.331338  1
  O  O11  1  0.612676  0.612676  0.320344  1
  O  O12  1  0.719376  0.719376  0.677665  1
  O  O13  1  0.387324  0.387324  0.679656  1
  O  O14  1  0.056457  0.056457  0.668662  1
  O  O15  1  0.000000  0.500000  0.000000  1
  O  O16  1  0.658094  0.171173  0.000492  1
  O  O17  1  0.341906  0.828827  0.999508  1
  O  O18  1  0.500000  0.000000  0.000000  1
  O  O19  1  0.171173  0.658094  0.000492  1
  O  O20  1  0.828827  0.341906  0.999508  1
