# generated using pymatgen
data_Ac2TbCu5(Ni4B)2
_symmetry_space_group_name_H-M   'P 1'
_cell_length_a   5.19149700
_cell_length_b   5.16999279
_cell_length_c   10.93452600
_cell_angle_alpha   90.00000000
_cell_angle_beta   90.00000000
_cell_angle_gamma   120.13766916
_symmetry_Int_Tables_number   1
_chemical_formula_structural   Ac2TbCu5(Ni4B)2
_chemical_formula_sum   'Ac2 Tb1 Cu5 Ni8 B2'
_cell_volume   253.81015371
_cell_formula_units_Z   1
loop_
 _symmetry_equiv_pos_site_id
 _symmetry_equiv_pos_as_xyz
  1  'x, y, z'
loop_
 _atom_site_type_symbol
 _atom_site_label
 _atom_site_symmetry_multiplicity
 _atom_site_fract_x
 _atom_site_fract_y
 _atom_site_fract_z
 _atom_site_occupancy
  Ac  Ac0  1  0.000000  0.000000  0.324191  1
  Ac  Ac1  1  0.000000  0.000000  0.675809  1
  Tb  Tb2  1  0.000000  0.000000  0.000000  1
  Cu  Cu3  1  0.500000  0.000000  0.500000  1
  Cu  Cu4  1  0.331090  0.662180  0.313735  1
  Cu  Cu5  1  0.668910  0.337820  0.313735  1
  Cu  Cu6  1  0.668910  0.337820  0.686265  1
  Cu  Cu7  1  0.331090  0.662180  0.686265  1
  Ni  Ni8  1  0.500000  0.500000  0.500000  1
  Ni  Ni9  1  0.000000  0.500000  0.500000  1
  Ni  Ni10  1  0.500000  0.000000  0.125873  1
  Ni  Ni11  1  0.500000  0.500000  0.125267  1
  Ni  Ni12  1  0.000000  0.500000  0.125267  1
  Ni  Ni13  1  0.500000  0.000000  0.874127  1
  Ni  Ni14  1  0.500000  0.500000  0.874733  1
  Ni  Ni15  1  0.000000  0.500000  0.874733  1
  B  B16  1  0.333870  0.667742  0.000000  1
  B  B17  1  0.666130  0.332258  0.000000  1
