# generated using pymatgen
data_CaPrSi7Rh12
_symmetry_space_group_name_H-M   'P 1'
_cell_length_a   9.79199700
_cell_length_b   9.79199712
_cell_length_c   3.87472500
_cell_angle_alpha   90.00000000
_cell_angle_beta   90.00000000
_cell_angle_gamma   120.00000299
_symmetry_Int_Tables_number   1
_chemical_formula_structural   CaPrSi7Rh12
_chemical_formula_sum   'Ca1 Pr1 Si7 Rh12'
_cell_volume   321.74666356
_cell_formula_units_Z   1
loop_
 _symmetry_equiv_pos_site_id
 _symmetry_equiv_pos_as_xyz
  1  'x, y, z'
loop_
 _atom_site_type_symbol
 _atom_site_label
 _atom_site_symmetry_multiplicity
 _atom_site_fract_x
 _atom_site_fract_y
 _atom_site_fract_z
 _atom_site_occupancy
  Ca  Ca0  1  0.333333  0.666667  0.251767  1
  Pr  Pr1  1  0.000000  0.000000  0.750042  1
  Si  Si2  1  0.666667  0.333333  0.523483  1
  Si  Si3  1  0.065918  0.622363  0.751065  1
  Si  Si4  1  0.377637  0.443554  0.751065  1
  Si  Si5  1  0.556446  0.934082  0.751065  1
  Si  Si6  1  0.270565  0.043119  0.250225  1
  Si  Si7  1  0.956881  0.227447  0.250225  1
  Si  Si8  1  0.772553  0.729435  0.250225  1
  Rh  Rh9  1  0.810868  0.595725  0.745431  1
  Rh  Rh10  1  0.404275  0.215142  0.745431  1
  Rh  Rh11  1  0.784858  0.189132  0.745431  1
  Rh  Rh12  1  0.526593  0.075451  0.257413  1
  Rh  Rh13  1  0.924549  0.451142  0.257413  1
  Rh  Rh14  1  0.548858  0.473407  0.257413  1
  Rh  Rh15  1  0.109762  0.396193  0.752501  1
  Rh  Rh16  1  0.603807  0.713569  0.752501  1
  Rh  Rh17  1  0.286431  0.890238  0.752501  1
  Rh  Rh18  1  0.225889  0.274268  0.248248  1
  Rh  Rh19  1  0.725732  0.951620  0.248248  1
  Rh  Rh20  1  0.048380  0.774111  0.248248  1
