# generated using pymatgen
data_Pr2SiPdCl2
_symmetry_space_group_name_H-M   'P 1'
_cell_length_a   4.26077200
_cell_length_b   4.26077118
_cell_length_c   10.71510900
_cell_angle_alpha   90.00000000
_cell_angle_beta   90.00000000
_cell_angle_gamma   119.99997531
_symmetry_Int_Tables_number   1
_chemical_formula_structural   Pr2SiPdCl2
_chemical_formula_sum   'Pr2 Si1 Pd1 Cl2'
_cell_volume   168.46273209
_cell_formula_units_Z   1
loop_
 _symmetry_equiv_pos_site_id
 _symmetry_equiv_pos_as_xyz
  1  'x, y, z'
loop_
 _atom_site_type_symbol
 _atom_site_label
 _atom_site_symmetry_multiplicity
 _atom_site_fract_x
 _atom_site_fract_y
 _atom_site_fract_z
 _atom_site_occupancy
  Pr  Pr0  1  0.000000  0.000000  0.181498  1
  Pr  Pr1  1  0.000000  0.000000  0.816362  1
  Si  Si2  1  0.666667  0.333333  0.990142  1
  Pd  Pd3  1  0.333333  0.666667  0.008739  1
  Cl  Cl4  1  0.333333  0.666667  0.664533  1
  Cl  Cl5  1  0.666667  0.333333  0.338728  1
