# generated using pymatgen
data_Sm8Ho12Si15P
_symmetry_space_group_name_H-M   'P 1'
_cell_length_a   7.52314694
_cell_length_b   7.69290299
_cell_length_c   14.70911877
_cell_angle_alpha   89.94064843
_cell_angle_beta   87.09165173
_cell_angle_gamma   89.95669473
_symmetry_Int_Tables_number   1
_chemical_formula_structural   Sm8Ho12Si15P
_chemical_formula_sum   'Sm8 Ho12 Si15 P1'
_cell_volume   850.19074141
_cell_formula_units_Z   1
loop_
 _symmetry_equiv_pos_site_id
 _symmetry_equiv_pos_as_xyz
  1  'x, y, z'
loop_
 _atom_site_type_symbol
 _atom_site_label
 _atom_site_symmetry_multiplicity
 _atom_site_fract_x
 _atom_site_fract_y
 _atom_site_fract_z
 _atom_site_occupancy
  Sm  Sm0  1  0.024709  0.182860  0.100261  1
  Sm  Sm1  1  0.976054  0.818262  0.899066  1
  Sm  Sm2  1  0.475939  0.682573  0.898811  1
  Sm  Sm3  1  0.994716  0.818148  0.597166  1
  Sm  Sm4  1  0.524429  0.318109  0.100617  1
  Sm  Sm5  1  0.003818  0.178665  0.402110  1
  Sm  Sm6  1  0.502734  0.316944  0.401850  1
  Sm  Sm7  1  0.497225  0.679999  0.597701  1
  Ho  Ho8  1  0.166008  0.507182  0.746435  1
  Ho  Ho9  1  0.834292  0.493815  0.254997  1
  Ho  Ho10  1  0.332484  0.005844  0.254819  1
  Ho  Ho11  1  0.666843  0.993880  0.745446  1
  Ho  Ho12  1  0.346732  0.171633  0.620712  1
  Ho  Ho13  1  0.652117  0.831955  0.378420  1
  Ho  Ho14  1  0.153419  0.660982  0.384834  1
  Ho  Ho15  1  0.676034  0.822515  0.122859  1
  Ho  Ho16  1  0.851025  0.334159  0.617928  1
  Ho  Ho17  1  0.324010  0.177925  0.876214  1
  Ho  Ho18  1  0.825318  0.322066  0.876484  1
  Ho  Ho19  1  0.174350  0.678557  0.122529  1
  Si  Si20  1  0.039900  0.111607  0.750312  1
  Si  Si21  1  0.960504  0.887749  0.249072  1
  Si  Si22  1  0.457425  0.611431  0.248593  1
  Si  Si23  1  0.541973  0.388738  0.750424  1
  Si  Si24  1  0.282444  0.875064  0.750502  1
  Si  Si25  1  0.719079  0.125191  0.248632  1
  Si  Si26  1  0.217762  0.375708  0.249028  1
  Si  Si27  1  0.783064  0.624805  0.750579  1
  Si  Si28  1  0.798706  0.536718  0.456435  1
  Si  Si29  1  0.308911  0.961010  0.459137  1
  Si  Si30  1  0.855135  0.530339  0.040589  1
  Si  Si31  1  0.689066  0.038160  0.542274  1
  Si  Si32  1  0.144456  0.470962  0.958086  1
  Si  Si33  1  0.643330  0.030055  0.958027  1
  Si  Si34  1  0.356224  0.970814  0.041284  1
  P  P35  1  0.199763  0.465578  0.547764  1
