# generated using pymatgen
data_U8ReTc(B12W)2
_symmetry_space_group_name_H-M   'P 1'
_cell_length_a   3.66155400
_cell_length_b   9.28452096
_cell_length_c   11.37224200
_cell_angle_alpha   90.02458818
_cell_angle_beta   90.00000000
_cell_angle_gamma   90.00000000
_symmetry_Int_Tables_number   1
_chemical_formula_structural   U8ReTc(B12W)2
_chemical_formula_sum   'U8 Re1 Tc1 B24 W2'
_cell_volume   386.60814302
_cell_formula_units_Z   1
loop_
 _symmetry_equiv_pos_site_id
 _symmetry_equiv_pos_as_xyz
  1  'x, y, z'
loop_
 _atom_site_type_symbol
 _atom_site_label
 _atom_site_symmetry_multiplicity
 _atom_site_fract_x
 _atom_site_fract_y
 _atom_site_fract_z
 _atom_site_occupancy
  U  U0  1  0.000000  0.335264  0.407389  1
  U  U1  1  0.000000  0.663868  0.592712  1
  U  U2  1  0.000000  0.836293  0.092399  1
  U  U3  1  0.000000  0.164963  0.907454  1
  U  U4  1  0.000000  0.955998  0.394989  1
  U  U5  1  0.000000  0.043970  0.604571  1
  U  U6  1  0.000000  0.456271  0.104972  1
  U  U7  1  0.000000  0.543711  0.895405  1
  Re  Re8  1  0.000000  0.855311  0.820240  1
  Tc  Tc9  1  0.000000  0.644535  0.320170  1
  B  B10  1  0.500000  0.550149  0.432444  1
  B  B11  1  0.500000  0.450753  0.566228  1
  B  B12  1  0.500000  0.049329  0.066200  1
  B  B13  1  0.500000  0.949962  0.932437  1
  B  B14  1  0.500000  0.742409  0.423559  1
  B  B15  1  0.500000  0.256602  0.575317  1
  B  B16  1  0.500000  0.243554  0.075450  1
  B  B17  1  0.500000  0.757285  0.923827  1
  B  B18  1  0.500000  0.803194  0.273293  1
  B  B19  1  0.500000  0.195444  0.727216  1
  B  B20  1  0.500000  0.304643  0.227237  1
  B  B21  1  0.500000  0.696715  0.773412  1
  B  B22  1  0.500000  0.644815  0.188434  1
  B  B23  1  0.500000  0.355041  0.812852  1
  B  B24  1  0.500000  0.144954  0.312687  1
  B  B25  1  0.500000  0.855197  0.688152  1
  B  B26  1  0.500000  0.984431  0.218938  1
  B  B27  1  0.500000  0.013595  0.781303  1
  B  B28  1  0.500000  0.486510  0.281382  1
  B  B29  1  0.500000  0.515407  0.719070  1
  B  B30  1  0.500000  0.643551  0.039959  1
  B  B31  1  0.500000  0.357475  0.960582  1
  B  B32  1  0.500000  0.142598  0.460366  1
  B  B33  1  0.500000  0.856294  0.539580  1
  W  W34  1  0.000000  0.355111  0.679974  1
  W  W35  1  0.000000  0.144795  0.179800  1
