# generated using pymatgen
data_Mg3Zn(BrO3)8
_symmetry_space_group_name_H-M   'P 1'
_cell_length_a   5.59787120
_cell_length_b   10.63704857
_cell_length_c   10.66147714
_cell_angle_alpha   119.36380075
_cell_angle_beta   90.03792978
_cell_angle_gamma   89.89551853
_symmetry_Int_Tables_number   1
_chemical_formula_structural   Mg3Zn(BrO3)8
_chemical_formula_sum   'Mg3 Zn1 Br8 O24'
_cell_volume   553.27358009
_cell_formula_units_Z   1
loop_
 _symmetry_equiv_pos_site_id
 _symmetry_equiv_pos_as_xyz
  1  'x, y, z'
loop_
 _atom_site_type_symbol
 _atom_site_label
 _atom_site_symmetry_multiplicity
 _atom_site_fract_x
 _atom_site_fract_y
 _atom_site_fract_z
 _atom_site_occupancy
  Mg  Mg0  1  0.640550  0.239399  0.495061  1
  Mg  Mg1  1  0.139356  0.260039  0.004556  1
  Mg  Mg2  1  0.638792  0.739885  0.994660  1
  Zn  Zn3  1  0.149157  0.760875  0.504689  1
  Br  Br4  1  0.260330  0.416016  0.348429  1
  Br  Br5  1  0.761696  0.584396  0.650900  1
  Br  Br6  1  0.257963  0.914131  0.848012  1
  Br  Br7  1  0.758268  0.085569  0.151268  1
  Br  Br8  1  0.782818  0.084316  0.686975  1
  Br  Br9  1  0.281225  0.915708  0.314021  1
  Br  Br10  1  0.282242  0.414642  0.812245  1
  Br  Br11  1  0.783451  0.586240  0.188346  1
  O  O12  1  0.427610  0.882061  0.959342  1
  O  O13  1  0.930116  0.117609  0.040829  1
  O  O14  1  0.373610  0.803995  0.682305  1
  O  O15  1  0.867893  0.195200  0.317864  1
  O  O16  1  0.367600  0.305237  0.181339  1
  O  O17  1  0.868372  0.695000  0.818195  1
  O  O18  1  0.926541  0.221456  0.826047  1
  O  O19  1  0.423146  0.779008  0.173927  1
  O  O20  1  0.928267  0.932470  0.656922  1
  O  O21  1  0.426439  0.066808  0.345029  1
  O  O22  1  0.355348  0.078812  0.883642  1
  O  O23  1  0.855179  0.920629  0.116132  1
  O  O24  1  0.425411  0.278273  0.672342  1
  O  O25  1  0.926801  0.724410  0.327687  1
  O  O26  1  0.354518  0.389128  0.952157  1
  O  O27  1  0.852831  0.610065  0.047066  1
  O  O28  1  0.428372  0.565888  0.844247  1
  O  O29  1  0.931617  0.435354  0.156967  1
  O  O30  1  0.363798  0.579991  0.382076  1
  O  O31  1  0.857064  0.419432  0.617070  1
  O  O32  1  0.432132  0.382299  0.457579  1
  O  O33  1  0.938068  0.614894  0.540467  1
  O  O34  1  0.854181  0.107578  0.545574  1
  O  O35  1  0.358839  0.893189  0.456034  1
