# generated using pymatgen
data_SmDyB6MoW
_symmetry_space_group_name_H-M   'P 1'
_cell_length_a   3.17425500
_cell_length_b   5.50156189
_cell_length_c   6.88899318
_cell_angle_alpha   77.38675364
_cell_angle_beta   90.00000000
_cell_angle_gamma   90.00000000
_symmetry_Int_Tables_number   1
_chemical_formula_structural   SmDyB6MoW
_chemical_formula_sum   'Sm1 Dy1 B6 Mo1 W1'
_cell_volume   117.40156655
_cell_formula_units_Z   1
loop_
 _symmetry_equiv_pos_site_id
 _symmetry_equiv_pos_as_xyz
  1  'x, y, z'
loop_
 _atom_site_type_symbol
 _atom_site_label
 _atom_site_symmetry_multiplicity
 _atom_site_fract_x
 _atom_site_fract_y
 _atom_site_fract_z
 _atom_site_occupancy
  Sm  Sm0  1  0.250000  0.330373  0.704490  1
  Dy  Dy1  1  0.750000  0.675732  0.288208  1
  B  B2  1  0.250000  0.916531  0.524440  1
  B  B3  1  0.750000  0.072712  0.472271  1
  B  B4  1  0.250000  0.913365  0.006387  1
  B  B5  1  0.750000  0.087588  0.997467  1
  B  B6  1  0.250000  0.584150  0.008270  1
  B  B7  1  0.750000  0.417976  0.996422  1
  Mo  Mo8  1  0.750000  0.813930  0.782829  1
  W  W9  1  0.250000  0.187644  0.219215  1
