# generated using pymatgen
data_SrP2PbO8
_symmetry_space_group_name_H-M   'P 1'
_cell_length_a   5.39415766
_cell_length_b   7.80340360
_cell_length_c   8.24968519
_cell_angle_alpha   92.76299058
_cell_angle_beta   89.97046781
_cell_angle_gamma   89.92994159
_symmetry_Int_Tables_number   1
_chemical_formula_structural   SrP2PbO8
_chemical_formula_sum   'Sr2 P4 Pb2 O16'
_cell_volume   346.84825754
_cell_formula_units_Z   2
loop_
 _symmetry_equiv_pos_site_id
 _symmetry_equiv_pos_as_xyz
  1  'x, y, z'
loop_
 _atom_site_type_symbol
 _atom_site_label
 _atom_site_symmetry_multiplicity
 _atom_site_fract_x
 _atom_site_fract_y
 _atom_site_fract_z
 _atom_site_occupancy
  Sr  Sr0  1  0.686633  0.501452  0.752259  1
  Sr  Sr1  1  0.313367  0.498548  0.247741  1
  P  P2  1  0.240032  0.777961  0.881423  1
  P  P3  1  0.239209  0.223344  0.616756  1
  P  P4  1  0.760791  0.776656  0.383244  1
  P  P5  1  0.759968  0.222039  0.118577  1
  Pb  Pb6  1  0.260876  0.998497  0.251241  1
  Pb  Pb7  1  0.739124  0.001503  0.748759  1
  O  O8  1  0.753838  0.944877  0.491257  1
  O  O9  1  0.246162  0.055123  0.508743  1
  O  O10  1  0.984471  0.776660  0.787859  1
  O  O11  1  0.015529  0.223340  0.212141  1
  O  O12  1  0.246764  0.942963  0.993380  1
  O  O13  1  0.753236  0.057037  0.006620  1
  O  O14  1  0.725825  0.394671  0.043726  1
  O  O15  1  0.015904  0.773491  0.288605  1
  O  O16  1  0.543626  0.792836  0.256231  1
  O  O17  1  0.456374  0.207164  0.743769  1
  O  O18  1  0.728277  0.606665  0.462508  1
  O  O19  1  0.984096  0.226509  0.711395  1
  O  O20  1  0.543154  0.203321  0.245381  1
  O  O21  1  0.271723  0.393335  0.537492  1
  O  O22  1  0.274175  0.605329  0.956274  1
  O  O23  1  0.456846  0.796679  0.754619  1
