# generated using pymatgen
data_Tb3Ho2Lu3(CdIr)2
_symmetry_space_group_name_H-M   'P 1'
_cell_length_a   9.55544825
_cell_length_b   9.55544742
_cell_length_c   9.55544900
_cell_angle_alpha   59.99999801
_cell_angle_beta   60.00000086
_cell_angle_gamma   59.99999972
_symmetry_Int_Tables_number   1
_chemical_formula_structural   Tb3Ho2Lu3(CdIr)2
_chemical_formula_sum   'Tb6 Ho4 Lu6 Cd4 Ir4'
_cell_volume   616.93326562
_cell_formula_units_Z   2
loop_
 _symmetry_equiv_pos_site_id
 _symmetry_equiv_pos_as_xyz
  1  'x, y, z'
loop_
 _atom_site_type_symbol
 _atom_site_label
 _atom_site_symmetry_multiplicity
 _atom_site_fract_x
 _atom_site_fract_y
 _atom_site_fract_z
 _atom_site_occupancy
  Tb  Tb0  1  0.189266  0.810734  0.810734  1
  Tb  Tb1  1  0.810734  0.189266  0.189266  1
  Tb  Tb2  1  0.810734  0.189266  0.810734  1
  Tb  Tb3  1  0.189266  0.810734  0.189266  1
  Tb  Tb4  1  0.810734  0.810734  0.189266  1
  Tb  Tb5  1  0.189266  0.189266  0.810734  1
  Ho  Ho6  1  0.599248  0.599248  0.599248  1
  Ho  Ho7  1  0.599248  0.599248  0.202259  1
  Ho  Ho8  1  0.599248  0.202259  0.599248  1
  Ho  Ho9  1  0.202259  0.599248  0.599248  1
  Lu  Lu10  1  0.062925  0.437075  0.437075  1
  Lu  Lu11  1  0.437075  0.062925  0.062925  1
  Lu  Lu12  1  0.437075  0.062925  0.437075  1
  Lu  Lu13  1  0.062925  0.437075  0.062925  1
  Lu  Lu14  1  0.437075  0.437075  0.062925  1
  Lu  Lu15  1  0.062925  0.062925  0.437075  1
  Cd  Cd16  1  0.830426  0.830426  0.830426  1
  Cd  Cd17  1  0.830426  0.830426  0.508724  1
  Cd  Cd18  1  0.830426  0.508724  0.830426  1
  Cd  Cd19  1  0.508724  0.830426  0.830426  1
  Ir  Ir20  1  0.390793  0.390793  0.390793  1
  Ir  Ir21  1  0.390793  0.390793  0.827621  1
  Ir  Ir22  1  0.390793  0.827621  0.390793  1
  Ir  Ir23  1  0.827621  0.390793  0.390793  1
