# generated using pymatgen
data_Sc6Sn6HgRh5
_symmetry_space_group_name_H-M   'P 1'
_cell_length_a   7.63051600
_cell_length_b   7.63051503
_cell_length_c   7.00227500
_cell_angle_alpha   90.00000000
_cell_angle_beta   90.00000000
_cell_angle_gamma   120.00001289
_symmetry_Int_Tables_number   1
_chemical_formula_structural   Sc6Sn6HgRh5
_chemical_formula_sum   'Sc6 Sn6 Hg1 Rh5'
_cell_volume   353.08356055
_cell_formula_units_Z   1
loop_
 _symmetry_equiv_pos_site_id
 _symmetry_equiv_pos_as_xyz
  1  'x, y, z'
loop_
 _atom_site_type_symbol
 _atom_site_label
 _atom_site_symmetry_multiplicity
 _atom_site_fract_x
 _atom_site_fract_y
 _atom_site_fract_z
 _atom_site_occupancy
  Sc  Sc0  1  0.385532  0.986243  0.238937  1
  Sc  Sc1  1  0.600711  0.614468  0.238937  1
  Sc  Sc2  1  0.013757  0.399289  0.238937  1
  Sc  Sc3  1  0.384897  0.985174  0.761088  1
  Sc  Sc4  1  0.600277  0.615103  0.761088  1
  Sc  Sc5  1  0.014826  0.399723  0.761088  1
  Sn  Sn6  1  0.284474  0.278529  0.999901  1
  Sn  Sn7  1  0.994056  0.715526  0.999901  1
  Sn  Sn8  1  0.012502  0.744431  0.499870  1
  Sn  Sn9  1  0.731928  0.987498  0.499870  1
  Sn  Sn10  1  0.255569  0.268072  0.499870  1
  Sn  Sn11  1  0.721471  0.005944  0.999901  1
  Hg  Hg12  1  0.666667  0.333333  0.501548  1
  Rh  Rh13  1  0.000000  0.000000  0.767936  1
  Rh  Rh14  1  0.000000  0.000000  0.231848  1
  Rh  Rh15  1  0.666667  0.333333  0.999169  1
  Rh  Rh16  1  0.333333  0.666667  0.498901  1
  Rh  Rh17  1  0.333333  0.666667  0.001206  1
