# generated using pymatgen
data_Mg(PaPt4)3
_symmetry_space_group_name_H-M   'P 1'
_cell_length_a   5.79954000
_cell_length_b   5.79954003
_cell_length_c   9.70507000
_cell_angle_alpha   90.00000000
_cell_angle_beta   90.00000000
_cell_angle_gamma   119.99999985
_symmetry_Int_Tables_number   1
_chemical_formula_structural   Mg(PaPt4)3
_chemical_formula_sum   'Mg1 Pa3 Pt12'
_cell_volume   282.69387749
_cell_formula_units_Z   1
loop_
 _symmetry_equiv_pos_site_id
 _symmetry_equiv_pos_as_xyz
  1  'x, y, z'
loop_
 _atom_site_type_symbol
 _atom_site_label
 _atom_site_symmetry_multiplicity
 _atom_site_fract_x
 _atom_site_fract_y
 _atom_site_fract_z
 _atom_site_occupancy
  Mg  Mg0  1  0.666667  0.333333  0.750000  1
  Pa  Pa1  1  0.000000  0.000000  0.508286  1
  Pa  Pa2  1  0.333333  0.666667  0.250000  1
  Pa  Pa3  1  0.000000  0.000000  0.991714  1
  Pt  Pt4  1  0.171049  0.342098  0.750000  1
  Pt  Pt5  1  0.999529  0.499765  0.996538  1
  Pt  Pt6  1  0.831461  0.662925  0.250000  1
  Pt  Pt7  1  0.337075  0.168539  0.250000  1
  Pt  Pt8  1  0.500235  0.499765  0.996538  1
  Pt  Pt9  1  0.831461  0.168539  0.250000  1
  Pt  Pt10  1  0.500235  0.499765  0.503462  1
  Pt  Pt11  1  0.500235  0.000471  0.503462  1
  Pt  Pt12  1  0.171049  0.828951  0.750000  1
  Pt  Pt13  1  0.657902  0.828951  0.750000  1
  Pt  Pt14  1  0.500235  0.000471  0.996538  1
  Pt  Pt15  1  0.999529  0.499765  0.503462  1
