# generated using pymatgen
data_ErHf7Ta7Ti5Si16
_symmetry_space_group_name_H-M   'P 1'
_cell_length_a   6.84948880
_cell_length_b   6.85464695
_cell_length_c   12.61377854
_cell_angle_alpha   89.99632627
_cell_angle_beta   89.94960611
_cell_angle_gamma   89.96093294
_symmetry_Int_Tables_number   1
_chemical_formula_structural   ErHf7Ta7Ti5Si16
_chemical_formula_sum   'Er1 Hf7 Ta7 Ti5 Si16'
_cell_volume   592.22697290
_cell_formula_units_Z   1
loop_
 _symmetry_equiv_pos_site_id
 _symmetry_equiv_pos_as_xyz
  1  'x, y, z'
loop_
 _atom_site_type_symbol
 _atom_site_label
 _atom_site_symmetry_multiplicity
 _atom_site_fract_x
 _atom_site_fract_y
 _atom_site_fract_z
 _atom_site_occupancy
  Er  Er0  1  0.996265  0.660946  0.030466  1
  Hf  Hf1  1  0.342767  0.999408  0.470627  1
  Hf  Hf2  1  0.500720  0.843348  0.718938  1
  Hf  Hf3  1  0.497223  0.157921  0.221796  1
  Hf  Hf4  1  0.841669  0.502513  0.281458  1
  Hf  Hf5  1  0.160662  0.498648  0.779784  1
  Hf  Hf6  1  0.654372  0.001933  0.969245  1
  Hf  Hf7  1  0.999415  0.342253  0.529911  1
  Ta  Ta8  1  0.331304  0.328058  0.999668  1
  Ta  Ta9  1  0.170904  0.830553  0.251176  1
  Ta  Ta10  1  0.829623  0.170258  0.748238  1
  Ta  Ta11  1  0.671022  0.669935  0.499732  1
  Ta  Ta12  1  0.155006  0.003535  0.871340  1
  Ta  Ta13  1  0.496511  0.651389  0.124638  1
  Ta  Ta14  1  0.503632  0.347910  0.622610  1
  Ti  Ti15  1  0.652256  0.493166  0.875178  1
  Ti  Ti16  1  0.348264  0.503583  0.377918  1
  Ti  Ti17  1  0.847607  0.996135  0.374403  1
  Ti  Ti18  1  0.005666  0.151960  0.128182  1
  Ti  Ti19  1  0.994865  0.847528  0.626015  1
  Si  Si20  1  0.205339  0.133660  0.674761  1
  Si  Si21  1  0.369687  0.705179  0.925013  1
  Si  Si22  1  0.635386  0.291765  0.424487  1
  Si  Si23  1  0.705801  0.357428  0.073046  1
  Si  Si24  1  0.291609  0.638996  0.572900  1
  Si  Si25  1  0.791996  0.870919  0.180736  1
  Si  Si26  1  0.135542  0.205847  0.324792  1
  Si  Si27  1  0.859697  0.794155  0.820156  1
  Si  Si28  1  0.297657  0.957963  0.064840  1
  Si  Si29  1  0.544371  0.798286  0.315857  1
  Si  Si30  1  0.456831  0.204074  0.813039  1
  Si  Si31  1  0.799864  0.546667  0.686043  1
  Si  Si32  1  0.201876  0.451815  0.188986  1
  Si  Si33  1  0.705582  0.043317  0.561825  1
  Si  Si34  1  0.953230  0.294920  0.936035  1
  Si  Si35  1  0.045779  0.704031  0.436163  1
