# generated using pymatgen
data_Dy5Si10Mo(PIr9)2
_symmetry_space_group_name_H-M   'P 1'
_cell_length_a   12.81776853
_cell_length_b   12.86319188
_cell_length_c   3.97016700
_cell_angle_alpha   90.00000000
_cell_angle_beta   90.00000000
_cell_angle_gamma   120.11729535
_symmetry_Int_Tables_number   1
_chemical_formula_structural   Dy5Si10Mo(PIr9)2
_chemical_formula_sum   'Dy5 Si10 Mo1 P2 Ir18'
_cell_volume   566.22110476
_cell_formula_units_Z   1
loop_
 _symmetry_equiv_pos_site_id
 _symmetry_equiv_pos_as_xyz
  1  'x, y, z'
loop_
 _atom_site_type_symbol
 _atom_site_label
 _atom_site_symmetry_multiplicity
 _atom_site_fract_x
 _atom_site_fract_y
 _atom_site_fract_z
 _atom_site_occupancy
  Dy  Dy0  1  0.329681  0.665241  0.500000  1
  Dy  Dy1  1  0.670319  0.335560  0.500000  1
  Dy  Dy2  1  0.000000  0.810679  0.000000  1
  Dy  Dy3  1  0.184975  0.186458  0.000000  1
  Dy  Dy4  1  0.815025  0.001484  0.000000  1
  Si  Si5  1  0.000000  0.631480  0.500000  1
  Si  Si6  1  0.368937  0.367160  0.500000  1
  Si  Si7  1  0.631063  0.998224  0.500000  1
  Si  Si8  1  0.517465  0.686447  0.000000  1
  Si  Si9  1  0.311880  0.833979  0.000000  1
  Si  Si10  1  0.166111  0.479995  0.000000  1
  Si  Si11  1  0.482535  0.168982  0.000000  1
  Si  Si12  1  0.688120  0.522099  0.000000  1
  Si  Si13  1  0.833889  0.313884  0.000000  1
  Si  Si14  1  0.000000  0.177521  0.500000  1
  Mo  Mo15  1  0.000000  0.439844  0.500000  1
  P  P16  1  0.818384  0.820776  0.500000  1
  P  P17  1  0.181616  0.002392  0.500000  1
  Ir  Ir18  1  0.510992  0.871872  0.000000  1
  Ir  Ir19  1  0.128324  0.641819  0.000000  1
  Ir  Ir20  1  0.361251  0.487403  0.000000  1
  Ir  Ir21  1  0.489008  0.360879  0.000000  1
  Ir  Ir22  1  0.871676  0.513494  0.000000  1
  Ir  Ir23  1  0.638749  0.126151  0.000000  1
  Ir  Ir24  1  0.554339  0.552150  0.500000  1
  Ir  Ir25  1  0.445661  0.997813  0.500000  1
  Ir  Ir26  1  0.000000  0.278197  0.000000  1
  Ir  Ir27  1  0.720010  0.723048  0.000000  1
  Ir  Ir28  1  0.279990  0.003038  0.000000  1
  Ir  Ir29  1  0.623529  0.805009  0.500000  1
  Ir  Ir30  1  0.192287  0.822789  0.500000  1
  Ir  Ir31  1  0.183181  0.375174  0.500000  1
  Ir  Ir32  1  0.376471  0.181480  0.500000  1
  Ir  Ir33  1  0.807713  0.630503  0.500000  1
  Ir  Ir34  1  0.816819  0.191993  0.500000  1
  Ir  Ir35  1  0.000000  0.994982  0.500000  1
