# generated using pymatgen
data_PrNd3Pd4F28
_symmetry_space_group_name_H-M   'P 1'
_cell_length_a   5.64393123
_cell_length_b   9.14798739
_cell_length_c   12.25227814
_cell_angle_alpha   61.91838797
_cell_angle_beta   90.01610577
_cell_angle_gamma   90.01745310
_symmetry_Int_Tables_number   1
_chemical_formula_structural   PrNd3Pd4F28
_chemical_formula_sum   'Pr1 Nd3 Pd4 F28'
_cell_volume   558.12250380
_cell_formula_units_Z   1
loop_
 _symmetry_equiv_pos_site_id
 _symmetry_equiv_pos_as_xyz
  1  'x, y, z'
loop_
 _atom_site_type_symbol
 _atom_site_label
 _atom_site_symmetry_multiplicity
 _atom_site_fract_x
 _atom_site_fract_y
 _atom_site_fract_z
 _atom_site_occupancy
  Pr  Pr0  1  0.739127  0.810827  0.264468  1
  Nd  Nd1  1  0.760934  0.811052  0.764334  1
  Nd  Nd2  1  0.260997  0.189018  0.735693  1
  Nd  Nd3  1  0.239129  0.189956  0.235565  1
  Pd  Pd4  1  0.756787  0.273624  0.957298  1
  Pd  Pd5  1  0.256587  0.726675  0.542987  1
  Pd  Pd6  1  0.243466  0.726734  0.041790  1
  Pd  Pd7  1  0.743337  0.272453  0.457948  1
  F  F8  1  0.431111  0.706476  0.916162  1
  F  F9  1  0.931084  0.293294  0.583440  1
  F  F10  1  0.569193  0.293577  0.083184  1
  F  F11  1  0.070152  0.706060  0.417161  1
  F  F12  1  0.449828  0.282233  0.538703  1
  F  F13  1  0.949361  0.717550  0.961251  1
  F  F14  1  0.549843  0.716944  0.462553  1
  F  F15  1  0.050236  0.282672  0.038422  1
  F  F16  1  0.766416  0.514364  0.861530  1
  F  F17  1  0.266251  0.485789  0.638619  1
  F  F18  1  0.233648  0.486061  0.138145  1
  F  F19  1  0.733597  0.512866  0.361974  1
  F  F20  1  0.757565  0.032789  0.047349  1
  F  F21  1  0.257673  0.967693  0.452069  1
  F  F22  1  0.242528  0.967797  0.951707  1
  F  F23  1  0.742481  0.031512  0.548380  1
  F  F24  1  0.967999  0.727727  0.629705  1
  F  F25  1  0.468430  0.272423  0.870312  1
  F  F26  1  0.031551  0.272231  0.370622  1
  F  F27  1  0.531531  0.727236  0.128780  1
  F  F28  1  0.061477  0.740713  0.171553  1
  F  F29  1  0.559861  0.258542  0.328301  1
  F  F30  1  0.940376  0.258911  0.828012  1
  F  F31  1  0.440173  0.741293  0.672215  1
  F  F32  1  0.401645  0.967212  0.230309  1
  F  F33  1  0.904727  0.035589  0.269467  1
  F  F34  1  0.595394  0.033699  0.769291  1
  F  F35  1  0.095511  0.966408  0.730704  1
