# generated using pymatgen
data_Ce3Sn3Rh10
_symmetry_space_group_name_H-M   'P 1'
_cell_length_a   4.26659600
_cell_length_b   5.79559010
_cell_length_c   11.38161523
_cell_angle_alpha   91.71722436
_cell_angle_beta   90.00000000
_cell_angle_gamma   90.00000000
_symmetry_Int_Tables_number   1
_chemical_formula_structural   Ce3Sn3Rh10
_chemical_formula_sum   'Ce3 Sn3 Rh10'
_cell_volume   281.31183025
_cell_formula_units_Z   1
loop_
 _symmetry_equiv_pos_site_id
 _symmetry_equiv_pos_as_xyz
  1  'x, y, z'
loop_
 _atom_site_type_symbol
 _atom_site_label
 _atom_site_symmetry_multiplicity
 _atom_site_fract_x
 _atom_site_fract_y
 _atom_site_fract_z
 _atom_site_occupancy
  Ce  Ce0  1  0.500000  0.834890  0.361006  1
  Ce  Ce1  1  0.500000  0.666710  0.853203  1
  Ce  Ce2  1  0.500000  0.320859  0.143058  1
  Sn  Sn3  1  0.500000  0.164899  0.647398  1
  Sn  Sn4  1  0.000000  0.513313  0.498217  1
  Sn  Sn5  1  0.000000  0.994034  0.999364  1
  Rh  Rh6  1  0.500000  0.194189  0.887661  1
  Rh  Rh7  1  0.500000  0.795896  0.113132  1
  Rh  Rh8  1  0.500000  0.701797  0.610843  1
  Rh  Rh9  1  0.500000  0.311941  0.390964  1
  Rh  Rh10  1  0.000000  0.421874  0.730928  1
  Rh  Rh11  1  0.000000  0.568870  0.253701  1
  Rh  Rh12  1  0.000000  0.028128  0.507967  1
  Rh  Rh13  1  0.000000  0.494776  0.996508  1
  Rh  Rh14  1  0.000000  0.066894  0.248913  1
  Rh  Rh15  1  0.000000  0.920928  0.757139  1
