# generated using pymatgen
data_PrEr3Sb10
_symmetry_space_group_name_H-M   'P 1'
_cell_length_a   4.20869000
_cell_length_b   13.34597236
_cell_length_c   14.71810769
_cell_angle_alpha   78.83729618
_cell_angle_beta   90.00000000
_cell_angle_gamma   90.00000000
_symmetry_Int_Tables_number   1
_chemical_formula_structural   PrEr3Sb10
_chemical_formula_sum   'Pr2 Er6 Sb20'
_cell_volume   811.06221630
_cell_formula_units_Z   2
loop_
 _symmetry_equiv_pos_site_id
 _symmetry_equiv_pos_as_xyz
  1  'x, y, z'
loop_
 _atom_site_type_symbol
 _atom_site_label
 _atom_site_symmetry_multiplicity
 _atom_site_fract_x
 _atom_site_fract_y
 _atom_site_fract_z
 _atom_site_occupancy
  Pr  Pr0  1  0.250000  0.954232  0.360229  1
  Pr  Pr1  1  0.750000  0.045768  0.639771  1
  Er  Er2  1  0.250000  0.396574  0.771023  1
  Er  Er3  1  0.750000  0.603426  0.228977  1
  Er  Er4  1  0.250000  0.660198  0.858034  1
  Er  Er5  1  0.750000  0.339802  0.141966  1
  Er  Er6  1  0.250000  0.663518  0.578641  1
  Er  Er7  1  0.750000  0.336482  0.421359  1
  Sb  Sb8  1  0.250000  0.147488  0.782474  1
  Sb  Sb9  1  0.750000  0.852512  0.217526  1
  Sb  Sb10  1  0.250000  0.153995  0.477459  1
  Sb  Sb11  1  0.750000  0.846005  0.522541  1
  Sb  Sb12  1  0.250000  0.156446  0.167909  1
  Sb  Sb13  1  0.750000  0.843554  0.832091  1
  Sb  Sb14  1  0.250000  0.421396  0.975001  1
  Sb  Sb15  1  0.750000  0.578604  0.024999  1
  Sb  Sb16  1  0.750000  0.030285  0.903049  1
  Sb  Sb17  1  0.250000  0.969715  0.096951  1
  Sb  Sb18  1  0.750000  0.147741  0.318912  1
  Sb  Sb19  1  0.250000  0.852259  0.681088  1
  Sb  Sb20  1  0.750000  0.282508  0.935416  1
  Sb  Sb21  1  0.250000  0.717492  0.064584  1
  Sb  Sb22  1  0.750000  0.289704  0.649609  1
  Sb  Sb23  1  0.250000  0.710296  0.350391  1
  Sb  Sb24  1  0.750000  0.574527  0.736373  1
  Sb  Sb25  1  0.250000  0.425473  0.263627  1
  Sb  Sb26  1  0.750000  0.572397  0.445782  1
  Sb  Sb27  1  0.250000  0.427603  0.554218  1
