# generated using pymatgen
data_Ce2DyTm(AlIr)4
_symmetry_space_group_name_H-M   'P 1'
_cell_length_a   6.83044949
_cell_length_b   4.30181500
_cell_length_c   7.92550021
_cell_angle_alpha   90.00000000
_cell_angle_beta   90.13136338
_cell_angle_gamma   90.00000000
_symmetry_Int_Tables_number   1
_chemical_formula_structural   Ce2DyTm(AlIr)4
_chemical_formula_sum   'Ce2 Dy1 Tm1 Al4 Ir4'
_cell_volume   232.87697646
_cell_formula_units_Z   1
loop_
 _symmetry_equiv_pos_site_id
 _symmetry_equiv_pos_as_xyz
  1  'x, y, z'
loop_
 _atom_site_type_symbol
 _atom_site_label
 _atom_site_symmetry_multiplicity
 _atom_site_fract_x
 _atom_site_fract_y
 _atom_site_fract_z
 _atom_site_occupancy
  Ce  Ce0  1  0.033682  0.750000  0.821651  1
  Ce  Ce1  1  0.532785  0.750000  0.677525  1
  Dy  Dy2  1  0.964961  0.250000  0.184696  1
  Tm  Tm3  1  0.464354  0.250000  0.315990  1
  Al  Al4  1  0.863059  0.250000  0.556630  1
  Al  Al5  1  0.364022  0.250000  0.943727  1
  Al  Al6  1  0.138740  0.750000  0.433843  1
  Al  Al7  1  0.637518  0.750000  0.066522  1
  Ir  Ir8  1  0.738009  0.250000  0.876059  1
  Ir  Ir9  1  0.238380  0.250000  0.622421  1
  Ir  Ir10  1  0.263922  0.750000  0.116824  1
  Ir  Ir11  1  0.760569  0.750000  0.384113  1
