# generated using pymatgen
data_LiTmNi3Ir
_symmetry_space_group_name_H-M   'P 1'
_cell_length_a   4.89410279
_cell_length_b   4.89410300
_cell_length_c   5.02704656
_cell_angle_alpha   60.87100700
_cell_angle_beta   60.87100573
_cell_angle_gamma   59.99999203
_symmetry_Int_Tables_number   1
_chemical_formula_structural   LiTmNi3Ir
_chemical_formula_sum   'Li1 Tm1 Ni3 Ir1'
_cell_volume   86.24579702
_cell_formula_units_Z   1
loop_
 _symmetry_equiv_pos_site_id
 _symmetry_equiv_pos_as_xyz
  1  'x, y, z'
loop_
 _atom_site_type_symbol
 _atom_site_label
 _atom_site_symmetry_multiplicity
 _atom_site_fract_x
 _atom_site_fract_y
 _atom_site_fract_z
 _atom_site_occupancy
  Li  Li0  1  0.500146  0.500146  0.499561  1
  Tm  Tm1  1  0.750886  0.750886  0.747343  1
  Ni  Ni2  1  0.124992  0.623464  0.126552  1
  Ni  Ni3  1  0.623464  0.124992  0.126552  1
  Ni  Ni4  1  0.124992  0.124992  0.126552  1
  Ir  Ir5  1  0.125520  0.125520  0.623441  1
