# generated using pymatgen
data_Nd7Er13Si15Pt
_symmetry_space_group_name_H-M   'P 1'
_cell_length_a   7.72326182
_cell_length_b   7.72436464
_cell_length_c   14.21070375
_cell_angle_alpha   89.66910956
_cell_angle_beta   89.64774402
_cell_angle_gamma   90.14730126
_symmetry_Int_Tables_number   1
_chemical_formula_structural   Nd7Er13Si15Pt
_chemical_formula_sum   'Nd7 Er13 Si15 Pt1'
_cell_volume   847.73904254
_cell_formula_units_Z   1
loop_
 _symmetry_equiv_pos_site_id
 _symmetry_equiv_pos_as_xyz
  1  'x, y, z'
loop_
 _atom_site_type_symbol
 _atom_site_label
 _atom_site_symmetry_multiplicity
 _atom_site_fract_x
 _atom_site_fract_y
 _atom_site_fract_z
 _atom_site_occupancy
  Nd  Nd0  1  0.359219  0.007154  0.958556  1
  Nd  Nd1  1  0.987649  0.638687  0.537903  1
  Nd  Nd2  1  0.491390  0.855150  0.210277  1
  Nd  Nd3  1  0.512008  0.145868  0.708577  1
  Nd  Nd4  1  0.858830  0.493871  0.791426  1
  Nd  Nd5  1  0.140747  0.505183  0.291985  1
  Nd  Nd6  1  0.008869  0.355958  0.042012  1
  Er  Er7  1  0.491242  0.359612  0.124874  1
  Er  Er8  1  0.991063  0.141505  0.627213  1
  Er  Er9  1  0.860983  0.007383  0.874474  1
  Er  Er10  1  0.136573  0.985184  0.377152  1
  Er  Er11  1  0.510168  0.643145  0.619628  1
  Er  Er12  1  0.361779  0.494463  0.876247  1
  Er  Er13  1  0.639611  0.505442  0.376062  1
  Er  Er14  1  0.006217  0.862436  0.125934  1
  Er  Er15  1  0.638681  0.994258  0.459134  1
  Er  Er16  1  0.316295  0.306077  0.503326  1
  Er  Er17  1  0.188996  0.826592  0.743346  1
  Er  Er18  1  0.817100  0.180270  0.251648  1
  Er  Er19  1  0.682213  0.682124  0.999944  1
  Si  Si20  1  0.709292  0.063136  0.061996  1
  Si  Si21  1  0.933751  0.287867  0.437805  1
  Si  Si22  1  0.437527  0.207529  0.312636  1
  Si  Si23  1  0.564999  0.790757  0.810609  1
  Si  Si24  1  0.211063  0.441048  0.689444  1
  Si  Si25  1  0.789482  0.563613  0.188380  1
  Si  Si26  1  0.062923  0.710449  0.937785  1
  Si  Si27  1  0.796804  0.848377  0.688655  1
  Si  Si28  1  0.204448  0.148715  0.189413  1
  Si  Si29  1  0.842963  0.797687  0.312840  1
  Si  Si30  1  0.353261  0.703359  0.435924  1
  Si  Si31  1  0.652791  0.297949  0.940196  1
  Si  Si32  1  0.703678  0.346439  0.559628  1
  Si  Si33  1  0.294852  0.651753  0.061321  1
  Si  Si34  1  0.150563  0.210038  0.813386  1
  Pt  Pt35  1  0.291967  0.940923  0.560260  1
