# generated using pymatgen
data_Th14Re4IrPd
_symmetry_space_group_name_H-M   'P 1'
_cell_length_a   10.08693075
_cell_length_b   10.05326316
_cell_length_c   6.32680653
_cell_angle_alpha   90.04650111
_cell_angle_beta   89.61835175
_cell_angle_gamma   119.68024644
_symmetry_Int_Tables_number   1
_chemical_formula_structural   Th14Re4IrPd
_chemical_formula_sum   'Th14 Re4 Ir1 Pd1'
_cell_volume   557.39129606
_cell_formula_units_Z   1
loop_
 _symmetry_equiv_pos_site_id
 _symmetry_equiv_pos_as_xyz
  1  'x, y, z'
loop_
 _atom_site_type_symbol
 _atom_site_label
 _atom_site_symmetry_multiplicity
 _atom_site_fract_x
 _atom_site_fract_y
 _atom_site_fract_z
 _atom_site_occupancy
  Th  Th0  1  0.467297  0.541682  0.291997  1
  Th  Th1  1  0.070491  0.539816  0.288142  1
  Th  Th2  1  0.917676  0.460096  0.795343  1
  Th  Th3  1  0.261717  0.125526  0.504923  1
  Th  Th4  1  0.543304  0.080034  0.797698  1
  Th  Th5  1  0.751703  0.876471  0.005596  1
  Th  Th6  1  0.665766  0.333167  0.281515  1
  Th  Th7  1  0.126371  0.874961  0.003360  1
  Th  Th8  1  0.458824  0.918806  0.293374  1
  Th  Th9  1  0.545041  0.464846  0.796034  1
  Th  Th10  1  0.864790  0.120054  0.505744  1
  Th  Th11  1  0.124647  0.246637  0.009575  1
  Th  Th12  1  0.872518  0.749171  0.505153  1
  Th  Th13  1  0.336514  0.671334  0.797337  1
  Re  Re14  1  0.816633  0.629264  0.052795  1
  Re  Re15  1  0.820058  0.188932  0.050766  1
  Re  Re16  1  0.618854  0.808251  0.556088  1
  Re  Re17  1  0.370206  0.188262  0.047682  1
  Ir  Ir18  1  0.183362  0.807269  0.548551  1
  Pd  Pd19  1  0.184225  0.375424  0.552326  1
