# generated using pymatgen
data_YHo2In3Ag2Ir
_symmetry_space_group_name_H-M   'P 1'
_cell_length_a   8.01191439
_cell_length_b   8.00150108
_cell_length_c   3.71506400
_cell_angle_alpha   90.00000000
_cell_angle_beta   90.00000000
_cell_angle_gamma   120.07872637
_symmetry_Int_Tables_number   1
_chemical_formula_structural   YHo2In3Ag2Ir
_chemical_formula_sum   'Y1 Ho2 In3 Ag2 Ir1'
_cell_volume   206.09128505
_cell_formula_units_Z   1
loop_
 _symmetry_equiv_pos_site_id
 _symmetry_equiv_pos_as_xyz
  1  'x, y, z'
loop_
 _atom_site_type_symbol
 _atom_site_label
 _atom_site_symmetry_multiplicity
 _atom_site_fract_x
 _atom_site_fract_y
 _atom_site_fract_z
 _atom_site_occupancy
  Y  Y0  1  0.580666  0.612703  0.000000  1
  Ho  Ho1  1  0.386493  0.965213  0.000000  1
  Ho  Ho2  1  0.034628  0.421548  0.000000  1
  In  In3  1  0.990829  0.723261  0.500000  1
  In  In4  1  0.276548  0.268176  0.500000  1
  In  In5  1  0.732522  0.009066  0.500000  1
  Ag  Ag6  1  0.000972  0.000965  0.000000  1
  Ag  Ag7  1  0.666382  0.331798  0.500000  1
  Ir  Ir8  1  0.330962  0.667270  0.500000  1
