# generated using pymatgen
data_HoEr5FeBi2
_symmetry_space_group_name_H-M   'P 1'
_cell_length_a   8.28401000
_cell_length_b   8.28276510
_cell_length_c   4.13997000
_cell_angle_alpha   90.00000000
_cell_angle_beta   90.00000000
_cell_angle_gamma   120.00498002
_symmetry_Int_Tables_number   1
_chemical_formula_structural   HoEr5FeBi2
_chemical_formula_sum   'Ho1 Er5 Fe1 Bi2'
_cell_volume   245.99256953
_cell_formula_units_Z   1
loop_
 _symmetry_equiv_pos_site_id
 _symmetry_equiv_pos_as_xyz
  1  'x, y, z'
loop_
 _atom_site_type_symbol
 _atom_site_label
 _atom_site_symmetry_multiplicity
 _atom_site_fract_x
 _atom_site_fract_y
 _atom_site_fract_z
 _atom_site_occupancy
  Ho  Ho0  1  0.610159  0.000000  0.500000  1
  Er  Er1  1  0.231009  0.000000  0.000000  1
  Er  Er2  1  0.999960  0.610259  0.500000  1
  Er  Er3  1  0.389701  0.389741  0.500000  1
  Er  Er4  1  0.769070  0.768909  0.000000  1
  Er  Er5  1  0.000161  0.231091  0.000000  1
  Fe  Fe6  1  0.000172  0.000000  0.500000  1
  Bi  Bi7  1  0.333111  0.666453  0.000000  1
  Bi  Bi8  1  0.666659  0.333547  0.000000  1
