# generated using pymatgen
data_Tb4AgPt11
_symmetry_space_group_name_H-M   'P 1'
_cell_length_a   4.14395800
_cell_length_b   5.87049481
_cell_length_c   11.73483746
_cell_angle_alpha   90.01898192
_cell_angle_beta   90.00000000
_cell_angle_gamma   90.00000000
_symmetry_Int_Tables_number   1
_chemical_formula_structural   Tb4AgPt11
_chemical_formula_sum   'Tb4 Ag1 Pt11'
_cell_volume   285.47436033
_cell_formula_units_Z   1
loop_
 _symmetry_equiv_pos_site_id
 _symmetry_equiv_pos_as_xyz
  1  'x, y, z'
loop_
 _atom_site_type_symbol
 _atom_site_label
 _atom_site_symmetry_multiplicity
 _atom_site_fract_x
 _atom_site_fract_y
 _atom_site_fract_z
 _atom_site_occupancy
  Tb  Tb0  1  0.500000  0.754160  0.375163  1
  Tb  Tb1  1  0.500000  0.737023  0.870647  1
  Tb  Tb2  1  0.500000  0.262977  0.129353  1
  Tb  Tb3  1  0.500000  0.245840  0.624837  1
  Ag  Ag4  1  0.000000  0.000000  0.000000  1
  Pt  Pt5  1  0.000000  0.006802  0.250626  1
  Pt  Pt6  1  0.000000  0.993198  0.749374  1
  Pt  Pt7  1  0.000000  0.500000  0.000000  1
  Pt  Pt8  1  0.000000  0.500000  0.500000  1
  Pt  Pt9  1  0.000000  0.508213  0.249560  1
  Pt  Pt10  1  0.000000  0.491787  0.750440  1
  Pt  Pt11  1  0.500000  0.254006  0.375874  1
  Pt  Pt12  1  0.500000  0.242519  0.875138  1
  Pt  Pt13  1  0.500000  0.757481  0.124862  1
  Pt  Pt14  1  0.500000  0.745994  0.624126  1
  Pt  Pt15  1  0.000000  0.000000  0.500000  1
