# generated using pymatgen
data_Lu2Tc7Ge4Mo
_symmetry_space_group_name_H-M   'P 1'
_cell_length_a   7.09710595
_cell_length_b   7.65190417
_cell_length_c   4.27251200
_cell_angle_alpha   90.00000000
_cell_angle_beta   90.00000000
_cell_angle_gamma   89.80595034
_symmetry_Int_Tables_number   1
_chemical_formula_structural   Lu2Tc7Ge4Mo
_chemical_formula_sum   'Lu2 Tc7 Ge4 Mo1'
_cell_volume   232.02330642
_cell_formula_units_Z   1
loop_
 _symmetry_equiv_pos_site_id
 _symmetry_equiv_pos_as_xyz
  1  'x, y, z'
loop_
 _atom_site_type_symbol
 _atom_site_label
 _atom_site_symmetry_multiplicity
 _atom_site_fract_x
 _atom_site_fract_y
 _atom_site_fract_z
 _atom_site_occupancy
  Lu  Lu0  1  0.499524  0.501791  0.000000  1
  Lu  Lu1  1  0.001504  0.003832  0.500000  1
  Tc  Tc2  1  0.847863  0.389144  0.500000  1
  Tc  Tc3  1  0.352427  0.109178  0.000000  1
  Tc  Tc4  1  0.649877  0.891400  0.000000  1
  Tc  Tc5  1  0.592896  0.150006  0.500000  1
  Tc  Tc6  1  0.407539  0.847011  0.500000  1
  Tc  Tc7  1  0.091767  0.342826  0.000000  1
  Tc  Tc8  1  0.910259  0.652299  0.000000  1
  Ge  Ge9  1  0.717863  0.694956  0.500000  1
  Ge  Ge10  1  0.286983  0.305653  0.500000  1
  Ge  Ge11  1  0.781559  0.194242  0.000000  1
  Ge  Ge12  1  0.218378  0.809207  0.000000  1
  Mo  Mo13  1  0.141562  0.608452  0.500000  1
