# generated using pymatgen
data_Lu20Ir7Os4Pd
_symmetry_space_group_name_H-M   'P 1'
_cell_length_a   10.77807057
_cell_length_b   10.77807034
_cell_length_c   6.37882200
_cell_angle_alpha   90.05825229
_cell_angle_beta   90.05825229
_cell_angle_gamma   89.95202274
_symmetry_Int_Tables_number   1
_chemical_formula_structural   Lu20Ir7Os4Pd
_chemical_formula_sum   'Lu20 Ir7 Os4 Pd1'
_cell_volume   741.00633186
_cell_formula_units_Z   1
loop_
 _symmetry_equiv_pos_site_id
 _symmetry_equiv_pos_as_xyz
  1  'x, y, z'
loop_
 _atom_site_type_symbol
 _atom_site_label
 _atom_site_symmetry_multiplicity
 _atom_site_fract_x
 _atom_site_fract_y
 _atom_site_fract_z
 _atom_site_occupancy
  Lu  Lu0  1  0.293776  0.085044  0.376303  1
  Lu  Lu1  1  0.294975  0.914435  0.875818  1
  Lu  Lu2  1  0.702655  0.083612  0.869408  1
  Lu  Lu3  1  0.703148  0.909595  0.378969  1
  Lu  Lu4  1  0.585394  0.794106  0.877212  1
  Lu  Lu5  1  0.580084  0.206031  0.377190  1
  Lu  Lu6  1  0.413677  0.794230  0.376989  1
  Lu  Lu7  1  0.414065  0.205430  0.877059  1
  Lu  Lu8  1  0.205894  0.414606  0.622788  1
  Lu  Lu9  1  0.205770  0.586323  0.123011  1
  Lu  Lu10  1  0.793969  0.419916  0.122810  1
  Lu  Lu11  1  0.794570  0.585935  0.622941  1
  Lu  Lu12  1  0.914956  0.706224  0.123697  1
  Lu  Lu13  1  0.916388  0.297345  0.630592  1
  Lu  Lu14  1  0.085565  0.705025  0.624182  1
  Lu  Lu15  1  0.090405  0.296852  0.121031  1
  Lu  Lu16  1  0.002024  0.997259  0.502290  1
  Lu  Lu17  1  0.002741  0.997976  0.997710  1
  Lu  Lu18  1  0.499719  0.499873  0.999664  1
  Lu  Lu19  1  0.500127  0.500281  0.500336  1
  Ir  Ir20  1  0.848504  0.849489  0.750305  1
  Ir  Ir21  1  0.150511  0.151496  0.749695  1
  Ir  Ir22  1  0.151929  0.848071  0.250000  1
  Ir  Ir23  1  0.652944  0.347056  0.750000  1
  Ir  Ir24  1  0.651975  0.651717  0.249976  1
  Ir  Ir25  1  0.348283  0.348025  0.250024  1
  Ir  Ir26  1  0.348100  0.651900  0.750000  1
  Os  Os27  1  0.500546  0.999992  0.124648  1
  Os  Os28  1  0.500194  0.999776  0.623347  1
  Os  Os29  1  0.000224  0.499806  0.876653  1
  Os  Os30  1  0.000008  0.499454  0.375352  1
  Pd  Pd31  1  0.846877  0.153123  0.250000  1
