# generated using pymatgen
data_Nd4Cd2Pd3Au
_symmetry_space_group_name_H-M   'P 1'
_cell_length_a   7.92493254
_cell_length_b   7.92493254
_cell_length_c   3.92695400
_cell_angle_alpha   90.00000000
_cell_angle_beta   90.00000000
_cell_angle_gamma   89.72071205
_symmetry_Int_Tables_number   1
_chemical_formula_structural   Nd4Cd2Pd3Au
_chemical_formula_sum   'Nd4 Cd2 Pd3 Au1'
_cell_volume   246.62767128
_cell_formula_units_Z   1
loop_
 _symmetry_equiv_pos_site_id
 _symmetry_equiv_pos_as_xyz
  1  'x, y, z'
loop_
 _atom_site_type_symbol
 _atom_site_label
 _atom_site_symmetry_multiplicity
 _atom_site_fract_x
 _atom_site_fract_y
 _atom_site_fract_z
 _atom_site_occupancy
  Nd  Nd0  1  0.674544  0.174544  0.500000  1
  Nd  Nd1  1  0.333239  0.833239  0.500000  1
  Nd  Nd2  1  0.172876  0.319036  0.500000  1
  Nd  Nd3  1  0.819036  0.672876  0.500000  1
  Cd  Cd4  1  0.999313  0.003077  0.000000  1
  Cd  Cd5  1  0.503077  0.499313  0.000000  1
  Pd  Pd6  1  0.871280  0.371280  0.000000  1
  Pd  Pd7  1  0.627238  0.874123  0.000000  1
  Pd  Pd8  1  0.374123  0.127238  0.000000  1
  Au  Au9  1  0.125274  0.625274  0.000000  1
