# generated using pymatgen
data_Y3Tm2Zr(SnIr)6
_symmetry_space_group_name_H-M   'P 1'
_cell_length_a   7.46766949
_cell_length_b   7.52611117
_cell_length_c   7.77734900
_cell_angle_alpha   90.00000000
_cell_angle_beta   90.00000000
_cell_angle_gamma   120.27662668
_symmetry_Int_Tables_number   1
_chemical_formula_structural   Y3Tm2Zr(SnIr)6
_chemical_formula_sum   'Y3 Tm2 Zr1 Sn6 Ir6'
_cell_volume   377.48577540
_cell_formula_units_Z   1
loop_
 _symmetry_equiv_pos_site_id
 _symmetry_equiv_pos_as_xyz
  1  'x, y, z'
loop_
 _atom_site_type_symbol
 _atom_site_label
 _atom_site_symmetry_multiplicity
 _atom_site_fract_x
 _atom_site_fract_y
 _atom_site_fract_z
 _atom_site_occupancy
  Y  Y0  1  0.596206  0.592411  0.750000  1
  Y  Y1  1  0.000591  0.408819  0.750000  1
  Y  Y2  1  0.403701  0.995823  0.750000  1
  Tm  Tm3  1  0.403539  0.003464  0.250000  1
  Tm  Tm4  1  0.597328  0.598787  0.250000  1
  Zr  Zr5  1  0.999173  0.397617  0.250000  1
  Sn  Sn6  1  0.264724  0.262322  0.499249  1
  Sn  Sn7  1  0.264724  0.262322  0.000751  1
  Sn  Sn8  1  0.735026  0.997028  0.000781  1
  Sn  Sn9  1  0.000258  0.741894  0.490911  1
  Sn  Sn10  1  0.735026  0.997028  0.499219  1
  Sn  Sn11  1  0.000258  0.741894  0.009089  1
  Ir  Ir12  1  0.676952  0.335530  0.483779  1
  Ir  Ir13  1  0.676952  0.335530  0.016221  1
  Ir  Ir14  1  0.322737  0.658597  0.019293  1
  Ir  Ir15  1  0.322737  0.658597  0.480707  1
  Ir  Ir16  1  0.000047  0.999766  0.750000  1
  Ir  Ir17  1  0.000022  0.012572  0.250000  1
