# generated using pymatgen
data_Pr5Th(SiPt5)2
_symmetry_space_group_name_H-M   'P 1'
_cell_length_a   8.44426789
_cell_length_b   8.44902156
_cell_length_c   8.44902107
_cell_angle_alpha   127.13370728
_cell_angle_beta   126.32779984
_cell_angle_gamma   78.70514665
_symmetry_Int_Tables_number   1
_chemical_formula_structural   Pr5Th(SiPt5)2
_chemical_formula_sum   'Pr5 Th1 Si2 Pt10'
_cell_volume   374.68737697
_cell_formula_units_Z   1
loop_
 _symmetry_equiv_pos_site_id
 _symmetry_equiv_pos_as_xyz
  1  'x, y, z'
loop_
 _atom_site_type_symbol
 _atom_site_label
 _atom_site_symmetry_multiplicity
 _atom_site_fract_x
 _atom_site_fract_y
 _atom_site_fract_z
 _atom_site_occupancy
  Pr  Pr0  1  0.611414  0.249262  0.362152  1
  Pr  Pr1  1  0.172436  0.449321  0.723115  1
  Pr  Pr2  1  0.389736  0.750601  0.639135  1
  Pr  Pr3  1  0.227333  0.950090  0.277243  1
  Pr  Pr4  1  0.771393  0.050084  0.721309  1
  Th  Th5  1  0.822563  0.549700  0.272864  1
  Si  Si6  1  0.208649  0.249689  0.958960  1
  Si  Si7  1  0.789811  0.751971  0.037840  1
  Pt  Pt8  1  0.166637  0.904756  0.856685  1
  Pt  Pt9  1  0.830740  0.095449  0.138737  1
  Pt  Pt10  1  0.459288  0.197119  0.869793  1
  Pt  Pt11  1  0.545867  0.408682  0.740051  1
  Pt  Pt12  1  0.830740  0.692002  0.735291  1
  Pt  Pt13  1  0.459288  0.589496  0.262169  1
  Pt  Pt14  1  0.545867  0.805816  0.137184  1
  Pt  Pt15  1  0.166637  0.309953  0.261881  1
  Pt  Pt16  1  0.000801  0.993451  0.498241  1
  Pt  Pt17  1  0.000801  0.502559  0.007349  1
