# generated using pymatgen
data_Cs6AlIn5I24
_symmetry_space_group_name_H-M   'P 1'
_cell_length_a   15.41297214
_cell_length_b   15.41239171
_cell_length_c   15.46295416
_cell_angle_alpha   115.11090149
_cell_angle_beta   115.04650667
_cell_angle_gamma   114.90227407
_symmetry_Int_Tables_number   1
_chemical_formula_structural   Cs6AlIn5I24
_chemical_formula_sum   'Cs6 Al1 In5 I24'
_cell_volume   2052.02057799
_cell_formula_units_Z   1
loop_
 _symmetry_equiv_pos_site_id
 _symmetry_equiv_pos_as_xyz
  1  'x, y, z'
loop_
 _atom_site_type_symbol
 _atom_site_label
 _atom_site_symmetry_multiplicity
 _atom_site_fract_x
 _atom_site_fract_y
 _atom_site_fract_z
 _atom_site_occupancy
  Cs  Cs0  1  0.878379  0.689088  0.095210  1
  Cs  Cs1  1  0.093109  0.878403  0.688723  1
  Cs  Cs2  1  0.690036  0.094449  0.876840  1
  Cs  Cs3  1  0.188280  0.377748  0.595595  1
  Cs  Cs4  1  0.594449  0.188798  0.377217  1
  Cs  Cs5  1  0.377237  0.594102  0.188211  1
  Al  Al6  1  0.863712  0.074543  0.678671  1
  In  In7  1  0.678174  0.863375  0.074153  1
  In  In8  1  0.074269  0.678356  0.863472  1
  In  In9  1  0.574785  0.363929  0.178648  1
  In  In10  1  0.178468  0.574666  0.363756  1
  In  In11  1  0.363908  0.178658  0.574619  1
  I  I12  1  0.955996  0.110904  0.886358  1
  I  I13  1  0.902663  0.963303  0.114263  1
  I  I14  1  0.115396  0.903594  0.964525  1
  I  I15  1  0.615786  0.465370  0.403514  1
  I  I16  1  0.402670  0.614200  0.462878  1
  I  I17  1  0.463346  0.402954  0.614774  1
  I  I18  1  0.053109  0.303125  0.767845  1
  I  I19  1  0.774953  0.066782  0.320495  1
  I  I20  1  0.320248  0.773589  0.065889  1
  I  I21  1  0.821603  0.568019  0.276192  1
  I  I22  1  0.276050  0.821918  0.567676  1
  I  I23  1  0.566776  0.275307  0.820997  1
  I  I24  1  0.640222  0.015528  0.563375  1
  I  I25  1  0.552801  0.623201  0.010840  1
  I  I26  1  0.010842  0.553280  0.623700  1
  I  I27  1  0.510595  0.123239  0.053338  1
  I  I28  1  0.053482  0.511016  0.124046  1
  I  I29  1  0.123055  0.052968  0.510195  1
  I  I30  1  0.802742  0.868570  0.494216  1
  I  I31  1  0.480309  0.797133  0.852364  1
  I  I32  1  0.852063  0.479918  0.796677  1
  I  I33  1  0.352635  0.297732  0.981097  1
  I  I34  1  0.980121  0.352407  0.296987  1
  I  I35  1  0.298529  0.980627  0.353440  1
