# generated using pymatgen
data_HoMn4CoP3
_symmetry_space_group_name_H-M   'P 1'
_cell_length_a   3.58775200
_cell_length_b   10.55115100
_cell_length_c   12.17510800
_cell_angle_alpha   90.00000000
_cell_angle_beta   90.00000000
_cell_angle_gamma   90.00000000
_symmetry_Int_Tables_number   1
_chemical_formula_structural   HoMn4CoP3
_chemical_formula_sum   'Ho4 Mn16 Co4 P12'
_cell_volume   460.88765535
_cell_formula_units_Z   4
loop_
 _symmetry_equiv_pos_site_id
 _symmetry_equiv_pos_as_xyz
  1  'x, y, z'
loop_
 _atom_site_type_symbol
 _atom_site_label
 _atom_site_symmetry_multiplicity
 _atom_site_fract_x
 _atom_site_fract_y
 _atom_site_fract_z
 _atom_site_occupancy
  Ho  Ho0  1  0.250000  0.916048  0.207880  1
  Ho  Ho1  1  0.750000  0.083952  0.792120  1
  Ho  Ho2  1  0.750000  0.416048  0.292120  1
  Ho  Ho3  1  0.250000  0.583952  0.707880  1
  Mn  Mn4  1  0.250000  0.787740  0.488060  1
  Mn  Mn5  1  0.750000  0.212260  0.511940  1
  Mn  Mn6  1  0.750000  0.287740  0.011940  1
  Mn  Mn7  1  0.250000  0.712260  0.988060  1
  Mn  Mn8  1  0.250000  0.092571  0.992578  1
  Mn  Mn9  1  0.750000  0.907429  0.007422  1
  Mn  Mn10  1  0.750000  0.592571  0.507422  1
  Mn  Mn11  1  0.250000  0.407429  0.492578  1
  Mn  Mn12  1  0.250000  0.283125  0.676186  1
  Mn  Mn13  1  0.750000  0.716875  0.323814  1
  Mn  Mn14  1  0.750000  0.783125  0.823814  1
  Mn  Mn15  1  0.250000  0.216875  0.176186  1
  Mn  Mn16  1  0.250000  0.621529  0.197715  1
  Mn  Mn17  1  0.750000  0.378471  0.802285  1
  Mn  Mn18  1  0.750000  0.121529  0.302285  1
  Mn  Mn19  1  0.250000  0.878471  0.697715  1
  Co  Co20  1  0.250000  0.035561  0.433834  1
  Co  Co21  1  0.750000  0.964439  0.566166  1
  Co  Co22  1  0.750000  0.535561  0.066166  1
  Co  Co23  1  0.250000  0.464439  0.933834  1
  P  P24  1  0.250000  0.079584  0.612058  1
  P  P25  1  0.750000  0.920416  0.387942  1
  P  P26  1  0.750000  0.579584  0.887942  1
  P  P27  1  0.250000  0.420416  0.112058  1
  P  P28  1  0.250000  0.234185  0.371775  1
  P  P29  1  0.750000  0.765815  0.628225  1
  P  P30  1  0.750000  0.734185  0.128225  1
  P  P31  1  0.250000  0.265815  0.871775  1
  P  P32  1  0.250000  0.907197  0.886202  1
  P  P33  1  0.750000  0.092803  0.113798  1
  P  P34  1  0.750000  0.407197  0.613798  1
  P  P35  1  0.250000  0.592803  0.386202  1
