# generated using pymatgen
data_La3Hg4IrAu
_symmetry_space_group_name_H-M   'P 1'
_cell_length_a   8.20494200
_cell_length_b   8.20494319
_cell_length_c   3.95879200
_cell_angle_alpha   90.00000000
_cell_angle_beta   90.00000000
_cell_angle_gamma   120.00000328
_symmetry_Int_Tables_number   1
_chemical_formula_structural   La3Hg4IrAu
_chemical_formula_sum   'La3 Hg4 Ir1 Au1'
_cell_volume   230.80456528
_cell_formula_units_Z   1
loop_
 _symmetry_equiv_pos_site_id
 _symmetry_equiv_pos_as_xyz
  1  'x, y, z'
loop_
 _atom_site_type_symbol
 _atom_site_label
 _atom_site_symmetry_multiplicity
 _atom_site_fract_x
 _atom_site_fract_y
 _atom_site_fract_z
 _atom_site_occupancy
  La  La0  1  0.398328  0.421391  0.500000  1
  La  La1  1  0.578609  0.976937  0.500000  1
  La  La2  1  0.023063  0.601672  0.500000  1
  Hg  Hg3  1  0.724660  0.725827  0.000000  1
  Hg  Hg4  1  0.274173  0.998834  0.000000  1
  Hg  Hg5  1  0.001166  0.275340  0.000000  1
  Hg  Hg6  1  0.000000  0.000000  0.500000  1
  Ir  Ir7  1  0.333333  0.666667  0.000000  1
  Au  Au8  1  0.666667  0.333333  0.000000  1
