# generated using pymatgen
data_DyTh7(ZnRh)8
_symmetry_space_group_name_H-M   'P 1'
_cell_length_a   3.93824700
_cell_length_b   7.51575514
_cell_length_c   16.56323601
_cell_angle_alpha   89.54836144
_cell_angle_beta   90.00000000
_cell_angle_gamma   90.00000000
_symmetry_Int_Tables_number   1
_chemical_formula_structural   DyTh7(ZnRh)8
_chemical_formula_sum   'Dy1 Th7 Zn8 Rh8'
_cell_volume   490.23833751
_cell_formula_units_Z   1
loop_
 _symmetry_equiv_pos_site_id
 _symmetry_equiv_pos_as_xyz
  1  'x, y, z'
loop_
 _atom_site_type_symbol
 _atom_site_label
 _atom_site_symmetry_multiplicity
 _atom_site_fract_x
 _atom_site_fract_y
 _atom_site_fract_z
 _atom_site_occupancy
  Dy  Dy0  1  0.750000  0.939098  0.286582  1
  Th  Th1  1  0.750000  0.326746  0.438365  1
  Th  Th2  1  0.250000  0.064263  0.714737  1
  Th  Th3  1  0.250000  0.561985  0.785109  1
  Th  Th4  1  0.250000  0.677026  0.559618  1
  Th  Th5  1  0.750000  0.822823  0.062727  1
  Th  Th6  1  0.250000  0.171207  0.940586  1
  Th  Th7  1  0.750000  0.439172  0.215993  1
  Zn  Zn8  1  0.250000  0.105762  0.158320  1
  Zn  Zn9  1  0.250000  0.995378  0.435235  1
  Zn  Zn10  1  0.750000  0.887111  0.846945  1
  Zn  Zn11  1  0.750000  0.005992  0.558587  1
  Zn  Zn12  1  0.250000  0.490820  0.059095  1
  Zn  Zn13  1  0.750000  0.389757  0.652587  1
  Zn  Zn14  1  0.750000  0.503594  0.941170  1
  Zn  Zn15  1  0.250000  0.622590  0.345599  1
  Rh  Rh16  1  0.750000  0.260755  0.814982  1
  Rh  Rh17  1  0.250000  0.252025  0.314582  1
  Rh  Rh18  1  0.250000  0.755200  0.937963  1
  Rh  Rh19  1  0.250000  0.255706  0.561144  1
  Rh  Rh20  1  0.250000  0.730670  0.182350  1
  Rh  Rh21  1  0.750000  0.742748  0.438964  1
  Rh  Rh22  1  0.750000  0.238635  0.063242  1
  Rh  Rh23  1  0.750000  0.760934  0.685517  1
