# generated using pymatgen
data_Y7Th(CdCo)2
_symmetry_space_group_name_H-M   'P 1'
_cell_length_a   9.60403031
_cell_length_b   9.60402995
_cell_length_c   9.62806700
_cell_angle_alpha   59.91716972
_cell_angle_beta   59.91717095
_cell_angle_gamma   59.98338366
_symmetry_Int_Tables_number   1
_chemical_formula_structural   Y7Th(CdCo)2
_chemical_formula_sum   'Y14 Th2 Cd4 Co4'
_cell_volume   627.09284178
_cell_formula_units_Z   2
loop_
 _symmetry_equiv_pos_site_id
 _symmetry_equiv_pos_as_xyz
  1  'x, y, z'
loop_
 _atom_site_type_symbol
 _atom_site_label
 _atom_site_symmetry_multiplicity
 _atom_site_fract_x
 _atom_site_fract_y
 _atom_site_fract_z
 _atom_site_occupancy
  Y  Y0  1  0.599249  0.203538  0.598607  1
  Y  Y1  1  0.203538  0.599249  0.598607  1
  Y  Y2  1  0.062065  0.439086  0.437806  1
  Y  Y3  1  0.439086  0.062065  0.061044  1
  Y  Y4  1  0.439086  0.062065  0.437806  1
  Y  Y5  1  0.062065  0.439086  0.061044  1
  Y  Y6  1  0.437588  0.437588  0.062412  1
  Y  Y7  1  0.063702  0.063702  0.436298  1
  Y  Y8  1  0.188008  0.813233  0.813155  1
  Y  Y9  1  0.813233  0.188008  0.185603  1
  Y  Y10  1  0.813233  0.188008  0.813155  1
  Y  Y11  1  0.188008  0.813233  0.185603  1
  Y  Y12  1  0.812293  0.812293  0.187707  1
  Y  Y13  1  0.189244  0.189244  0.810756  1
  Th  Th14  1  0.590498  0.590498  0.597004  1
  Th  Th15  1  0.590498  0.590498  0.222000  1
  Cd  Cd16  1  0.830622  0.830622  0.829479  1
  Cd  Cd17  1  0.830622  0.830622  0.509278  1
  Cd  Cd18  1  0.831013  0.505762  0.831613  1
  Cd  Cd19  1  0.505762  0.831013  0.831613  1
  Co  Co20  1  0.395689  0.395689  0.387840  1
  Co  Co21  1  0.395689  0.395689  0.820783  1
  Co  Co22  1  0.401257  0.817955  0.390394  1
  Co  Co23  1  0.817955  0.401257  0.390394  1
