# generated using pymatgen
data_SrLa6PaH24
_symmetry_space_group_name_H-M   'P 1'
_cell_length_a   7.05068700
_cell_length_b   7.06609100
_cell_length_c   7.02604800
_cell_angle_alpha   90.00000000
_cell_angle_beta   90.00000000
_cell_angle_gamma   90.00000000
_symmetry_Int_Tables_number   1
_chemical_formula_structural   SrLa6PaH24
_chemical_formula_sum   'Sr1 La6 Pa1 H24'
_cell_volume   350.04330377
_cell_formula_units_Z   1
loop_
 _symmetry_equiv_pos_site_id
 _symmetry_equiv_pos_as_xyz
  1  'x, y, z'
loop_
 _atom_site_type_symbol
 _atom_site_label
 _atom_site_symmetry_multiplicity
 _atom_site_fract_x
 _atom_site_fract_y
 _atom_site_fract_z
 _atom_site_occupancy
  Sr  Sr0  1  0.249522  0.000000  0.500000  1
  La  La1  1  0.001508  0.000000  0.000000  1
  La  La2  1  0.751882  0.000000  0.500000  1
  La  La3  1  0.000392  0.500000  0.250464  1
  La  La4  1  0.000392  0.500000  0.749536  1
  La  La5  1  0.500023  0.752157  0.000000  1
  La  La6  1  0.500023  0.247843  0.000000  1
  Pa  Pa7  1  0.500399  0.500000  0.500000  1
  H  H8  1  0.989466  0.159235  0.305094  1
  H  H9  1  0.507206  0.222587  0.650924  1
  H  H10  1  0.507206  0.777413  0.349076  1
  H  H11  1  0.784255  0.648335  0.500000  1
  H  H12  1  0.216251  0.641102  0.500000  1
  H  H13  1  0.351063  0.500000  0.785063  1
  H  H14  1  0.648502  0.500000  0.784128  1
  H  H15  1  0.315352  0.000000  0.148598  1
  H  H16  1  0.156499  0.311498  0.000000  1
  H  H17  1  0.844664  0.688162  0.000000  1
  H  H18  1  0.315352  0.000000  0.851402  1
  H  H19  1  0.844664  0.311838  0.000000  1
  H  H20  1  0.687999  0.000000  0.155922  1
  H  H21  1  0.687999  0.000000  0.844078  1
  H  H22  1  0.156499  0.688502  0.000000  1
  H  H23  1  0.989466  0.840765  0.694906  1
  H  H24  1  0.989466  0.159235  0.694906  1
  H  H25  1  0.989466  0.840765  0.305094  1
  H  H26  1  0.648502  0.500000  0.215872  1
  H  H27  1  0.351063  0.500000  0.214937  1
  H  H28  1  0.784255  0.351665  0.500000  1
  H  H29  1  0.216251  0.358898  0.500000  1
  H  H30  1  0.507206  0.777413  0.650924  1
  H  H31  1  0.507206  0.222587  0.349076  1
