# generated using pymatgen
data_CaTmOsC2
_symmetry_space_group_name_H-M   'P 1'
_cell_length_a   5.11048400
_cell_length_b   6.44520000
_cell_length_c   9.98558300
_cell_angle_alpha   90.00000000
_cell_angle_beta   90.00000000
_cell_angle_gamma   90.00000000
_symmetry_Int_Tables_number   1
_chemical_formula_structural   CaTmOsC2
_chemical_formula_sum   'Ca4 Tm4 Os4 C8'
_cell_volume   328.90604630
_cell_formula_units_Z   4
loop_
 _symmetry_equiv_pos_site_id
 _symmetry_equiv_pos_as_xyz
  1  'x, y, z'
loop_
 _atom_site_type_symbol
 _atom_site_label
 _atom_site_symmetry_multiplicity
 _atom_site_fract_x
 _atom_site_fract_y
 _atom_site_fract_z
 _atom_site_occupancy
  Ca  Ca0  1  0.250000  0.531709  0.217561  1
  Ca  Ca1  1  0.750000  0.468291  0.782439  1
  Ca  Ca2  1  0.750000  0.968291  0.717561  1
  Ca  Ca3  1  0.250000  0.031709  0.282439  1
  Tm  Tm4  1  0.250000  0.679357  0.560689  1
  Tm  Tm5  1  0.750000  0.320643  0.439311  1
  Tm  Tm6  1  0.750000  0.820643  0.060689  1
  Tm  Tm7  1  0.250000  0.179357  0.939311  1
  Os  Os8  1  0.250000  0.723628  0.862047  1
  Os  Os9  1  0.750000  0.276372  0.137953  1
  Os  Os10  1  0.750000  0.776372  0.362047  1
  Os  Os11  1  0.250000  0.223628  0.637953  1
  C  C12  1  0.250000  0.458544  0.759231  1
  C  C13  1  0.750000  0.541456  0.240769  1
  C  C14  1  0.750000  0.041456  0.259231  1
  C  C15  1  0.250000  0.958544  0.740769  1
  C  C16  1  0.250000  0.823005  0.039844  1
  C  C17  1  0.750000  0.176995  0.960156  1
  C  C18  1  0.750000  0.676995  0.539844  1
  C  C19  1  0.250000  0.323005  0.460156  1
