# generated using pymatgen
data_Gd3Dy3Ni5Pt
_symmetry_space_group_name_H-M   'P 1'
_cell_length_a   4.27624600
_cell_length_b   5.48167324
_cell_length_c   10.67646193
_cell_angle_alpha   83.07356591
_cell_angle_beta   90.00000000
_cell_angle_gamma   90.00000000
_symmetry_Int_Tables_number   1
_chemical_formula_structural   Gd3Dy3Ni5Pt
_chemical_formula_sum   'Gd3 Dy3 Ni5 Pt1'
_cell_volume   248.44027118
_cell_formula_units_Z   1
loop_
 _symmetry_equiv_pos_site_id
 _symmetry_equiv_pos_as_xyz
  1  'x, y, z'
loop_
 _atom_site_type_symbol
 _atom_site_label
 _atom_site_symmetry_multiplicity
 _atom_site_fract_x
 _atom_site_fract_y
 _atom_site_fract_z
 _atom_site_occupancy
  Gd  Gd0  1  0.000000  0.584754  0.218024  1
  Gd  Gd1  1  0.500000  0.257667  0.453656  1
  Gd  Gd2  1  0.000000  0.742645  0.546096  1
  Dy  Dy3  1  0.500000  0.100573  0.122934  1
  Dy  Dy4  1  0.000000  0.898654  0.878186  1
  Dy  Dy5  1  0.500000  0.415446  0.783449  1
  Ni  Ni6  1  0.500000  0.629314  0.031677  1
  Ni  Ni7  1  0.500000  0.791721  0.357717  1
  Ni  Ni8  1  0.000000  0.210145  0.637081  1
  Ni  Ni9  1  0.500000  0.947986  0.687454  1
  Ni  Ni10  1  0.000000  0.053643  0.309879  1
  Pt  Pt11  1  0.000000  0.367450  0.973843  1
