# generated using pymatgen
data_Ti2Tc2B4Ru3
_symmetry_space_group_name_H-M   'P 1'
_cell_length_a   3.00291600
_cell_length_b   8.43588300
_cell_length_c   9.86804701
_cell_angle_alpha   90.00324674
_cell_angle_beta   90.00000000
_cell_angle_gamma   90.00000000
_symmetry_Int_Tables_number   1
_chemical_formula_structural   Ti2Tc2B4Ru3
_chemical_formula_sum   'Ti4 Tc4 B8 Ru6'
_cell_volume   249.97981414
_cell_formula_units_Z   2
loop_
 _symmetry_equiv_pos_site_id
 _symmetry_equiv_pos_as_xyz
  1  'x, y, z'
loop_
 _atom_site_type_symbol
 _atom_site_label
 _atom_site_symmetry_multiplicity
 _atom_site_fract_x
 _atom_site_fract_y
 _atom_site_fract_z
 _atom_site_occupancy
  Ti  Ti0  1  0.500000  0.842086  0.181654  1
  Ti  Ti1  1  0.500000  0.157914  0.818346  1
  Ti  Ti2  1  0.500000  0.657937  0.681602  1
  Ti  Ti3  1  0.500000  0.342063  0.318398  1
  Tc  Tc4  1  0.000000  0.661750  0.951914  1
  Tc  Tc5  1  0.000000  0.338250  0.048086  1
  Tc  Tc6  1  0.000000  0.838242  0.451863  1
  Tc  Tc7  1  0.000000  0.161758  0.548137  1
  B  B8  1  0.500000  0.964407  0.587942  1
  B  B9  1  0.500000  0.035593  0.412058  1
  B  B10  1  0.500000  0.849061  0.899728  1
  B  B11  1  0.500000  0.150939  0.100272  1
  B  B12  1  0.500000  0.650896  0.399658  1
  B  B13  1  0.500000  0.349104  0.600342  1
  B  B14  1  0.500000  0.464570  0.912019  1
  B  B15  1  0.500000  0.535430  0.087981  1
  Ru  Ru16  1  0.000000  0.000000  0.000000  1
  Ru  Ru17  1  0.000000  0.404382  0.760983  1
  Ru  Ru18  1  0.000000  0.595618  0.239017  1
  Ru  Ru19  1  0.000000  0.500000  0.500000  1
  Ru  Ru20  1  0.000000  0.904295  0.739013  1
  Ru  Ru21  1  0.000000  0.095705  0.260987  1
