# generated using pymatgen
data_Tb4CeRu6W
_symmetry_space_group_name_H-M   'P 1'
_cell_length_a   5.22227577
_cell_length_b   5.22227506
_cell_length_c   9.32671100
_cell_angle_alpha   90.00000000
_cell_angle_beta   90.00000000
_cell_angle_gamma   113.77569627
_symmetry_Int_Tables_number   1
_chemical_formula_structural   Tb4CeRu6W
_chemical_formula_sum   'Tb4 Ce1 Ru6 W1'
_cell_volume   232.77225772
_cell_formula_units_Z   1
loop_
 _symmetry_equiv_pos_site_id
 _symmetry_equiv_pos_as_xyz
  1  'x, y, z'
loop_
 _atom_site_type_symbol
 _atom_site_label
 _atom_site_symmetry_multiplicity
 _atom_site_fract_x
 _atom_site_fract_y
 _atom_site_fract_z
 _atom_site_occupancy
  Tb  Tb0  1  0.331884  0.668116  0.424295  1
  Tb  Tb1  1  0.666576  0.333424  0.559819  1
  Tb  Tb2  1  0.666576  0.333424  0.940181  1
  Tb  Tb3  1  0.331884  0.668116  0.075705  1
  Ce  Ce4  1  0.164402  0.835598  0.750000  1
  Ru  Ru5  1  0.988416  0.011584  0.492870  1
  Ru  Ru6  1  0.988416  0.011584  0.007130  1
  Ru  Ru7  1  0.828237  0.636523  0.250000  1
  Ru  Ru8  1  0.363477  0.171763  0.250000  1
  Ru  Ru9  1  0.160683  0.346423  0.750000  1
  Ru  Ru10  1  0.653577  0.839317  0.750000  1
  W  W11  1  0.855871  0.144129  0.250000  1
