# generated using pymatgen
data_Lu6V2Co21
_symmetry_space_group_name_H-M   'P 1'
_cell_length_a   8.25626385
_cell_length_b   8.26694634
_cell_length_c   8.25626280
_cell_angle_alpha   120.04280827
_cell_angle_beta   89.46076010
_cell_angle_gamma   120.04282035
_symmetry_Int_Tables_number   1
_chemical_formula_structural   Lu6V2Co21
_chemical_formula_sum   'Lu6 V2 Co21'
_cell_volume   399.79791485
_cell_formula_units_Z   1
loop_
 _symmetry_equiv_pos_site_id
 _symmetry_equiv_pos_as_xyz
  1  'x, y, z'
loop_
 _atom_site_type_symbol
 _atom_site_label
 _atom_site_symmetry_multiplicity
 _atom_site_fract_x
 _atom_site_fract_y
 _atom_site_fract_z
 _atom_site_occupancy
  Lu  Lu0  1  0.713372  0.000000  0.286629  1
  Lu  Lu1  1  0.292456  0.008833  0.292456  1
  Lu  Lu2  1  0.292456  0.576079  0.292456  1
  Lu  Lu3  1  0.707545  0.991167  0.707545  1
  Lu  Lu4  1  0.286629  0.000000  0.713372  1
  Lu  Lu5  1  0.707546  0.423923  0.707546  1
  V  V6  1  0.000000  0.000000  0.000000  1
  V  V7  1  0.000000  0.500000  0.000000  1
  Co  Co8  1  0.500000  0.000000  0.000000  1
  Co  Co9  1  0.500000  0.500000  0.000000  1
  Co  Co10  1  0.677693  0.352292  0.026893  1
  Co  Co11  1  0.369870  0.246294  0.122717  1
  Co  Co12  1  0.879045  0.244321  0.120953  1
  Co  Co13  1  0.879045  0.755677  0.120953  1
  Co  Co14  1  0.677836  0.353146  0.322164  1
  Co  Co15  1  0.677836  0.646854  0.322164  1
  Co  Co16  1  0.973107  0.647708  0.322307  1
  Co  Co17  1  0.122717  0.246294  0.369870  1
  Co  Co18  1  0.000000  0.000000  0.500000  1
  Co  Co19  1  0.000000  0.500000  0.500000  1
  Co  Co20  1  0.500000  0.500000  0.500000  1
  Co  Co21  1  0.877281  0.753704  0.630128  1
  Co  Co22  1  0.026893  0.352292  0.677693  1
  Co  Co23  1  0.322164  0.353146  0.677836  1
  Co  Co24  1  0.322164  0.646854  0.677836  1
  Co  Co25  1  0.120953  0.244321  0.879045  1
  Co  Co26  1  0.120953  0.755677  0.879045  1
  Co  Co27  1  0.630128  0.753704  0.877281  1
  Co  Co28  1  0.322307  0.647708  0.973107  1
