# generated using pymatgen
data_Cs14TaNbAs8
_symmetry_space_group_name_H-M   'P 1'
_cell_length_a   9.08898501
_cell_length_b   10.09242601
_cell_length_c   11.24678200
_cell_angle_alpha   90.00000000
_cell_angle_beta   90.00000000
_cell_angle_gamma   89.99577002
_symmetry_Int_Tables_number   1
_chemical_formula_structural   Cs14TaNbAs8
_chemical_formula_sum   'Cs14 Ta1 Nb1 As8'
_cell_volume   1031.66628268
_cell_formula_units_Z   1
loop_
 _symmetry_equiv_pos_site_id
 _symmetry_equiv_pos_as_xyz
  1  'x, y, z'
loop_
 _atom_site_type_symbol
 _atom_site_label
 _atom_site_symmetry_multiplicity
 _atom_site_fract_x
 _atom_site_fract_y
 _atom_site_fract_z
 _atom_site_occupancy
  Cs  Cs0  1  0.880304  0.027138  0.000000  1
  Cs  Cs1  1  0.706965  0.831768  0.714402  1
  Cs  Cs2  1  0.392275  0.889437  0.000000  1
  Cs  Cs3  1  0.380019  0.972359  0.500000  1
  Cs  Cs4  1  0.875590  0.467541  0.290421  1
  Cs  Cs5  1  0.892534  0.110561  0.500000  1
  Cs  Cs6  1  0.662306  0.341273  0.000000  1
  Cs  Cs7  1  0.162381  0.658685  0.500000  1
  Cs  Cs8  1  0.207070  0.168210  0.214564  1
  Cs  Cs9  1  0.375567  0.532468  0.209582  1
  Cs  Cs10  1  0.375567  0.532468  0.790418  1
  Cs  Cs11  1  0.875590  0.467541  0.709579  1
  Cs  Cs12  1  0.706965  0.831768  0.285598  1
  Cs  Cs13  1  0.207070  0.168210  0.785436  1
  Ta  Ta14  1  0.498033  0.328120  0.500000  1
  Nb  Nb15  1  0.997867  0.671811  0.000000  1
  As  As16  1  0.720202  0.682893  0.000000  1
  As  As17  1  0.221112  0.317167  0.500000  1
  As  As18  1  0.070682  0.429363  0.000000  1
  As  As19  1  0.570761  0.569797  0.500000  1
  As  As20  1  0.085936  0.795075  0.186316  1
  As  As21  1  0.585735  0.205637  0.314516  1
  As  As22  1  0.585735  0.205637  0.685484  1
  As  As23  1  0.085936  0.795075  0.813684  1
