# generated using pymatgen
data_LaLu(AgSn)2
_symmetry_space_group_name_H-M   'P 1'
_cell_length_a   4.77243500
_cell_length_b   4.77243443
_cell_length_c   7.63757600
_cell_angle_alpha   90.00000000
_cell_angle_beta   90.00000000
_cell_angle_gamma   120.00001089
_symmetry_Int_Tables_number   1
_chemical_formula_structural   LaLu(AgSn)2
_chemical_formula_sum   'La1 Lu1 Ag2 Sn2'
_cell_volume   150.64895417
_cell_formula_units_Z   1
loop_
 _symmetry_equiv_pos_site_id
 _symmetry_equiv_pos_as_xyz
  1  'x, y, z'
loop_
 _atom_site_type_symbol
 _atom_site_label
 _atom_site_symmetry_multiplicity
 _atom_site_fract_x
 _atom_site_fract_y
 _atom_site_fract_z
 _atom_site_occupancy
  La  La0  1  0.000000  0.000000  0.492652  1
  Lu  Lu1  1  0.000000  0.000000  0.996875  1
  Ag  Ag2  1  0.666667  0.333333  0.169919  1
  Ag  Ag3  1  0.333333  0.666667  0.724913  1
  Sn  Sn4  1  0.333333  0.666667  0.260903  1
  Sn  Sn5  1  0.666667  0.333333  0.782736  1
