# generated using pymatgen
data_Gd3Mg3AgPb2
_symmetry_space_group_name_H-M   'P 1'
_cell_length_a   7.70150000
_cell_length_b   7.70150031
_cell_length_c   4.61540200
_cell_angle_alpha   90.00000000
_cell_angle_beta   90.00000000
_cell_angle_gamma   119.99999869
_symmetry_Int_Tables_number   1
_chemical_formula_structural   Gd3Mg3AgPb2
_chemical_formula_sum   'Gd3 Mg3 Ag1 Pb2'
_cell_volume   237.07776703
_cell_formula_units_Z   1
loop_
 _symmetry_equiv_pos_site_id
 _symmetry_equiv_pos_as_xyz
  1  'x, y, z'
loop_
 _atom_site_type_symbol
 _atom_site_label
 _atom_site_symmetry_multiplicity
 _atom_site_fract_x
 _atom_site_fract_y
 _atom_site_fract_z
 _atom_site_occupancy
  Gd  Gd0  1  0.000000  0.410859  0.500000  1
  Gd  Gd1  1  0.589141  0.589141  0.500000  1
  Gd  Gd2  1  0.410859  0.000000  0.500000  1
  Mg  Mg3  1  0.000000  0.765241  0.000000  1
  Mg  Mg4  1  0.234759  0.234759  0.000000  1
  Mg  Mg5  1  0.765241  0.000000  0.000000  1
  Ag  Ag6  1  0.000000  0.000000  0.500000  1
  Pb  Pb7  1  0.333333  0.666667  0.000000  1
  Pb  Pb8  1  0.666667  0.333333  0.000000  1
