# generated using pymatgen
data_YbReH9
_symmetry_space_group_name_H-M   'P 1'
_cell_length_a   4.83440000
_cell_length_b   4.83439982
_cell_length_c   8.74258500
_cell_angle_alpha   90.00000000
_cell_angle_beta   90.00000000
_cell_angle_gamma   120.00000126
_symmetry_Int_Tables_number   1
_chemical_formula_structural   YbReH9
_chemical_formula_sum   'Yb2 Re2 H18'
_cell_volume   176.95206519
_cell_formula_units_Z   2
loop_
 _symmetry_equiv_pos_site_id
 _symmetry_equiv_pos_as_xyz
  1  'x, y, z'
loop_
 _atom_site_type_symbol
 _atom_site_label
 _atom_site_symmetry_multiplicity
 _atom_site_fract_x
 _atom_site_fract_y
 _atom_site_fract_z
 _atom_site_occupancy
  Yb  Yb0  1  0.000000  0.000000  0.000000  1
  Yb  Yb1  1  0.000000  0.000000  0.500000  1
  Re  Re2  1  0.333333  0.666667  0.250000  1
  Re  Re3  1  0.666667  0.333333  0.750000  1
  H  H4  1  0.477428  0.522572  0.388186  1
  H  H5  1  0.477428  0.954857  0.388186  1
  H  H6  1  0.045143  0.522572  0.388186  1
  H  H7  1  0.954857  0.477428  0.888186  1
  H  H8  1  0.134125  0.268252  0.250000  1
  H  H9  1  0.865875  0.134125  0.750000  1
  H  H10  1  0.268252  0.134125  0.750000  1
  H  H11  1  0.731748  0.865875  0.250000  1
  H  H12  1  0.134125  0.865875  0.250000  1
  H  H13  1  0.865875  0.731748  0.750000  1
  H  H14  1  0.477428  0.954857  0.111814  1
  H  H15  1  0.522572  0.477428  0.611814  1
  H  H16  1  0.954857  0.477428  0.611814  1
  H  H17  1  0.045143  0.522572  0.111814  1
  H  H18  1  0.477428  0.522572  0.111814  1
  H  H19  1  0.522572  0.045143  0.888186  1
  H  H20  1  0.522572  0.477428  0.888186  1
  H  H21  1  0.522572  0.045143  0.611814  1
