# generated using pymatgen
data_MnZn8Pt3O16
_symmetry_space_group_name_H-M   'P 1'
_cell_length_a   6.12858800
_cell_length_b   6.11154358
_cell_length_c   8.57752408
_cell_angle_alpha   89.30433718
_cell_angle_beta   90.00000000
_cell_angle_gamma   90.00000000
_symmetry_Int_Tables_number   1
_chemical_formula_structural   MnZn8Pt3O16
_chemical_formula_sum   'Mn1 Zn8 Pt3 O16'
_cell_volume   321.24862181
_cell_formula_units_Z   1
loop_
 _symmetry_equiv_pos_site_id
 _symmetry_equiv_pos_as_xyz
  1  'x, y, z'
loop_
 _atom_site_type_symbol
 _atom_site_label
 _atom_site_symmetry_multiplicity
 _atom_site_fract_x
 _atom_site_fract_y
 _atom_site_fract_z
 _atom_site_occupancy
  Mn  Mn0  1  0.758973  0.500000  0.750000  1
  Zn  Zn1  1  0.999444  0.236435  0.996592  1
  Zn  Zn2  1  0.999444  0.763565  0.503408  1
  Zn  Zn3  1  0.254121  0.248219  0.627870  1
  Zn  Zn4  1  0.254121  0.751781  0.872130  1
  Zn  Zn5  1  0.230456  0.000000  0.250000  1
  Zn  Zn6  1  0.768363  0.000000  0.750000  1
  Zn  Zn7  1  0.746978  0.252502  0.376798  1
  Zn  Zn8  1  0.746978  0.747498  0.123202  1
  Pt  Pt9  1  0.244914  0.500000  0.250000  1
  Pt  Pt10  1  0.501610  0.748284  0.503180  1
  Pt  Pt11  1  0.501610  0.251716  0.996820  1
  O  O12  1  0.528741  0.733609  0.740323  1
  O  O13  1  0.528741  0.266391  0.759677  1
  O  O14  1  0.740211  0.979389  0.507599  1
  O  O15  1  0.740211  0.020611  0.992401  1
  O  O16  1  0.742989  0.513835  0.521499  1
  O  O17  1  0.742989  0.486165  0.978501  1
  O  O18  1  0.976775  0.728768  0.749894  1
  O  O19  1  0.976775  0.271232  0.750106  1
  O  O20  1  0.013955  0.739008  0.256579  1
  O  O21  1  0.013955  0.260992  0.243421  1
  O  O22  1  0.254512  0.520269  0.487893  1
  O  O23  1  0.254512  0.479731  0.012107  1
  O  O24  1  0.261989  0.979678  0.497231  1
  O  O25  1  0.261989  0.020322  0.002769  1
  O  O26  1  0.477323  0.744106  0.264155  1
  O  O27  1  0.477323  0.255894  0.235845  1
