# generated using pymatgen
data_Tb6Dy2Hf12Si15P
_symmetry_space_group_name_H-M   'P 1'
_cell_length_a   7.27626993
_cell_length_b   7.27763324
_cell_length_c   13.38395208
_cell_angle_alpha   89.85058367
_cell_angle_beta   89.94198267
_cell_angle_gamma   89.99222293
_symmetry_Int_Tables_number   1
_chemical_formula_structural   Tb6Dy2Hf12Si15P
_chemical_formula_sum   'Tb6 Dy2 Hf12 Si15 P1'
_cell_volume   708.73133943
_cell_formula_units_Z   1
loop_
 _symmetry_equiv_pos_site_id
 _symmetry_equiv_pos_as_xyz
  1  'x, y, z'
loop_
 _atom_site_type_symbol
 _atom_site_label
 _atom_site_symmetry_multiplicity
 _atom_site_fract_x
 _atom_site_fract_y
 _atom_site_fract_z
 _atom_site_occupancy
  Tb  Tb0  1  0.156418  0.494524  0.464121  1
  Tb  Tb1  1  0.505845  0.843684  0.034992  1
  Tb  Tb2  1  0.843984  0.504289  0.965261  1
  Tb  Tb3  1  0.495109  0.155437  0.534545  1
  Tb  Tb4  1  0.344468  0.995562  0.785046  1
  Tb  Tb5  1  0.653060  0.006674  0.284824  1
  Dy  Dy6  1  0.998510  0.344688  0.216044  1
  Dy  Dy7  1  0.004316  0.655981  0.714918  1
  Hf  Hf8  1  0.174765  0.175311  0.000579  1
  Hf  Hf9  1  0.826179  0.825533  0.499655  1
  Hf  Hf10  1  0.324851  0.674929  0.250498  1
  Hf  Hf11  1  0.674474  0.325788  0.749906  1
  Hf  Hf12  1  0.152142  0.998658  0.373217  1
  Hf  Hf13  1  0.850577  0.003966  0.874881  1
  Hf  Hf14  1  0.503388  0.649552  0.624511  1
  Hf  Hf15  1  0.350710  0.496779  0.875457  1
  Hf  Hf16  1  0.494785  0.348235  0.127466  1
  Hf  Hf17  1  0.648064  0.501426  0.374922  1
  Hf  Hf18  1  0.996854  0.149712  0.625244  1
  Hf  Hf19  1  0.002070  0.849361  0.125379  1
  Si  Si20  1  0.637551  0.705041  0.816431  1
  Si  Si21  1  0.203715  0.862417  0.566252  1
  Si  Si22  1  0.137038  0.795051  0.932893  1
  Si  Si23  1  0.795220  0.138740  0.067808  1
  Si  Si24  1  0.862892  0.204581  0.432690  1
  Si  Si25  1  0.295226  0.362532  0.682860  1
  Si  Si26  1  0.704495  0.636037  0.183776  1
  Si  Si27  1  0.293422  0.042811  0.182275  1
  Si  Si28  1  0.705409  0.951123  0.685456  1
  Si  Si29  1  0.451832  0.794618  0.435854  1
  Si  Si30  1  0.204989  0.547986  0.064588  1
  Si  Si31  1  0.549038  0.205396  0.936304  1
  Si  Si32  1  0.795276  0.451690  0.564180  1
  Si  Si33  1  0.048912  0.295389  0.814040  1
  Si  Si34  1  0.951343  0.705235  0.314952  1
  P  P35  1  0.363076  0.301267  0.318175  1
