# generated using pymatgen
data_Er13Tm7(Bi2As)4
_symmetry_space_group_name_H-M   'P 1'
_cell_length_a   7.98310173
_cell_length_b   9.05301507
_cell_length_c   11.99993110
_cell_angle_alpha   90.00267258
_cell_angle_beta   90.02181399
_cell_angle_gamma   89.99996466
_symmetry_Int_Tables_number   1
_chemical_formula_structural   Er13Tm7(Bi2As)4
_chemical_formula_sum   'Er13 Tm7 Bi8 As4'
_cell_volume   867.24864110
_cell_formula_units_Z   1
loop_
 _symmetry_equiv_pos_site_id
 _symmetry_equiv_pos_as_xyz
  1  'x, y, z'
loop_
 _atom_site_type_symbol
 _atom_site_label
 _atom_site_symmetry_multiplicity
 _atom_site_fract_x
 _atom_site_fract_y
 _atom_site_fract_z
 _atom_site_occupancy
  Er  Er0  1  0.653239  0.749862  0.711967  1
  Er  Er1  1  0.346585  0.249889  0.288010  1
  Er  Er2  1  0.153172  0.249915  0.788146  1
  Er  Er3  1  0.846659  0.749984  0.211994  1
  Er  Er4  1  0.133403  0.749869  0.794708  1
  Er  Er5  1  0.866578  0.249801  0.205484  1
  Er  Er6  1  0.633524  0.249919  0.705565  1
  Er  Er7  1  0.366570  0.749916  0.294367  1
  Er  Er8  1  0.536278  0.749875  0.999560  1
  Er  Er9  1  0.463850  0.249913  0.000519  1
  Er  Er10  1  0.036358  0.250081  0.500455  1
  Er  Er11  1  0.963227  0.749873  0.499410  1
  Er  Er12  1  0.315993  0.944551  0.564190  1
  Tm  Tm13  1  0.816422  0.443385  0.935793  1
  Tm  Tm14  1  0.183611  0.556366  0.064243  1
  Tm  Tm15  1  0.316208  0.556540  0.564335  1
  Tm  Tm16  1  0.183539  0.943470  0.064204  1
  Tm  Tm17  1  0.683914  0.443845  0.435598  1
  Tm  Tm18  1  0.816483  0.056488  0.935843  1
  Tm  Tm19  1  0.683543  0.056485  0.435752  1
  Bi  Bi20  1  0.923877  0.008685  0.672987  1
  Bi  Bi21  1  0.076118  0.991048  0.326964  1
  Bi  Bi22  1  0.424128  0.991072  0.827113  1
  Bi  Bi23  1  0.076016  0.508786  0.326912  1
  Bi  Bi24  1  0.576005  0.008767  0.172998  1
  Bi  Bi25  1  0.923964  0.491124  0.673017  1
  Bi  Bi26  1  0.576064  0.491024  0.173015  1
  Bi  Bi27  1  0.423958  0.508705  0.827020  1
  As  As28  1  0.914421  0.749893  0.981195  1
  As  As29  1  0.085578  0.249976  0.018987  1
  As  As30  1  0.415338  0.251137  0.518524  1
  As  As31  1  0.585378  0.749754  0.481127  1
