# generated using pymatgen
data_LaNd3Tc4F28
_symmetry_space_group_name_H-M   'P 1'
_cell_length_a   5.71267721
_cell_length_b   9.15978901
_cell_length_c   12.31755900
_cell_angle_alpha   62.20025614
_cell_angle_beta   89.96268994
_cell_angle_gamma   89.97158393
_symmetry_Int_Tables_number   1
_chemical_formula_structural   LaNd3Tc4F28
_chemical_formula_sum   'La1 Nd3 Tc4 F28'
_cell_volume   570.14894178
_cell_formula_units_Z   1
loop_
 _symmetry_equiv_pos_site_id
 _symmetry_equiv_pos_as_xyz
  1  'x, y, z'
loop_
 _atom_site_type_symbol
 _atom_site_label
 _atom_site_symmetry_multiplicity
 _atom_site_fract_x
 _atom_site_fract_y
 _atom_site_fract_z
 _atom_site_occupancy
  La  La0  1  0.741097  0.812052  0.264970  1
  Nd  Nd1  1  0.759069  0.811587  0.764802  1
  Nd  Nd2  1  0.258943  0.189099  0.735221  1
  Nd  Nd3  1  0.241097  0.191515  0.234984  1
  Tc  Tc4  1  0.756384  0.274834  0.956409  1
  Tc  Tc5  1  0.256138  0.726321  0.544584  1
  Tc  Tc6  1  0.244198  0.726572  0.040819  1
  Tc  Tc7  1  0.743781  0.271312  0.458361  1
  F  F8  1  0.441176  0.708094  0.917652  1
  F  F9  1  0.940861  0.290815  0.581113  1
  F  F10  1  0.559463  0.291861  0.080500  1
  F  F11  1  0.063264  0.706338  0.421125  1
  F  F12  1  0.455893  0.280355  0.543358  1
  F  F13  1  0.955126  0.718676  0.956470  1
  F  F14  1  0.543730  0.716685  0.460737  1
  F  F15  1  0.043481  0.281735  0.042688  1
  F  F16  1  0.768697  0.516070  0.860911  1
  F  F17  1  0.268106  0.484727  0.639887  1
  F  F18  1  0.231191  0.485332  0.137809  1
  F  F19  1  0.730978  0.511832  0.362085  1
  F  F20  1  0.758186  0.034208  0.048194  1
  F  F21  1  0.258153  0.967453  0.449145  1
  F  F22  1  0.241925  0.967821  0.948030  1
  F  F23  1  0.741924  0.030371  0.551786  1
  F  F24  1  0.975300  0.729193  0.635276  1
  F  F25  1  0.476904  0.271445  0.865031  1
  F  F26  1  0.023338  0.270312  0.366100  1
  F  F27  1  0.523480  0.727602  0.132173  1
  F  F28  1  0.055495  0.742056  0.168278  1
  F  F29  1  0.551708  0.255541  0.331536  1
  F  F30  1  0.948979  0.257463  0.830338  1
  F  F31  1  0.448237  0.743797  0.670437  1
  F  F32  1  0.403434  0.969226  0.229527  1
  F  F33  1  0.908837  0.036881  0.269918  1
  F  F34  1  0.590512  0.033067  0.769472  1
  F  F35  1  0.090920  0.967751  0.730272  1
