# generated using pymatgen
data_Ac2LaSn5
_symmetry_space_group_name_H-M   'P 1'
_cell_length_a   6.82120477
_cell_length_b   6.82120396
_cell_length_c   10.97077200
_cell_angle_alpha   90.00000000
_cell_angle_beta   90.00000000
_cell_angle_gamma   102.64067598
_symmetry_Int_Tables_number   1
_chemical_formula_structural   Ac2LaSn5
_chemical_formula_sum   'Ac4 La2 Sn10'
_cell_volume   498.08453464
_cell_formula_units_Z   2
loop_
 _symmetry_equiv_pos_site_id
 _symmetry_equiv_pos_as_xyz
  1  'x, y, z'
loop_
 _atom_site_type_symbol
 _atom_site_label
 _atom_site_symmetry_multiplicity
 _atom_site_fract_x
 _atom_site_fract_y
 _atom_site_fract_z
 _atom_site_occupancy
  Ac  Ac0  1  0.202514  0.797486  0.500000  1
  Ac  Ac1  1  0.202514  0.797486  0.000000  1
  Ac  Ac2  1  0.797486  0.202514  0.500000  1
  Ac  Ac3  1  0.797486  0.202514  0.000000  1
  La  La4  1  0.635362  0.635362  0.250000  1
  La  La5  1  0.364638  0.364638  0.750000  1
  Sn  Sn6  1  0.026822  0.026822  0.250000  1
  Sn  Sn7  1  0.973178  0.973178  0.750000  1
  Sn  Sn8  1  0.321034  0.321034  0.049164  1
  Sn  Sn9  1  0.678966  0.678966  0.950836  1
  Sn  Sn10  1  0.321034  0.321034  0.450836  1
  Sn  Sn11  1  0.678966  0.678966  0.549164  1
  Sn  Sn12  1  0.491525  0.075681  0.250000  1
  Sn  Sn13  1  0.924319  0.508475  0.750000  1
  Sn  Sn14  1  0.508475  0.924319  0.750000  1
  Sn  Sn15  1  0.075681  0.491525  0.250000  1
