# generated using pymatgen
data_Tb7Y3Ag3Ru
_symmetry_space_group_name_H-M   'P 1'
_cell_length_a   9.57725600
_cell_length_b   9.57725600
_cell_length_c   9.66245400
_cell_angle_alpha   90.00000000
_cell_angle_beta   90.00000000
_cell_angle_gamma   119.99999998
_symmetry_Int_Tables_number   1
_chemical_formula_structural   Tb7Y3Ag3Ru
_chemical_formula_sum   'Tb14 Y6 Ag6 Ru2'
_cell_volume   767.53866761
_cell_formula_units_Z   2
loop_
 _symmetry_equiv_pos_site_id
 _symmetry_equiv_pos_as_xyz
  1  'x, y, z'
loop_
 _atom_site_type_symbol
 _atom_site_label
 _atom_site_symmetry_multiplicity
 _atom_site_fract_x
 _atom_site_fract_y
 _atom_site_fract_z
 _atom_site_occupancy
  Tb  Tb0  1  0.000000  0.000000  0.500000  1
  Tb  Tb1  1  0.000000  0.000000  0.000000  1
  Tb  Tb2  1  0.208787  0.791213  0.440504  1
  Tb  Tb3  1  0.208787  0.417575  0.440504  1
  Tb  Tb4  1  0.582425  0.791213  0.440504  1
  Tb  Tb5  1  0.791213  0.208787  0.559496  1
  Tb  Tb6  1  0.791213  0.582425  0.559496  1
  Tb  Tb7  1  0.417575  0.208787  0.559496  1
  Tb  Tb8  1  0.791213  0.208787  0.940504  1
  Tb  Tb9  1  0.791213  0.582425  0.940504  1
  Tb  Tb10  1  0.417575  0.208787  0.940504  1
  Tb  Tb11  1  0.208787  0.791213  0.059496  1
  Tb  Tb12  1  0.208787  0.417575  0.059496  1
  Tb  Tb13  1  0.582425  0.791213  0.059496  1
  Y  Y14  1  0.541180  0.458820  0.250000  1
  Y  Y15  1  0.541180  0.082359  0.250000  1
  Y  Y16  1  0.917641  0.458820  0.250000  1
  Y  Y17  1  0.458820  0.541180  0.750000  1
  Y  Y18  1  0.458820  0.917641  0.750000  1
  Y  Y19  1  0.082359  0.541180  0.750000  1
  Ag  Ag20  1  0.883779  0.116221  0.250000  1
  Ag  Ag21  1  0.883779  0.767561  0.250000  1
  Ag  Ag22  1  0.232439  0.116221  0.250000  1
  Ag  Ag23  1  0.116221  0.883779  0.750000  1
  Ag  Ag24  1  0.116221  0.232439  0.750000  1
  Ag  Ag25  1  0.767561  0.883779  0.750000  1
  Ru  Ru26  1  0.333333  0.666667  0.250000  1
  Ru  Ru27  1  0.666667  0.333333  0.750000  1
