# generated using pymatgen
data_YTm5Al24(Os3Pd)2
_symmetry_space_group_name_H-M   'P 1'
_cell_length_a   8.81520994
_cell_length_b   8.81226957
_cell_length_c   9.51652100
_cell_angle_alpha   90.00056035
_cell_angle_beta   89.99971267
_cell_angle_gamma   119.55932047
_symmetry_Int_Tables_number   1
_chemical_formula_structural   YTm5Al24(Os3Pd)2
_chemical_formula_sum   'Y1 Tm5 Al24 Os6 Pd2'
_cell_volume   643.04404012
_cell_formula_units_Z   1
loop_
 _symmetry_equiv_pos_site_id
 _symmetry_equiv_pos_as_xyz
  1  'x, y, z'
loop_
 _atom_site_type_symbol
 _atom_site_label
 _atom_site_symmetry_multiplicity
 _atom_site_fract_x
 _atom_site_fract_y
 _atom_site_fract_z
 _atom_site_occupancy
  Y  Y0  1  0.183986  0.383246  0.250004  1
  Tm  Tm1  1  0.816077  0.613261  0.750007  1
  Tm  Tm2  1  0.612828  0.816108  0.249990  1
  Tm  Tm3  1  0.386678  0.184074  0.750006  1
  Tm  Tm4  1  0.195085  0.805702  0.250000  1
  Tm  Tm5  1  0.805448  0.195164  0.749999  1
  Al  Al6  1  0.331069  0.668888  0.023540  1
  Al  Al7  1  0.668488  0.331450  0.975597  1
  Al  Al8  1  0.668474  0.331464  0.524404  1
  Al  Al9  1  0.331081  0.668879  0.476454  1
  Al  Al10  1  0.157591  0.323685  0.578909  1
  Al  Al11  1  0.842581  0.676704  0.422360  1
  Al  Al12  1  0.676673  0.842481  0.578113  1
  Al  Al13  1  0.842588  0.676714  0.077645  1
  Al  Al14  1  0.323818  0.157276  0.422550  1
  Al  Al15  1  0.157586  0.323682  0.921086  1
  Al  Al16  1  0.164106  0.836119  0.574860  1
  Al  Al17  1  0.323811  0.157276  0.077459  1
  Al  Al18  1  0.835390  0.164071  0.425993  1
  Al  Al19  1  0.676684  0.842486  0.921872  1
  Al  Al20  1  0.835395  0.164077  0.074007  1
  Al  Al21  1  0.164097  0.836115  0.925137  1
  Al  Al22  1  0.560895  0.124504  0.249998  1
  Al  Al23  1  0.439126  0.875771  0.750002  1
  Al  Al24  1  0.875697  0.439600  0.249996  1
  Al  Al25  1  0.124541  0.561363  0.750004  1
  Al  Al26  1  0.561800  0.439661  0.250011  1
  Al  Al27  1  0.439766  0.560729  0.749991  1
  Al  Al28  1  0.996769  0.998040  0.249998  1
  Al  Al29  1  0.001410  0.998525  0.750001  1
  Os  Os30  1  0.500244  0.000208  0.999889  1
  Os  Os31  1  0.999341  0.500288  0.999145  1
  Os  Os32  1  0.500252  0.000209  0.500110  1
  Os  Os33  1  0.999342  0.500290  0.500857  1
  Os  Os34  1  0.000248  0.000539  0.000004  1
  Os  Os35  1  0.000262  0.000526  0.499997  1
  Pd  Pd36  1  0.500387  0.500414  0.999735  1
  Pd  Pd37  1  0.500386  0.500412  0.500268  1
