# generated using pymatgen
data_Lu2ZrCo2
_symmetry_space_group_name_H-M   'P 1'
_cell_length_a   5.66322727
_cell_length_b   5.66322747
_cell_length_c   5.66322681
_cell_angle_alpha   140.64773820
_cell_angle_beta   119.62726994
_cell_angle_gamma   74.47744297
_symmetry_Int_Tables_number   1
_chemical_formula_structural   Lu2ZrCo2
_chemical_formula_sum   'Lu2 Zr1 Co2'
_cell_volume   97.92322082
_cell_formula_units_Z   1
loop_
 _symmetry_equiv_pos_site_id
 _symmetry_equiv_pos_as_xyz
  1  'x, y, z'
loop_
 _atom_site_type_symbol
 _atom_site_label
 _atom_site_symmetry_multiplicity
 _atom_site_fract_x
 _atom_site_fract_y
 _atom_site_fract_z
 _atom_site_occupancy
  Lu  Lu0  1  0.700944  0.200944  0.500000  1
  Lu  Lu1  1  0.299057  0.799056  0.499999  1
  Zr  Zr2  1  0.000000  0.000000  0.000000  1
  Co  Co3  1  0.699326  0.500000  0.199326  1
  Co  Co4  1  0.300674  0.499999  0.800673  1
