# generated using pymatgen
data_DyHoBi4(SbO7)2
_symmetry_space_group_name_H-M   'P 1'
_cell_length_a   6.50602815
_cell_length_b   6.79528984
_cell_length_c   7.65814561
_cell_angle_alpha   106.37816937
_cell_angle_beta   89.63294124
_cell_angle_gamma   99.09218817
_symmetry_Int_Tables_number   1
_chemical_formula_structural   DyHoBi4(SbO7)2
_chemical_formula_sum   'Dy1 Ho1 Bi4 Sb2 O14'
_cell_volume   320.48904738
_cell_formula_units_Z   1
loop_
 _symmetry_equiv_pos_site_id
 _symmetry_equiv_pos_as_xyz
  1  'x, y, z'
loop_
 _atom_site_type_symbol
 _atom_site_label
 _atom_site_symmetry_multiplicity
 _atom_site_fract_x
 _atom_site_fract_y
 _atom_site_fract_z
 _atom_site_occupancy
  Dy  Dy0  1  0.457380  0.002886  0.248133  1
  Ho  Ho1  1  0.542624  0.997104  0.751742  1
  Bi  Bi2  1  0.256717  0.512349  0.878185  1
  Bi  Bi3  1  0.743674  0.487055  0.121652  1
  Bi  Bi4  1  0.730955  0.465998  0.610230  1
  Bi  Bi5  1  0.269094  0.534545  0.390557  1
  Sb  Sb6  1  0.999884  0.999981  0.500179  1
  Sb  Sb7  1  0.999999  0.999983  0.999656  1
  O  O8  1  0.458379  0.656496  0.179399  1
  O  O9  1  0.541390  0.341716  0.819993  1
  O  O10  1  0.292844  0.951691  0.953519  1
  O  O11  1  0.706873  0.048677  0.044648  1
  O  O12  1  0.287180  0.927273  0.514562  1
  O  O13  1  0.712551  0.072841  0.487066  1
  O  O14  1  0.529655  0.349162  0.349518  1
  O  O15  1  0.471332  0.652320  0.651297  1
  O  O16  1  0.914836  0.688868  0.955794  1
  O  O17  1  0.085442  0.311172  0.044200  1
  O  O18  1  0.099224  0.307243  0.612425  1
  O  O19  1  0.901202  0.692732  0.387383  1
  O  O20  1  0.899643  0.953241  0.737926  1
  O  O21  1  0.099126  0.046667  0.261938  1
