# generated using pymatgen
data_Yb2Co10Si7Tc2
_symmetry_space_group_name_H-M   'P 1'
_cell_length_a   9.05975400
_cell_length_b   9.09826064
_cell_length_c   3.67887500
_cell_angle_alpha   90.00000000
_cell_angle_beta   90.00000000
_cell_angle_gamma   120.09929830
_symmetry_Int_Tables_number   1
_chemical_formula_structural   Yb2Co10Si7Tc2
_chemical_formula_sum   'Yb2 Co10 Si7 Tc2'
_cell_volume   262.35238679
_cell_formula_units_Z   1
loop_
 _symmetry_equiv_pos_site_id
 _symmetry_equiv_pos_as_xyz
  1  'x, y, z'
loop_
 _atom_site_type_symbol
 _atom_site_label
 _atom_site_symmetry_multiplicity
 _atom_site_fract_x
 _atom_site_fract_y
 _atom_site_fract_z
 _atom_site_occupancy
  Yb  Yb0  1  0.999087  0.999268  0.000000  1
  Yb  Yb1  1  0.332763  0.666912  0.500000  1
  Co  Co2  1  0.287677  0.384311  0.000000  1
  Co  Co3  1  0.099864  0.711781  0.000000  1
  Co  Co4  1  0.385350  0.174383  0.000000  1
  Co  Co5  1  0.791600  0.614068  0.000000  1
  Co  Co6  1  0.817964  0.206189  0.000000  1
  Co  Co7  1  0.235573  0.949342  0.500000  1
  Co  Co8  1  0.048845  0.281195  0.500000  1
  Co  Co9  1  0.716496  0.770598  0.500000  1
  Co  Co10  1  0.567626  0.120950  0.500000  1
  Co  Co11  1  0.615726  0.905879  0.000000  1
  Si  Si12  1  0.662317  0.328728  0.000000  1
  Si  Si13  1  0.075706  0.446394  0.000000  1
  Si  Si14  1  0.263111  0.219022  0.500000  1
  Si  Si15  1  0.775856  0.044959  0.500000  1
  Si  Si16  1  0.959300  0.737845  0.500000  1
  Si  Si17  1  0.552074  0.628223  0.000000  1
  Si  Si18  1  0.377345  0.928765  0.000000  1
  Tc  Tc19  1  0.880014  0.443850  0.500000  1
  Tc  Tc20  1  0.555704  0.437341  0.500000  1
