# generated using pymatgen
data_Nd16CdIn(HgIr2)2
_symmetry_space_group_name_H-M   'P 1'
_cell_length_a   9.95527857
_cell_length_b   9.96618841
_cell_length_c   9.96620361
_cell_angle_alpha   60.04729558
_cell_angle_beta   60.02530437
_cell_angle_gamma   60.02525925
_symmetry_Int_Tables_number   1
_chemical_formula_structural   Nd16CdIn(HgIr2)2
_chemical_formula_sum   'Nd16 Cd1 In1 Hg2 Ir4'
_cell_volume   699.71024408
_cell_formula_units_Z   1
loop_
 _symmetry_equiv_pos_site_id
 _symmetry_equiv_pos_as_xyz
  1  'x, y, z'
loop_
 _atom_site_type_symbol
 _atom_site_label
 _atom_site_symmetry_multiplicity
 _atom_site_fract_x
 _atom_site_fract_y
 _atom_site_fract_z
 _atom_site_occupancy
  Nd  Nd0  1  0.348413  0.348314  0.348312  1
  Nd  Nd1  1  0.349745  0.349579  0.952809  1
  Nd  Nd2  1  0.349747  0.952808  0.349579  1
  Nd  Nd3  1  0.951631  0.349972  0.349969  1
  Nd  Nd4  1  0.808807  0.190546  0.190546  1
  Nd  Nd5  1  0.189840  0.808345  0.808346  1
  Nd  Nd6  1  0.189310  0.809543  0.190348  1
  Nd  Nd7  1  0.807626  0.190607  0.807865  1
  Nd  Nd8  1  0.189310  0.190347  0.809544  1
  Nd  Nd9  1  0.807627  0.807865  0.190606  1
  Nd  Nd10  1  0.940427  0.561926  0.561925  1
  Nd  Nd11  1  0.560228  0.939827  0.939828  1
  Nd  Nd12  1  0.561105  0.942527  0.561588  1
  Nd  Nd13  1  0.938620  0.560902  0.940158  1
  Nd  Nd14  1  0.561106  0.561588  0.942527  1
  Nd  Nd15  1  0.938620  0.940159  0.560901  1
  Cd  Cd16  1  0.261258  0.579177  0.579177  1
  In  In17  1  0.580036  0.579968  0.579967  1
  Hg  Hg18  1  0.582260  0.584645  0.248831  1
  Hg  Hg19  1  0.582260  0.248830  0.584646  1
  Ir  Ir20  1  0.141769  0.141794  0.141794  1
  Ir  Ir21  1  0.142451  0.142647  0.575371  1
  Ir  Ir22  1  0.142452  0.575371  0.142647  1
  Ir  Ir23  1  0.575352  0.142710  0.142711  1
