# generated using pymatgen
data_TbEr11AlInCo4
_symmetry_space_group_name_H-M   'P 1'
_cell_length_a   8.25589060
_cell_length_b   8.25246413
_cell_length_c   8.25589026
_cell_angle_alpha   112.24320533
_cell_angle_beta   109.93291762
_cell_angle_gamma   106.30885597
_symmetry_Int_Tables_number   1
_chemical_formula_structural   TbEr11AlInCo4
_chemical_formula_sum   'Tb1 Er11 Al1 In1 Co4'
_cell_volume   431.74061096
_cell_formula_units_Z   1
loop_
 _symmetry_equiv_pos_site_id
 _symmetry_equiv_pos_as_xyz
  1  'x, y, z'
loop_
 _atom_site_type_symbol
 _atom_site_label
 _atom_site_symmetry_multiplicity
 _atom_site_fract_x
 _atom_site_fract_y
 _atom_site_fract_z
 _atom_site_occupancy
  Tb  Tb0  1  0.676848  0.988365  0.311518  1
  Er  Er1  1  0.434680  0.235611  0.199982  1
  Er  Er2  1  0.564477  0.764688  0.799006  1
  Er  Er3  1  0.035631  0.235611  0.800932  1
  Er  Er4  1  0.965681  0.764688  0.200211  1
  Er  Er5  1  0.182888  0.283580  0.465513  1
  Er  Er6  1  0.818055  0.716363  0.534975  1
  Er  Er7  1  0.181388  0.716363  0.898309  1
  Er  Er8  1  0.818067  0.283580  0.100692  1
  Er  Er9  1  0.323021  0.635546  0.312526  1
  Er  Er10  1  0.676361  0.364540  0.688178  1
  Er  Er11  1  0.323408  0.010589  0.687180  1
  Al  Al12  1  0.999730  0.999819  0.000090  1
  In  In13  1  0.499482  0.498908  0.999426  1
  Co  Co14  1  0.331249  0.000542  0.332310  1
  Co  Co15  1  0.668231  0.000542  0.669293  1
  Co  Co16  1  0.114927  0.614460  0.499533  1
  Co  Co17  1  0.885877  0.386203  0.500326  1
