# generated using pymatgen
data_Tm2Co2Se
_symmetry_space_group_name_H-M   'P 1'
_cell_length_a   3.80148200
_cell_length_b   3.80148015
_cell_length_c   15.33467200
_cell_angle_alpha   90.00000000
_cell_angle_beta   90.00000000
_cell_angle_gamma   119.99998131
_symmetry_Int_Tables_number   1
_chemical_formula_structural   Tm2Co2Se
_chemical_formula_sum   'Tm4 Co4 Se2'
_cell_volume   191.91586150
_cell_formula_units_Z   2
loop_
 _symmetry_equiv_pos_site_id
 _symmetry_equiv_pos_as_xyz
  1  'x, y, z'
loop_
 _atom_site_type_symbol
 _atom_site_label
 _atom_site_symmetry_multiplicity
 _atom_site_fract_x
 _atom_site_fract_y
 _atom_site_fract_z
 _atom_site_occupancy
  Tm  Tm0  1  0.000000  0.000000  0.121492  1
  Tm  Tm1  1  0.000000  0.000000  0.878508  1
  Tm  Tm2  1  0.000000  0.000000  0.621492  1
  Tm  Tm3  1  0.000000  0.000000  0.378508  1
  Co  Co4  1  0.333333  0.666667  0.502807  1
  Co  Co5  1  0.666667  0.333333  0.497193  1
  Co  Co6  1  0.666667  0.333333  0.002807  1
  Co  Co7  1  0.333333  0.666667  0.997193  1
  Se  Se8  1  0.333333  0.666667  0.250000  1
  Se  Se9  1  0.666667  0.333333  0.750000  1
