# generated using pymatgen
data_Nd12TlCo6
_symmetry_space_group_name_H-M   'P 1'
_cell_length_a   8.67012561
_cell_length_b   8.67036239
_cell_length_c   8.67008937
_cell_angle_alpha   109.41050528
_cell_angle_beta   109.50146901
_cell_angle_gamma   109.50404867
_symmetry_Int_Tables_number   1
_chemical_formula_structural   Nd12TlCo6
_chemical_formula_sum   'Nd12 Tl1 Co6'
_cell_volume   501.70841581
_cell_formula_units_Z   1
loop_
 _symmetry_equiv_pos_site_id
 _symmetry_equiv_pos_as_xyz
  1  'x, y, z'
loop_
 _atom_site_type_symbol
 _atom_site_label
 _atom_site_symmetry_multiplicity
 _atom_site_fract_x
 _atom_site_fract_y
 _atom_site_fract_z
 _atom_site_occupancy
  Nd  Nd0  1  0.807965  0.694077  0.502080  1
  Nd  Nd1  1  0.192035  0.305923  0.497920  1
  Nd  Nd2  1  0.192060  0.694172  0.886157  1
  Nd  Nd3  1  0.807940  0.305828  0.113843  1
  Nd  Nd4  1  0.694016  0.501994  0.807902  1
  Nd  Nd5  1  0.305984  0.498006  0.192098  1
  Nd  Nd6  1  0.694121  0.886161  0.192095  1
  Nd  Nd7  1  0.305879  0.113839  0.807905  1
  Nd  Nd8  1  0.502098  0.807925  0.694130  1
  Nd  Nd9  1  0.497902  0.192075  0.305870  1
  Nd  Nd10  1  0.113792  0.807952  0.305822  1
  Nd  Nd11  1  0.886208  0.192048  0.694178  1
  Tl  Tl12  1  0.000000  0.000000  0.000000  1
  Co  Co13  1  0.888661  0.388605  0.499989  1
  Co  Co14  1  0.111339  0.611395  0.500011  1
  Co  Co15  1  0.388601  0.500011  0.888641  1
  Co  Co16  1  0.611399  0.499989  0.111359  1
  Co  Co17  1  0.500008  0.888653  0.388628  1
  Co  Co18  1  0.499992  0.111347  0.611372  1
