# generated using pymatgen
data_La2Pr(SnIr)3
_symmetry_space_group_name_H-M   'P 1'
_cell_length_a   7.53893300
_cell_length_b   7.55832102
_cell_length_c   4.23097700
_cell_angle_alpha   90.00000000
_cell_angle_beta   90.00000000
_cell_angle_gamma   119.91518702
_symmetry_Int_Tables_number   1
_chemical_formula_structural   La2Pr(SnIr)3
_chemical_formula_sum   'La2 Pr1 Sn3 Ir3'
_cell_volume   208.96667915
_cell_formula_units_Z   1
loop_
 _symmetry_equiv_pos_site_id
 _symmetry_equiv_pos_as_xyz
  1  'x, y, z'
loop_
 _atom_site_type_symbol
 _atom_site_label
 _atom_site_symmetry_multiplicity
 _atom_site_fract_x
 _atom_site_fract_y
 _atom_site_fract_z
 _atom_site_occupancy
  La  La0  1  0.999835  0.585537  0.000000  1
  La  La1  1  0.414297  0.414463  0.000000  1
  Pr  Pr2  1  0.587994  0.000000  0.000000  1
  Sn  Sn3  1  0.249080  0.000000  0.500000  1
  Sn  Sn4  1  0.997856  0.246100  0.500000  1
  Sn  Sn5  1  0.751756  0.753900  0.500000  1
  Ir  Ir6  1  0.331881  0.664728  0.500000  1
  Ir  Ir7  1  0.667155  0.335272  0.500000  1
  Ir  Ir8  1  0.000146  0.000000  0.000000  1
