# generated using pymatgen
data_Ho2ZnTc3
_symmetry_space_group_name_H-M   'P 1'
_cell_length_a   5.28286100
_cell_length_b   5.28286003
_cell_length_c   9.13382300
_cell_angle_alpha   90.00000000
_cell_angle_beta   90.00000000
_cell_angle_gamma   119.99999981
_symmetry_Int_Tables_number   1
_chemical_formula_structural   Ho2ZnTc3
_chemical_formula_sum   'Ho4 Zn2 Tc6'
_cell_volume   220.76057268
_cell_formula_units_Z   2
loop_
 _symmetry_equiv_pos_site_id
 _symmetry_equiv_pos_as_xyz
  1  'x, y, z'
loop_
 _atom_site_type_symbol
 _atom_site_label
 _atom_site_symmetry_multiplicity
 _atom_site_fract_x
 _atom_site_fract_y
 _atom_site_fract_z
 _atom_site_occupancy
  Ho  Ho0  1  0.333333  0.666667  0.429591  1
  Ho  Ho1  1  0.666667  0.333333  0.570409  1
  Ho  Ho2  1  0.666667  0.333333  0.929591  1
  Ho  Ho3  1  0.333333  0.666667  0.070409  1
  Zn  Zn4  1  0.000000  0.000000  0.500000  1
  Zn  Zn5  1  0.000000  0.000000  0.000000  1
  Tc  Tc6  1  0.829660  0.170340  0.250000  1
  Tc  Tc7  1  0.829660  0.659319  0.250000  1
  Tc  Tc8  1  0.340681  0.170340  0.250000  1
  Tc  Tc9  1  0.170340  0.829660  0.750000  1
  Tc  Tc10  1  0.170340  0.340681  0.750000  1
  Tc  Tc11  1  0.659319  0.829660  0.750000  1
