# generated using pymatgen
data_Dy3HoGa3SiNi4
_symmetry_space_group_name_H-M   'P 1'
_cell_length_a   4.25393200
_cell_length_b   6.84062606
_cell_length_c   7.26375158
_cell_angle_alpha   91.40652346
_cell_angle_beta   90.00000000
_cell_angle_gamma   90.00000000
_symmetry_Int_Tables_number   1
_chemical_formula_structural   Dy3HoGa3SiNi4
_chemical_formula_sum   'Dy3 Ho1 Ga3 Si1 Ni4'
_cell_volume   211.30827490
_cell_formula_units_Z   1
loop_
 _symmetry_equiv_pos_site_id
 _symmetry_equiv_pos_as_xyz
  1  'x, y, z'
loop_
 _atom_site_type_symbol
 _atom_site_label
 _atom_site_symmetry_multiplicity
 _atom_site_fract_x
 _atom_site_fract_y
 _atom_site_fract_z
 _atom_site_occupancy
  Dy  Dy0  1  0.750000  0.016696  0.297990  1
  Dy  Dy1  1  0.250000  0.985009  0.701234  1
  Dy  Dy2  1  0.750000  0.511399  0.196475  1
  Ho  Ho3  1  0.250000  0.481429  0.799538  1
  Ga  Ga4  1  0.750000  0.682073  0.583221  1
  Ga  Ga5  1  0.250000  0.313840  0.418075  1
  Ga  Ga6  1  0.250000  0.809769  0.084029  1
  Si  Si7  1  0.750000  0.182273  0.917004  1
  Ni  Ni8  1  0.750000  0.816247  0.914328  1
  Ni  Ni9  1  0.250000  0.206141  0.077234  1
  Ni  Ni10  1  0.250000  0.703830  0.411186  1
  Ni  Ni11  1  0.750000  0.291294  0.599686  1
