# generated using pymatgen
data_Tb2Tm10Tc3Ru
_symmetry_space_group_name_H-M   'P 1'
_cell_length_a   6.20937970
_cell_length_b   7.35073081
_cell_length_c   8.99276400
_cell_angle_alpha   90.00000000
_cell_angle_beta   90.00000000
_cell_angle_gamma   90.16229457
_symmetry_Int_Tables_number   1
_chemical_formula_structural   Tb2Tm10Tc3Ru
_chemical_formula_sum   'Tb2 Tm10 Tc3 Ru1'
_cell_volume   410.45938540
_cell_formula_units_Z   1
loop_
 _symmetry_equiv_pos_site_id
 _symmetry_equiv_pos_as_xyz
  1  'x, y, z'
loop_
 _atom_site_type_symbol
 _atom_site_label
 _atom_site_symmetry_multiplicity
 _atom_site_fract_x
 _atom_site_fract_y
 _atom_site_fract_z
 _atom_site_occupancy
  Tb  Tb0  1  0.627871  0.040885  0.250000  1
  Tb  Tb1  1  0.375989  0.960105  0.750000  1
  Tm  Tm2  1  0.125019  0.461101  0.750000  1
  Tm  Tm3  1  0.875017  0.541587  0.250000  1
  Tm  Tm4  1  0.158951  0.176456  0.062704  1
  Tm  Tm5  1  0.839093  0.822661  0.936997  1
  Tm  Tm6  1  0.659802  0.325329  0.937379  1
  Tm  Tm7  1  0.839093  0.822661  0.563003  1
  Tm  Tm8  1  0.339035  0.674923  0.062453  1
  Tm  Tm9  1  0.158951  0.176456  0.437296  1
  Tm  Tm10  1  0.339035  0.674923  0.437547  1
  Tm  Tm11  1  0.659802  0.325329  0.562621  1
  Tc  Tc12  1  0.460754  0.384459  0.250000  1
  Tc  Tc13  1  0.540360  0.615882  0.750000  1
  Tc  Tc14  1  0.959903  0.114768  0.750000  1
  Ru  Ru15  1  0.041322  0.882476  0.250000  1
