# generated using pymatgen
data_Ho5Er13Tm2Co3Bi8Os
_symmetry_space_group_name_H-M   'P 1'
_cell_length_a   7.88826008
_cell_length_b   8.87516055
_cell_length_c   12.33484217
_cell_angle_alpha   90.01480308
_cell_angle_beta   89.76740778
_cell_angle_gamma   89.96256579
_symmetry_Int_Tables_number   1
_chemical_formula_structural   Ho5Er13Tm2Co3Bi8Os
_chemical_formula_sum   'Ho5 Er13 Tm2 Co3 Bi8 Os1'
_cell_volume   863.54972512
_cell_formula_units_Z   1
loop_
 _symmetry_equiv_pos_site_id
 _symmetry_equiv_pos_as_xyz
  1  'x, y, z'
loop_
 _atom_site_type_symbol
 _atom_site_label
 _atom_site_symmetry_multiplicity
 _atom_site_fract_x
 _atom_site_fract_y
 _atom_site_fract_z
 _atom_site_occupancy
  Ho  Ho0  1  0.847729  0.249421  0.799383  1
  Ho  Ho1  1  0.114949  0.249054  0.187889  1
  Ho  Ho2  1  0.383333  0.250196  0.687258  1
  Ho  Ho3  1  0.944952  0.249889  0.502445  1
  Ho  Ho4  1  0.558384  0.249365  0.003700  1
  Er  Er5  1  0.345026  0.749650  0.701331  1
  Er  Er6  1  0.652416  0.250097  0.300850  1
  Er  Er7  1  0.156648  0.750310  0.207392  1
  Er  Er8  1  0.881258  0.750869  0.807217  1
  Er  Er9  1  0.614871  0.749345  0.314742  1
  Er  Er10  1  0.673049  0.537668  0.563371  1
  Er  Er11  1  0.324405  0.461828  0.436248  1
  Er  Er12  1  0.175999  0.458756  0.935119  1
  Er  Er13  1  0.324494  0.037784  0.436218  1
  Er  Er14  1  0.826148  0.539303  0.063779  1
  Er  Er15  1  0.673067  0.961870  0.563438  1
  Er  Er16  1  0.053822  0.749744  0.497782  1
  Er  Er17  1  0.443844  0.750832  0.996317  1
  Tm  Tm18  1  0.827213  0.961111  0.064056  1
  Tm  Tm19  1  0.175044  0.043265  0.935377  1
  Co  Co20  1  0.931652  0.249765  0.008003  1
  Co  Co21  1  0.563582  0.249809  0.507206  1
  Co  Co22  1  0.432612  0.749717  0.493155  1
  Bi  Bi23  1  0.571281  0.508543  0.826490  1
  Bi  Bi24  1  0.431091  0.491663  0.172820  1
  Bi  Bi25  1  0.069982  0.491377  0.671899  1
  Bi  Bi26  1  0.432539  0.008020  0.173404  1
  Bi  Bi27  1  0.928525  0.508662  0.327040  1
  Bi  Bi28  1  0.570069  0.991523  0.826024  1
  Bi  Bi29  1  0.927627  0.990767  0.327293  1
  Bi  Bi30  1  0.070936  0.008554  0.671615  1
  Os  Os31  1  0.073449  0.751243  0.991131  1
