# generated using pymatgen
data_KY3CBr6
_symmetry_space_group_name_H-M   'P 1'
_cell_length_a   8.74533062
_cell_length_b   8.80457638
_cell_length_c   9.45636200
_cell_angle_alpha   70.87256822
_cell_angle_beta   85.05358264
_cell_angle_gamma   89.14464958
_symmetry_Int_Tables_number   1
_chemical_formula_structural   KY3CBr6
_chemical_formula_sum   'K2 Y6 C2 Br12'
_cell_volume   685.30059073
_cell_formula_units_Z   2
loop_
 _symmetry_equiv_pos_site_id
 _symmetry_equiv_pos_as_xyz
  1  'x, y, z'
loop_
 _atom_site_type_symbol
 _atom_site_label
 _atom_site_symmetry_multiplicity
 _atom_site_fract_x
 _atom_site_fract_y
 _atom_site_fract_z
 _atom_site_occupancy
  K  K0  1  0.475588  0.322010  0.349989  1
  K  K1  1  0.524413  0.677990  0.650011  1
  Y  Y2  1  0.914914  0.742552  0.004060  1
  Y  Y3  1  0.085086  0.257448  0.995939  1
  Y  Y4  1  0.740661  0.087290  0.000271  1
  Y  Y5  1  0.259338  0.912710  0.999730  1
  Y  Y6  1  0.975610  0.881814  0.325579  1
  Y  Y7  1  0.024389  0.118186  0.674422  1
  C  C8  1  0.006272  0.027366  0.920384  1
  C  C9  1  0.993727  0.972634  0.079616  1
  Br  Br10  1  0.086372  0.193612  0.330890  1
  Br  Br11  1  0.913628  0.806388  0.669110  1
  Br  Br12  1  0.206156  0.591829  0.997433  1
  Br  Br13  1  0.793845  0.408171  0.002567  1
  Br  Br14  1  0.405451  0.199662  0.008774  1
  Br  Br15  1  0.594548  0.800339  0.991225  1
  Br  Br16  1  0.665500  0.000476  0.328308  1
  Br  Br17  1  0.334500  0.999524  0.671692  1
  Br  Br18  1  0.283226  0.764315  0.323611  1
  Br  Br19  1  0.716774  0.235685  0.676389  1
  Br  Br20  1  0.843923  0.587804  0.325445  1
  Br  Br21  1  0.156076  0.412196  0.674555  1
