# generated using pymatgen
data_TmSc5CoTe2
_symmetry_space_group_name_H-M   'P 1'
_cell_length_a   3.79398400
_cell_length_b   7.90313121
_cell_length_c   7.90313039
_cell_angle_alpha   121.57595324
_cell_angle_beta   90.00000000
_cell_angle_gamma   90.00000000
_symmetry_Int_Tables_number   1
_chemical_formula_structural   TmSc5CoTe2
_chemical_formula_sum   'Tm1 Sc5 Co1 Te2'
_cell_volume   201.88604337
_cell_formula_units_Z   1
loop_
 _symmetry_equiv_pos_site_id
 _symmetry_equiv_pos_as_xyz
  1  'x, y, z'
loop_
 _atom_site_type_symbol
 _atom_site_label
 _atom_site_symmetry_multiplicity
 _atom_site_fract_x
 _atom_site_fract_y
 _atom_site_fract_z
 _atom_site_occupancy
  Tm  Tm0  1  0.000000  0.386650  0.386650  1
  Sc  Sc1  1  0.500000  0.766672  0.766672  1
  Sc  Sc2  1  0.500000  0.990264  0.227021  1
  Sc  Sc3  1  0.500000  0.227021  0.990264  1
  Sc  Sc4  1  0.000000  0.999521  0.609146  1
  Sc  Sc5  1  0.000000  0.609146  0.999521  1
  Co  Co6  1  0.000000  0.019187  0.019187  1
  Te  Te7  1  0.500000  0.672045  0.329495  1
  Te  Te8  1  0.500000  0.329495  0.672045  1
