# generated using pymatgen
data_Ho2MnFe8Tc2NiP7
_symmetry_space_group_name_H-M   'P 1'
_cell_length_a   9.04537600
_cell_length_b   9.00985465
_cell_length_c   3.61784200
_cell_angle_alpha   90.00000000
_cell_angle_beta   90.00000000
_cell_angle_gamma   119.69687699
_symmetry_Int_Tables_number   1
_chemical_formula_structural   Ho2MnFe8Tc2NiP7
_chemical_formula_sum   'Ho2 Mn1 Fe8 Tc2 Ni1 P7'
_cell_volume   256.11976157
_cell_formula_units_Z   1
loop_
 _symmetry_equiv_pos_site_id
 _symmetry_equiv_pos_as_xyz
  1  'x, y, z'
loop_
 _atom_site_type_symbol
 _atom_site_label
 _atom_site_symmetry_multiplicity
 _atom_site_fract_x
 _atom_site_fract_y
 _atom_site_fract_z
 _atom_site_occupancy
  Ho  Ho0  1  0.663587  0.331610  0.000000  1
  Ho  Ho1  1  0.336346  0.667240  0.500000  1
  Mn  Mn2  1  0.119943  0.900799  0.500000  1
  Fe  Fe3  1  0.057625  0.431929  0.000000  1
  Fe  Fe4  1  0.571597  0.628104  0.000000  1
  Fe  Fe5  1  0.371475  0.944953  0.000000  1
  Fe  Fe6  1  0.273595  0.150764  0.000000  1
  Fe  Fe7  1  0.843757  0.121454  0.000000  1
  Fe  Fe8  1  0.884177  0.722664  0.000000  1
  Fe  Fe9  1  0.434612  0.383389  0.500000  1
  Fe  Fe10  1  0.614378  0.052744  0.500000  1
  Tc  Tc11  1  0.098631  0.216599  0.500000  1
  Tc  Tc12  1  0.783254  0.883477  0.500000  1
  Ni  Ni13  1  0.946102  0.560686  0.500000  1
  P  P14  1  0.301632  0.412827  0.000000  1
  P  P15  1  0.587636  0.889112  0.000000  1
  P  P16  1  0.119076  0.705070  0.000000  1
  P  P17  1  0.407850  0.118065  0.500000  1
  P  P18  1  0.881857  0.285629  0.500000  1
  P  P19  1  0.704270  0.594787  0.500000  1
  P  P20  1  0.998599  0.998098  0.000000  1
