# generated using pymatgen
data_Ho3UIn2Ir3
_symmetry_space_group_name_H-M   'P 1'
_cell_length_a   7.47139626
_cell_length_b   7.33587329
_cell_length_c   4.15377300
_cell_angle_alpha   90.00000000
_cell_angle_beta   90.00000000
_cell_angle_gamma   119.40175692
_symmetry_Int_Tables_number   1
_chemical_formula_structural   Ho3UIn2Ir3
_chemical_formula_sum   'Ho3 U1 In2 Ir3'
_cell_volume   198.34150226
_cell_formula_units_Z   1
loop_
 _symmetry_equiv_pos_site_id
 _symmetry_equiv_pos_as_xyz
  1  'x, y, z'
loop_
 _atom_site_type_symbol
 _atom_site_label
 _atom_site_symmetry_multiplicity
 _atom_site_fract_x
 _atom_site_fract_y
 _atom_site_fract_z
 _atom_site_occupancy
  Ho  Ho0  1  0.570960  0.595151  0.000000  1
  Ho  Ho1  1  0.429040  0.024191  0.000000  1
  Ho  Ho2  1  0.000000  0.379694  0.000000  1
  U  U3  1  0.000000  0.733393  0.500000  1
  In  In4  1  0.257769  0.255879  0.500000  1
  In  In5  1  0.742231  0.998110  0.500000  1
  Ir  Ir6  1  0.000000  0.978116  0.000000  1
  Ir  Ir7  1  0.684797  0.360131  0.500000  1
  Ir  Ir8  1  0.315203  0.675335  0.500000  1
