# generated using pymatgen
data_Li2DyHo15(InIr2)2
_symmetry_space_group_name_H-M   'P 1'
_cell_length_a   9.60422830
_cell_length_b   9.60422818
_cell_length_c   9.62267200
_cell_angle_alpha   59.93646068
_cell_angle_beta   59.93646110
_cell_angle_gamma   59.79209148
_symmetry_Int_Tables_number   1
_chemical_formula_structural   Li2DyHo15(InIr2)2
_chemical_formula_sum   'Li2 Dy1 Ho15 In2 Ir4'
_cell_volume   626.04007328
_cell_formula_units_Z   1
loop_
 _symmetry_equiv_pos_site_id
 _symmetry_equiv_pos_as_xyz
  1  'x, y, z'
loop_
 _atom_site_type_symbol
 _atom_site_label
 _atom_site_symmetry_multiplicity
 _atom_site_fract_x
 _atom_site_fract_y
 _atom_site_fract_z
 _atom_site_occupancy
  Li  Li0  1  0.426847  0.426847  0.424363  1
  Li  Li1  1  0.426847  0.426847  0.721943  1
  Dy  Dy2  1  0.439350  0.439350  0.060650  1
  Ho  Ho3  1  0.651359  0.651359  0.047896  1
  Ho  Ho4  1  0.188293  0.811718  0.189976  1
  Ho  Ho5  1  0.061975  0.438511  0.062074  1
  Ho  Ho6  1  0.188293  0.811718  0.810013  1
  Ho  Ho7  1  0.061975  0.438511  0.437440  1
  Ho  Ho8  1  0.811718  0.188293  0.189976  1
  Ho  Ho9  1  0.651359  0.651359  0.649387  1
  Ho  Ho10  1  0.811718  0.188293  0.810013  1
  Ho  Ho11  1  0.183993  0.183993  0.816007  1
  Ho  Ho12  1  0.041562  0.653136  0.652652  1
  Ho  Ho13  1  0.438511  0.061975  0.062074  1
  Ho  Ho14  1  0.063189  0.063189  0.436811  1
  Ho  Ho15  1  0.653136  0.041562  0.652652  1
  Ho  Ho16  1  0.808245  0.808245  0.191755  1
  Ho  Ho17  1  0.438511  0.061975  0.437440  1
  In  In18  1  0.415549  0.743827  0.420312  1
  In  In19  1  0.743827  0.415549  0.420312  1
  Ir  Ir20  1  0.424451  0.855739  0.859904  1
  Ir  Ir21  1  0.856777  0.856777  0.861174  1
  Ir  Ir22  1  0.855739  0.424451  0.859904  1
  Ir  Ir23  1  0.856777  0.856777  0.425271  1
