# generated using pymatgen
data_Nd2HoZr(NiP)4
_symmetry_space_group_name_H-M   'P 1'
_cell_length_a   3.93157900
_cell_length_b   3.93157886
_cell_length_c   15.58508800
_cell_angle_alpha   90.00000000
_cell_angle_beta   90.00000000
_cell_angle_gamma   119.99997590
_symmetry_Int_Tables_number   1
_chemical_formula_structural   Nd2HoZr(NiP)4
_chemical_formula_sum   'Nd2 Ho1 Zr1 Ni4 P4'
_cell_volume   208.62867233
_cell_formula_units_Z   1
loop_
 _symmetry_equiv_pos_site_id
 _symmetry_equiv_pos_as_xyz
  1  'x, y, z'
loop_
 _atom_site_type_symbol
 _atom_site_label
 _atom_site_symmetry_multiplicity
 _atom_site_fract_x
 _atom_site_fract_y
 _atom_site_fract_z
 _atom_site_occupancy
  Nd  Nd0  1  0.000000  0.000000  0.493060  1
  Nd  Nd1  1  0.000000  0.000000  0.006940  1
  Ho  Ho2  1  0.000000  0.000000  0.750000  1
  Zr  Zr3  1  0.000000  0.000000  0.250000  1
  Ni  Ni4  1  0.333333  0.666667  0.344248  1
  Ni  Ni5  1  0.666667  0.333333  0.629042  1
  Ni  Ni6  1  0.666667  0.333333  0.870958  1
  Ni  Ni7  1  0.333333  0.666667  0.155752  1
  P  P8  1  0.333333  0.666667  0.875300  1
  P  P9  1  0.666667  0.333333  0.131988  1
  P  P10  1  0.666667  0.333333  0.368012  1
  P  P11  1  0.333333  0.666667  0.624700  1
