# generated using pymatgen
data_CeDy(Co5As3)2
_symmetry_space_group_name_H-M   'P 1'
_cell_length_a   3.81377600
_cell_length_b   10.75167900
_cell_length_c   12.15898700
_cell_angle_alpha   90.00000000
_cell_angle_beta   90.00000000
_cell_angle_gamma   90.00000000
_symmetry_Int_Tables_number   1
_chemical_formula_structural   CeDy(Co5As3)2
_chemical_formula_sum   'Ce2 Dy2 Co20 As12'
_cell_volume   498.57312566
_cell_formula_units_Z   2
loop_
 _symmetry_equiv_pos_site_id
 _symmetry_equiv_pos_as_xyz
  1  'x, y, z'
loop_
 _atom_site_type_symbol
 _atom_site_label
 _atom_site_symmetry_multiplicity
 _atom_site_fract_x
 _atom_site_fract_y
 _atom_site_fract_z
 _atom_site_occupancy
  Ce  Ce0  1  0.750000  0.417779  0.298824  1
  Ce  Ce1  1  0.750000  0.082221  0.798824  1
  Dy  Dy2  1  0.250000  0.582201  0.700490  1
  Dy  Dy3  1  0.250000  0.917799  0.200490  1
  Co  Co4  1  0.250000  0.713129  0.994706  1
  Co  Co5  1  0.250000  0.786871  0.494706  1
  Co  Co6  1  0.750000  0.286349  0.009895  1
  Co  Co7  1  0.750000  0.213651  0.509895  1
  Co  Co8  1  0.250000  0.407131  0.487152  1
  Co  Co9  1  0.250000  0.092869  0.987152  1
  Co  Co10  1  0.750000  0.592944  0.512301  1
  Co  Co11  1  0.750000  0.907056  0.012301  1
  Co  Co12  1  0.250000  0.216154  0.177330  1
  Co  Co13  1  0.250000  0.283846  0.677330  1
  Co  Co14  1  0.750000  0.783733  0.822693  1
  Co  Co15  1  0.750000  0.716267  0.322693  1
  Co  Co16  1  0.250000  0.885714  0.697101  1
  Co  Co17  1  0.250000  0.614286  0.197101  1
  Co  Co18  1  0.750000  0.115331  0.303095  1
  Co  Co19  1  0.750000  0.384669  0.803095  1
  Co  Co20  1  0.250000  0.473255  0.930102  1
  Co  Co21  1  0.250000  0.026745  0.430102  1
  Co  Co22  1  0.750000  0.530848  0.067614  1
  Co  Co23  1  0.750000  0.969152  0.567614  1
  As  As24  1  0.250000  0.414808  0.110809  1
  As  As25  1  0.250000  0.085192  0.610809  1
  As  As26  1  0.750000  0.585521  0.884790  1
  As  As27  1  0.750000  0.914479  0.384790  1
  As  As28  1  0.250000  0.273772  0.871649  1
  As  As29  1  0.250000  0.226228  0.371649  1
  As  As30  1  0.750000  0.730144  0.129938  1
  As  As31  1  0.750000  0.769856  0.629938  1
  As  As32  1  0.250000  0.604247  0.391914  1
  As  As33  1  0.250000  0.895753  0.891914  1
  As  As34  1  0.750000  0.399599  0.609600  1
  As  As35  1  0.750000  0.100401  0.109600  1
