# generated using pymatgen
data_Ce4TcB8Os3
_symmetry_space_group_name_H-M   'P 1'
_cell_length_a   5.39256000
_cell_length_b   5.90974661
_cell_length_c   6.51778952
_cell_angle_alpha   89.45184113
_cell_angle_beta   90.00000000
_cell_angle_gamma   90.00000000
_symmetry_Int_Tables_number   1
_chemical_formula_structural   Ce4TcB8Os3
_chemical_formula_sum   'Ce4 Tc1 B8 Os3'
_cell_volume   207.70373290
_cell_formula_units_Z   1
loop_
 _symmetry_equiv_pos_site_id
 _symmetry_equiv_pos_as_xyz
  1  'x, y, z'
loop_
 _atom_site_type_symbol
 _atom_site_label
 _atom_site_symmetry_multiplicity
 _atom_site_fract_x
 _atom_site_fract_y
 _atom_site_fract_z
 _atom_site_occupancy
  Ce  Ce0  1  0.750000  0.495073  0.160254  1
  Ce  Ce1  1  0.750000  0.999566  0.339625  1
  Ce  Ce2  1  0.250000  0.501483  0.843630  1
  Ce  Ce3  1  0.250000  0.003055  0.658183  1
  Tc  Tc4  1  0.250000  0.185950  0.186277  1
  B  B5  1  0.912751  0.126216  0.961318  1
  B  B6  1  0.587027  0.628507  0.537601  1
  B  B7  1  0.413316  0.872414  0.036924  1
  B  B8  1  0.086606  0.373680  0.464288  1
  B  B9  1  0.086684  0.872414  0.036924  1
  B  B10  1  0.413394  0.373680  0.464288  1
  B  B11  1  0.587249  0.126216  0.961318  1
  B  B12  1  0.912973  0.628507  0.537601  1
  Os  Os13  1  0.750000  0.313694  0.687723  1
  Os  Os14  1  0.750000  0.812369  0.811293  1
  Os  Os15  1  0.250000  0.687177  0.312751  1
