# generated using pymatgen
data_Er2Tm2MnV3B16
_symmetry_space_group_name_H-M   'P 1'
_cell_length_a   3.41904900
_cell_length_b   5.94519642
_cell_length_c   11.50315121
_cell_angle_alpha   89.89852364
_cell_angle_beta   90.00000000
_cell_angle_gamma   90.00000000
_symmetry_Int_Tables_number   1
_chemical_formula_structural   Er2Tm2MnV3B16
_chemical_formula_sum   'Er2 Tm2 Mn1 V3 B16'
_cell_volume   233.82324323
_cell_formula_units_Z   1
loop_
 _symmetry_equiv_pos_site_id
 _symmetry_equiv_pos_as_xyz
  1  'x, y, z'
loop_
 _atom_site_type_symbol
 _atom_site_label
 _atom_site_symmetry_multiplicity
 _atom_site_fract_x
 _atom_site_fract_y
 _atom_site_fract_z
 _atom_site_occupancy
  Er  Er0  1  0.500000  0.375706  0.150309  1
  Er  Er1  1  0.500000  0.625195  0.850904  1
  Tm  Tm2  1  0.500000  0.124493  0.652000  1
  Tm  Tm3  1  0.500000  0.875992  0.346930  1
  Mn  Mn4  1  0.500000  0.874901  0.081248  1
  V  V5  1  0.500000  0.372376  0.414630  1
  V  V6  1  0.500000  0.627666  0.582903  1
  V  V7  1  0.500000  0.125425  0.920109  1
  B  B8  1  0.000000  0.109954  0.049111  1
  B  B9  1  0.000000  0.883859  0.955375  1
  B  B10  1  0.000000  0.383780  0.547674  1
  B  B11  1  0.000000  0.615848  0.451524  1
  B  B12  1  0.000000  0.134186  0.466946  1
  B  B13  1  0.000000  0.865746  0.532507  1
  B  B14  1  0.000000  0.365096  0.969283  1
  B  B15  1  0.000000  0.638275  0.033354  1
  B  B16  1  0.000000  0.020318  0.190850  1
  B  B17  1  0.000000  0.976086  0.808678  1
  B  B18  1  0.000000  0.475239  0.693505  1
  B  B19  1  0.000000  0.526252  0.305413  1
  B  B20  1  0.000000  0.212458  0.312195  1
  B  B21  1  0.000000  0.786749  0.686893  1
  B  B22  1  0.000000  0.284675  0.815542  1
  B  B23  1  0.000000  0.719726  0.182114  1
