# generated using pymatgen
data_Tb2Lu8(GaSb)3
_symmetry_space_group_name_H-M   'P 1'
_cell_length_a   8.62712800
_cell_length_b   8.62679767
_cell_length_c   6.33037600
_cell_angle_alpha   90.00000000
_cell_angle_beta   90.00000000
_cell_angle_gamma   120.00127433
_symmetry_Int_Tables_number   1
_chemical_formula_structural   Tb2Lu8(GaSb)3
_chemical_formula_sum   'Tb2 Lu8 Ga3 Sb3'
_cell_volume   408.00963144
_cell_formula_units_Z   1
loop_
 _symmetry_equiv_pos_site_id
 _symmetry_equiv_pos_as_xyz
  1  'x, y, z'
loop_
 _atom_site_type_symbol
 _atom_site_label
 _atom_site_symmetry_multiplicity
 _atom_site_fract_x
 _atom_site_fract_y
 _atom_site_fract_z
 _atom_site_occupancy
  Tb  Tb0  1  0.013245  0.246661  0.250000  1
  Tb  Tb1  1  0.766583  0.753339  0.250000  1
  Lu  Lu2  1  0.326167  0.667394  0.003174  1
  Lu  Lu3  1  0.658773  0.332606  0.496826  1
  Lu  Lu4  1  0.658773  0.332606  0.003174  1
  Lu  Lu5  1  0.326167  0.667394  0.496826  1
  Lu  Lu6  1  0.236603  0.000000  0.250000  1
  Lu  Lu7  1  0.241306  0.228270  0.750000  1
  Lu  Lu8  1  0.013036  0.771730  0.750000  1
  Lu  Lu9  1  0.753690  0.000000  0.750000  1
  Ga  Ga10  1  0.000548  0.602139  0.250000  1
  Ga  Ga11  1  0.398410  0.397861  0.250000  1
  Ga  Ga12  1  0.398023  0.000000  0.750000  1
  Sb  Sb13  1  0.607313  0.000000  0.250000  1
  Sb  Sb14  1  0.604552  0.607742  0.750000  1
  Sb  Sb15  1  0.996811  0.392258  0.750000  1
