# generated using pymatgen
data_PrY5Ga5SiRh12
_symmetry_space_group_name_H-M   'P 1'
_cell_length_a   5.60488900
_cell_length_b   5.60488853
_cell_length_c   15.60614400
_cell_angle_alpha   90.00000000
_cell_angle_beta   90.00000000
_cell_angle_gamma   119.99999690
_symmetry_Int_Tables_number   1
_chemical_formula_structural   PrY5Ga5SiRh12
_chemical_formula_sum   'Pr1 Y5 Ga5 Si1 Rh12'
_cell_volume   424.58070199
_cell_formula_units_Z   1
loop_
 _symmetry_equiv_pos_site_id
 _symmetry_equiv_pos_as_xyz
  1  'x, y, z'
loop_
 _atom_site_type_symbol
 _atom_site_label
 _atom_site_symmetry_multiplicity
 _atom_site_fract_x
 _atom_site_fract_y
 _atom_site_fract_z
 _atom_site_occupancy
  Pr  Pr0  1  0.333333  0.666667  0.250000  1
  Y  Y1  1  0.666667  0.333333  0.957950  1
  Y  Y2  1  0.666667  0.333333  0.542050  1
  Y  Y3  1  0.333333  0.666667  0.035865  1
  Y  Y4  1  0.666667  0.333333  0.750000  1
  Y  Y5  1  0.333333  0.666667  0.464135  1
  Ga  Ga6  1  0.666667  0.333333  0.250000  1
  Ga  Ga7  1  0.000000  0.000000  0.502574  1
  Ga  Ga8  1  0.000000  0.000000  0.250000  1
  Ga  Ga9  1  0.000000  0.000000  0.750000  1
  Ga  Ga10  1  0.000000  0.000000  0.997426  1
  Si  Si11  1  0.333333  0.666667  0.750000  1
  Rh  Rh12  1  0.169727  0.339454  0.868924  1
  Rh  Rh13  1  0.169727  0.339454  0.631076  1
  Rh  Rh14  1  0.660546  0.830273  0.868924  1
  Rh  Rh15  1  0.337715  0.168857  0.375901  1
  Rh  Rh16  1  0.831143  0.662285  0.375901  1
  Rh  Rh17  1  0.831143  0.168857  0.375901  1
  Rh  Rh18  1  0.831143  0.168857  0.124099  1
  Rh  Rh19  1  0.337715  0.168857  0.124099  1
  Rh  Rh20  1  0.660546  0.830273  0.631076  1
  Rh  Rh21  1  0.169727  0.830273  0.631076  1
  Rh  Rh22  1  0.831143  0.662285  0.124099  1
  Rh  Rh23  1  0.169727  0.830273  0.868924  1
