# generated using pymatgen
data_Zn(AsPd3)2
_symmetry_space_group_name_H-M   'P 1'
_cell_length_a   6.77001600
_cell_length_b   6.77001527
_cell_length_c   3.54116600
_cell_angle_alpha   90.00000000
_cell_angle_beta   90.00000000
_cell_angle_gamma   120.00000355
_symmetry_Int_Tables_number   1
_chemical_formula_structural   Zn(AsPd3)2
_chemical_formula_sum   'Zn1 As2 Pd6'
_cell_volume   140.55821893
_cell_formula_units_Z   1
loop_
 _symmetry_equiv_pos_site_id
 _symmetry_equiv_pos_as_xyz
  1  'x, y, z'
loop_
 _atom_site_type_symbol
 _atom_site_label
 _atom_site_symmetry_multiplicity
 _atom_site_fract_x
 _atom_site_fract_y
 _atom_site_fract_z
 _atom_site_occupancy
  Zn  Zn0  1  0.333333  0.666667  0.000000  1
  As  As1  1  0.666667  0.333333  0.000000  1
  As  As2  1  0.000000  0.000000  0.500000  1
  Pd  Pd3  1  0.991062  0.731182  0.000000  1
  Pd  Pd4  1  0.268818  0.259880  0.000000  1
  Pd  Pd5  1  0.740120  0.008938  0.000000  1
  Pd  Pd6  1  0.000160  0.396060  0.500000  1
  Pd  Pd7  1  0.603940  0.604101  0.500000  1
  Pd  Pd8  1  0.395899  0.999840  0.500000  1
