# generated using pymatgen
data_Ca4Y3LuHg8
_symmetry_space_group_name_H-M   'P 1'
_cell_length_a   7.50639900
_cell_length_b   7.49982700
_cell_length_c   7.43991100
_cell_angle_alpha   90.00000000
_cell_angle_beta   90.00243076
_cell_angle_gamma   90.00000000
_symmetry_Int_Tables_number   1
_chemical_formula_structural   Ca4Y3LuHg8
_chemical_formula_sum   'Ca4 Y3 Lu1 Hg8'
_cell_volume   418.84239197
_cell_formula_units_Z   1
loop_
 _symmetry_equiv_pos_site_id
 _symmetry_equiv_pos_as_xyz
  1  'x, y, z'
loop_
 _atom_site_type_symbol
 _atom_site_label
 _atom_site_symmetry_multiplicity
 _atom_site_fract_x
 _atom_site_fract_y
 _atom_site_fract_z
 _atom_site_occupancy
  Ca  Ca0  1  0.749467  0.250000  0.000117  1
  Ca  Ca1  1  0.249521  0.750000  0.499887  1
  Ca  Ca2  1  0.750491  0.250000  0.500107  1
  Ca  Ca3  1  0.250481  0.750000  0.999886  1
  Y  Y4  1  0.749324  0.750000  0.000007  1
  Y  Y5  1  0.750664  0.750000  0.499990  1
  Y  Y6  1  0.249312  0.250000  0.500020  1
  Lu  Lu7  1  0.250605  0.250000  0.000017  1
  Hg  Hg8  1  0.001267  0.498989  0.247412  1
  Hg  Hg9  1  0.001267  0.001013  0.247412  1
  Hg  Hg10  1  0.499150  0.001209  0.250129  1
  Hg  Hg11  1  0.499150  0.498791  0.250129  1
  Hg  Hg12  1  0.498773  0.499009  0.749860  1
  Hg  Hg13  1  0.498773  0.000993  0.749860  1
  Hg  Hg14  1  0.000877  0.001234  0.752584  1
  Hg  Hg15  1  0.000877  0.498766  0.752584  1
