# generated using pymatgen
data_LiErB6Rh
_symmetry_space_group_name_H-M   'P 1'
_cell_length_a   3.50427700
_cell_length_b   8.80701000
_cell_length_c   11.18333900
_cell_angle_alpha   90.00000000
_cell_angle_beta   90.00000000
_cell_angle_gamma   90.00000000
_symmetry_Int_Tables_number   1
_chemical_formula_structural   LiErB6Rh
_chemical_formula_sum   'Li4 Er4 B24 Rh4'
_cell_volume   345.14247376
_cell_formula_units_Z   4
loop_
 _symmetry_equiv_pos_site_id
 _symmetry_equiv_pos_as_xyz
  1  'x, y, z'
loop_
 _atom_site_type_symbol
 _atom_site_label
 _atom_site_symmetry_multiplicity
 _atom_site_fract_x
 _atom_site_fract_y
 _atom_site_fract_z
 _atom_site_occupancy
  Li  Li0  1  0.500000  0.446134  0.123902  1
  Li  Li1  1  0.500000  0.553866  0.876098  1
  Li  Li2  1  0.500000  0.053866  0.623902  1
  Li  Li3  1  0.500000  0.946134  0.376098  1
  Er  Er4  1  0.500000  0.317432  0.414284  1
  Er  Er5  1  0.500000  0.682568  0.585716  1
  Er  Er6  1  0.500000  0.182568  0.914284  1
  Er  Er7  1  0.500000  0.817432  0.085716  1
  B  B8  1  0.000000  0.091197  0.475037  1
  B  B9  1  0.000000  0.908803  0.524963  1
  B  B10  1  0.000000  0.408803  0.975037  1
  B  B11  1  0.000000  0.591197  0.024963  1
  B  B12  1  0.000000  0.124968  0.319030  1
  B  B13  1  0.000000  0.875032  0.680970  1
  B  B14  1  0.000000  0.375032  0.819030  1
  B  B15  1  0.000000  0.624968  0.180970  1
  B  B16  1  0.000000  0.055738  0.067452  1
  B  B17  1  0.000000  0.944262  0.932548  1
  B  B18  1  0.000000  0.444262  0.567452  1
  B  B19  1  0.000000  0.555738  0.432548  1
  B  B20  1  0.000000  0.479736  0.285349  1
  B  B21  1  0.000000  0.520264  0.714651  1
  B  B22  1  0.000000  0.020264  0.785349  1
  B  B23  1  0.000000  0.979736  0.214651  1
  B  B24  1  0.000000  0.258487  0.081728  1
  B  B25  1  0.000000  0.741513  0.918272  1
  B  B26  1  0.000000  0.241513  0.581728  1
  B  B27  1  0.000000  0.758487  0.418272  1
  B  B28  1  0.000000  0.294184  0.235873  1
  B  B29  1  0.000000  0.705816  0.764127  1
  B  B30  1  0.000000  0.205816  0.735873  1
  B  B31  1  0.000000  0.794184  0.264127  1
  Rh  Rh32  1  0.500000  0.141218  0.181920  1
  Rh  Rh33  1  0.500000  0.858782  0.818080  1
  Rh  Rh34  1  0.500000  0.358782  0.681920  1
  Rh  Rh35  1  0.500000  0.641218  0.318080  1
