# generated using pymatgen
data_SrYbTlSbO6
_symmetry_space_group_name_H-M   'P 1'
_cell_length_a   5.81851319
_cell_length_b   5.77057628
_cell_length_c   10.15841471
_cell_angle_alpha   55.62637568
_cell_angle_beta   89.20239550
_cell_angle_gamma   88.29514155
_symmetry_Int_Tables_number   1
_chemical_formula_structural   SrYbTlSbO6
_chemical_formula_sum   'Sr2 Yb2 Tl2 Sb2 O12'
_cell_volume   281.39264152
_cell_formula_units_Z   2
loop_
 _symmetry_equiv_pos_site_id
 _symmetry_equiv_pos_as_xyz
  1  'x, y, z'
loop_
 _atom_site_type_symbol
 _atom_site_label
 _atom_site_symmetry_multiplicity
 _atom_site_fract_x
 _atom_site_fract_y
 _atom_site_fract_z
 _atom_site_occupancy
  Sr  Sr0  1  0.960273  0.758710  0.751632  1
  Sr  Sr1  1  0.039727  0.241290  0.248368  1
  Yb  Yb2  1  0.000000  0.500000  0.500000  1
  Yb  Yb3  1  0.500000  0.500000  0.000000  1
  Tl  Tl4  1  0.471187  0.256876  0.747779  1
  Tl  Tl5  1  0.528813  0.743124  0.252221  1
  Sb  Sb6  1  0.000000  0.000000  0.000000  1
  Sb  Sb7  1  0.500000  0.000000  0.500000  1
  O  O8  1  0.707936  0.906058  0.924987  1
  O  O9  1  0.292064  0.093942  0.075013  1
  O  O10  1  0.203961  0.133215  0.531601  1
  O  O11  1  0.796039  0.866785  0.468399  1
  O  O12  1  0.091123  0.302127  0.768131  1
  O  O13  1  0.908877  0.697873  0.231869  1
  O  O14  1  0.507871  0.657316  0.732711  1
  O  O15  1  0.492129  0.342684  0.267289  1
  O  O16  1  0.166999  0.718182  0.983842  1
  O  O17  1  0.833001  0.281818  0.016158  1
  O  O18  1  0.673343  0.220734  0.570470  1
  O  O19  1  0.326657  0.779266  0.429530  1
