# generated using pymatgen
data_YHo5Er14(CoBi2)4
_symmetry_space_group_name_H-M   'P 1'
_cell_length_a   7.93083336
_cell_length_b   8.85128600
_cell_length_c   12.32629501
_cell_angle_alpha   90.00000000
_cell_angle_beta   89.98493592
_cell_angle_gamma   90.00000000
_symmetry_Int_Tables_number   1
_chemical_formula_structural   YHo5Er14(CoBi2)4
_chemical_formula_sum   'Y1 Ho5 Er14 Co4 Bi8'
_cell_volume   865.28214333
_cell_formula_units_Z   1
loop_
 _symmetry_equiv_pos_site_id
 _symmetry_equiv_pos_as_xyz
  1  'x, y, z'
loop_
 _atom_site_type_symbol
 _atom_site_label
 _atom_site_symmetry_multiplicity
 _atom_site_fract_x
 _atom_site_fract_y
 _atom_site_fract_z
 _atom_site_occupancy
  Y  Y0  1  0.346577  0.750000  0.700651  1
  Ho  Ho1  1  0.153027  0.750000  0.199652  1
  Ho  Ho2  1  0.884588  0.750000  0.811086  1
  Ho  Ho3  1  0.615144  0.750000  0.310725  1
  Ho  Ho4  1  0.052019  0.750000  0.497699  1
  Ho  Ho5  1  0.447577  0.750000  0.998315  1
  Er  Er6  1  0.653103  0.250000  0.300544  1
  Er  Er7  1  0.847122  0.250000  0.800847  1
  Er  Er8  1  0.114623  0.250000  0.188744  1
  Er  Er9  1  0.385577  0.250000  0.688513  1
  Er  Er10  1  0.675146  0.537352  0.562451  1
  Er  Er11  1  0.325193  0.461691  0.437166  1
  Er  Er12  1  0.174901  0.461577  0.937241  1
  Er  Er13  1  0.325193  0.038309  0.437166  1
  Er  Er14  1  0.824953  0.537590  0.062937  1
  Er  Er15  1  0.675146  0.962648  0.562451  1
  Er  Er16  1  0.824953  0.962410  0.062937  1
  Er  Er17  1  0.174901  0.038423  0.937241  1
  Er  Er18  1  0.947148  0.250000  0.501769  1
  Er  Er19  1  0.553033  0.250000  0.002184  1
  Co  Co20  1  0.065737  0.750000  0.991763  1
  Co  Co21  1  0.934338  0.250000  0.008244  1
  Co  Co22  1  0.565599  0.250000  0.508197  1
  Co  Co23  1  0.434726  0.750000  0.491006  1
  Bi  Bi24  1  0.572080  0.508869  0.826988  1
  Bi  Bi25  1  0.428262  0.489705  0.173421  1
  Bi  Bi26  1  0.071269  0.489693  0.673208  1
  Bi  Bi27  1  0.428262  0.010295  0.173421  1
  Bi  Bi28  1  0.928226  0.509040  0.326618  1
  Bi  Bi29  1  0.572080  0.991131  0.826988  1
  Bi  Bi30  1  0.928226  0.990960  0.326618  1
  Bi  Bi31  1  0.071269  0.010307  0.673208  1
