# generated using pymatgen
data_DyPa3Co4
_symmetry_space_group_name_H-M   'P 1'
_cell_length_a   3.72681700
_cell_length_b   5.64515080
_cell_length_c   7.11609793
_cell_angle_alpha   90.33547984
_cell_angle_beta   90.00000000
_cell_angle_gamma   90.00000000
_symmetry_Int_Tables_number   1
_chemical_formula_structural   DyPa3Co4
_chemical_formula_sum   'Dy1 Pa3 Co4'
_cell_volume   149.70906137
_cell_formula_units_Z   1
loop_
 _symmetry_equiv_pos_site_id
 _symmetry_equiv_pos_as_xyz
  1  'x, y, z'
loop_
 _atom_site_type_symbol
 _atom_site_label
 _atom_site_symmetry_multiplicity
 _atom_site_fract_x
 _atom_site_fract_y
 _atom_site_fract_z
 _atom_site_occupancy
  Dy  Dy0  1  0.750000  0.835140  0.823943  1
  Pa  Pa1  1  0.250000  0.329116  0.680375  1
  Pa  Pa2  1  0.250000  0.175172  0.174632  1
  Pa  Pa3  1  0.750000  0.679021  0.325435  1
  Co  Co4  1  0.250000  0.843364  0.530790  1
  Co  Co5  1  0.250000  0.632401  0.077894  1
  Co  Co6  1  0.750000  0.179864  0.443529  1
  Co  Co7  1  0.750000  0.325920  0.943401  1
