# generated using pymatgen
data_SmY2Ho5(CdIr)2
_symmetry_space_group_name_H-M   'P 1'
_cell_length_a   9.64871474
_cell_length_b   9.64871450
_cell_length_c   9.64505400
_cell_angle_alpha   60.01254204
_cell_angle_beta   60.01254287
_cell_angle_gamma   59.97490287
_symmetry_Int_Tables_number   1
_chemical_formula_structural   SmY2Ho5(CdIr)2
_chemical_formula_sum   'Sm2 Y4 Ho10 Cd4 Ir4'
_cell_volume   634.93376590
_cell_formula_units_Z   2
loop_
 _symmetry_equiv_pos_site_id
 _symmetry_equiv_pos_as_xyz
  1  'x, y, z'
loop_
 _atom_site_type_symbol
 _atom_site_label
 _atom_site_symmetry_multiplicity
 _atom_site_fract_x
 _atom_site_fract_y
 _atom_site_fract_z
 _atom_site_occupancy
  Sm  Sm0  1  0.562907  0.562907  0.937093  1
  Sm  Sm1  1  0.937093  0.937093  0.562907  1
  Y  Y2  1  0.939839  0.560161  0.560161  1
  Y  Y3  1  0.560161  0.939839  0.939839  1
  Y  Y4  1  0.560161  0.939839  0.560161  1
  Y  Y5  1  0.939839  0.560161  0.939839  1
  Ho  Ho6  1  0.348590  0.348590  0.347681  1
  Ho  Ho7  1  0.348590  0.348590  0.955140  1
  Ho  Ho8  1  0.347681  0.955140  0.348590  1
  Ho  Ho9  1  0.955140  0.347681  0.348590  1
  Ho  Ho10  1  0.811761  0.188239  0.188239  1
  Ho  Ho11  1  0.188239  0.811761  0.811761  1
  Ho  Ho12  1  0.188239  0.811761  0.188239  1
  Ho  Ho13  1  0.811761  0.188239  0.811761  1
  Ho  Ho14  1  0.188923  0.188923  0.811077  1
  Ho  Ho15  1  0.811077  0.811077  0.188923  1
  Cd  Cd16  1  0.580853  0.580853  0.578826  1
  Cd  Cd17  1  0.580853  0.580853  0.259470  1
  Cd  Cd18  1  0.578826  0.259470  0.580853  1
  Cd  Cd19  1  0.259470  0.578826  0.580853  1
  Ir  Ir20  1  0.142432  0.142432  0.139909  1
  Ir  Ir21  1  0.142432  0.142432  0.575224  1
  Ir  Ir22  1  0.139909  0.575224  0.142432  1
  Ir  Ir23  1  0.575224  0.139909  0.142432  1
