# generated using pymatgen
data_Dy5Ho5Cd3Ru
_symmetry_space_group_name_H-M   'P 1'
_cell_length_a   9.57323701
_cell_length_b   9.57365805
_cell_length_c   9.83047500
_cell_angle_alpha   89.99748592
_cell_angle_beta   90.00242130
_cell_angle_gamma   120.00201191
_symmetry_Int_Tables_number   1
_chemical_formula_structural   Dy5Ho5Cd3Ru
_chemical_formula_sum   'Dy10 Ho10 Cd6 Ru2'
_cell_volume   780.24869668
_cell_formula_units_Z   2
loop_
 _symmetry_equiv_pos_site_id
 _symmetry_equiv_pos_as_xyz
  1  'x, y, z'
loop_
 _atom_site_type_symbol
 _atom_site_label
 _atom_site_symmetry_multiplicity
 _atom_site_fract_x
 _atom_site_fract_y
 _atom_site_fract_z
 _atom_site_occupancy
  Dy  Dy0  1  0.209733  0.790275  0.440277  1
  Dy  Dy1  1  0.209797  0.419476  0.440248  1
  Dy  Dy2  1  0.580514  0.790191  0.440255  1
  Dy  Dy3  1  0.790093  0.209912  0.559815  1
  Dy  Dy4  1  0.541141  0.458870  0.249898  1
  Dy  Dy5  1  0.541056  0.082217  0.249828  1
  Dy  Dy6  1  0.917773  0.458937  0.249829  1
  Dy  Dy7  1  0.459000  0.541014  0.750142  1
  Dy  Dy8  1  0.458887  0.917874  0.750203  1
  Dy  Dy9  1  0.082131  0.541120  0.750200  1
  Ho  Ho10  1  0.000056  0.999947  0.500029  1
  Ho  Ho11  1  0.000004  0.000010  0.000044  1
  Ho  Ho12  1  0.790081  0.580275  0.559772  1
  Ho  Ho13  1  0.419711  0.209912  0.559774  1
  Ho  Ho14  1  0.790125  0.209876  0.940372  1
  Ho  Ho15  1  0.790068  0.580181  0.940274  1
  Ho  Ho16  1  0.419811  0.209932  0.940284  1
  Ho  Ho17  1  0.209883  0.790116  0.059663  1
  Ho  Ho18  1  0.209897  0.419775  0.059647  1
  Ho  Ho19  1  0.580224  0.790110  0.059638  1
  Cd  Cd20  1  0.885543  0.114453  0.249889  1
  Cd  Cd21  1  0.885519  0.771032  0.249926  1
  Cd  Cd22  1  0.228964  0.114479  0.249926  1
  Cd  Cd23  1  0.114464  0.885539  0.750076  1
  Cd  Cd24  1  0.114503  0.228922  0.750104  1
  Cd  Cd25  1  0.771080  0.885503  0.750106  1
  Ru  Ru26  1  0.333328  0.666674  0.249730  1
  Ru  Ru27  1  0.666616  0.333379  0.750051  1
