# generated using pymatgen
data_Zr4Al2Pd3Rh7
_symmetry_space_group_name_H-M   'P 1'
_cell_length_a   5.55850780
_cell_length_b   5.58181774
_cell_length_c   8.30534500
_cell_angle_alpha   90.00003515
_cell_angle_beta   89.99998269
_cell_angle_gamma   98.43628620
_symmetry_Int_Tables_number   1
_chemical_formula_structural   Zr4Al2Pd3Rh7
_chemical_formula_sum   'Zr4 Al2 Pd3 Rh7'
_cell_volume   254.89816402
_cell_formula_units_Z   1
loop_
 _symmetry_equiv_pos_site_id
 _symmetry_equiv_pos_as_xyz
  1  'x, y, z'
loop_
 _atom_site_type_symbol
 _atom_site_label
 _atom_site_symmetry_multiplicity
 _atom_site_fract_x
 _atom_site_fract_y
 _atom_site_fract_z
 _atom_site_occupancy
  Zr  Zr0  1  0.779552  0.227730  0.496789  1
  Zr  Zr1  1  0.220449  0.772275  0.003211  1
  Zr  Zr2  1  0.220449  0.772275  0.496789  1
  Zr  Zr3  1  0.779553  0.227730  0.003211  1
  Al  Al4  1  0.500287  0.500289  0.750000  1
  Al  Al5  1  0.499726  0.499696  0.250000  1
  Pd  Pd6  1  0.499970  0.000057  0.750000  1
  Pd  Pd7  1  0.000059  0.000057  0.250000  1
  Pd  Pd8  1  0.999927  0.999948  0.750000  1
  Rh  Rh9  1  0.715785  0.717770  0.999655  1
  Rh  Rh10  1  0.715784  0.717768  0.500345  1
  Rh  Rh11  1  0.284220  0.282229  0.999444  1
  Rh  Rh12  1  0.284222  0.282228  0.500556  1
  Rh  Rh13  1  0.500017  0.999951  0.250001  1
  Rh  Rh14  1  0.000060  0.499994  0.750000  1
  Rh  Rh15  1  0.999940  0.500004  0.250001  1
