# generated using pymatgen
data_La2Pr4FeI10
_symmetry_space_group_name_H-M   'P 1'
_cell_length_a   8.07393172
_cell_length_b   9.85998427
_cell_length_c   10.19862868
_cell_angle_alpha   108.07919588
_cell_angle_beta   97.45691846
_cell_angle_gamma   104.49971279
_symmetry_Int_Tables_number   1
_chemical_formula_structural   La2Pr4FeI10
_chemical_formula_sum   'La2 Pr4 Fe1 I10'
_cell_volume   727.99773645
_cell_formula_units_Z   1
loop_
 _symmetry_equiv_pos_site_id
 _symmetry_equiv_pos_as_xyz
  1  'x, y, z'
loop_
 _atom_site_type_symbol
 _atom_site_label
 _atom_site_symmetry_multiplicity
 _atom_site_fract_x
 _atom_site_fract_y
 _atom_site_fract_z
 _atom_site_occupancy
  La  La0  1  0.530666  0.240140  0.423664  1
  La  La1  1  0.469334  0.759860  0.576336  1
  Pr  Pr2  1  0.142094  0.368921  0.327453  1
  Pr  Pr3  1  0.857906  0.631079  0.672547  1
  Pr  Pr4  1  0.616753  0.542680  0.254036  1
  Pr  Pr5  1  0.383247  0.457320  0.745964  1
  Fe  Fe6  1  0.500000  0.500000  0.500000  1
  I  I7  1  0.145561  0.041447  0.224918  1
  I  I8  1  0.854439  0.958553  0.775082  1
  I  I9  1  0.237588  0.410705  0.041021  1
  I  I10  1  0.762412  0.589295  0.958979  1
  I  I11  1  0.708722  0.237431  0.149703  1
  I  I12  1  0.291278  0.762569  0.850297  1
  I  I13  1  0.045811  0.684482  0.411603  1
  I  I14  1  0.954189  0.315518  0.588397  1
  I  I15  1  0.412894  0.129393  0.679011  1
  I  I16  1  0.587106  0.870607  0.320989  1
