# generated using pymatgen
data_Eu2ZnAu3
_symmetry_space_group_name_H-M   'P 1'
_cell_length_a   6.07102319
_cell_length_b   6.01749523
_cell_length_c   6.01749597
_cell_angle_alpha   133.94036053
_cell_angle_beta   103.13802496
_cell_angle_gamma   94.36410923
_symmetry_Int_Tables_number   1
_chemical_formula_structural   Eu2ZnAu3
_chemical_formula_sum   'Eu2 Zn1 Au3'
_cell_volume   145.32818748
_cell_formula_units_Z   1
loop_
 _symmetry_equiv_pos_site_id
 _symmetry_equiv_pos_as_xyz
  1  'x, y, z'
loop_
 _atom_site_type_symbol
 _atom_site_label
 _atom_site_symmetry_multiplicity
 _atom_site_fract_x
 _atom_site_fract_y
 _atom_site_fract_z
 _atom_site_occupancy
  Eu  Eu0  1  0.206386  0.462437  0.743950  1
  Eu  Eu1  1  0.788990  0.539964  0.249026  1
  Zn  Zn2  1  0.385769  0.831188  0.554582  1
  Au  Au3  1  0.608220  0.143877  0.464344  1
  Au  Au4  1  0.219207  0.181114  0.038093  1
  Au  Au5  1  0.791428  0.841422  0.950006  1
