# generated using pymatgen
data_La5YAl24AgOs7
_symmetry_space_group_name_H-M   'P 1'
_cell_length_a   8.99678104
_cell_length_b   8.99678082
_cell_length_c   9.71295716
_cell_angle_alpha   90.03373389
_cell_angle_beta   89.96626659
_cell_angle_gamma   119.97134225
_symmetry_Int_Tables_number   1
_chemical_formula_structural   La5YAl24AgOs7
_chemical_formula_sum   'La5 Y1 Al24 Ag1 Os7'
_cell_volume   681.05413886
_cell_formula_units_Z   1
loop_
 _symmetry_equiv_pos_site_id
 _symmetry_equiv_pos_as_xyz
  1  'x, y, z'
loop_
 _atom_site_type_symbol
 _atom_site_label
 _atom_site_symmetry_multiplicity
 _atom_site_fract_x
 _atom_site_fract_y
 _atom_site_fract_z
 _atom_site_occupancy
  La  La0  1  0.188700  0.381474  0.250172  1
  La  La1  1  0.810030  0.618118  0.749703  1
  La  La2  1  0.618526  0.811300  0.250172  1
  La  La3  1  0.381882  0.189970  0.749703  1
  La  La4  1  0.194000  0.806000  0.257249  1
  Y  Y5  1  0.805601  0.194399  0.741453  1
  Al  Al6  1  0.327283  0.672717  0.003974  1
  Al  Al7  1  0.674548  0.325452  0.987033  1
  Al  Al8  1  0.667442  0.332558  0.510215  1
  Al  Al9  1  0.333710  0.666290  0.495654  1
  Al  Al10  1  0.159203  0.324225  0.574813  1
  Al  Al11  1  0.837978  0.673861  0.426918  1
  Al  Al12  1  0.675775  0.840797  0.574813  1
  Al  Al13  1  0.852517  0.678389  0.080513  1
  Al  Al14  1  0.326139  0.162022  0.426918  1
  Al  Al15  1  0.144047  0.319307  0.917705  1
  Al  Al16  1  0.163017  0.836983  0.577823  1
  Al  Al17  1  0.321611  0.147483  0.080513  1
  Al  Al18  1  0.836992  0.163008  0.425805  1
  Al  Al19  1  0.680693  0.855953  0.917705  1
  Al  Al20  1  0.837239  0.162761  0.072741  1
  Al  Al21  1  0.162537  0.837463  0.923713  1
  Al  Al22  1  0.564948  0.126194  0.249631  1
  Al  Al23  1  0.440169  0.878897  0.750188  1
  Al  Al24  1  0.873806  0.435052  0.249631  1
  Al  Al25  1  0.121103  0.559831  0.750188  1
  Al  Al26  1  0.566329  0.433671  0.258848  1
  Al  Al27  1  0.433284  0.566716  0.743175  1
  Al  Al28  1  0.000555  0.999445  0.250983  1
  Al  Al29  1  0.997041  0.002959  0.749379  1
  Ag  Ag30  1  0.500712  0.499288  0.000262  1
  Os  Os31  1  0.501412  0.000612  0.999106  1
  Os  Os32  1  0.999388  0.498588  0.999106  1
  Os  Os33  1  0.501542  0.000342  0.501016  1
  Os  Os34  1  0.999658  0.498458  0.501016  1
  Os  Os35  1  0.500389  0.499611  0.501668  1
  Os  Os36  1  0.000139  0.999861  0.999818  1
  Os  Os37  1  0.000056  0.999944  0.500682  1
