# generated using pymatgen
data_HoMgCoB6
_symmetry_space_group_name_H-M   'P 1'
_cell_length_a   3.40012300
_cell_length_b   8.84389900
_cell_length_c   11.21428100
_cell_angle_alpha   90.00000000
_cell_angle_beta   90.00000000
_cell_angle_gamma   90.00000000
_symmetry_Int_Tables_number   1
_chemical_formula_structural   HoMgCoB6
_chemical_formula_sum   'Ho4 Mg4 Co4 B24'
_cell_volume   337.21729186
_cell_formula_units_Z   4
loop_
 _symmetry_equiv_pos_site_id
 _symmetry_equiv_pos_as_xyz
  1  'x, y, z'
loop_
 _atom_site_type_symbol
 _atom_site_label
 _atom_site_symmetry_multiplicity
 _atom_site_fract_x
 _atom_site_fract_y
 _atom_site_fract_z
 _atom_site_occupancy
  Ho  Ho0  1  0.000000  0.822250  0.086100  1
  Ho  Ho1  1  0.000000  0.177750  0.913900  1
  Ho  Ho2  1  0.000000  0.322250  0.413900  1
  Ho  Ho3  1  0.000000  0.677750  0.586100  1
  Mg  Mg4  1  0.000000  0.444455  0.125211  1
  Mg  Mg5  1  0.000000  0.555545  0.874789  1
  Mg  Mg6  1  0.000000  0.944455  0.374789  1
  Mg  Mg7  1  0.000000  0.055545  0.625211  1
  Co  Co8  1  0.000000  0.141021  0.182090  1
  Co  Co9  1  0.000000  0.858979  0.817910  1
  Co  Co10  1  0.000000  0.641021  0.317910  1
  Co  Co11  1  0.000000  0.358979  0.682090  1
  B  B12  1  0.500000  0.056312  0.068885  1
  B  B13  1  0.500000  0.943688  0.931115  1
  B  B14  1  0.500000  0.556312  0.431115  1
  B  B15  1  0.500000  0.443688  0.568885  1
  B  B16  1  0.500000  0.253599  0.082194  1
  B  B17  1  0.500000  0.746401  0.917806  1
  B  B18  1  0.500000  0.753599  0.417806  1
  B  B19  1  0.500000  0.246401  0.582194  1
  B  B20  1  0.500000  0.291882  0.234658  1
  B  B21  1  0.500000  0.708118  0.765342  1
  B  B22  1  0.500000  0.791882  0.265342  1
  B  B23  1  0.500000  0.208118  0.734658  1
  B  B24  1  0.500000  0.128038  0.317343  1
  B  B25  1  0.500000  0.871962  0.682657  1
  B  B26  1  0.500000  0.628038  0.182657  1
  B  B27  1  0.500000  0.371962  0.817343  1
  B  B28  1  0.500000  0.483688  0.285690  1
  B  B29  1  0.500000  0.516312  0.714310  1
  B  B30  1  0.500000  0.983688  0.214310  1
  B  B31  1  0.500000  0.016312  0.785690  1
  B  B32  1  0.500000  0.097474  0.473798  1
  B  B33  1  0.500000  0.902526  0.526202  1
  B  B34  1  0.500000  0.597474  0.026202  1
  B  B35  1  0.500000  0.402526  0.973798  1
