# generated using pymatgen
data_LiGd7(IO6)4
_symmetry_space_group_name_H-M   'P 1'
_cell_length_a   5.44502022
_cell_length_b   7.78151126
_cell_length_c   11.55865000
_cell_angle_alpha   76.36374101
_cell_angle_beta   89.48703736
_cell_angle_gamma   89.87577574
_symmetry_Int_Tables_number   1
_chemical_formula_structural   LiGd7(IO6)4
_chemical_formula_sum   'Li1 Gd7 I4 O24'
_cell_volume   475.92159468
_cell_formula_units_Z   1
loop_
 _symmetry_equiv_pos_site_id
 _symmetry_equiv_pos_as_xyz
  1  'x, y, z'
loop_
 _atom_site_type_symbol
 _atom_site_label
 _atom_site_symmetry_multiplicity
 _atom_site_fract_x
 _atom_site_fract_y
 _atom_site_fract_z
 _atom_site_occupancy
  Li  Li0  1  0.230422  0.732296  0.077610  1
  Gd  Gd1  1  0.251843  0.012438  0.756567  1
  Gd  Gd2  1  0.745005  0.986815  0.237926  1
  Gd  Gd3  1  0.315924  0.500219  0.763930  1
  Gd  Gd4  1  0.181490  0.207436  0.426652  1
  Gd  Gd5  1  0.695403  0.500715  0.246020  1
  Gd  Gd6  1  0.823775  0.220857  0.919629  1
  Gd  Gd7  1  0.806813  0.800415  0.577806  1
  I  I8  1  0.739388  0.735902  0.892471  1
  I  I9  1  0.247923  0.727450  0.375363  1
  I  I10  1  0.734646  0.290670  0.610926  1
  I  I11  1  0.260192  0.266679  0.119030  1
  O  O12  1  0.823680  0.351503  0.435388  1
  O  O13  1  0.450148  0.826968  0.942750  1
  O  O14  1  0.874086  0.665057  0.044227  1
  O  O15  1  0.058770  0.287821  0.753697  1
  O  O16  1  0.983891  0.292023  0.222115  1
  O  O17  1  0.153078  0.372566  0.965571  1
  O  O18  1  0.637299  0.503388  0.894284  1
  O  O19  1  0.541202  0.162612  0.066871  1
  O  O20  1  0.126981  0.638920  0.532300  1
  O  O21  1  0.011044  0.704393  0.783347  1
  O  O22  1  0.440161  0.187589  0.270334  1
  O  O23  1  0.060192  0.941933  0.380677  1
  O  O24  1  0.467294  0.158503  0.571509  1
  O  O25  1  0.965451  0.701234  0.283555  1
  O  O26  1  0.001608  0.039845  0.596708  1
  O  O27  1  0.543990  0.228486  0.774567  1
  O  O28  1  0.557131  0.798791  0.736727  1
  O  O29  1  0.072112  0.064809  0.102750  1
  O  O30  1  0.606511  0.518437  0.606817  1
  O  O31  1  0.380978  0.488143  0.122120  1
  O  O32  1  0.426749  0.790485  0.225759  1
  O  O33  1  0.362100  0.498057  0.381211  1
  O  O34  1  0.524274  0.839598  0.428183  1
  O  O35  1  0.898447  0.956945  0.874599  1
