# generated using pymatgen
data_CeDy8Tm7(CdRu)4
_symmetry_space_group_name_H-M   'P 1'
_cell_length_a   9.59861135
_cell_length_b   9.59674436
_cell_length_c   9.61167650
_cell_angle_alpha   59.39866754
_cell_angle_beta   59.45504064
_cell_angle_gamma   59.37811452
_symmetry_Int_Tables_number   1
_chemical_formula_structural   CeDy8Tm7(CdRu)4
_chemical_formula_sum   'Ce1 Dy8 Tm7 Cd4 Ru4'
_cell_volume   617.66366307
_cell_formula_units_Z   1
loop_
 _symmetry_equiv_pos_site_id
 _symmetry_equiv_pos_as_xyz
  1  'x, y, z'
loop_
 _atom_site_type_symbol
 _atom_site_label
 _atom_site_symmetry_multiplicity
 _atom_site_fract_x
 _atom_site_fract_y
 _atom_site_fract_z
 _atom_site_occupancy
  Ce  Ce0  1  0.342395  0.342750  0.341337  1
  Dy  Dy1  1  0.561635  0.562330  0.938598  1
  Dy  Dy2  1  0.939599  0.560099  0.940305  1
  Dy  Dy3  1  0.559649  0.939218  0.940532  1
  Dy  Dy4  1  0.940287  0.939687  0.559001  1
  Dy  Dy5  1  0.562366  0.938460  0.561192  1
  Dy  Dy6  1  0.938422  0.562922  0.561099  1
  Dy  Dy7  1  0.188597  0.188016  0.813757  1
  Dy  Dy8  1  0.810912  0.187034  0.811601  1
  Tm  Tm9  1  0.187519  0.810505  0.811895  1
  Tm  Tm10  1  0.812002  0.811259  0.187659  1
  Tm  Tm11  1  0.187648  0.813163  0.188537  1
  Tm  Tm12  1  0.813106  0.187753  0.189203  1
  Tm  Tm13  1  0.346176  0.347277  0.958518  1
  Tm  Tm14  1  0.346697  0.957721  0.347010  1
  Tm  Tm15  1  0.958208  0.346880  0.346034  1
  Cd  Cd16  1  0.579807  0.579850  0.257975  1
  Cd  Cd17  1  0.580042  0.258027  0.579541  1
  Cd  Cd18  1  0.258100  0.580183  0.579643  1
  Cd  Cd19  1  0.579437  0.579850  0.579548  1
  Ru  Ru20  1  0.146095  0.145203  0.575070  1
  Ru  Ru21  1  0.145568  0.576193  0.145404  1
  Ru  Ru22  1  0.575615  0.145390  0.146120  1
  Ru  Ru23  1  0.140117  0.140232  0.140419  1
