# generated using pymatgen
data_Nd2Ga(Co2P)6
_symmetry_space_group_name_H-M   'P 1'
_cell_length_a   9.16295500
_cell_length_b   9.16295405
_cell_length_c   3.60942300
_cell_angle_alpha   90.00000000
_cell_angle_beta   90.00000000
_cell_angle_gamma   119.99999981
_symmetry_Int_Tables_number   1
_chemical_formula_structural   Nd2Ga(Co2P)6
_chemical_formula_sum   'Nd2 Ga1 Co12 P6'
_cell_volume   262.44570908
_cell_formula_units_Z   1
loop_
 _symmetry_equiv_pos_site_id
 _symmetry_equiv_pos_as_xyz
  1  'x, y, z'
loop_
 _atom_site_type_symbol
 _atom_site_label
 _atom_site_symmetry_multiplicity
 _atom_site_fract_x
 _atom_site_fract_y
 _atom_site_fract_z
 _atom_site_occupancy
  Nd  Nd0  1  0.000000  0.000000  0.000000  1
  Nd  Nd1  1  0.333333  0.666667  0.500000  1
  Ga  Ga2  1  0.666667  0.333333  0.000000  1
  Co  Co3  1  0.101580  0.392177  0.000000  1
  Co  Co4  1  0.607823  0.709402  0.000000  1
  Co  Co5  1  0.290598  0.898420  0.000000  1
  Co  Co6  1  0.052500  0.769766  0.500000  1
  Co  Co7  1  0.230234  0.282733  0.500000  1
  Co  Co8  1  0.717267  0.947500  0.500000  1
  Co  Co9  1  0.826877  0.622407  0.000000  1
  Co  Co10  1  0.377593  0.204472  0.000000  1
  Co  Co11  1  0.795528  0.173123  0.000000  1
  Co  Co12  1  0.917671  0.447317  0.500000  1
  Co  Co13  1  0.552683  0.470354  0.500000  1
  Co  Co14  1  0.529646  0.082329  0.500000  1
  P  P15  1  0.771544  0.730529  0.500000  1
  P  P16  1  0.269471  0.041015  0.500000  1
  P  P17  1  0.958985  0.228456  0.500000  1
  P  P18  1  0.066304  0.625538  0.000000  1
  P  P19  1  0.374462  0.440766  0.000000  1
  P  P20  1  0.559234  0.933696  0.000000  1
