# generated using pymatgen
data_Tb2DySi2Ag3Hg
_symmetry_space_group_name_H-M   'P 1'
_cell_length_a   7.27183101
_cell_length_b   7.27260106
_cell_length_c   4.22242300
_cell_angle_alpha   90.00000000
_cell_angle_beta   90.00000000
_cell_angle_gamma   120.00350261
_symmetry_Int_Tables_number   1
_chemical_formula_structural   Tb2DySi2Ag3Hg
_chemical_formula_sum   'Tb2 Dy1 Si2 Ag3 Hg1'
_cell_volume   193.37956719
_cell_formula_units_Z   1
loop_
 _symmetry_equiv_pos_site_id
 _symmetry_equiv_pos_as_xyz
  1  'x, y, z'
loop_
 _atom_site_type_symbol
 _atom_site_label
 _atom_site_symmetry_multiplicity
 _atom_site_fract_x
 _atom_site_fract_y
 _atom_site_fract_z
 _atom_site_occupancy
  Tb  Tb0  1  0.419780  0.419800  0.500000  1
  Tb  Tb1  1  0.580220  0.000020  0.500000  1
  Dy  Dy2  1  0.000000  0.580154  0.500000  1
  Si  Si3  1  0.666902  0.333492  0.000000  1
  Si  Si4  1  0.333098  0.666591  0.000000  1
  Ag  Ag5  1  0.729997  0.729909  0.000000  1
  Ag  Ag6  1  0.270003  0.999912  0.000000  1
  Ag  Ag7  1  0.000000  0.270257  0.000000  1
  Hg  Hg8  1  0.000000  0.999866  0.500000  1
