# generated using pymatgen
data_Cs2CrNiSe4
_symmetry_space_group_name_H-M   'P 1'
_cell_length_a   7.47152438
_cell_length_b   7.47152424
_cell_length_c   5.47793049
_cell_angle_alpha   79.46139156
_cell_angle_beta   79.46138857
_cell_angle_gamma   116.98029391
_symmetry_Int_Tables_number   1
_chemical_formula_structural   Cs2CrNiSe4
_chemical_formula_sum   'Cs2 Cr1 Ni1 Se4'
_cell_volume   255.28462622
_cell_formula_units_Z   1
loop_
 _symmetry_equiv_pos_site_id
 _symmetry_equiv_pos_as_xyz
  1  'x, y, z'
loop_
 _atom_site_type_symbol
 _atom_site_label
 _atom_site_symmetry_multiplicity
 _atom_site_fract_x
 _atom_site_fract_y
 _atom_site_fract_z
 _atom_site_occupancy
  Cs  Cs0  1  0.146872  0.853128  0.000000  1
  Cs  Cs1  1  0.853029  0.146971  0.500000  1
  Cr  Cr2  1  0.499781  0.500219  0.500000  1
  Ni  Ni3  1  0.500334  0.499666  0.000000  1
  Se  Se4  1  0.216347  0.421223  0.830715  1
  Se  Se5  1  0.578777  0.783653  0.169285  1
  Se  Se6  1  0.783521  0.578660  0.649338  1
  Se  Se7  1  0.421340  0.216479  0.350662  1
