# generated using pymatgen
data_YTm10Th(CoNi)2
_symmetry_space_group_name_H-M   'P 1'
_cell_length_a   6.22000638
_cell_length_b   6.81136729
_cell_length_c   9.43735700
_cell_angle_alpha   90.00000000
_cell_angle_beta   90.00000000
_cell_angle_gamma   91.00835489
_symmetry_Int_Tables_number   1
_chemical_formula_structural   YTm10Th(CoNi)2
_chemical_formula_sum   'Y1 Tm10 Th1 Co2 Ni2'
_cell_volume   399.76820829
_cell_formula_units_Z   1
loop_
 _symmetry_equiv_pos_site_id
 _symmetry_equiv_pos_as_xyz
  1  'x, y, z'
loop_
 _atom_site_type_symbol
 _atom_site_label
 _atom_site_symmetry_multiplicity
 _atom_site_fract_x
 _atom_site_fract_y
 _atom_site_fract_z
 _atom_site_occupancy
  Y  Y0  1  0.360048  0.966812  0.750000  1
  Tm  Tm1  1  0.324202  0.675365  0.068631  1
  Tm  Tm2  1  0.177979  0.176100  0.429796  1
  Tm  Tm3  1  0.676638  0.321724  0.565426  1
  Tm  Tm4  1  0.825247  0.825664  0.932750  1
  Tm  Tm5  1  0.676638  0.321724  0.934574  1
  Tm  Tm6  1  0.825247  0.825664  0.567250  1
  Tm  Tm7  1  0.324202  0.675365  0.431369  1
  Tm  Tm8  1  0.177979  0.176100  0.070204  1
  Tm  Tm9  1  0.637268  0.040390  0.250000  1
  Tm  Tm10  1  0.140216  0.464655  0.750000  1
  Th  Th11  1  0.850951  0.548213  0.250000  1
  Co  Co12  1  0.038343  0.873700  0.250000  1
  Co  Co13  1  0.463802  0.389284  0.250000  1
  Ni  Ni14  1  0.941164  0.114169  0.750000  1
  Ni  Ni15  1  0.560077  0.605071  0.750000  1
