# generated using pymatgen
data_DyHo6Co6Sn22Au
_symmetry_space_group_name_H-M   'P 1'
_cell_length_a   9.65722300
_cell_length_b   9.65722273
_cell_length_c   9.92860200
_cell_angle_alpha   90.00000000
_cell_angle_beta   90.00000000
_cell_angle_gamma   119.99999066
_symmetry_Int_Tables_number   1
_chemical_formula_structural   DyHo6Co6Sn22Au
_chemical_formula_sum   'Dy1 Ho6 Co6 Sn22 Au1'
_cell_volume   801.90566637
_cell_formula_units_Z   1
loop_
 _symmetry_equiv_pos_site_id
 _symmetry_equiv_pos_as_xyz
  1  'x, y, z'
loop_
 _atom_site_type_symbol
 _atom_site_label
 _atom_site_symmetry_multiplicity
 _atom_site_fract_x
 _atom_site_fract_y
 _atom_site_fract_z
 _atom_site_occupancy
  Dy  Dy0  1  0.000000  0.000000  0.000000  1
  Ho  Ho1  1  0.479050  0.520950  0.306479  1
  Ho  Ho2  1  0.520950  0.479050  0.693521  1
  Ho  Ho3  1  0.479050  0.958100  0.306479  1
  Ho  Ho4  1  0.520950  0.041900  0.693521  1
  Ho  Ho5  1  0.041900  0.520950  0.306479  1
  Ho  Ho6  1  0.958100  0.479050  0.693521  1
  Co  Co7  1  0.832166  0.167834  0.196634  1
  Co  Co8  1  0.167834  0.832166  0.803366  1
  Co  Co9  1  0.832166  0.664331  0.196634  1
  Co  Co10  1  0.167834  0.335669  0.803366  1
  Co  Co11  1  0.335669  0.167834  0.196634  1
  Co  Co12  1  0.664331  0.832166  0.803366  1
  Sn  Sn13  1  0.346225  0.000000  0.000000  1
  Sn  Sn14  1  0.653775  0.000000  0.000000  1
  Sn  Sn15  1  0.000000  0.346225  0.000000  1
  Sn  Sn16  1  0.000000  0.653775  0.000000  1
  Sn  Sn17  1  0.653775  0.653775  0.000000  1
  Sn  Sn18  1  0.346225  0.346225  0.000000  1
  Sn  Sn19  1  0.333333  0.666667  0.817075  1
  Sn  Sn20  1  0.666667  0.333333  0.182925  1
  Sn  Sn21  1  0.782934  0.217066  0.452883  1
  Sn  Sn22  1  0.217066  0.782934  0.547117  1
  Sn  Sn23  1  0.782934  0.565867  0.452883  1
  Sn  Sn24  1  0.217066  0.434133  0.547117  1
  Sn  Sn25  1  0.434133  0.217066  0.452883  1
  Sn  Sn26  1  0.565867  0.782934  0.547117  1
  Sn  Sn27  1  0.333333  0.666667  0.119227  1
  Sn  Sn28  1  0.666667  0.333333  0.880773  1
  Sn  Sn29  1  0.113696  0.886304  0.277856  1
  Sn  Sn30  1  0.886304  0.113696  0.722144  1
  Sn  Sn31  1  0.113696  0.227391  0.277856  1
  Sn  Sn32  1  0.886304  0.772609  0.722144  1
  Sn  Sn33  1  0.772609  0.886304  0.277856  1
  Sn  Sn34  1  0.227391  0.113696  0.722144  1
  Au  Au35  1  0.000000  0.000000  0.500000  1
