# generated using pymatgen
data_Th3Hg3PtAu2
_symmetry_space_group_name_H-M   'P 1'
_cell_length_a   7.90521900
_cell_length_b   7.90521884
_cell_length_c   4.04089900
_cell_angle_alpha   90.00000000
_cell_angle_beta   90.00000000
_cell_angle_gamma   120.00000487
_symmetry_Int_Tables_number   1
_chemical_formula_structural   Th3Hg3PtAu2
_chemical_formula_sum   'Th3 Hg3 Pt1 Au2'
_cell_volume   218.69376867
_cell_formula_units_Z   1
loop_
 _symmetry_equiv_pos_site_id
 _symmetry_equiv_pos_as_xyz
  1  'x, y, z'
loop_
 _atom_site_type_symbol
 _atom_site_label
 _atom_site_symmetry_multiplicity
 _atom_site_fract_x
 _atom_site_fract_y
 _atom_site_fract_z
 _atom_site_occupancy
  Th  Th0  1  0.399571  0.412700  0.500000  1
  Th  Th1  1  0.587300  0.986871  0.500000  1
  Th  Th2  1  0.013129  0.600429  0.500000  1
  Hg  Hg3  1  0.736829  0.733906  0.000000  1
  Hg  Hg4  1  0.266094  0.002922  0.000000  1
  Hg  Hg5  1  0.997078  0.263171  0.000000  1
  Pt  Pt6  1  0.333333  0.666667  0.000000  1
  Au  Au7  1  0.666667  0.333333  0.000000  1
  Au  Au8  1  0.000000  0.000000  0.500000  1
