# generated using pymatgen
data_Tb6Co2P12Ru11Rh5
_symmetry_space_group_name_H-M   'P 1'
_cell_length_a   3.90510000
_cell_length_b   11.11465178
_cell_length_c   12.68586396
_cell_angle_alpha   89.66664206
_cell_angle_beta   90.00000000
_cell_angle_gamma   90.00000000
_symmetry_Int_Tables_number   1
_chemical_formula_structural   Tb6Co2P12Ru11Rh5
_chemical_formula_sum   'Tb6 Co2 P12 Ru11 Rh5'
_cell_volume   550.60572118
_cell_formula_units_Z   1
loop_
 _symmetry_equiv_pos_site_id
 _symmetry_equiv_pos_as_xyz
  1  'x, y, z'
loop_
 _atom_site_type_symbol
 _atom_site_label
 _atom_site_symmetry_multiplicity
 _atom_site_fract_x
 _atom_site_fract_y
 _atom_site_fract_z
 _atom_site_occupancy
  Tb  Tb0  1  0.000000  0.499108  0.522426  1
  Tb  Tb1  1  0.500000  0.001352  0.478228  1
  Tb  Tb2  1  0.500000  0.818724  0.202914  1
  Tb  Tb3  1  0.500000  0.180520  0.203814  1
  Tb  Tb4  1  0.000000  0.681711  0.796514  1
  Tb  Tb5  1  0.000000  0.319353  0.796282  1
  Co  Co6  1  0.000000  0.500398  0.988785  1
  Co  Co7  1  0.500000  0.999698  0.011278  1
  P  P8  1  0.500000  0.501059  0.885813  1
  P  P9  1  0.000000  0.999121  0.113946  1
  P  P10  1  0.500000  0.500062  0.344774  1
  P  P11  1  0.000000  0.993743  0.657792  1
  P  P12  1  0.500000  0.307612  0.614526  1
  P  P13  1  0.500000  0.695399  0.616516  1
  P  P14  1  0.000000  0.191770  0.385969  1
  P  P15  1  0.000000  0.806729  0.384426  1
  P  P16  1  0.500000  0.849482  0.896933  1
  P  P17  1  0.500000  0.152386  0.900069  1
  P  P18  1  0.000000  0.651690  0.100190  1
  P  P19  1  0.000000  0.348162  0.100658  1
  Ru  Ru20  1  0.500000  0.499852  0.158314  1
  Ru  Ru21  1  0.000000  0.001473  0.843329  1
  Ru  Ru22  1  0.500000  0.335668  0.991457  1
  Ru  Ru23  1  0.500000  0.665378  0.990940  1
  Ru  Ru24  1  0.000000  0.165161  0.009224  1
  Ru  Ru25  1  0.000000  0.835136  0.008806  1
  Ru  Ru26  1  0.500000  0.298964  0.428031  1
  Ru  Ru27  1  0.500000  0.700335  0.427217  1
  Ru  Ru28  1  0.000000  0.199108  0.572516  1
  Ru  Ru29  1  0.000000  0.797708  0.569673  1
  Ru  Ru30  1  0.500000  0.878265  0.714454  1
  Rh  Rh31  1  0.500000  0.500288  0.700124  1
  Rh  Rh32  1  0.000000  0.999802  0.299688  1
  Rh  Rh33  1  0.500000  0.126132  0.718040  1
  Rh  Rh34  1  0.000000  0.624096  0.283179  1
  Rh  Rh35  1  0.000000  0.374558  0.283155  1
