# generated using pymatgen
data_Nb4SiP3Ru4
_symmetry_space_group_name_H-M   'P 1'
_cell_length_a   3.77614500
_cell_length_b   6.38290273
_cell_length_c   7.24191383
_cell_angle_alpha   89.94516660
_cell_angle_beta   90.00000000
_cell_angle_gamma   90.00000000
_symmetry_Int_Tables_number   1
_chemical_formula_structural   Nb4SiP3Ru4
_chemical_formula_sum   'Nb4 Si1 P3 Ru4'
_cell_volume   174.55007616
_cell_formula_units_Z   1
loop_
 _symmetry_equiv_pos_site_id
 _symmetry_equiv_pos_as_xyz
  1  'x, y, z'
loop_
 _atom_site_type_symbol
 _atom_site_label
 _atom_site_symmetry_multiplicity
 _atom_site_fract_x
 _atom_site_fract_y
 _atom_site_fract_z
 _atom_site_occupancy
  Nb  Nb0  1  0.250000  0.022637  0.825327  1
  Nb  Nb1  1  0.250000  0.523572  0.674018  1
  Nb  Nb2  1  0.750000  0.974284  0.174559  1
  Nb  Nb3  1  0.750000  0.476088  0.327421  1
  Si  Si4  1  0.250000  0.272084  0.123733  1
  P  P5  1  0.250000  0.770641  0.376581  1
  P  P6  1  0.750000  0.728013  0.876896  1
  P  P7  1  0.750000  0.228292  0.623334  1
  Ru  Ru8  1  0.250000  0.145589  0.443619  1
  Ru  Ru9  1  0.250000  0.651650  0.060587  1
  Ru  Ru10  1  0.750000  0.851186  0.561511  1
  Ru  Ru11  1  0.750000  0.355965  0.932416  1
