# generated using pymatgen
data_Tb15Er(InPd)4
_symmetry_space_group_name_H-M   'P 1'
_cell_length_a   9.77490564
_cell_length_b   9.78708818
_cell_length_c   9.77491681
_cell_angle_alpha   59.95827160
_cell_angle_beta   59.87245394
_cell_angle_gamma   59.95806424
_symmetry_Int_Tables_number   1
_chemical_formula_structural   Tb15Er(InPd)4
_chemical_formula_sum   'Tb15 Er1 In4 Pd4'
_cell_volume   660.19070745
_cell_formula_units_Z   1
loop_
 _symmetry_equiv_pos_site_id
 _symmetry_equiv_pos_as_xyz
  1  'x, y, z'
loop_
 _atom_site_type_symbol
 _atom_site_label
 _atom_site_symmetry_multiplicity
 _atom_site_fract_x
 _atom_site_fract_y
 _atom_site_fract_z
 _atom_site_occupancy
  Tb  Tb0  1  0.190178  0.190635  0.809700  1
  Tb  Tb1  1  0.435337  0.063056  0.064381  1
  Tb  Tb2  1  0.435275  0.064720  0.435285  1
  Tb  Tb3  1  0.062638  0.437357  0.062647  1
  Tb  Tb4  1  0.648450  0.054761  0.648457  1
  Tb  Tb5  1  0.190177  0.809496  0.809695  1
  Tb  Tb6  1  0.064372  0.063052  0.435343  1
  Tb  Tb7  1  0.809693  0.190624  0.190190  1
  Tb  Tb8  1  0.809694  0.809493  0.190192  1
  Tb  Tb9  1  0.647384  0.647437  0.057744  1
  Tb  Tb10  1  0.648451  0.648333  0.648459  1
  Tb  Tb11  1  0.064374  0.437228  0.435343  1
  Tb  Tb12  1  0.057726  0.647443  0.647386  1
  Tb  Tb13  1  0.809461  0.190531  0.809478  1
  Tb  Tb14  1  0.435336  0.437226  0.064383  1
  Er  Er15  1  0.191218  0.808863  0.191027  1
  In  In16  1  0.416879  0.749346  0.416886  1
  In  In17  1  0.417797  0.417389  0.747430  1
  In  In18  1  0.747411  0.417393  0.417804  1
  In  In19  1  0.416873  0.416896  0.416891  1
  Pd  Pd20  1  0.856309  0.431952  0.856316  1
  Pd  Pd21  1  0.859270  0.855673  0.429385  1
  Pd  Pd22  1  0.429392  0.855672  0.859261  1
  Pd  Pd23  1  0.856304  0.855426  0.856315  1
