# generated using pymatgen
data_YbEr6PtI12
_symmetry_space_group_name_H-M   'P 1'
_cell_length_a   9.76485648
_cell_length_b   9.76485656
_cell_length_c   9.76485611
_cell_angle_alpha   106.89667055
_cell_angle_beta   106.89666970
_cell_angle_gamma   106.89666340
_symmetry_Int_Tables_number   1
_chemical_formula_structural   YbEr6PtI12
_chemical_formula_sum   'Yb1 Er6 Pt1 I12'
_cell_volume   777.60664962
_cell_formula_units_Z   1
loop_
 _symmetry_equiv_pos_site_id
 _symmetry_equiv_pos_as_xyz
  1  'x, y, z'
loop_
 _atom_site_type_symbol
 _atom_site_label
 _atom_site_symmetry_multiplicity
 _atom_site_fract_x
 _atom_site_fract_y
 _atom_site_fract_z
 _atom_site_occupancy
  Yb  Yb0  1  0.500000  0.500000  0.500000  1
  Er  Er1  1  0.096611  0.025049  0.298935  1
  Er  Er2  1  0.298935  0.096611  0.025049  1
  Er  Er3  1  0.025049  0.298935  0.096611  1
  Er  Er4  1  0.903389  0.974951  0.701065  1
  Er  Er5  1  0.701065  0.903389  0.974951  1
  Er  Er6  1  0.974951  0.701065  0.903389  1
  Pt  Pt7  1  0.000000  0.000000  0.000000  1
  I  I8  1  0.070681  0.676447  0.222844  1
  I  I9  1  0.222844  0.070681  0.676447  1
  I  I10  1  0.676447  0.222844  0.070681  1
  I  I11  1  0.929319  0.323553  0.777156  1
  I  I12  1  0.777156  0.929319  0.323553  1
  I  I13  1  0.323553  0.777156  0.929319  1
  I  I14  1  0.457352  0.150485  0.379593  1
  I  I15  1  0.379593  0.457352  0.150485  1
  I  I16  1  0.150485  0.379593  0.457352  1
  I  I17  1  0.542648  0.849515  0.620407  1
  I  I18  1  0.620407  0.542648  0.849515  1
  I  I19  1  0.849515  0.620407  0.542648  1
