# generated using pymatgen
data_La3Pr2Nd7(RhBr3)4
_symmetry_space_group_name_H-M   'P 1'
_cell_length_a   10.55745365
_cell_length_b   10.55086587
_cell_length_c   10.50394105
_cell_angle_alpha   108.37712930
_cell_angle_beta   110.03827351
_cell_angle_gamma   109.87736178
_symmetry_Int_Tables_number   1
_chemical_formula_structural   La3Pr2Nd7(RhBr3)4
_chemical_formula_sum   'La3 Pr2 Nd7 Rh4 Br12'
_cell_volume   901.86386619
_cell_formula_units_Z   1
loop_
 _symmetry_equiv_pos_site_id
 _symmetry_equiv_pos_as_xyz
  1  'x, y, z'
loop_
 _atom_site_type_symbol
 _atom_site_label
 _atom_site_symmetry_multiplicity
 _atom_site_fract_x
 _atom_site_fract_y
 _atom_site_fract_z
 _atom_site_occupancy
  La  La0  1  0.464313  0.482507  0.232524  1
  La  La1  1  0.752645  0.235280  0.267012  1
  La  La2  1  0.749384  0.015919  0.484046  1
  Pr  Pr3  1  0.267488  0.013552  0.031577  1
  Pr  Pr4  1  0.231266  0.263478  0.745364  1
  Nd  Nd5  1  0.231371  0.467328  0.484825  1
  Nd  Nd6  1  0.267301  0.752704  0.235314  1
  Nd  Nd7  1  0.029688  0.265340  0.015227  1
  Nd  Nd8  1  0.021536  0.032748  0.261855  1
  Nd  Nd9  1  0.483987  0.747620  0.012187  1
  Nd  Nd10  1  0.483709  0.236280  0.471846  1
  Nd  Nd11  1  0.021859  0.489181  0.759924  1
  Rh  Rh12  1  0.251581  0.252271  0.250289  1
  Rh  Rh13  1  0.505397  0.002290  0.253103  1
  Rh  Rh14  1  0.995025  0.247927  0.497113  1
  Rh  Rh15  1  0.251952  0.500025  0.002271  1
  Br  Br16  1  0.249865  0.753507  0.744601  1
  Br  Br17  1  0.509160  0.505768  0.753975  1
  Br  Br18  1  0.990068  0.744432  0.996208  1
  Br  Br19  1  0.746493  0.255029  0.756885  1
  Br  Br20  1  0.995291  0.991390  0.747756  1
  Br  Br21  1  0.249624  0.994182  0.503012  1
  Br  Br22  1  0.754483  0.507335  0.510066  1
  Br  Br23  1  0.500281  0.246490  0.990572  1
  Br  Br24  1  0.754334  0.747017  0.244523  1
  Br  Br25  1  0.746474  0.991592  0.989607  1
  Br  Br26  1  0.997991  0.505915  0.249463  1
  Br  Br27  1  0.497439  0.752891  0.508855  1
