# generated using pymatgen
data_Dy4Sc6Sn5Pb3
_symmetry_space_group_name_H-M   'P 1'
_cell_length_a   7.79427000
_cell_length_b   7.90883408
_cell_length_c   14.93560500
_cell_angle_alpha   90.05821705
_cell_angle_beta   90.00000000
_cell_angle_gamma   90.00000000
_symmetry_Int_Tables_number   1
_chemical_formula_structural   Dy4Sc6Sn5Pb3
_chemical_formula_sum   'Dy8 Sc12 Sn10 Pb6'
_cell_volume   920.68380925
_cell_formula_units_Z   2
loop_
 _symmetry_equiv_pos_site_id
 _symmetry_equiv_pos_as_xyz
  1  'x, y, z'
loop_
 _atom_site_type_symbol
 _atom_site_label
 _atom_site_symmetry_multiplicity
 _atom_site_fract_x
 _atom_site_fract_y
 _atom_site_fract_z
 _atom_site_occupancy
  Dy  Dy0  1  0.524919  0.324069  0.902622  1
  Dy  Dy1  1  0.024919  0.175931  0.597378  1
  Dy  Dy2  1  0.476516  0.680352  0.401775  1
  Dy  Dy3  1  0.976516  0.819648  0.098225  1
  Dy  Dy4  1  0.480060  0.675221  0.098132  1
  Dy  Dy5  1  0.980060  0.824779  0.401868  1
  Dy  Dy6  1  0.521148  0.320468  0.597472  1
  Dy  Dy7  1  0.021148  0.179532  0.902528  1
  Sc  Sc8  1  0.363516  0.839631  0.872990  1
  Sc  Sc9  1  0.863516  0.660369  0.627010  1
  Sc  Sc10  1  0.633641  0.160330  0.373313  1
  Sc  Sc11  1  0.133641  0.339670  0.126687  1
  Sc  Sc12  1  0.637105  0.163505  0.126306  1
  Sc  Sc13  1  0.137105  0.336495  0.373694  1
  Sc  Sc14  1  0.363164  0.841516  0.626175  1
  Sc  Sc15  1  0.863164  0.658484  0.873825  1
  Sc  Sc16  1  0.193533  0.506140  0.750149  1
  Sc  Sc17  1  0.693533  0.993860  0.749851  1
  Sc  Sc18  1  0.805849  0.493723  0.248275  1
  Sc  Sc19  1  0.305849  0.006277  0.251725  1
  Sn  Sn20  1  0.301127  0.043005  0.457718  1
  Sn  Sn21  1  0.801127  0.456995  0.042282  1
  Sn  Sn22  1  0.557304  0.627087  0.749526  1
  Sn  Sn23  1  0.057304  0.872913  0.750474  1
  Sn  Sn24  1  0.441577  0.373386  0.250305  1
  Sn  Sn25  1  0.941577  0.126614  0.249695  1
  Sn  Sn26  1  0.330477  0.147977  0.750650  1
  Sn  Sn27  1  0.830477  0.352023  0.749350  1
  Sn  Sn28  1  0.670056  0.853429  0.249941  1
  Sn  Sn29  1  0.170056  0.646571  0.250059  1
  Pb  Pb30  1  0.299544  0.042346  0.042894  1
  Pb  Pb31  1  0.799544  0.457654  0.457106  1
  Pb  Pb32  1  0.700456  0.956638  0.541959  1
  Pb  Pb33  1  0.200456  0.543362  0.958041  1
  Pb  Pb34  1  0.700010  0.956863  0.957726  1
  Pb  Pb35  1  0.200010  0.543137  0.542274  1
