# generated using pymatgen
data_Tm15Sc5(SiBi5)2
_symmetry_space_group_name_H-M   'P 1'
_cell_length_a   7.92216471
_cell_length_b   9.18664101
_cell_length_c   11.69715492
_cell_angle_alpha   89.96576388
_cell_angle_beta   89.60376714
_cell_angle_gamma   89.94812422
_symmetry_Int_Tables_number   1
_chemical_formula_structural   Tm15Sc5(SiBi5)2
_chemical_formula_sum   'Tm15 Sc5 Si2 Bi10'
_cell_volume   851.27565997
_cell_formula_units_Z   1
loop_
 _symmetry_equiv_pos_site_id
 _symmetry_equiv_pos_as_xyz
  1  'x, y, z'
loop_
 _atom_site_type_symbol
 _atom_site_label
 _atom_site_symmetry_multiplicity
 _atom_site_fract_x
 _atom_site_fract_y
 _atom_site_fract_z
 _atom_site_occupancy
  Tm  Tm0  1  0.349959  0.248390  0.296257  1
  Tm  Tm1  1  0.647901  0.749564  0.702760  1
  Tm  Tm2  1  0.146041  0.748976  0.783122  1
  Tm  Tm3  1  0.854110  0.249497  0.216749  1
  Tm  Tm4  1  0.193811  0.249639  0.772657  1
  Tm  Tm5  1  0.804897  0.749537  0.227225  1
  Tm  Tm6  1  0.333499  0.750267  0.290941  1
  Tm  Tm7  1  0.666196  0.249271  0.709777  1
  Tm  Tm8  1  0.804264  0.933993  0.939268  1
  Tm  Tm9  1  0.316119  0.941477  0.554253  1
  Tm  Tm10  1  0.806298  0.566739  0.940630  1
  Tm  Tm11  1  0.683067  0.058133  0.445356  1
  Tm  Tm12  1  0.195758  0.434926  0.060495  1
  Tm  Tm13  1  0.682989  0.441241  0.445744  1
  Tm  Tm14  1  0.316571  0.558248  0.554520  1
  Sc  Sc15  1  0.036485  0.249682  0.509802  1
  Sc  Sc16  1  0.963488  0.749727  0.488950  1
  Sc  Sc17  1  0.474642  0.750305  0.013818  1
  Sc  Sc18  1  0.524020  0.248327  0.987275  1
  Sc  Sc19  1  0.197305  0.069587  0.059685  1
  Si  Si20  1  0.403137  0.249862  0.538144  1
  Si  Si21  1  0.597108  0.749759  0.461443  1
  Bi  Bi22  1  0.098362  0.757794  0.047782  1
  Bi  Bi23  1  0.908365  0.248035  0.955083  1
  Bi  Bi24  1  0.064093  0.000772  0.328335  1
  Bi  Bi25  1  0.936123  0.998720  0.669254  1
  Bi  Bi26  1  0.434094  0.993555  0.829981  1
  Bi  Bi27  1  0.935766  0.500368  0.669670  1
  Bi  Bi28  1  0.561288  0.006461  0.170326  1
  Bi  Bi29  1  0.063919  0.498920  0.329888  1
  Bi  Bi30  1  0.564023  0.492706  0.171361  1
  Bi  Bi31  1  0.436306  0.505524  0.829449  1
