# generated using pymatgen
data_Li4Nd4PtRh3
_symmetry_space_group_name_H-M   'P 1'
_cell_length_a   4.04512300
_cell_length_b   7.13674138
_cell_length_c   8.65522101
_cell_angle_alpha   90.30855043
_cell_angle_beta   90.00000000
_cell_angle_gamma   90.00000000
_symmetry_Int_Tables_number   1
_chemical_formula_structural   Li4Nd4PtRh3
_chemical_formula_sum   'Li4 Nd4 Pt1 Rh3'
_cell_volume   249.86392383
_cell_formula_units_Z   1
loop_
 _symmetry_equiv_pos_site_id
 _symmetry_equiv_pos_as_xyz
  1  'x, y, z'
loop_
 _atom_site_type_symbol
 _atom_site_label
 _atom_site_symmetry_multiplicity
 _atom_site_fract_x
 _atom_site_fract_y
 _atom_site_fract_z
 _atom_site_occupancy
  Li  Li0  1  0.250000  0.622393  0.552307  1
  Li  Li1  1  0.750000  0.379410  0.449302  1
  Li  Li2  1  0.750000  0.878542  0.053330  1
  Li  Li3  1  0.250000  0.120330  0.948331  1
  Nd  Nd4  1  0.250000  0.549166  0.181070  1
  Nd  Nd5  1  0.750000  0.440751  0.821969  1
  Nd  Nd6  1  0.750000  0.950768  0.673069  1
  Nd  Nd7  1  0.250000  0.051366  0.321454  1
  Pt  Pt8  1  0.250000  0.744454  0.871660  1
  Rh  Rh9  1  0.750000  0.261999  0.128287  1
  Rh  Rh10  1  0.750000  0.761039  0.369308  1
  Rh  Rh11  1  0.250000  0.239781  0.629912  1
