# generated using pymatgen
data_Rb4V3WN8
_symmetry_space_group_name_H-M   'P 1'
_cell_length_a   5.97073100
_cell_length_b   8.47485100
_cell_length_c   11.94887400
_cell_angle_alpha   90.00000000
_cell_angle_beta   90.00000000
_cell_angle_gamma   90.00000000
_symmetry_Int_Tables_number   1
_chemical_formula_structural   Rb4V3WN8
_chemical_formula_sum   'Rb8 V6 W2 N16'
_cell_volume   604.62563747
_cell_formula_units_Z   2
loop_
 _symmetry_equiv_pos_site_id
 _symmetry_equiv_pos_as_xyz
  1  'x, y, z'
loop_
 _atom_site_type_symbol
 _atom_site_label
 _atom_site_symmetry_multiplicity
 _atom_site_fract_x
 _atom_site_fract_y
 _atom_site_fract_z
 _atom_site_occupancy
  Rb  Rb0  1  0.750000  0.131465  0.000000  1
  Rb  Rb1  1  0.250000  0.868535  0.500000  1
  Rb  Rb2  1  0.250000  0.899690  0.000000  1
  Rb  Rb3  1  0.750000  0.100310  0.500000  1
  Rb  Rb4  1  0.732875  0.365561  0.260302  1
  Rb  Rb5  1  0.232875  0.634439  0.239698  1
  Rb  Rb6  1  0.267125  0.634439  0.760302  1
  Rb  Rb7  1  0.767125  0.365561  0.739698  1
  V  V8  1  0.250000  0.361570  0.000000  1
  V  V9  1  0.750000  0.638430  0.500000  1
  V  V10  1  0.239063  0.120323  0.248409  1
  V  V11  1  0.739063  0.879677  0.251591  1
  V  V12  1  0.760937  0.879677  0.748409  1
  V  V13  1  0.260937  0.120323  0.751591  1
  W  W14  1  0.750000  0.620766  0.000000  1
  W  W15  1  0.250000  0.379234  0.500000  1
  N  N16  1  0.976678  0.012628  0.249533  1
  N  N17  1  0.476678  0.987372  0.250467  1
  N  N18  1  0.023322  0.987372  0.749533  1
  N  N19  1  0.523322  0.012628  0.750467  1
  N  N20  1  0.251967  0.251886  0.371492  1
  N  N21  1  0.751967  0.748114  0.128508  1
  N  N22  1  0.748033  0.748114  0.871492  1
  N  N23  1  0.248033  0.251886  0.628508  1
  N  N24  1  0.747872  0.761968  0.621817  1
  N  N25  1  0.247872  0.238032  0.878183  1
  N  N26  1  0.252128  0.238032  0.121817  1
  N  N27  1  0.752128  0.761968  0.378183  1
  N  N28  1  0.501848  0.509596  0.499902  1
  N  N29  1  0.001848  0.490404  0.000098  1
  N  N30  1  0.498152  0.490404  0.999902  1
  N  N31  1  0.998152  0.509596  0.500098  1
