# generated using pymatgen
data_Tb4MgPd4Pb
_symmetry_space_group_name_H-M   'P 1'
_cell_length_a   7.89397700
_cell_length_b   7.89397700
_cell_length_c   3.66895800
_cell_angle_alpha   90.00000000
_cell_angle_beta   90.00000000
_cell_angle_gamma   90.00000000
_symmetry_Int_Tables_number   1
_chemical_formula_structural   Tb4MgPd4Pb
_chemical_formula_sum   'Tb4 Mg1 Pd4 Pb1'
_cell_volume   228.63065136
_cell_formula_units_Z   1
loop_
 _symmetry_equiv_pos_site_id
 _symmetry_equiv_pos_as_xyz
  1  'x, y, z'
loop_
 _atom_site_type_symbol
 _atom_site_label
 _atom_site_symmetry_multiplicity
 _atom_site_fract_x
 _atom_site_fract_y
 _atom_site_fract_z
 _atom_site_occupancy
  Tb  Tb0  1  0.338949  0.822726  0.500000  1
  Tb  Tb1  1  0.822726  0.661051  0.500000  1
  Tb  Tb2  1  0.177274  0.338949  0.500000  1
  Tb  Tb3  1  0.661051  0.177274  0.500000  1
  Mg  Mg4  1  0.000000  0.000000  0.000000  1
  Pd  Pd5  1  0.114708  0.641926  0.000000  1
  Pd  Pd6  1  0.641926  0.885292  0.000000  1
  Pd  Pd7  1  0.885292  0.358074  0.000000  1
  Pd  Pd8  1  0.358074  0.114708  0.000000  1
  Pb  Pb9  1  0.500000  0.500000  0.000000  1
