# generated using pymatgen
data_Y8Hf11Si16Pd
_symmetry_space_group_name_H-M   'P 1'
_cell_length_a   7.28038773
_cell_length_b   7.28038816
_cell_length_c   13.26527228
_cell_angle_alpha   89.81919906
_cell_angle_beta   90.18080159
_cell_angle_gamma   89.87356529
_symmetry_Int_Tables_number   1
_chemical_formula_structural   Y8Hf11Si16Pd
_chemical_formula_sum   'Y8 Hf11 Si16 Pd1'
_cell_volume   703.10440811
_cell_formula_units_Z   1
loop_
 _symmetry_equiv_pos_site_id
 _symmetry_equiv_pos_as_xyz
  1  'x, y, z'
loop_
 _atom_site_type_symbol
 _atom_site_label
 _atom_site_symmetry_multiplicity
 _atom_site_fract_x
 _atom_site_fract_y
 _atom_site_fract_z
 _atom_site_occupancy
  Y  Y0  1  0.998218  0.345035  0.210733  1
  Y  Y1  1  0.004786  0.654503  0.716948  1
  Y  Y2  1  0.155740  0.495034  0.464548  1
  Y  Y3  1  0.499720  0.848238  0.033061  1
  Y  Y4  1  0.848238  0.499720  0.966939  1
  Y  Y5  1  0.495034  0.155740  0.535452  1
  Y  Y6  1  0.345035  0.998218  0.789267  1
  Y  Y7  1  0.654503  0.004786  0.283052  1
  Hf  Hf8  1  0.824757  0.824757  0.500000  1
  Hf  Hf9  1  0.322693  0.676446  0.248721  1
  Hf  Hf10  1  0.676446  0.322693  0.751279  1
  Hf  Hf11  1  0.146189  0.996183  0.373274  1
  Hf  Hf12  1  0.855552  0.003446  0.878514  1
  Hf  Hf13  1  0.503431  0.646847  0.626083  1
  Hf  Hf14  1  0.354128  0.493343  0.877865  1
  Hf  Hf15  1  0.493343  0.354128  0.122135  1
  Hf  Hf16  1  0.646847  0.503431  0.373917  1
  Hf  Hf17  1  0.996183  0.146189  0.626726  1
  Hf  Hf18  1  0.003446  0.855552  0.121486  1
  Si  Si19  1  0.359907  0.295624  0.315473  1
  Si  Si20  1  0.638927  0.704945  0.819373  1
  Si  Si21  1  0.206812  0.861715  0.568290  1
  Si  Si22  1  0.133568  0.782098  0.929674  1
  Si  Si23  1  0.782098  0.133568  0.070326  1
  Si  Si24  1  0.861715  0.206812  0.431710  1
  Si  Si25  1  0.295624  0.359907  0.684527  1
  Si  Si26  1  0.704945  0.638927  0.180627  1
  Si  Si27  1  0.292972  0.054599  0.185509  1
  Si  Si28  1  0.704593  0.950297  0.686758  1
  Si  Si29  1  0.450362  0.795860  0.435101  1
  Si  Si30  1  0.209420  0.560616  0.063715  1
  Si  Si31  1  0.560616  0.209420  0.936285  1
  Si  Si32  1  0.795860  0.450362  0.564899  1
  Si  Si33  1  0.054599  0.292972  0.814491  1
  Si  Si34  1  0.950297  0.704593  0.313242  1
  Pd  Pd35  1  0.173392  0.173392  0.000000  1
