# generated using pymatgen
data_LaPr3CdPd
_symmetry_space_group_name_H-M   'P 1'
_cell_length_a   10.14217061
_cell_length_b   10.14217113
_cell_length_c   10.14217000
_cell_angle_alpha   59.99999716
_cell_angle_beta   59.99999548
_cell_angle_gamma   60.00000055
_symmetry_Int_Tables_number   1
_chemical_formula_structural   LaPr3CdPd
_chemical_formula_sum   'La4 Pr12 Cd4 Pd4'
_cell_volume   737.69648089
_cell_formula_units_Z   4
loop_
 _symmetry_equiv_pos_site_id
 _symmetry_equiv_pos_as_xyz
  1  'x, y, z'
loop_
 _atom_site_type_symbol
 _atom_site_label
 _atom_site_symmetry_multiplicity
 _atom_site_fract_x
 _atom_site_fract_y
 _atom_site_fract_z
 _atom_site_occupancy
  La  La0  1  0.351143  0.351143  0.351143  1
  La  La1  1  0.351143  0.351143  0.946573  1
  La  La2  1  0.351143  0.946573  0.351143  1
  La  La3  1  0.946573  0.351143  0.351143  1
  Pr  Pr4  1  0.807713  0.192287  0.192287  1
  Pr  Pr5  1  0.192287  0.807713  0.807713  1
  Pr  Pr6  1  0.192287  0.807713  0.192287  1
  Pr  Pr7  1  0.807713  0.192287  0.807713  1
  Pr  Pr8  1  0.192287  0.192287  0.807713  1
  Pr  Pr9  1  0.807713  0.807713  0.192287  1
  Pr  Pr10  1  0.934778  0.565222  0.565222  1
  Pr  Pr11  1  0.565222  0.934778  0.934778  1
  Pr  Pr12  1  0.565222  0.934778  0.565222  1
  Pr  Pr13  1  0.934778  0.565222  0.934778  1
  Pr  Pr14  1  0.565222  0.565222  0.934778  1
  Pr  Pr15  1  0.934778  0.934778  0.565222  1
  Cd  Cd16  1  0.580144  0.580144  0.580144  1
  Cd  Cd17  1  0.580144  0.580144  0.259567  1
  Cd  Cd18  1  0.580144  0.259567  0.580144  1
  Cd  Cd19  1  0.259567  0.580144  0.580144  1
  Pd  Pd20  1  0.143597  0.143597  0.143597  1
  Pd  Pd21  1  0.143597  0.143597  0.569209  1
  Pd  Pd22  1  0.143597  0.569209  0.143597  1
  Pd  Pd23  1  0.569209  0.143597  0.143597  1
