# generated using pymatgen
data_Dy4Tm(In2Ir)2
_symmetry_space_group_name_H-M   'P 1'
_cell_length_a   3.65216500
_cell_length_b   8.01039200
_cell_length_c   18.25004300
_cell_angle_alpha   89.99815116
_cell_angle_beta   90.00000000
_cell_angle_gamma   90.00000000
_symmetry_Int_Tables_number   1
_chemical_formula_structural   Dy4Tm(In2Ir)2
_chemical_formula_sum   'Dy8 Tm2 In8 Ir4'
_cell_volume   533.90999554
_cell_formula_units_Z   2
loop_
 _symmetry_equiv_pos_site_id
 _symmetry_equiv_pos_as_xyz
  1  'x, y, z'
loop_
 _atom_site_type_symbol
 _atom_site_label
 _atom_site_symmetry_multiplicity
 _atom_site_fract_x
 _atom_site_fract_y
 _atom_site_fract_z
 _atom_site_occupancy
  Dy  Dy0  1  0.500000  0.116398  0.089117  1
  Dy  Dy1  1  0.500000  0.754746  0.722119  1
  Dy  Dy2  1  0.500000  0.254777  0.777907  1
  Dy  Dy3  1  0.500000  0.500145  0.999972  1
  Dy  Dy4  1  0.500000  0.745246  0.221993  1
  Dy  Dy5  1  0.500000  0.245264  0.277980  1
  Dy  Dy6  1  0.500000  0.000140  0.500031  1
  Dy  Dy7  1  0.500000  0.616368  0.410890  1
  Tm  Tm8  1  0.500000  0.384328  0.589839  1
  Tm  Tm9  1  0.500000  0.884311  0.910153  1
  In  In10  1  0.000000  0.793011  0.067638  1
  In  In11  1  0.000000  0.929992  0.350567  1
  In  In12  1  0.000000  0.070653  0.649425  1
  In  In13  1  0.000000  0.570696  0.850588  1
  In  In14  1  0.000000  0.706240  0.567876  1
  In  In15  1  0.000000  0.206279  0.932140  1
  In  In16  1  0.000000  0.293055  0.432345  1
  In  In17  1  0.000000  0.429948  0.149420  1
  Ir  Ir18  1  0.000000  0.979501  0.804852  1
  Ir  Ir19  1  0.000000  0.519615  0.304233  1
  Ir  Ir20  1  0.000000  0.479585  0.695163  1
  Ir  Ir21  1  0.000000  0.019702  0.195754  1
