# generated using pymatgen
data_Ce12Co6Si5Pd
_symmetry_space_group_name_H-M   'P 1'
_cell_length_a   7.39176600
_cell_length_b   7.39176452
_cell_length_c   9.64109800
_cell_angle_alpha   90.00000000
_cell_angle_beta   90.00000000
_cell_angle_gamma   119.99999769
_symmetry_Int_Tables_number   1
_chemical_formula_structural   Ce12Co6Si5Pd
_chemical_formula_sum   'Ce12 Co6 Si5 Pd1'
_cell_volume   456.19810002
_cell_formula_units_Z   1
loop_
 _symmetry_equiv_pos_site_id
 _symmetry_equiv_pos_as_xyz
  1  'x, y, z'
loop_
 _atom_site_type_symbol
 _atom_site_label
 _atom_site_symmetry_multiplicity
 _atom_site_fract_x
 _atom_site_fract_y
 _atom_site_fract_z
 _atom_site_occupancy
  Ce  Ce0  1  0.000000  0.593401  0.507507  1
  Ce  Ce1  1  0.593401  0.000000  0.507507  1
  Ce  Ce2  1  0.406599  0.406599  0.507507  1
  Ce  Ce3  1  0.000000  0.399552  0.005185  1
  Ce  Ce4  1  0.399552  0.000000  0.005185  1
  Ce  Ce5  1  0.600448  0.600448  0.005185  1
  Ce  Ce6  1  0.000000  0.733045  0.167723  1
  Ce  Ce7  1  0.733045  0.000000  0.167723  1
  Ce  Ce8  1  0.266955  0.266955  0.167723  1
  Ce  Ce9  1  0.000000  0.262090  0.670326  1
  Ce  Ce10  1  0.262090  0.000000  0.670326  1
  Ce  Ce11  1  0.737910  0.737910  0.670326  1
  Co  Co12  1  0.000000  0.338404  0.338720  1
  Co  Co13  1  0.338404  0.000000  0.338720  1
  Co  Co14  1  0.661596  0.661596  0.338720  1
  Co  Co15  1  0.000000  0.637469  0.834513  1
  Co  Co16  1  0.637469  0.000000  0.834513  1
  Co  Co17  1  0.362531  0.362531  0.834513  1
  Si  Si18  1  0.666667  0.333333  0.286922  1
  Si  Si19  1  0.333333  0.666667  0.286922  1
  Si  Si20  1  0.333333  0.666667  0.781446  1
  Si  Si21  1  0.666667  0.333333  0.781446  1
  Si  Si22  1  0.000000  0.000000  0.409205  1
  Pd  Pd23  1  0.000000  0.000000  0.911388  1
