# generated using pymatgen
data_Ta6Cr4ReSi6Mo
_symmetry_space_group_name_H-M   'P 1'
_cell_length_a   7.50916575
_cell_length_b   7.51398627
_cell_length_c   7.50411648
_cell_angle_alpha   127.06550882
_cell_angle_beta   127.37946535
_cell_angle_gamma   77.85447265
_symmetry_Int_Tables_number   1
_chemical_formula_structural   Ta6Cr4ReSi6Mo
_chemical_formula_sum   'Ta6 Cr4 Re1 Si6 Mo1'
_cell_volume   260.27362499
_cell_formula_units_Z   1
loop_
 _symmetry_equiv_pos_site_id
 _symmetry_equiv_pos_as_xyz
  1  'x, y, z'
loop_
 _atom_site_type_symbol
 _atom_site_label
 _atom_site_symmetry_multiplicity
 _atom_site_fract_x
 _atom_site_fract_y
 _atom_site_fract_z
 _atom_site_occupancy
  Ta  Ta0  1  0.549871  0.093528  0.045654  1
  Ta  Ta1  1  0.450203  0.497438  0.546193  1
  Ta  Ta2  1  0.951295  0.497458  0.047244  1
  Ta  Ta3  1  0.047873  0.093479  0.543646  1
  Ta  Ta4  1  0.751250  0.905192  0.654797  1
  Ta  Ta5  1  0.250391  0.905176  0.153948  1
  Cr  Cr6  1  0.499114  0.240649  0.741513  1
  Cr  Cr7  1  0.000336  0.237899  0.237648  1
  Cr  Cr8  1  0.127452  0.751807  0.623829  1
  Cr  Cr9  1  0.871964  0.496579  0.624818  1
  Re  Re10  1  0.372604  0.496132  0.123642  1
  Si  Si11  1  0.760081  0.490998  0.252178  1
  Si  Si12  1  0.238857  0.491127  0.731012  1
  Si  Si13  1  0.332916  0.833938  0.501094  1
  Si  Si14  1  0.667657  0.170787  0.503169  1
  Si  Si15  1  0.836012  0.829729  0.993750  1
  Si  Si16  1  0.165353  0.159694  0.994392  1
  Mo  Mo17  1  0.626771  0.750589  0.123673  1
