# generated using pymatgen
data_ErTm5Fe2(Co4P3)4
_symmetry_space_group_name_H-M   'P 1'
_cell_length_a   3.66775200
_cell_length_b   10.47475200
_cell_length_c   12.11227700
_cell_angle_alpha   90.00000000
_cell_angle_beta   90.00000000
_cell_angle_gamma   90.00000000
_symmetry_Int_Tables_number   1
_chemical_formula_structural   ErTm5Fe2(Co4P3)4
_chemical_formula_sum   'Er1 Tm5 Fe2 Co16 P12'
_cell_volume   465.33905795
_cell_formula_units_Z   1
loop_
 _symmetry_equiv_pos_site_id
 _symmetry_equiv_pos_as_xyz
  1  'x, y, z'
loop_
 _atom_site_type_symbol
 _atom_site_label
 _atom_site_symmetry_multiplicity
 _atom_site_fract_x
 _atom_site_fract_y
 _atom_site_fract_z
 _atom_site_occupancy
  Er  Er0  1  0.250000  0.750000  0.522023  1
  Tm  Tm1  1  0.750000  0.250000  0.478028  1
  Tm  Tm2  1  0.250000  0.932402  0.794751  1
  Tm  Tm3  1  0.250000  0.567598  0.794751  1
  Tm  Tm4  1  0.750000  0.067652  0.205258  1
  Tm  Tm5  1  0.750000  0.432348  0.205258  1
  Fe  Fe6  1  0.250000  0.250000  0.842376  1
  Fe  Fe7  1  0.750000  0.750000  0.157589  1
  Co  Co8  1  0.250000  0.250000  0.298185  1
  Co  Co9  1  0.750000  0.750000  0.702090  1
  Co  Co10  1  0.750000  0.250000  0.014290  1
  Co  Co11  1  0.250000  0.750000  0.985695  1
  Co  Co12  1  0.250000  0.417089  0.006109  1
  Co  Co13  1  0.250000  0.082911  0.006109  1
  Co  Co14  1  0.750000  0.582910  0.993874  1
  Co  Co15  1  0.750000  0.917090  0.993874  1
  Co  Co16  1  0.250000  0.452893  0.569237  1
  Co  Co17  1  0.250000  0.047107  0.569237  1
  Co  Co18  1  0.750000  0.546845  0.430743  1
  Co  Co19  1  0.750000  0.953155  0.430743  1
  Co  Co20  1  0.250000  0.871693  0.290985  1
  Co  Co21  1  0.250000  0.628307  0.290985  1
  Co  Co22  1  0.750000  0.128354  0.708936  1
  Co  Co23  1  0.750000  0.371646  0.708936  1
  P  P24  1  0.250000  0.250000  0.118824  1
  P  P25  1  0.750000  0.750000  0.881215  1
  P  P26  1  0.250000  0.250000  0.656004  1
  P  P27  1  0.750000  0.750000  0.343725  1
  P  P28  1  0.250000  0.438494  0.383493  1
  P  P29  1  0.250000  0.061506  0.383493  1
  P  P30  1  0.750000  0.561263  0.616596  1
  P  P31  1  0.750000  0.938737  0.616596  1
  P  P32  1  0.250000  0.902890  0.107910  1
  P  P33  1  0.250000  0.597110  0.107910  1
  P  P34  1  0.750000  0.097108  0.892087  1
  P  P35  1  0.750000  0.402892  0.892087  1
