# generated using pymatgen
data_Tb8Al2CoRu
_symmetry_space_group_name_H-M   'P 1'
_cell_length_a   9.52987958
_cell_length_b   9.50648159
_cell_length_c   9.50647964
_cell_angle_alpha   59.89490948
_cell_angle_beta   59.91854972
_cell_angle_gamma   59.91854728
_symmetry_Int_Tables_number   1
_chemical_formula_structural   Tb8Al2CoRu
_chemical_formula_sum   'Tb16 Al4 Co2 Ru2'
_cell_volume   607.75831620
_cell_formula_units_Z   2
loop_
 _symmetry_equiv_pos_site_id
 _symmetry_equiv_pos_as_xyz
  1  'x, y, z'
loop_
 _atom_site_type_symbol
 _atom_site_label
 _atom_site_symmetry_multiplicity
 _atom_site_fract_x
 _atom_site_fract_y
 _atom_site_fract_z
 _atom_site_occupancy
  Tb  Tb0  1  0.444563  0.441266  0.053225  1
  Tb  Tb1  1  0.594586  0.600833  0.600832  1
  Tb  Tb2  1  0.186127  0.813873  0.813873  1
  Tb  Tb3  1  0.060947  0.053225  0.441266  1
  Tb  Tb4  1  0.442830  0.057170  0.057170  1
  Tb  Tb5  1  0.813599  0.188043  0.810531  1
  Tb  Tb6  1  0.444565  0.053224  0.441267  1
  Tb  Tb7  1  0.597999  0.198206  0.605800  1
  Tb  Tb8  1  0.813598  0.810532  0.188044  1
  Tb  Tb9  1  0.203748  0.600832  0.600833  1
  Tb  Tb10  1  0.807881  0.192119  0.192119  1
  Tb  Tb11  1  0.057039  0.442961  0.442961  1
  Tb  Tb12  1  0.187827  0.810531  0.188043  1
  Tb  Tb13  1  0.597995  0.605800  0.198206  1
  Tb  Tb14  1  0.187826  0.188044  0.810532  1
  Tb  Tb15  1  0.060943  0.441267  0.053224  1
  Al  Al16  1  0.827316  0.824819  0.520548  1
  Al  Al17  1  0.827780  0.825912  0.825912  1
  Al  Al18  1  0.520393  0.825912  0.825912  1
  Al  Al19  1  0.827316  0.520548  0.824819  1
  Co  Co20  1  0.388537  0.830842  0.392085  1
  Co  Co21  1  0.388537  0.392085  0.830842  1
  Ru  Ru22  1  0.389034  0.390977  0.390977  1
  Ru  Ru23  1  0.829013  0.390977  0.390977  1
