# generated using pymatgen
data_TbYb6Y3Pb8
_symmetry_space_group_name_H-M   'P 1'
_cell_length_a   8.05034200
_cell_length_b   8.64558761
_cell_length_c   16.47160500
_cell_angle_alpha   90.02159132
_cell_angle_beta   90.00000000
_cell_angle_gamma   90.00000000
_symmetry_Int_Tables_number   1
_chemical_formula_structural   TbYb6Y3Pb8
_chemical_formula_sum   'Tb2 Yb12 Y6 Pb16'
_cell_volume   1146.42259025
_cell_formula_units_Z   2
loop_
 _symmetry_equiv_pos_site_id
 _symmetry_equiv_pos_as_xyz
  1  'x, y, z'
loop_
 _atom_site_type_symbol
 _atom_site_label
 _atom_site_symmetry_multiplicity
 _atom_site_fract_x
 _atom_site_fract_y
 _atom_site_fract_z
 _atom_site_occupancy
  Tb  Tb0  1  0.672026  0.164453  0.878393  1
  Tb  Tb1  1  0.172026  0.335547  0.621607  1
  Yb  Yb2  1  0.502261  0.688503  0.592572  1
  Yb  Yb3  1  0.002261  0.811497  0.907428  1
  Yb  Yb4  1  0.497608  0.311381  0.092728  1
  Yb  Yb5  1  0.997608  0.188619  0.407272  1
  Yb  Yb6  1  0.497416  0.311195  0.407423  1
  Yb  Yb7  1  0.997416  0.188805  0.092577  1
  Yb  Yb8  1  0.502446  0.688435  0.907368  1
  Yb  Yb9  1  0.002446  0.811565  0.592632  1
  Yb  Yb10  1  0.834285  0.510175  0.749954  1
  Yb  Yb11  1  0.334285  0.989825  0.750046  1
  Yb  Yb12  1  0.165895  0.489878  0.249952  1
  Yb  Yb13  1  0.665895  0.010122  0.250048  1
  Y  Y14  1  0.672594  0.164064  0.621643  1
  Y  Y15  1  0.172594  0.335936  0.878357  1
  Y  Y16  1  0.327515  0.835895  0.121835  1
  Y  Y17  1  0.827515  0.664105  0.378165  1
  Y  Y18  1  0.327905  0.835836  0.378066  1
  Y  Y19  1  0.827905  0.664164  0.121934  1
  Pb  Pb20  1  0.677076  0.965109  0.458293  1
  Pb  Pb21  1  0.177076  0.534891  0.041707  1
  Pb  Pb22  1  0.322608  0.034755  0.958506  1
  Pb  Pb23  1  0.822608  0.465245  0.541494  1
  Pb  Pb24  1  0.323537  0.034903  0.541604  1
  Pb  Pb25  1  0.823537  0.465097  0.958396  1
  Pb  Pb26  1  0.676743  0.964833  0.041800  1
  Pb  Pb27  1  0.176743  0.535167  0.458200  1
  Pb  Pb28  1  0.472643  0.372695  0.750242  1
  Pb  Pb29  1  0.972643  0.127305  0.749758  1
  Pb  Pb30  1  0.527451  0.627452  0.249918  1
  Pb  Pb31  1  0.027451  0.872548  0.250082  1
  Pb  Pb32  1  0.710347  0.867099  0.749968  1
  Pb  Pb33  1  0.210347  0.632901  0.750032  1
  Pb  Pb34  1  0.289641  0.132969  0.249891  1
  Pb  Pb35  1  0.789641  0.367031  0.250109  1
