# generated using pymatgen
data_Pu(PO3)3
_symmetry_space_group_name_H-M   'P 1'
_cell_length_a   7.13010814
_cell_length_b   7.13010872
_cell_length_c   7.37602000
_cell_angle_alpha   90.00000000
_cell_angle_beta   90.00000000
_cell_angle_gamma   104.95441404
_symmetry_Int_Tables_number   1
_chemical_formula_structural   Pu(PO3)3
_chemical_formula_sum   'Pu2 P6 O18'
_cell_volume   362.28518210
_cell_formula_units_Z   2
loop_
 _symmetry_equiv_pos_site_id
 _symmetry_equiv_pos_as_xyz
  1  'x, y, z'
loop_
 _atom_site_type_symbol
 _atom_site_label
 _atom_site_symmetry_multiplicity
 _atom_site_fract_x
 _atom_site_fract_y
 _atom_site_fract_z
 _atom_site_occupancy
  Pu  Pu0  1  0.132834  0.132834  0.500000  1
  Pu  Pu1  1  0.867166  0.867166  0.000000  1
  P  P2  1  0.251595  0.251595  0.000000  1
  P  P3  1  0.314754  0.668641  0.454320  1
  P  P4  1  0.685246  0.331359  0.954320  1
  P  P5  1  0.668641  0.314754  0.545680  1
  P  P6  1  0.331359  0.685246  0.045680  1
  P  P7  1  0.748405  0.748405  0.500000  1
  O  O8  1  0.371868  0.628132  0.250000  1
  O  O9  1  0.528658  0.746796  0.542605  1
  O  O10  1  0.475343  0.218619  0.463893  1
  O  O11  1  0.628132  0.371868  0.750000  1
  O  O12  1  0.828651  0.216079  0.534675  1
  O  O13  1  0.862644  0.825587  0.669392  1
  O  O14  1  0.471342  0.253204  0.042605  1
  O  O15  1  0.746796  0.528658  0.457395  1
  O  O16  1  0.781381  0.524657  0.036107  1
  O  O17  1  0.137356  0.174413  0.169392  1
  O  O18  1  0.218619  0.475343  0.536107  1
  O  O19  1  0.171349  0.783921  0.034675  1
  O  O20  1  0.253204  0.471342  0.957395  1
  O  O21  1  0.783921  0.171349  0.965325  1
  O  O22  1  0.174413  0.137356  0.830608  1
  O  O23  1  0.524657  0.781381  0.963893  1
  O  O24  1  0.216079  0.828651  0.465325  1
  O  O25  1  0.825587  0.862644  0.330608  1
