# generated using pymatgen
data_Lu5Ga2Bi
_symmetry_space_group_name_H-M   'P 1'
_cell_length_a   8.58970893
_cell_length_b   8.53315265
_cell_length_c   6.42030100
_cell_angle_alpha   90.00000000
_cell_angle_beta   90.00000000
_cell_angle_gamma   119.78244789
_symmetry_Int_Tables_number   1
_chemical_formula_structural   Lu5Ga2Bi
_chemical_formula_sum   'Lu10 Ga4 Bi2'
_cell_volume   408.43398829
_cell_formula_units_Z   2
loop_
 _symmetry_equiv_pos_site_id
 _symmetry_equiv_pos_as_xyz
  1  'x, y, z'
loop_
 _atom_site_type_symbol
 _atom_site_label
 _atom_site_symmetry_multiplicity
 _atom_site_fract_x
 _atom_site_fract_y
 _atom_site_fract_z
 _atom_site_occupancy
  Lu  Lu0  1  0.683906  0.346692  0.012073  1
  Lu  Lu1  1  0.316094  0.662788  0.012073  1
  Lu  Lu2  1  0.316094  0.662788  0.487927  1
  Lu  Lu3  1  0.683906  0.346692  0.487927  1
  Lu  Lu4  1  0.776702  0.757383  0.750000  1
  Lu  Lu5  1  0.223298  0.980681  0.750000  1
  Lu  Lu6  1  0.000000  0.244483  0.750000  1
  Lu  Lu7  1  0.239295  0.238930  0.250000  1
  Lu  Lu8  1  0.760705  0.999635  0.250000  1
  Lu  Lu9  1  0.000000  0.762248  0.250000  1
  Ga  Ga10  1  0.000000  0.596168  0.750000  1
  Ga  Ga11  1  0.601378  0.607732  0.250000  1
  Ga  Ga12  1  0.398622  0.006354  0.250000  1
  Ga  Ga13  1  0.000000  0.396484  0.250000  1
  Bi  Bi14  1  0.399477  0.395210  0.750000  1
  Bi  Bi15  1  0.600523  0.995734  0.750000  1
