# generated using pymatgen
data_LiTb16Co4Hg3
_symmetry_space_group_name_H-M   'P 1'
_cell_length_a   9.48391361
_cell_length_b   9.49223448
_cell_length_c   9.48391300
_cell_angle_alpha   60.02899204
_cell_angle_beta   59.99999864
_cell_angle_gamma   60.02899853
_symmetry_Int_Tables_number   1
_chemical_formula_structural   LiTb16Co4Hg3
_chemical_formula_sum   'Li1 Tb16 Co4 Hg3'
_cell_volume   603.97477785
_cell_formula_units_Z   1
loop_
 _symmetry_equiv_pos_site_id
 _symmetry_equiv_pos_as_xyz
  1  'x, y, z'
loop_
 _atom_site_type_symbol
 _atom_site_label
 _atom_site_symmetry_multiplicity
 _atom_site_fract_x
 _atom_site_fract_y
 _atom_site_fract_z
 _atom_site_occupancy
  Li  Li0  1  0.817517  0.547449  0.817517  1
  Tb  Tb1  1  0.435406  0.435966  0.064314  1
  Tb  Tb2  1  0.595919  0.597690  0.595919  1
  Tb  Tb3  1  0.187388  0.812168  0.813056  1
  Tb  Tb4  1  0.061827  0.059665  0.439254  1
  Tb  Tb5  1  0.439254  0.059665  0.061827  1
  Tb  Tb6  1  0.812522  0.187217  0.812522  1
  Tb  Tb7  1  0.439254  0.059665  0.439254  1
  Tb  Tb8  1  0.599826  0.200521  0.599826  1
  Tb  Tb9  1  0.813056  0.812168  0.187388  1
  Tb  Tb10  1  0.210473  0.597690  0.595919  1
  Tb  Tb11  1  0.812522  0.187217  0.187740  1
  Tb  Tb12  1  0.064314  0.435966  0.435406  1
  Tb  Tb13  1  0.187388  0.812168  0.187388  1
  Tb  Tb14  1  0.595919  0.597690  0.210473  1
  Tb  Tb15  1  0.187740  0.187217  0.812522  1
  Tb  Tb16  1  0.064314  0.435966  0.064314  1
  Co  Co17  1  0.392556  0.387822  0.392556  1
  Co  Co18  1  0.827068  0.387822  0.392556  1
  Co  Co19  1  0.391244  0.826269  0.391244  1
  Co  Co20  1  0.392556  0.387822  0.827068  1
  Hg  Hg21  1  0.836109  0.828060  0.499721  1
  Hg  Hg22  1  0.836109  0.828060  0.836109  1
  Hg  Hg23  1  0.499721  0.828060  0.836109  1
