# generated using pymatgen
data_Dy4Ho2CrFeB14
_symmetry_space_group_name_H-M   'P 1'
_cell_length_a   8.06407068
_cell_length_b   8.06406960
_cell_length_c   9.29612800
_cell_angle_alpha   90.00000000
_cell_angle_beta   90.00000000
_cell_angle_gamma   155.45531919
_symmetry_Int_Tables_number   1
_chemical_formula_structural   Dy4Ho2CrFeB14
_chemical_formula_sum   'Dy4 Ho2 Cr1 Fe1 B14'
_cell_volume   251.11926617
_cell_formula_units_Z   1
loop_
 _symmetry_equiv_pos_site_id
 _symmetry_equiv_pos_as_xyz
  1  'x, y, z'
loop_
 _atom_site_type_symbol
 _atom_site_label
 _atom_site_symmetry_multiplicity
 _atom_site_fract_x
 _atom_site_fract_y
 _atom_site_fract_z
 _atom_site_occupancy
  Dy  Dy0  1  0.894499  0.105501  0.439492  1
  Dy  Dy1  1  0.104966  0.895034  0.561848  1
  Dy  Dy2  1  0.894499  0.105501  0.060508  1
  Dy  Dy3  1  0.104966  0.895034  0.938152  1
  Ho  Ho4  1  0.241981  0.758019  0.250000  1
  Ho  Ho5  1  0.759188  0.240812  0.750000  1
  Cr  Cr6  1  0.053113  0.946887  0.250000  1
  Fe  Fe7  1  0.945420  0.054580  0.750000  1
  B  B8  1  0.727975  0.272025  0.467833  1
  B  B9  1  0.272758  0.727242  0.534378  1
  B  B10  1  0.727975  0.272025  0.032167  1
  B  B11  1  0.272758  0.727242  0.965622  1
  B  B12  1  0.631519  0.368481  0.151097  1
  B  B13  1  0.370316  0.629684  0.846905  1
  B  B14  1  0.631519  0.368481  0.348903  1
  B  B15  1  0.370316  0.629684  0.653095  1
  B  B16  1  0.521379  0.478621  0.095857  1
  B  B17  1  0.478021  0.521979  0.902568  1
  B  B18  1  0.521379  0.478621  0.404143  1
  B  B19  1  0.478021  0.521979  0.597432  1
  B  B20  1  0.459060  0.540940  0.250000  1
  B  B21  1  0.538374  0.461626  0.750000  1
