# generated using pymatgen
data_Dy5Er5(SnSb)3
_symmetry_space_group_name_H-M   'P 1'
_cell_length_a   6.37412900
_cell_length_b   8.95804166
_cell_length_c   8.94884456
_cell_angle_alpha   120.03400586
_cell_angle_beta   90.00017688
_cell_angle_gamma   89.99962192
_symmetry_Int_Tables_number   1
_chemical_formula_structural   Dy5Er5(SnSb)3
_chemical_formula_sum   'Dy5 Er5 Sn3 Sb3'
_cell_volume   442.36687893
_cell_formula_units_Z   1
loop_
 _symmetry_equiv_pos_site_id
 _symmetry_equiv_pos_as_xyz
  1  'x, y, z'
loop_
 _atom_site_type_symbol
 _atom_site_label
 _atom_site_symmetry_multiplicity
 _atom_site_fract_x
 _atom_site_fract_y
 _atom_site_fract_z
 _atom_site_occupancy
  Dy  Dy0  1  0.750001  0.758596  0.758567  1
  Dy  Dy1  1  0.750001  0.000030  0.241433  1
  Dy  Dy2  1  0.249992  0.757799  0.000000  1
  Dy  Dy3  1  0.250005  0.242107  0.241976  1
  Dy  Dy4  1  0.250005  0.000131  0.758024  1
  Er  Er5  1  0.501130  0.333270  0.666665  1
  Er  Er6  1  0.501130  0.666605  0.333335  1
  Er  Er7  1  0.998876  0.666605  0.333323  1
  Er  Er8  1  0.998876  0.333282  0.666677  1
  Er  Er9  1  0.750004  0.241659  0.000000  1
  Sn  Sn10  1  0.750001  0.606424  0.000000  1
  Sn  Sn11  1  0.749997  0.393109  0.392712  1
  Sn  Sn12  1  0.749997  0.000396  0.607288  1
  Sb  Sb13  1  0.249988  0.391901  0.000000  1
  Sb  Sb14  1  0.250000  0.608080  0.608071  1
  Sb  Sb15  1  0.250000  0.000009  0.391929  1
