# generated using pymatgen
data_Na2Si4Pt5Rh
_symmetry_space_group_name_H-M   'P 1'
_cell_length_a   6.71817102
_cell_length_b   6.69799424
_cell_length_c   6.74050282
_cell_angle_alpha   128.85313250
_cell_angle_beta   116.83489834
_cell_angle_gamma   85.67508630
_symmetry_Int_Tables_number   1
_chemical_formula_structural   Na2Si4Pt5Rh
_chemical_formula_sum   'Na2 Si4 Pt5 Rh1'
_cell_volume   201.12639579
_cell_formula_units_Z   1
loop_
 _symmetry_equiv_pos_site_id
 _symmetry_equiv_pos_as_xyz
  1  'x, y, z'
loop_
 _atom_site_type_symbol
 _atom_site_label
 _atom_site_symmetry_multiplicity
 _atom_site_fract_x
 _atom_site_fract_y
 _atom_site_fract_z
 _atom_site_occupancy
  Na  Na0  1  0.000418  0.956392  0.956431  1
  Na  Na1  1  0.499626  0.015992  0.516564  1
  Si  Si2  1  0.311284  0.373940  0.066270  1
  Si  Si3  1  0.838759  0.283831  0.439006  1
  Si  Si4  1  0.687143  0.761533  0.068974  1
  Si  Si5  1  0.161563  0.609160  0.453602  1
  Pt  Pt6  1  0.952099  0.495295  0.949291  1
  Pt  Pt7  1  0.543563  0.496141  0.542287  1
  Pt  Pt8  1  0.048649  0.996724  0.544286  1
  Pt  Pt9  1  0.720847  0.498379  0.216879  1
  Pt  Pt10  1  0.275484  0.497674  0.774775  1
  Rh  Rh11  1  0.460566  0.999943  0.956636  1
