# generated using pymatgen
data_Ho20Pd7Rh5
_symmetry_space_group_name_H-M   'P 1'
_cell_length_a   11.03881821
_cell_length_b   11.03881795
_cell_length_c   6.33221107
_cell_angle_alpha   90.00361606
_cell_angle_beta   90.00361969
_cell_angle_gamma   90.09760002
_symmetry_Int_Tables_number   1
_chemical_formula_structural   Ho20Pd7Rh5
_chemical_formula_sum   'Ho20 Pd7 Rh5'
_cell_volume   771.61365287
_cell_formula_units_Z   1
loop_
 _symmetry_equiv_pos_site_id
 _symmetry_equiv_pos_as_xyz
  1  'x, y, z'
loop_
 _atom_site_type_symbol
 _atom_site_label
 _atom_site_symmetry_multiplicity
 _atom_site_fract_x
 _atom_site_fract_y
 _atom_site_fract_z
 _atom_site_occupancy
  Ho  Ho0  1  0.295867  0.087518  0.374440  1
  Ho  Ho1  1  0.294641  0.912737  0.874483  1
  Ho  Ho2  1  0.707684  0.089181  0.879585  1
  Ho  Ho3  1  0.706547  0.915766  0.372524  1
  Ho  Ho4  1  0.587661  0.795394  0.872981  1
  Ho  Ho5  1  0.591803  0.204501  0.373417  1
  Ho  Ho6  1  0.413032  0.795395  0.373537  1
  Ho  Ho7  1  0.413315  0.204662  0.873265  1
  Ho  Ho8  1  0.204606  0.412339  0.627019  1
  Ho  Ho9  1  0.204605  0.586968  0.126463  1
  Ho  Ho10  1  0.795499  0.408197  0.126583  1
  Ho  Ho11  1  0.795338  0.586685  0.626735  1
  Ho  Ho12  1  0.912482  0.704133  0.125560  1
  Ho  Ho13  1  0.910819  0.292316  0.620415  1
  Ho  Ho14  1  0.087263  0.705359  0.625517  1
  Ho  Ho15  1  0.084234  0.293453  0.127476  1
  Ho  Ho16  1  0.998114  0.002240  0.499267  1
  Ho  Ho17  1  0.997760  0.001886  0.000733  1
  Ho  Ho18  1  0.500099  0.499905  0.000268  1
  Ho  Ho19  1  0.500095  0.499901  0.499732  1
  Pd  Pd20  1  0.844848  0.844758  0.750192  1
  Pd  Pd21  1  0.155242  0.155152  0.749808  1
  Pd  Pd22  1  0.154302  0.845698  0.250000  1
  Pd  Pd23  1  0.654296  0.345704  0.750000  1
  Pd  Pd24  1  0.654530  0.655051  0.250434  1
  Pd  Pd25  1  0.344949  0.345470  0.249566  1
  Pd  Pd26  1  0.345283  0.654717  0.750000  1
  Rh  Rh27  1  0.845873  0.154127  0.250000  1
  Rh  Rh28  1  0.499107  0.999719  0.122449  1
  Rh  Rh29  1  0.499327  0.999503  0.623847  1
  Rh  Rh30  1  0.000497  0.500673  0.876153  1
  Rh  Rh31  1  0.000281  0.500893  0.377551  1
