# generated using pymatgen
data_La16Ce4Si15Pd
_symmetry_space_group_name_H-M   'P 1'
_cell_length_a   7.93434247
_cell_length_b   7.92161714
_cell_length_c   15.29669800
_cell_angle_alpha   89.94705561
_cell_angle_beta   89.68955022
_cell_angle_gamma   90.16698477
_symmetry_Int_Tables_number   1
_chemical_formula_structural   La16Ce4Si15Pd
_chemical_formula_sum   'La16 Ce4 Si15 Pd1'
_cell_volume   961.42203575
_cell_formula_units_Z   1
loop_
 _symmetry_equiv_pos_site_id
 _symmetry_equiv_pos_as_xyz
  1  'x, y, z'
loop_
 _atom_site_type_symbol
 _atom_site_label
 _atom_site_symmetry_multiplicity
 _atom_site_fract_x
 _atom_site_fract_y
 _atom_site_fract_z
 _atom_site_occupancy
  La  La0  1  0.375069  0.008607  0.446366  1
  La  La1  1  0.493928  0.871450  0.699086  1
  La  La2  1  0.507202  0.121913  0.196997  1
  La  La3  1  0.877827  0.490651  0.300713  1
  La  La4  1  0.122097  0.510558  0.801225  1
  La  La5  1  0.626923  0.988996  0.950078  1
  La  La6  1  0.000218  0.380860  0.550564  1
  La  La7  1  0.991152  0.625165  0.052504  1
  La  La8  1  0.133563  0.989044  0.876335  1
  La  La9  1  0.514797  0.630223  0.127276  1
  La  La10  1  0.480521  0.367698  0.627966  1
  La  La11  1  0.628865  0.517626  0.874456  1
  La  La12  1  0.371570  0.485203  0.372133  1
  La  La13  1  0.872743  0.017304  0.376557  1
  La  La14  1  0.984335  0.126406  0.123411  1
  La  La15  1  0.019005  0.876308  0.623072  1
  Ce  Ce16  1  0.305884  0.305182  0.999080  1
  Ce  Ce17  1  0.192409  0.808145  0.250219  1
  Ce  Ce18  1  0.803207  0.187926  0.751580  1
  Ce  Ce19  1  0.693566  0.687590  0.499247  1
  Si  Si20  1  0.330273  0.694147  0.951457  1
  Si  Si21  1  0.663711  0.304767  0.452146  1
  Si  Si22  1  0.695737  0.334024  0.049304  1
  Si  Si23  1  0.306871  0.668879  0.547655  1
  Si  Si24  1  0.807194  0.830367  0.203153  1
  Si  Si25  1  0.169271  0.194440  0.296735  1
  Si  Si26  1  0.835586  0.805509  0.797681  1
  Si  Si27  1  0.288779  0.922157  0.059926  1
  Si  Si28  1  0.578345  0.789857  0.310855  1
  Si  Si29  1  0.433017  0.208028  0.814465  1
  Si  Si30  1  0.788469  0.578186  0.689061  1
  Si  Si31  1  0.210347  0.423633  0.189232  1
  Si  Si32  1  0.705455  0.073975  0.559223  1
  Si  Si33  1  0.921502  0.290918  0.940800  1
  Si  Si34  1  0.077884  0.712746  0.440024  1
  Pd  Pd35  1  0.192676  0.171507  0.699414  1
