# generated using pymatgen
data_Dy12InSi4Sn
_symmetry_space_group_name_H-M   'P 1'
_cell_length_a   8.53504863
_cell_length_b   8.53504915
_cell_length_c   8.53504892
_cell_angle_alpha   112.24672649
_cell_angle_beta   111.06415966
_cell_angle_gamma   105.18823972
_symmetry_Int_Tables_number   1
_chemical_formula_structural   Dy12InSi4Sn
_chemical_formula_sum   'Dy12 In1 Si4 Sn1'
_cell_volume   476.58455571
_cell_formula_units_Z   1
loop_
 _symmetry_equiv_pos_site_id
 _symmetry_equiv_pos_as_xyz
  1  'x, y, z'
loop_
 _atom_site_type_symbol
 _atom_site_label
 _atom_site_symmetry_multiplicity
 _atom_site_fract_x
 _atom_site_fract_y
 _atom_site_fract_z
 _atom_site_occupancy
  Dy  Dy0  1  0.443989  0.239392  0.204598  1
  Dy  Dy1  1  0.556011  0.760608  0.795402  1
  Dy  Dy2  1  0.034793  0.239392  0.795402  1
  Dy  Dy3  1  0.965207  0.760608  0.204598  1
  Dy  Dy4  1  0.186043  0.278492  0.464534  1
  Dy  Dy5  1  0.813957  0.721508  0.535466  1
  Dy  Dy6  1  0.186043  0.721508  0.907551  1
  Dy  Dy7  1  0.813957  0.278492  0.092449  1
  Dy  Dy8  1  0.320264  0.617260  0.296996  1
  Dy  Dy9  1  0.679736  0.382740  0.703004  1
  Dy  Dy10  1  0.320264  0.023269  0.703004  1
  Dy  Dy11  1  0.679736  0.976731  0.296996  1
  In  In12  1  0.500000  0.500000  0.000000  1
  Si  Si13  1  0.370942  0.000000  0.370942  1
  Si  Si14  1  0.629058  0.000000  0.629058  1
  Si  Si15  1  0.115292  0.615292  0.500000  1
  Si  Si16  1  0.884708  0.384708  0.500000  1
  Sn  Sn17  1  0.000000  0.000000  0.000000  1
