# generated using pymatgen
data_La6DyHo3(In3Br)2
_symmetry_space_group_name_H-M   'P 1'
_cell_length_a   9.60843100
_cell_length_b   9.60843096
_cell_length_c   6.81649500
_cell_angle_alpha   90.00000000
_cell_angle_beta   90.00000000
_cell_angle_gamma   120.00000359
_symmetry_Int_Tables_number   1
_chemical_formula_structural   La6DyHo3(In3Br)2
_chemical_formula_sum   'La6 Dy1 Ho3 In6 Br2'
_cell_volume   545.00023067
_cell_formula_units_Z   1
loop_
 _symmetry_equiv_pos_site_id
 _symmetry_equiv_pos_as_xyz
  1  'x, y, z'
loop_
 _atom_site_type_symbol
 _atom_site_label
 _atom_site_symmetry_multiplicity
 _atom_site_fract_x
 _atom_site_fract_y
 _atom_site_fract_z
 _atom_site_occupancy
  La  La0  1  0.731222  0.731310  0.250066  1
  La  La1  1  0.000088  0.731310  0.749934  1
  La  La2  1  0.731222  0.999912  0.749934  1
  La  La3  1  0.268690  0.268778  0.749934  1
  La  La4  1  0.000088  0.268778  0.250066  1
  La  La5  1  0.268690  0.999912  0.250066  1
  Dy  Dy6  1  0.666667  0.333333  0.000000  1
  Ho  Ho7  1  0.333333  0.666667  0.500000  1
  Ho  Ho8  1  0.666667  0.333333  0.500000  1
  Ho  Ho9  1  0.333333  0.666667  0.000000  1
  In  In10  1  0.394475  0.999889  0.749951  1
  In  In11  1  0.000111  0.605525  0.250049  1
  In  In12  1  0.605414  0.999889  0.250049  1
  In  In13  1  0.000111  0.394586  0.749951  1
  In  In14  1  0.394475  0.394586  0.250049  1
  In  In15  1  0.605414  0.605525  0.749951  1
  Br  Br16  1  0.000000  0.000000  0.500000  1
  Br  Br17  1  0.000000  0.000000  0.000000  1
