# generated using pymatgen
data_Y2Tm4TaMoO14
_symmetry_space_group_name_H-M   'P 1'
_cell_length_a   6.41856447
_cell_length_b   6.41856323
_cell_length_c   7.42765401
_cell_angle_alpha   90.26386373
_cell_angle_beta   89.73613754
_cell_angle_gamma   108.79863124
_symmetry_Int_Tables_number   1
_chemical_formula_structural   Y2Tm4TaMoO14
_chemical_formula_sum   'Y2 Tm4 Ta1 Mo1 O14'
_cell_volume   289.67636544
_cell_formula_units_Z   1
loop_
 _symmetry_equiv_pos_site_id
 _symmetry_equiv_pos_as_xyz
  1  'x, y, z'
loop_
 _atom_site_type_symbol
 _atom_site_label
 _atom_site_symmetry_multiplicity
 _atom_site_fract_x
 _atom_site_fract_y
 _atom_site_fract_z
 _atom_site_occupancy
  Y  Y0  1  0.473361  0.473361  0.000000  1
  Y  Y1  1  0.528955  0.528955  0.500000  1
  Tm  Tm2  1  0.000967  0.536049  0.243982  1
  Tm  Tm3  1  0.998270  0.465826  0.742537  1
  Tm  Tm4  1  0.536049  0.000967  0.756018  1
  Tm  Tm5  1  0.465826  0.998270  0.257463  1
  Ta  Ta6  1  0.003327  0.003327  0.500000  1
  Mo  Mo7  1  0.999432  0.999432  0.000000  1
  O  O8  1  0.926654  0.075517  0.749643  1
  O  O9  1  0.075517  0.926654  0.250357  1
  O  O10  1  0.359264  0.640859  0.249389  1
  O  O11  1  0.640859  0.359264  0.750611  1
  O  O12  1  0.366544  0.632364  0.749988  1
  O  O13  1  0.632364  0.366544  0.250012  1
  O  O14  1  0.328611  0.080272  0.973720  1
  O  O15  1  0.670634  0.919563  0.472902  1
  O  O16  1  0.313654  0.055497  0.544422  1
  O  O17  1  0.684925  0.939455  0.038658  1
  O  O18  1  0.055497  0.313654  0.455578  1
  O  O19  1  0.939455  0.684925  0.961342  1
  O  O20  1  0.919563  0.670634  0.527098  1
  O  O21  1  0.080272  0.328611  0.026280  1
