# generated using pymatgen
data_Th3Al2GaRh3
_symmetry_space_group_name_H-M   'P 1'
_cell_length_a   7.24094200
_cell_length_b   7.21771715
_cell_length_c   4.13315100
_cell_angle_alpha   90.00000000
_cell_angle_beta   90.00000000
_cell_angle_gamma   120.10650886
_symmetry_Int_Tables_number   1
_chemical_formula_structural   Th3Al2GaRh3
_chemical_formula_sum   'Th3 Al2 Ga1 Rh3'
_cell_volume   186.87005873
_cell_formula_units_Z   1
loop_
 _symmetry_equiv_pos_site_id
 _symmetry_equiv_pos_as_xyz
  1  'x, y, z'
loop_
 _atom_site_type_symbol
 _atom_site_label
 _atom_site_symmetry_multiplicity
 _atom_site_fract_x
 _atom_site_fract_y
 _atom_site_fract_z
 _atom_site_occupancy
  Th  Th0  1  0.997981  0.414236  0.500000  1
  Th  Th1  1  0.583746  0.585764  0.500000  1
  Th  Th2  1  0.419080  0.000000  0.500000  1
  Al  Al3  1  0.000944  0.769770  0.000000  1
  Al  Al4  1  0.231174  0.230230  0.000000  1
  Ga  Ga5  1  0.765984  0.000000  0.000000  1
  Rh  Rh6  1  0.326972  0.662217  0.000000  1
  Rh  Rh7  1  0.664757  0.337783  0.000000  1
  Rh  Rh8  1  0.009362  0.000000  0.500000  1
