# generated using pymatgen
data_Pr4Zn(In2Pt)10
_symmetry_space_group_name_H-M   'P 1'
_cell_length_a   4.49843506
_cell_length_b   12.00655279
_cell_length_c   14.65812600
_cell_angle_alpha   81.36767198
_cell_angle_beta   81.17338225
_cell_angle_gamma   79.20284423
_symmetry_Int_Tables_number   1
_chemical_formula_structural   Pr4Zn(In2Pt)10
_chemical_formula_sum   'Pr4 Zn1 In20 Pt10'
_cell_volume   762.44115804
_cell_formula_units_Z   1
loop_
 _symmetry_equiv_pos_site_id
 _symmetry_equiv_pos_as_xyz
  1  'x, y, z'
loop_
 _atom_site_type_symbol
 _atom_site_label
 _atom_site_symmetry_multiplicity
 _atom_site_fract_x
 _atom_site_fract_y
 _atom_site_fract_z
 _atom_site_occupancy
  Pr  Pr0  1  0.121903  0.088798  0.667396  1
  Pr  Pr1  1  0.878097  0.911202  0.332604  1
  Pr  Pr2  1  0.771825  0.629289  0.827058  1
  Pr  Pr3  1  0.228175  0.370711  0.172942  1
  Zn  Zn4  1  0.500000  0.500000  0.500000  1
  In  In5  1  0.012971  0.068010  0.906048  1
  In  In6  1  0.987029  0.931990  0.093952  1
  In  In7  1  0.061314  0.670477  0.206896  1
  In  In8  1  0.938686  0.329523  0.793104  1
  In  In9  1  0.114602  0.322830  0.447963  1
  In  In10  1  0.885398  0.677170  0.552037  1
  In  In11  1  0.200945  0.601624  0.996485  1
  In  In12  1  0.799055  0.398376  0.003515  1
  In  In13  1  0.254069  0.787537  0.704328  1
  In  In14  1  0.745931  0.212463  0.295672  1
  In  In15  1  0.299829  0.900950  0.499391  1
  In  In16  1  0.700171  0.099050  0.500609  1
  In  In17  1  0.387339  0.525832  0.699489  1
  In  In18  1  0.612661  0.474168  0.300511  1
  In  In19  1  0.399691  0.207130  0.993486  1
  In  In20  1  0.600309  0.792870  0.006514  1
  In  In21  1  0.542419  0.288232  0.626931  1
  In  In22  1  0.457581  0.711768  0.373069  1
  In  In23  1  0.633289  0.934288  0.799135  1
  In  In24  1  0.366711  0.065712  0.200865  1
  Pt  Pt25  1  0.023565  0.559555  0.393315  1
  Pt  Pt26  1  0.976435  0.440445  0.606685  1
  Pt  Pt27  1  0.140237  0.827449  0.892076  1
  Pt  Pt28  1  0.859763  0.172551  0.107924  1
  Pt  Pt29  1  0.250040  0.113895  0.386025  1
  Pt  Pt30  1  0.749960  0.886105  0.613975  1
  Pt  Pt31  1  0.345216  0.424140  0.885429  1
  Pt  Pt32  1  0.654784  0.575860  0.114571  1
  Pt  Pt33  1  0.509551  0.171894  0.809005  1
  Pt  Pt34  1  0.490449  0.828106  0.190995  1
