# generated using pymatgen
data_Yb3ReMoC6
_symmetry_space_group_name_H-M   'P 1'
_cell_length_a   8.44767700
_cell_length_b   8.44767722
_cell_length_c   5.21899700
_cell_angle_alpha   90.00000000
_cell_angle_beta   90.00000000
_cell_angle_gamma   119.99998741
_symmetry_Int_Tables_number   1
_chemical_formula_structural   Yb3ReMoC6
_chemical_formula_sum   'Yb6 Re2 Mo2 C12'
_cell_volume   322.54650864
_cell_formula_units_Z   2
loop_
 _symmetry_equiv_pos_site_id
 _symmetry_equiv_pos_as_xyz
  1  'x, y, z'
loop_
 _atom_site_type_symbol
 _atom_site_label
 _atom_site_symmetry_multiplicity
 _atom_site_fract_x
 _atom_site_fract_y
 _atom_site_fract_z
 _atom_site_occupancy
  Yb  Yb0  1  0.615688  0.692916  0.750000  1
  Yb  Yb1  1  0.922772  0.615688  0.250000  1
  Yb  Yb2  1  0.692916  0.077228  0.250000  1
  Yb  Yb3  1  0.307084  0.922772  0.750000  1
  Yb  Yb4  1  0.077228  0.384312  0.750000  1
  Yb  Yb5  1  0.384312  0.307084  0.250000  1
  Re  Re6  1  0.666667  0.333333  0.750000  1
  Re  Re7  1  0.333333  0.666667  0.250000  1
  Mo  Mo8  1  0.000000  0.000000  0.500000  1
  Mo  Mo9  1  0.000000  0.000000  0.000000  1
  C  C10  1  0.953678  0.769250  0.750000  1
  C  C11  1  0.184429  0.953678  0.250000  1
  C  C12  1  0.769250  0.815571  0.250000  1
  C  C13  1  0.230750  0.184429  0.750000  1
  C  C14  1  0.815571  0.046322  0.750000  1
  C  C15  1  0.046322  0.230750  0.250000  1
  C  C16  1  0.858394  0.584671  0.750000  1
  C  C17  1  0.273724  0.858394  0.250000  1
  C  C18  1  0.584671  0.726276  0.250000  1
  C  C19  1  0.415329  0.273724  0.750000  1
  C  C20  1  0.141606  0.415329  0.250000  1
  C  C21  1  0.726276  0.141606  0.750000  1
