# generated using pymatgen
data_BaMn2(H6Ir)2
_symmetry_space_group_name_H-M   'P 1'
_cell_length_a   4.83267400
_cell_length_b   4.83267584
_cell_length_c   8.30146100
_cell_angle_alpha   90.00000000
_cell_angle_beta   90.00000000
_cell_angle_gamma   120.00000109
_symmetry_Int_Tables_number   1
_chemical_formula_structural   BaMn2(H6Ir)2
_chemical_formula_sum   'Ba1 Mn2 H12 Ir2'
_cell_volume   167.90372209
_cell_formula_units_Z   1
loop_
 _symmetry_equiv_pos_site_id
 _symmetry_equiv_pos_as_xyz
  1  'x, y, z'
loop_
 _atom_site_type_symbol
 _atom_site_label
 _atom_site_symmetry_multiplicity
 _atom_site_fract_x
 _atom_site_fract_y
 _atom_site_fract_z
 _atom_site_occupancy
  Ba  Ba0  1  0.000000  0.000000  0.000000  1
  Mn  Mn1  1  0.666667  0.333333  0.373807  1
  Mn  Mn2  1  0.333333  0.666667  0.626193  1
  H  H3  1  0.165069  0.834931  0.390943  1
  H  H4  1  0.669863  0.834931  0.390943  1
  H  H5  1  0.165069  0.330137  0.390943  1
  H  H6  1  0.834931  0.165069  0.609057  1
  H  H7  1  0.330137  0.165069  0.609057  1
  H  H8  1  0.834931  0.669863  0.609057  1
  H  H9  1  0.502455  0.004910  0.834024  1
  H  H10  1  0.502455  0.497545  0.834024  1
  H  H11  1  0.995090  0.497545  0.834024  1
  H  H12  1  0.497545  0.995090  0.165976  1
  H  H13  1  0.497545  0.502455  0.165976  1
  H  H14  1  0.004910  0.502455  0.165976  1
  Ir  Ir15  1  0.666667  0.333333  0.715119  1
  Ir  Ir16  1  0.333333  0.666667  0.284881  1
