# generated using pymatgen
data_Ce4Co19ReAs12
_symmetry_space_group_name_H-M   'P 1'
_cell_length_a   3.84904600
_cell_length_b   12.21172560
_cell_length_c   10.80752141
_cell_angle_alpha   89.94145698
_cell_angle_beta   90.00000000
_cell_angle_gamma   90.00000000
_symmetry_Int_Tables_number   1
_chemical_formula_structural   Ce4Co19ReAs12
_chemical_formula_sum   'Ce4 Co19 Re1 As12'
_cell_volume   507.99099772
_cell_formula_units_Z   1
loop_
 _symmetry_equiv_pos_site_id
 _symmetry_equiv_pos_as_xyz
  1  'x, y, z'
loop_
 _atom_site_type_symbol
 _atom_site_label
 _atom_site_symmetry_multiplicity
 _atom_site_fract_x
 _atom_site_fract_y
 _atom_site_fract_z
 _atom_site_occupancy
  Ce  Ce0  1  0.750000  0.701549  0.078919  1
  Ce  Ce1  1  0.250000  0.298857  0.917901  1
  Ce  Ce2  1  0.250000  0.800800  0.582965  1
  Ce  Ce3  1  0.750000  0.200028  0.417530  1
  Co  Co4  1  0.250000  0.302985  0.614731  1
  Co  Co5  1  0.250000  0.803833  0.886339  1
  Co  Co6  1  0.750000  0.197002  0.113030  1
  Co  Co7  1  0.750000  0.995122  0.210259  1
  Co  Co8  1  0.250000  0.007803  0.789521  1
  Co  Co9  1  0.250000  0.506136  0.710491  1
  Co  Co10  1  0.750000  0.483346  0.293600  1
  Co  Co11  1  0.750000  0.676944  0.787603  1
  Co  Co12  1  0.250000  0.323002  0.213856  1
  Co  Co13  1  0.250000  0.828058  0.283573  1
  Co  Co14  1  0.750000  0.177481  0.715322  1
  Co  Co15  1  0.750000  0.932037  0.972661  1
  Co  Co16  1  0.250000  0.068895  0.026925  1
  Co  Co17  1  0.250000  0.564432  0.470835  1
  Co  Co18  1  0.750000  0.428498  0.529425  1
  Co  Co19  1  0.750000  0.989695  0.597017  1
  Co  Co20  1  0.250000  0.018426  0.407114  1
  Co  Co21  1  0.250000  0.511648  0.088945  1
  Co  Co22  1  0.750000  0.485326  0.907414  1
  Re  Re23  1  0.750000  0.698380  0.383686  1
  As  As24  1  0.750000  0.608820  0.590851  1
  As  As25  1  0.250000  0.385163  0.413777  1
  As  As26  1  0.250000  0.888189  0.085569  1
  As  As27  1  0.750000  0.112796  0.913798  1
  As  As28  1  0.750000  0.901041  0.399014  1
  As  As29  1  0.250000  0.109260  0.605729  1
  As  As30  1  0.250000  0.607085  0.894908  1
  As  As31  1  0.750000  0.391814  0.103504  1
  As  As32  1  0.750000  0.869988  0.775060  1
  As  As33  1  0.250000  0.130886  0.224442  1
  As  As34  1  0.250000  0.625418  0.266845  1
  As  As35  1  0.750000  0.369257  0.726843  1
