# generated using pymatgen
data_RbAc(NdB12)2
_symmetry_space_group_name_H-M   'P 1'
_cell_length_a   7.22719884
_cell_length_b   7.22720064
_cell_length_c   5.93643400
_cell_angle_alpha   90.00000000
_cell_angle_beta   90.00000000
_cell_angle_gamma   109.26454910
_symmetry_Int_Tables_number   1
_chemical_formula_structural   RbAc(NdB12)2
_chemical_formula_sum   'Rb1 Ac1 Nd2 B24'
_cell_volume   292.71176505
_cell_formula_units_Z   1
loop_
 _symmetry_equiv_pos_site_id
 _symmetry_equiv_pos_as_xyz
  1  'x, y, z'
loop_
 _atom_site_type_symbol
 _atom_site_label
 _atom_site_symmetry_multiplicity
 _atom_site_fract_x
 _atom_site_fract_y
 _atom_site_fract_z
 _atom_site_occupancy
  Rb  Rb0  1  0.000182  0.999818  0.000000  1
  Ac  Ac1  1  0.751544  0.248456  0.500000  1
  Nd  Nd2  1  0.499108  0.500892  0.000000  1
  Nd  Nd3  1  0.249131  0.750869  0.500000  1
  B  B4  1  0.177347  0.326617  0.649410  1
  B  B5  1  0.924611  0.574876  0.148194  1
  B  B6  1  0.673383  0.822653  0.649410  1
  B  B7  1  0.425124  0.075389  0.148194  1
  B  B8  1  0.177347  0.326617  0.350590  1
  B  B9  1  0.924611  0.574876  0.851806  1
  B  B10  1  0.673383  0.822653  0.350590  1
  B  B11  1  0.425124  0.075389  0.851806  1
  B  B12  1  0.400201  0.400523  0.500000  1
  B  B13  1  0.148555  0.650975  0.000000  1
  B  B14  1  0.898372  0.897665  0.500000  1
  B  B15  1  0.649917  0.147763  0.000000  1
  B  B16  1  0.325901  0.176665  0.649389  1
  B  B17  1  0.076811  0.426554  0.148224  1
  B  B18  1  0.823335  0.674099  0.649389  1
  B  B19  1  0.573446  0.923189  0.148224  1
  B  B20  1  0.102335  0.101628  0.500000  1
  B  B21  1  0.852236  0.350083  0.000000  1
  B  B22  1  0.599477  0.599799  0.500000  1
  B  B23  1  0.349025  0.851446  0.000000  1
  B  B24  1  0.325901  0.176665  0.350611  1
  B  B25  1  0.076811  0.426554  0.851776  1
  B  B26  1  0.823335  0.674099  0.350611  1
  B  B27  1  0.573446  0.923189  0.851776  1
