# generated using pymatgen
data_Er4Al4PdRuRh2
_symmetry_space_group_name_H-M   'P 1'
_cell_length_a   4.19918000
_cell_length_b   6.87664554
_cell_length_c   7.94754468
_cell_angle_alpha   89.90355658
_cell_angle_beta   90.00000000
_cell_angle_gamma   90.00000000
_symmetry_Int_Tables_number   1
_chemical_formula_structural   Er4Al4PdRuRh2
_chemical_formula_sum   'Er4 Al4 Pd1 Ru1 Rh2'
_cell_volume   229.49514003
_cell_formula_units_Z   1
loop_
 _symmetry_equiv_pos_site_id
 _symmetry_equiv_pos_as_xyz
  1  'x, y, z'
loop_
 _atom_site_type_symbol
 _atom_site_label
 _atom_site_symmetry_multiplicity
 _atom_site_fract_x
 _atom_site_fract_y
 _atom_site_fract_z
 _atom_site_occupancy
  Er  Er0  1  0.250000  0.028008  0.324442  1
  Er  Er1  1  0.250000  0.542289  0.182930  1
  Er  Er2  1  0.750000  0.965489  0.678250  1
  Er  Er3  1  0.750000  0.467635  0.816835  1
  Al  Al4  1  0.250000  0.135522  0.936303  1
  Al  Al5  1  0.250000  0.639054  0.559414  1
  Al  Al6  1  0.750000  0.858277  0.060402  1
  Al  Al7  1  0.750000  0.364850  0.440554  1
  Pd  Pd8  1  0.750000  0.231556  0.121269  1
  Ru  Ru9  1  0.750000  0.737799  0.378228  1
  Rh  Rh10  1  0.250000  0.265348  0.621972  1
  Rh  Rh11  1  0.250000  0.764176  0.879401  1
