# generated using pymatgen
data_HoTm4Co19SiP11
_symmetry_space_group_name_H-M   'P 1'
_cell_length_a   11.96960057
_cell_length_b   11.96989536
_cell_length_c   3.66353500
_cell_angle_alpha   90.00000000
_cell_angle_beta   90.00000000
_cell_angle_gamma   119.97991764
_symmetry_Int_Tables_number   1
_chemical_formula_structural   HoTm4Co19SiP11
_chemical_formula_sum   'Ho1 Tm4 Co19 Si1 P11'
_cell_volume   454.66218848
_cell_formula_units_Z   1
loop_
 _symmetry_equiv_pos_site_id
 _symmetry_equiv_pos_as_xyz
  1  'x, y, z'
loop_
 _atom_site_type_symbol
 _atom_site_label
 _atom_site_symmetry_multiplicity
 _atom_site_fract_x
 _atom_site_fract_y
 _atom_site_fract_z
 _atom_site_occupancy
  Ho  Ho0  1  0.665999  0.334171  0.000000  1
  Tm  Tm1  1  0.334254  0.666027  0.000000  1
  Tm  Tm2  1  0.184240  0.184068  0.500000  1
  Tm  Tm3  1  0.813125  0.000710  0.500000  1
  Tm  Tm4  1  0.000388  0.813004  0.500000  1
  Co  Co5  1  0.821169  0.198751  0.000000  1
  Co  Co6  1  0.802306  0.624614  0.000000  1
  Co  Co7  1  0.377164  0.173819  0.000000  1
  Co  Co8  1  0.198853  0.820544  0.000000  1
  Co  Co9  1  0.623919  0.802284  0.000000  1
  Co  Co10  1  0.174462  0.377926  0.000000  1
  Co  Co11  1  0.557570  0.557543  0.000000  1
  Co  Co12  1  0.446577  0.996795  0.000000  1
  Co  Co13  1  0.996808  0.446517  0.000000  1
  Co  Co14  1  0.641563  0.124582  0.500000  1
  Co  Co15  1  0.874151  0.517250  0.500000  1
  Co  Co16  1  0.485190  0.357945  0.500000  1
  Co  Co17  1  0.125230  0.641347  0.500000  1
  Co  Co18  1  0.516268  0.873451  0.500000  1
  Co  Co19  1  0.358226  0.486038  0.500000  1
  Co  Co20  1  0.717246  0.717718  0.500000  1
  Co  Co21  1  0.284286  0.997864  0.500000  1
  Co  Co22  1  0.998758  0.284724  0.500000  1
  Co  Co23  1  0.000782  0.000749  0.000000  1
  Si  Si24  1  0.368040  0.368058  0.000000  1
  P  P25  1  0.632820  0.999925  0.000000  1
  P  P26  1  0.999849  0.632775  0.000000  1
  P  P27  1  0.833370  0.314562  0.500000  1
  P  P28  1  0.685396  0.521389  0.500000  1
  P  P29  1  0.479815  0.165503  0.500000  1
  P  P30  1  0.314362  0.832296  0.500000  1
  P  P31  1  0.520561  0.685665  0.500000  1
  P  P32  1  0.166559  0.480732  0.500000  1
  P  P33  1  0.820930  0.821238  0.000000  1
  P  P34  1  0.180249  0.998913  0.000000  1
  P  P35  1  0.999512  0.180499  0.000000  1
