# generated using pymatgen
data_La4Eu2Tl3In3O18
_symmetry_space_group_name_H-M   'P 1'
_cell_length_a   6.70728159
_cell_length_b   6.70416706
_cell_length_c   12.49066288
_cell_angle_alpha   89.80438466
_cell_angle_beta   90.12806512
_cell_angle_gamma   120.06106961
_symmetry_Int_Tables_number   1
_chemical_formula_structural   La4Eu2Tl3In3O18
_chemical_formula_sum   'La4 Eu2 Tl3 In3 O18'
_cell_volume   486.11306175
_cell_formula_units_Z   1
loop_
 _symmetry_equiv_pos_site_id
 _symmetry_equiv_pos_as_xyz
  1  'x, y, z'
loop_
 _atom_site_type_symbol
 _atom_site_label
 _atom_site_symmetry_multiplicity
 _atom_site_fract_x
 _atom_site_fract_y
 _atom_site_fract_z
 _atom_site_occupancy
  La  La0  1  0.665675  0.330163  0.966277  1
  La  La1  1  0.335142  0.674288  0.463646  1
  La  La2  1  0.670074  0.332203  0.463633  1
  La  La3  1  0.331184  0.672201  0.966295  1
  Eu  Eu4  1  0.996989  0.995318  0.994310  1
  Eu  Eu5  1  0.001412  0.997410  0.491400  1
  Tl  Tl6  1  0.667375  0.668374  0.727012  1
  Tl  Tl7  1  0.999399  0.329374  0.726924  1
  Tl  Tl8  1  0.331015  0.331380  0.227033  1
  In  In9  1  0.000578  0.669670  0.227049  1
  In  In10  1  0.329142  0.000375  0.727246  1
  In  In11  1  0.671594  0.000776  0.226996  1
  O  O12  1  0.688591  0.689209  0.900327  1
  O  O13  1  0.000051  0.307927  0.900415  1
  O  O14  1  0.311567  0.311723  0.396901  1
  O  O15  1  0.000042  0.692039  0.398053  1
  O  O16  1  0.303828  0.000641  0.900642  1
  O  O17  1  0.695036  0.000146  0.398245  1
  O  O18  1  0.651680  0.651256  0.554798  1
  O  O19  1  0.001963  0.347063  0.554366  1
  O  O20  1  0.345518  0.346464  0.058025  1
  O  O21  1  0.998974  0.649604  0.057543  1
  O  O22  1  0.350061  0.001515  0.555284  1
  O  O23  1  0.653068  0.999872  0.057012  1
  O  O24  1  0.013343  0.999065  0.695121  1
  O  O25  1  0.982873  0.982141  0.199407  1
  O  O26  1  0.651922  0.317783  0.751032  1
  O  O27  1  0.334256  0.686957  0.247904  1
  O  O28  1  0.685399  0.332980  0.247851  1
  O  O29  1  0.332249  0.682083  0.751025  1
