# generated using pymatgen
data_Yb12Al3Si5Pd8
_symmetry_space_group_name_H-M   'P 1'
_cell_length_a   5.66815600
_cell_length_b   8.00482919
_cell_length_c   13.42935313
_cell_angle_alpha   90.13202339
_cell_angle_beta   90.00000000
_cell_angle_gamma   90.00000000
_symmetry_Int_Tables_number   1
_chemical_formula_structural   Yb12Al3Si5Pd8
_chemical_formula_sum   'Yb12 Al3 Si5 Pd8'
_cell_volume   609.32332650
_cell_formula_units_Z   1
loop_
 _symmetry_equiv_pos_site_id
 _symmetry_equiv_pos_as_xyz
  1  'x, y, z'
loop_
 _atom_site_type_symbol
 _atom_site_label
 _atom_site_symmetry_multiplicity
 _atom_site_fract_x
 _atom_site_fract_y
 _atom_site_fract_z
 _atom_site_occupancy
  Yb  Yb0  1  0.651287  0.247395  0.252450  1
  Yb  Yb1  1  0.346643  0.753279  0.749565  1
  Yb  Yb2  1  0.346643  0.746721  0.250435  1
  Yb  Yb3  1  0.651287  0.252605  0.747550  1
  Yb  Yb4  1  0.141630  0.394329  0.104506  1
  Yb  Yb5  1  0.857620  0.606936  0.895794  1
  Yb  Yb6  1  0.857750  0.603146  0.603317  1
  Yb  Yb7  1  0.857750  0.896854  0.396683  1
  Yb  Yb8  1  0.136506  0.388508  0.397740  1
  Yb  Yb9  1  0.136506  0.111492  0.602260  1
  Yb  Yb10  1  0.141630  0.105671  0.895494  1
  Yb  Yb11  1  0.857620  0.893064  0.104206  1
  Al  Al12  1  0.631029  0.250000  0.000000  1
  Al  Al13  1  0.367770  0.750000  0.000000  1
  Al  Al14  1  0.372927  0.750000  0.500000  1
  Si  Si15  1  0.158650  0.098605  0.250455  1
  Si  Si16  1  0.839765  0.898542  0.747295  1
  Si  Si17  1  0.839765  0.601458  0.252705  1
  Si  Si18  1  0.158650  0.401395  0.749545  1
  Si  Si19  1  0.638164  0.250000  0.500000  1
  Pd  Pd20  1  0.373999  0.032757  0.092425  1
  Pd  Pd21  1  0.628372  0.967885  0.906973  1
  Pd  Pd22  1  0.625642  0.972240  0.590647  1
  Pd  Pd23  1  0.625642  0.527760  0.409353  1
  Pd  Pd24  1  0.377192  0.038566  0.409120  1
  Pd  Pd25  1  0.377192  0.461434  0.590880  1
  Pd  Pd26  1  0.373999  0.467243  0.907575  1
  Pd  Pd27  1  0.628372  0.532115  0.093027  1
