# generated using pymatgen
data_Ho12Th4Mg3Co4Cu
_symmetry_space_group_name_H-M   'P 1'
_cell_length_a   9.54715834
_cell_length_b   9.54715713
_cell_length_c   9.54715720
_cell_angle_alpha   60.01916243
_cell_angle_beta   60.01916802
_cell_angle_gamma   60.01916636
_symmetry_Int_Tables_number   1
_chemical_formula_structural   Ho12Th4Mg3Co4Cu
_chemical_formula_sum   'Ho12 Th4 Mg3 Co4 Cu1'
_cell_volume   615.59618932
_cell_formula_units_Z   1
loop_
 _symmetry_equiv_pos_site_id
 _symmetry_equiv_pos_as_xyz
  1  'x, y, z'
loop_
 _atom_site_type_symbol
 _atom_site_label
 _atom_site_symmetry_multiplicity
 _atom_site_fract_x
 _atom_site_fract_y
 _atom_site_fract_z
 _atom_site_occupancy
  Ho  Ho0  1  0.812373  0.187103  0.187103  1
  Ho  Ho1  1  0.186794  0.813132  0.813132  1
  Ho  Ho2  1  0.187103  0.812373  0.187103  1
  Ho  Ho3  1  0.813132  0.186794  0.813132  1
  Ho  Ho4  1  0.187103  0.187103  0.812373  1
  Ho  Ho5  1  0.813132  0.813132  0.186794  1
  Ho  Ho6  1  0.928223  0.564962  0.564962  1
  Ho  Ho7  1  0.564145  0.934684  0.934684  1
  Ho  Ho8  1  0.564962  0.928223  0.564962  1
  Ho  Ho9  1  0.934684  0.564145  0.934684  1
  Ho  Ho10  1  0.564962  0.564962  0.928223  1
  Ho  Ho11  1  0.934684  0.934684  0.564145  1
  Th  Th12  1  0.344462  0.344462  0.344462  1
  Th  Th13  1  0.345948  0.345948  0.962741  1
  Th  Th14  1  0.345948  0.962741  0.345948  1
  Th  Th15  1  0.962741  0.345948  0.345948  1
  Mg  Mg16  1  0.580386  0.580386  0.265185  1
  Mg  Mg17  1  0.580386  0.265185  0.580386  1
  Mg  Mg18  1  0.265185  0.580386  0.580386  1
  Co  Co19  1  0.144325  0.144325  0.144325  1
  Co  Co20  1  0.144293  0.144293  0.565398  1
  Co  Co21  1  0.144293  0.565398  0.144293  1
  Co  Co22  1  0.565398  0.144293  0.144293  1
  Cu  Cu23  1  0.585335  0.585335  0.585335  1
