# generated using pymatgen
data_Ca3Te2(IO3)2
_symmetry_space_group_name_H-M   'P 1'
_cell_length_a   6.42517173
_cell_length_b   6.42517110
_cell_length_c   8.78771724
_cell_angle_alpha   112.54305071
_cell_angle_beta   112.54304636
_cell_angle_gamma   68.00312736
_symmetry_Int_Tables_number   1
_chemical_formula_structural   Ca3Te2(IO3)2
_chemical_formula_sum   'Ca3 Te2 I2 O6'
_cell_volume   298.24426092
_cell_formula_units_Z   1
loop_
 _symmetry_equiv_pos_site_id
 _symmetry_equiv_pos_as_xyz
  1  'x, y, z'
loop_
 _atom_site_type_symbol
 _atom_site_label
 _atom_site_symmetry_multiplicity
 _atom_site_fract_x
 _atom_site_fract_y
 _atom_site_fract_z
 _atom_site_occupancy
  Ca  Ca0  1  0.035594  0.035594  0.317045  1
  Ca  Ca1  1  0.500000  0.500000  0.500000  1
  Ca  Ca2  1  0.964406  0.964406  0.682955  1
  Te  Te3  1  0.646314  0.646314  0.242847  1
  Te  Te4  1  0.353686  0.353686  0.757152  1
  I  I5  1  0.217369  0.217369  0.110229  1
  I  I6  1  0.782631  0.782631  0.889771  1
  O  O7  1  0.776986  0.402567  0.350920  1
  O  O8  1  0.402567  0.776986  0.350920  1
  O  O9  1  0.845634  0.845634  0.380319  1
  O  O10  1  0.154366  0.154366  0.619682  1
  O  O11  1  0.597433  0.223015  0.649080  1
  O  O12  1  0.223015  0.597433  0.649080  1
