# generated using pymatgen
data_Sr5TlPd2
_symmetry_space_group_name_H-M   'P 1'
_cell_length_a   9.77020128
_cell_length_b   9.77019946
_cell_length_c   9.77019938
_cell_angle_alpha   128.56696453
_cell_angle_beta   128.56695183
_cell_angle_gamma   75.70836098
_symmetry_Int_Tables_number   1
_chemical_formula_structural   Sr5TlPd2
_chemical_formula_sum   'Sr10 Tl2 Pd4'
_cell_volume   554.60131842
_cell_formula_units_Z   2
loop_
 _symmetry_equiv_pos_site_id
 _symmetry_equiv_pos_as_xyz
  1  'x, y, z'
loop_
 _atom_site_type_symbol
 _atom_site_label
 _atom_site_symmetry_multiplicity
 _atom_site_fract_x
 _atom_site_fract_y
 _atom_site_fract_z
 _atom_site_occupancy
  Sr  Sr0  1  0.533227  0.033227  0.835930  1
  Sr  Sr1  1  0.197297  0.697297  0.164070  1
  Sr  Sr2  1  0.033227  0.197297  0.500000  1
  Sr  Sr3  1  0.697297  0.533227  0.500000  1
  Sr  Sr4  1  0.466773  0.966773  0.164070  1
  Sr  Sr5  1  0.802703  0.302703  0.835930  1
  Sr  Sr6  1  0.966773  0.802703  0.500000  1
  Sr  Sr7  1  0.302703  0.466773  0.500000  1
  Sr  Sr8  1  0.500000  0.500000  0.000000  1
  Sr  Sr9  1  0.000000  0.000000  0.000000  1
  Tl  Tl10  1  0.250000  0.250000  0.000000  1
  Tl  Tl11  1  0.750000  0.750000  0.000000  1
  Pd  Pd12  1  0.623140  0.876860  0.500000  1
  Pd  Pd13  1  0.376860  0.123140  0.500000  1
  Pd  Pd14  1  0.123140  0.623140  0.746280  1
  Pd  Pd15  1  0.876860  0.376860  0.253720  1
