# generated using pymatgen
data_Rb12Na8Ta3VP12
_symmetry_space_group_name_H-M   'P 1'
_cell_length_a   10.48338551
_cell_length_b   10.48338500
_cell_length_c   15.63557118
_cell_angle_alpha   90.04998070
_cell_angle_beta   90.04998163
_cell_angle_gamma   142.21210755
_symmetry_Int_Tables_number   1
_chemical_formula_structural   Rb12Na8Ta3VP12
_chemical_formula_sum   'Rb12 Na8 Ta3 V1 P12'
_cell_volume   1052.91071855
_cell_formula_units_Z   1
loop_
 _symmetry_equiv_pos_site_id
 _symmetry_equiv_pos_as_xyz
  1  'x, y, z'
loop_
 _atom_site_type_symbol
 _atom_site_label
 _atom_site_symmetry_multiplicity
 _atom_site_fract_x
 _atom_site_fract_y
 _atom_site_fract_z
 _atom_site_occupancy
  Rb  Rb0  1  0.942182  0.610622  0.824565  1
  Rb  Rb1  1  0.555080  0.892107  0.325144  1
  Rb  Rb2  1  0.389378  0.057818  0.175435  1
  Rb  Rb3  1  0.058119  0.389739  0.174826  1
  Rb  Rb4  1  0.893655  0.561977  0.327824  1
  Rb  Rb5  1  0.438023  0.106345  0.672176  1
  Rb  Rb6  1  0.610261  0.941881  0.825174  1
  Rb  Rb7  1  0.277679  0.274162  0.314704  1
  Rb  Rb8  1  0.778869  0.778810  0.187410  1
  Rb  Rb9  1  0.221190  0.221131  0.812590  1
  Rb  Rb10  1  0.725838  0.722321  0.685296  1
  Rb  Rb11  1  0.107893  0.444920  0.674856  1
  Na  Na12  1  0.921412  0.078588  0.000000  1
  Na  Na13  1  0.580029  0.419971  0.500000  1
  Na  Na14  1  0.078705  0.921295  0.000000  1
  Na  Na15  1  0.421226  0.578774  0.500000  1
  Na  Na16  1  0.755071  0.244929  0.000000  1
  Na  Na17  1  0.743701  0.256299  0.500000  1
  Na  Na18  1  0.244691  0.755309  0.000000  1
  Na  Na19  1  0.254041  0.745959  0.500000  1
  Ta  Ta20  1  0.581460  0.418540  0.000000  1
  Ta  Ta21  1  0.919256  0.080744  0.500000  1
  Ta  Ta22  1  0.418655  0.581345  0.000000  1
  V  V23  1  0.083567  0.916433  0.500000  1
  P  P24  1  0.857681  0.553675  0.092396  1
  P  P25  1  0.446325  0.142319  0.907604  1
  P  P26  1  0.643783  0.947570  0.591785  1
  P  P27  1  0.951256  0.646488  0.591030  1
  P  P28  1  0.142333  0.446380  0.907476  1
  P  P29  1  0.553620  0.857667  0.092524  1
  P  P30  1  0.353512  0.048744  0.408970  1
  P  P31  1  0.190042  0.190790  0.583412  1
  P  P32  1  0.696171  0.696344  0.913775  1
  P  P33  1  0.303656  0.303829  0.086225  1
  P  P34  1  0.052430  0.356217  0.408215  1
  P  P35  1  0.809210  0.809958  0.416588  1
