# generated using pymatgen
data_CsNb(AgTe2)2
_symmetry_space_group_name_H-M   'P 1'
_cell_length_a   11.20622290
_cell_length_b   11.20622275
_cell_length_c   8.81122500
_cell_angle_alpha   90.00000000
_cell_angle_beta   90.00000000
_cell_angle_gamma   146.65577388
_symmetry_Int_Tables_number   1
_chemical_formula_structural   CsNb(AgTe2)2
_chemical_formula_sum   'Cs2 Nb2 Ag4 Te8'
_cell_volume   608.21216283
_cell_formula_units_Z   2
loop_
 _symmetry_equiv_pos_site_id
 _symmetry_equiv_pos_as_xyz
  1  'x, y, z'
loop_
 _atom_site_type_symbol
 _atom_site_label
 _atom_site_symmetry_multiplicity
 _atom_site_fract_x
 _atom_site_fract_y
 _atom_site_fract_z
 _atom_site_occupancy
  Cs  Cs0  1  0.466222  0.831854  0.250000  1
  Cs  Cs1  1  0.831854  0.466222  0.750000  1
  Nb  Nb2  1  0.776568  0.993622  0.750000  1
  Nb  Nb3  1  0.993622  0.776568  0.250000  1
  Ag  Ag4  1  0.908914  0.908914  0.500000  1
  Ag  Ag5  1  0.908914  0.908914  0.000000  1
  Ag  Ag6  1  0.271345  0.496659  0.750000  1
  Ag  Ag7  1  0.496659  0.271345  0.250000  1
  Te  Te8  1  0.645902  0.633689  0.250000  1
  Te  Te9  1  0.003530  0.232247  0.000638  1
  Te  Te10  1  0.003530  0.232247  0.499362  1
  Te  Te11  1  0.450159  0.874258  0.750000  1
  Te  Te12  1  0.874258  0.450159  0.250000  1
  Te  Te13  1  0.232247  0.003530  0.999362  1
  Te  Te14  1  0.633689  0.645902  0.750000  1
  Te  Te15  1  0.232247  0.003530  0.500638  1
