# generated using pymatgen
data_Tb3Ho2Tm3(CdIr)2
_symmetry_space_group_name_H-M   'P 1'
_cell_length_a   9.59101693
_cell_length_b   9.59101726
_cell_length_c   9.59101700
_cell_angle_alpha   59.99999745
_cell_angle_beta   59.99999631
_cell_angle_gamma   60.00000466
_symmetry_Int_Tables_number   1
_chemical_formula_structural   Tb3Ho2Tm3(CdIr)2
_chemical_formula_sum   'Tb6 Ho4 Tm6 Cd4 Ir4'
_cell_volume   623.84828854
_cell_formula_units_Z   2
loop_
 _symmetry_equiv_pos_site_id
 _symmetry_equiv_pos_as_xyz
  1  'x, y, z'
loop_
 _atom_site_type_symbol
 _atom_site_label
 _atom_site_symmetry_multiplicity
 _atom_site_fract_x
 _atom_site_fract_y
 _atom_site_fract_z
 _atom_site_occupancy
  Tb  Tb0  1  0.188677  0.811323  0.811323  1
  Tb  Tb1  1  0.811323  0.188677  0.188677  1
  Tb  Tb2  1  0.811323  0.188677  0.811323  1
  Tb  Tb3  1  0.188677  0.811323  0.188677  1
  Tb  Tb4  1  0.811323  0.811323  0.188677  1
  Tb  Tb5  1  0.188677  0.188677  0.811323  1
  Ho  Ho6  1  0.599139  0.599139  0.599139  1
  Ho  Ho7  1  0.599139  0.599139  0.202584  1
  Ho  Ho8  1  0.599139  0.202584  0.599139  1
  Ho  Ho9  1  0.202584  0.599139  0.599139  1
  Tm  Tm10  1  0.062221  0.437779  0.437779  1
  Tm  Tm11  1  0.437779  0.062221  0.062221  1
  Tm  Tm12  1  0.437779  0.062221  0.437779  1
  Tm  Tm13  1  0.062221  0.437779  0.062221  1
  Tm  Tm14  1  0.437779  0.437779  0.062221  1
  Tm  Tm15  1  0.062221  0.062221  0.437779  1
  Cd  Cd16  1  0.830415  0.830415  0.830415  1
  Cd  Cd17  1  0.830415  0.830415  0.508756  1
  Cd  Cd18  1  0.830415  0.508756  0.830415  1
  Cd  Cd19  1  0.508756  0.830415  0.830415  1
  Ir  Ir20  1  0.391303  0.391303  0.391303  1
  Ir  Ir21  1  0.391303  0.391303  0.826090  1
  Ir  Ir22  1  0.391303  0.826090  0.391303  1
  Ir  Ir23  1  0.826090  0.391303  0.391303  1
