# generated using pymatgen
data_CeTm7AlPt24
_symmetry_space_group_name_H-M   'P 1'
_cell_length_a   8.33765205
_cell_length_b   8.33765210
_cell_length_c   8.33765300
_cell_angle_alpha   90.02877278
_cell_angle_beta   89.97122722
_cell_angle_gamma   89.97122106
_symmetry_Int_Tables_number   1
_chemical_formula_structural   CeTm7AlPt24
_chemical_formula_sum   'Ce1 Tm7 Al1 Pt24'
_cell_volume   579.60375325
_cell_formula_units_Z   1
loop_
 _symmetry_equiv_pos_site_id
 _symmetry_equiv_pos_as_xyz
  1  'x, y, z'
loop_
 _atom_site_type_symbol
 _atom_site_label
 _atom_site_symmetry_multiplicity
 _atom_site_fract_x
 _atom_site_fract_y
 _atom_site_fract_z
 _atom_site_occupancy
  Ce  Ce0  1  0.747767  0.252233  0.252233  1
  Tm  Tm1  1  0.251293  0.251358  0.251358  1
  Tm  Tm2  1  0.748698  0.748458  0.748458  1
  Tm  Tm3  1  0.748642  0.748707  0.251358  1
  Tm  Tm4  1  0.748642  0.251358  0.748707  1
  Tm  Tm5  1  0.251542  0.251302  0.748458  1
  Tm  Tm6  1  0.251542  0.748458  0.251302  1
  Tm  Tm7  1  0.251498  0.748502  0.748502  1
  Al  Al8  1  0.000048  0.999952  0.999952  1
  Pt  Pt9  1  0.260943  0.500189  0.999487  1
  Pt  Pt10  1  0.739030  0.500178  0.999344  1
  Pt  Pt11  1  0.000656  0.260970  0.500178  1
  Pt  Pt12  1  0.499822  0.260970  0.999344  1
  Pt  Pt13  1  0.000513  0.739057  0.500189  1
  Pt  Pt14  1  0.499811  0.739057  0.999487  1
  Pt  Pt15  1  0.499822  0.999344  0.260970  1
  Pt  Pt16  1  0.260943  0.999487  0.500189  1
  Pt  Pt17  1  0.499811  0.999487  0.739057  1
  Pt  Pt18  1  0.739030  0.999344  0.500178  1
  Pt  Pt19  1  0.000656  0.500178  0.260970  1
  Pt  Pt20  1  0.000513  0.500189  0.739057  1
  Pt  Pt21  1  0.253256  0.500387  0.500387  1
  Pt  Pt22  1  0.746496  0.500796  0.500796  1
  Pt  Pt23  1  0.499204  0.253504  0.500796  1
  Pt  Pt24  1  0.499613  0.746744  0.500387  1
  Pt  Pt25  1  0.499204  0.500796  0.253504  1
  Pt  Pt26  1  0.499613  0.500387  0.746744  1
  Pt  Pt27  1  0.291431  0.999927  0.999927  1
  Pt  Pt28  1  0.707732  0.998955  0.998955  1
  Pt  Pt29  1  0.001045  0.292268  0.998955  1
  Pt  Pt30  1  0.000073  0.708569  0.999927  1
  Pt  Pt31  1  0.001045  0.998955  0.292268  1
  Pt  Pt32  1  0.000073  0.999927  0.708569  1
