# generated using pymatgen
data_Hf3GaIr2N
_symmetry_space_group_name_H-M   'P 1'
_cell_length_a   8.50209193
_cell_length_b   8.50340757
_cell_length_c   8.50410208
_cell_angle_alpha   60.01295114
_cell_angle_beta   59.99808467
_cell_angle_gamma   60.00366744
_symmetry_Int_Tables_number   1
_chemical_formula_structural   Hf3GaIr2N
_chemical_formula_sum   'Hf12 Ga4 Ir8 N4'
_cell_volume   434.79095210
_cell_formula_units_Z   4
loop_
 _symmetry_equiv_pos_site_id
 _symmetry_equiv_pos_as_xyz
  1  'x, y, z'
loop_
 _atom_site_type_symbol
 _atom_site_label
 _atom_site_symmetry_multiplicity
 _atom_site_fract_x
 _atom_site_fract_y
 _atom_site_fract_z
 _atom_site_occupancy
  Hf  Hf0  1  0.808344  0.808552  0.191576  1
  Hf  Hf1  1  0.191508  0.191571  0.808496  1
  Hf  Hf2  1  0.808339  0.191617  0.808468  1
  Hf  Hf3  1  0.191523  0.808534  0.191562  1
  Hf  Hf4  1  0.191512  0.808521  0.808434  1
  Hf  Hf5  1  0.808324  0.191639  0.191633  1
  Hf  Hf6  1  0.441653  0.441461  0.058415  1
  Hf  Hf7  1  0.058500  0.058431  0.441491  1
  Hf  Hf8  1  0.441667  0.058364  0.441520  1
  Hf  Hf9  1  0.058458  0.441480  0.058454  1
  Hf  Hf10  1  0.058491  0.441503  0.441547  1
  Hf  Hf11  1  0.441683  0.058344  0.058385  1
  Ga  Ga12  1  0.125001  0.624976  0.625020  1
  Ga  Ga13  1  0.624990  0.125005  0.625010  1
  Ga  Ga14  1  0.625007  0.624984  0.124995  1
  Ga  Ga15  1  0.625011  0.624981  0.625022  1
  Ir  Ir16  1  0.759762  0.413352  0.413385  1
  Ir  Ir17  1  0.413415  0.759910  0.413308  1
  Ir  Ir18  1  0.413434  0.413291  0.759906  1
  Ir  Ir19  1  0.413555  0.413315  0.413330  1
  Ir  Ir20  1  0.490236  0.836656  0.836600  1
  Ir  Ir21  1  0.836575  0.490102  0.836683  1
  Ir  Ir22  1  0.836560  0.836727  0.490082  1
  Ir  Ir23  1  0.836442  0.836701  0.836659  1
  N  N24  1  0.625001  0.125005  0.125001  1
  N  N25  1  0.125009  0.624979  0.125007  1
  N  N26  1  0.124996  0.124998  0.625017  1
  N  N27  1  0.125006  0.124999  0.124994  1
