# generated using pymatgen
data_RbMnSn3O8
_symmetry_space_group_name_H-M   'P 1'
_cell_length_a   6.48778885
_cell_length_b   7.68290763
_cell_length_c   7.63416303
_cell_angle_alpha   92.16028579
_cell_angle_beta   76.71335717
_cell_angle_gamma   100.20410218
_symmetry_Int_Tables_number   1
_chemical_formula_structural   RbMnSn3O8
_chemical_formula_sum   'Rb2 Mn2 Sn6 O16'
_cell_volume   364.48025903
_cell_formula_units_Z   2
loop_
 _symmetry_equiv_pos_site_id
 _symmetry_equiv_pos_as_xyz
  1  'x, y, z'
loop_
 _atom_site_type_symbol
 _atom_site_label
 _atom_site_symmetry_multiplicity
 _atom_site_fract_x
 _atom_site_fract_y
 _atom_site_fract_z
 _atom_site_occupancy
  Rb  Rb0  1  0.255626  0.993874  0.986386  1
  Rb  Rb1  1  0.755660  0.993832  0.986221  1
  Mn  Mn2  1  0.323444  0.816793  0.512055  1
  Mn  Mn3  1  0.823480  0.816834  0.512018  1
  Sn  Sn4  1  0.176598  0.171924  0.486853  1
  Sn  Sn5  1  0.676605  0.171928  0.486793  1
  Sn  Sn6  1  0.919987  0.493944  0.810155  1
  Sn  Sn7  1  0.419999  0.493963  0.810143  1
  Sn  Sn8  1  0.571409  0.519867  0.193907  1
  Sn  Sn9  1  0.071427  0.519875  0.193897  1
  O  O10  1  0.227792  0.627942  0.702909  1
  O  O11  1  0.727812  0.627956  0.702898  1
  O  O12  1  0.264613  0.371955  0.294163  1
  O  O13  1  0.764622  0.371965  0.294157  1
  O  O14  1  0.918871  0.291422  0.624695  1
  O  O15  1  0.418902  0.291447  0.624679  1
  O  O16  1  0.563444  0.708447  0.383236  1
  O  O17  1  0.063489  0.708457  0.383223  1
  O  O18  1  0.933361  0.044600  0.356521  1
  O  O19  1  0.433315  0.044603  0.356539  1
  O  O20  1  0.605112  0.948498  0.645700  1
  O  O21  1  0.105064  0.948482  0.645746  1
  O  O22  1  0.386064  0.645816  0.051424  1
  O  O23  1  0.886062  0.645807  0.051437  1
  O  O24  1  0.103627  0.364877  0.952121  1
  O  O25  1  0.603617  0.364889  0.952125  1
