# generated using pymatgen
data_Ho3Tm7Sn3Pb5
_symmetry_space_group_name_H-M   'P 1'
_cell_length_a   8.08947700
_cell_length_b   15.43768118
_cell_length_c   8.15238210
_cell_angle_alpha   90.01758823
_cell_angle_beta   90.00000000
_cell_angle_gamma   90.00000000
_symmetry_Int_Tables_number   1
_chemical_formula_structural   Ho3Tm7Sn3Pb5
_chemical_formula_sum   'Ho6 Tm14 Sn6 Pb10'
_cell_volume   1018.09198463
_cell_formula_units_Z   2
loop_
 _symmetry_equiv_pos_site_id
 _symmetry_equiv_pos_as_xyz
  1  'x, y, z'
loop_
 _atom_site_type_symbol
 _atom_site_label
 _atom_site_symmetry_multiplicity
 _atom_site_fract_x
 _atom_site_fract_y
 _atom_site_fract_z
 _atom_site_occupancy
  Ho  Ho0  1  0.535109  0.100085  0.325775  1
  Ho  Ho1  1  0.035109  0.399915  0.174225  1
  Ho  Ho2  1  0.535038  0.400008  0.325731  1
  Ho  Ho3  1  0.035038  0.099992  0.174269  1
  Ho  Ho4  1  0.464622  0.896669  0.676135  1
  Ho  Ho5  1  0.964622  0.603331  0.823865  1
  Tm  Tm6  1  0.622092  0.623805  0.159894  1
  Tm  Tm7  1  0.122092  0.876195  0.340106  1
  Tm  Tm8  1  0.377924  0.122657  0.838502  1
  Tm  Tm9  1  0.877924  0.377343  0.661498  1
  Tm  Tm10  1  0.377926  0.377458  0.838392  1
  Tm  Tm11  1  0.877926  0.122542  0.661608  1
  Tm  Tm12  1  0.622075  0.876128  0.159857  1
  Tm  Tm13  1  0.122075  0.623872  0.340143  1
  Tm  Tm14  1  0.463866  0.603985  0.675729  1
  Tm  Tm15  1  0.963866  0.896015  0.824271  1
  Tm  Tm16  1  0.790776  0.749963  0.496147  1
  Tm  Tm17  1  0.290776  0.750037  0.003853  1
  Tm  Tm18  1  0.209723  0.250013  0.508194  1
  Tm  Tm19  1  0.709723  0.249987  0.991806  1
  Sn  Sn20  1  0.426224  0.750005  0.375664  1
  Sn  Sn21  1  0.926224  0.749995  0.124336  1
  Sn  Sn22  1  0.573119  0.250010  0.625674  1
  Sn  Sn23  1  0.073119  0.249990  0.874326  1
  Sn  Sn24  1  0.656560  0.749809  0.850914  1
  Sn  Sn25  1  0.156560  0.750191  0.649086  1
  Pb  Pb26  1  0.717327  0.458244  0.965872  1
  Pb  Pb27  1  0.217327  0.041756  0.534128  1
  Pb  Pb28  1  0.282001  0.958043  0.033976  1
  Pb  Pb29  1  0.782001  0.541957  0.466024  1
  Pb  Pb30  1  0.283052  0.541817  0.034161  1
  Pb  Pb31  1  0.783052  0.958183  0.465839  1
  Pb  Pb32  1  0.717492  0.041330  0.965423  1
  Pb  Pb33  1  0.217492  0.458670  0.534577  1
  Pb  Pb34  1  0.345073  0.250002  0.151804  1
  Pb  Pb35  1  0.845073  0.249998  0.348196  1
