# generated using pymatgen
data_Dy4MgNi2Bi
_symmetry_space_group_name_H-M   'P 1'
_cell_length_a   8.68233810
_cell_length_b   8.68233777
_cell_length_c   8.68233773
_cell_angle_alpha   128.82209965
_cell_angle_beta   128.82209393
_cell_angle_gamma   75.29699697
_symmetry_Int_Tables_number   1
_chemical_formula_structural   Dy4MgNi2Bi
_chemical_formula_sum   'Dy8 Mg2 Ni4 Bi2'
_cell_volume   386.68817148
_cell_formula_units_Z   2
loop_
 _symmetry_equiv_pos_site_id
 _symmetry_equiv_pos_as_xyz
  1  'x, y, z'
loop_
 _atom_site_type_symbol
 _atom_site_label
 _atom_site_symmetry_multiplicity
 _atom_site_fract_x
 _atom_site_fract_y
 _atom_site_fract_z
 _atom_site_occupancy
  Dy  Dy0  1  0.791708  0.291708  0.828955  1
  Dy  Dy1  1  0.208292  0.708292  0.171045  1
  Dy  Dy2  1  0.462753  0.962753  0.171045  1
  Dy  Dy3  1  0.291708  0.462753  0.500000  1
  Dy  Dy4  1  0.037247  0.208292  0.500000  1
  Dy  Dy5  1  0.537247  0.037247  0.828955  1
  Dy  Dy6  1  0.708292  0.537247  0.500000  1
  Dy  Dy7  1  0.962753  0.791708  0.500000  1
  Mg  Mg8  1  0.000000  0.000000  0.000000  1
  Mg  Mg9  1  0.500000  0.500000  0.000000  1
  Ni  Ni10  1  0.127472  0.627472  0.754944  1
  Ni  Ni11  1  0.872528  0.372528  0.245056  1
  Ni  Ni12  1  0.627472  0.872528  0.500000  1
  Ni  Ni13  1  0.372528  0.127472  0.500000  1
  Bi  Bi14  1  0.250000  0.250000  0.000000  1
  Bi  Bi15  1  0.750000  0.750000  0.000000  1
