# generated using pymatgen
data_Tb3Al3GePt2
_symmetry_space_group_name_H-M   'P 1'
_cell_length_a   7.09319600
_cell_length_b   7.09319693
_cell_length_c   4.17149500
_cell_angle_alpha   90.00000000
_cell_angle_beta   90.00000000
_cell_angle_gamma   119.99999568
_symmetry_Int_Tables_number   1
_chemical_formula_structural   Tb3Al3GePt2
_chemical_formula_sum   'Tb3 Al3 Ge1 Pt2'
_cell_volume   181.76336561
_cell_formula_units_Z   1
loop_
 _symmetry_equiv_pos_site_id
 _symmetry_equiv_pos_as_xyz
  1  'x, y, z'
loop_
 _atom_site_type_symbol
 _atom_site_label
 _atom_site_symmetry_multiplicity
 _atom_site_fract_x
 _atom_site_fract_y
 _atom_site_fract_z
 _atom_site_occupancy
  Tb  Tb0  1  0.996042  0.580878  0.500000  1
  Tb  Tb1  1  0.419122  0.415165  0.500000  1
  Tb  Tb2  1  0.584835  0.003958  0.500000  1
  Al  Al3  1  0.771358  0.756535  0.000000  1
  Al  Al4  1  0.243465  0.014823  0.000000  1
  Al  Al5  1  0.985177  0.228642  0.000000  1
  Ge  Ge6  1  0.333333  0.666667  0.000000  1
  Pt  Pt7  1  0.666667  0.333333  0.000000  1
  Pt  Pt8  1  0.000000  0.000000  0.500000  1
