# generated using pymatgen
data_Li6Sm3Lu3(TeO6)4
_symmetry_space_group_name_H-M   'P 1'
_cell_length_a   10.74123989
_cell_length_b   10.74124034
_cell_length_c   10.75002337
_cell_angle_alpha   109.47272219
_cell_angle_beta   109.47272463
_cell_angle_gamma   109.43509435
_symmetry_Int_Tables_number   1
_chemical_formula_structural   Li6Sm3Lu3(TeO6)4
_chemical_formula_sum   'Li12 Sm6 Lu6 Te8 O48'
_cell_volume   955.15469317
_cell_formula_units_Z   2
loop_
 _symmetry_equiv_pos_site_id
 _symmetry_equiv_pos_as_xyz
  1  'x, y, z'
loop_
 _atom_site_type_symbol
 _atom_site_label
 _atom_site_symmetry_multiplicity
 _atom_site_fract_x
 _atom_site_fract_y
 _atom_site_fract_z
 _atom_site_occupancy
  Li  Li0  1  0.750080  0.376653  0.127260  1
  Li  Li1  1  0.877181  0.750608  0.127261  1
  Li  Li2  1  0.125994  0.375994  0.250000  1
  Li  Li3  1  0.624006  0.874006  0.250000  1
  Li  Li4  1  0.623347  0.249920  0.372739  1
  Li  Li5  1  0.249392  0.122819  0.372739  1
  Li  Li6  1  0.749311  0.872720  0.622609  1
  Li  Li7  1  0.373297  0.749889  0.622610  1
  Li  Li8  1  0.374015  0.124014  0.750000  1
  Li  Li9  1  0.875985  0.625985  0.750000  1
  Li  Li10  1  0.250111  0.626703  0.877391  1
  Li  Li11  1  0.127280  0.250690  0.877391  1
  Sm  Sm12  1  0.874505  0.249164  0.623358  1
  Sm  Sm13  1  0.248853  0.374194  0.623358  1
  Sm  Sm14  1  0.125000  0.875000  0.750000  1
  Sm  Sm15  1  0.625001  0.375000  0.750000  1
  Sm  Sm16  1  0.750836  0.125495  0.876642  1
  Sm  Sm17  1  0.625806  0.751147  0.876642  1
  Lu  Lu18  1  0.250798  0.875409  0.126705  1
  Lu  Lu19  1  0.375908  0.251296  0.126705  1
  Lu  Lu20  1  0.375000  0.625000  0.250000  1
  Lu  Lu21  1  0.875000  0.125000  0.250001  1
  Lu  Lu22  1  0.748704  0.624093  0.373295  1
  Lu  Lu23  1  0.124590  0.749203  0.373295  1
  Te  Te24  1  0.004576  0.002043  0.005910  1
  Te  Te25  1  0.501334  0.003867  0.005910  1
  Te  Te26  1  0.004751  0.504528  0.004853  1
  Te  Te27  1  0.500102  0.500325  0.004853  1
  Te  Te28  1  0.997957  0.995424  0.494090  1
  Te  Te29  1  0.499675  0.499898  0.495147  1
  Te  Te30  1  0.495472  0.995249  0.495147  1
  Te  Te31  1  0.996133  0.498666  0.494090  1
  O  O32  1  0.203988  0.625738  0.032615  1
  O  O33  1  0.328626  0.406877  0.032615  1
  O  O34  1  0.701713  0.174693  0.085362  1
  O  O35  1  0.883649  0.910670  0.085362  1
  O  O36  1  0.625281  0.927922  0.099699  1
  O  O37  1  0.974417  0.171777  0.099699  1
  O  O38  1  0.032542  0.703821  0.126331  1
  O  O39  1  0.593791  0.422511  0.126333  1
  O  O40  1  0.205519  0.079354  0.173823  1
  O  O41  1  0.468306  0.094469  0.173823  1
  O  O42  1  0.126097  0.532334  0.204180  1
  O  O43  1  0.578085  0.671847  0.204181  1
  O  O44  1  0.467666  0.873903  0.295819  1
  O  O45  1  0.328153  0.421916  0.295820  1
  O  O46  1  0.905531  0.531695  0.326177  1
  O  O47  1  0.920646  0.794481  0.326177  1
  O  O48  1  0.296178  0.967458  0.373667  1
  O  O49  1  0.577490  0.406210  0.373668  1
  O  O50  1  0.828223  0.025583  0.400301  1
  O  O51  1  0.072078  0.374718  0.400302  1
  O  O52  1  0.825305  0.298286  0.414636  1
  O  O53  1  0.089331  0.116351  0.414638  1
  O  O54  1  0.374261  0.796011  0.467385  1
  O  O55  1  0.593123  0.671373  0.467386  1
  O  O56  1  0.615283  0.194475  0.521557  1
  O  O57  1  0.406275  0.327083  0.521558  1
  O  O58  1  0.169411  0.696930  0.571500  1
  O  O59  1  0.902089  0.874571  0.571501  1
  O  O60  1  0.172559  0.970823  0.586788  1
  O  O61  1  0.914229  0.615965  0.586789  1
  O  O62  1  0.420272  0.593333  0.614948  1
  O  O63  1  0.694677  0.021615  0.614948  1
  O  O64  1  0.077915  0.192597  0.670488  1
  O  O65  1  0.092574  0.477891  0.670489  1
  O  O66  1  0.672391  0.579225  0.694219  1
  O  O67  1  0.521828  0.114997  0.694220  1
  O  O68  1  0.885004  0.478173  0.805780  1
  O  O69  1  0.420776  0.327608  0.805780  1
  O  O70  1  0.807402  0.922084  0.829510  1
  O  O71  1  0.522109  0.907426  0.829511  1
  O  O72  1  0.978385  0.305324  0.885052  1
  O  O73  1  0.406667  0.579729  0.885052  1
  O  O74  1  0.384034  0.085770  0.913211  1
  O  O75  1  0.029177  0.827442  0.913212  1
  O  O76  1  0.125428  0.097911  0.928499  1
  O  O77  1  0.303071  0.830589  0.928500  1
  O  O78  1  0.805525  0.384717  0.978442  1
  O  O79  1  0.672917  0.593726  0.978442  1
