# generated using pymatgen
data_Ca3Pt4PbO14
_symmetry_space_group_name_H-M   'P 1'
_cell_length_a   7.23405202
_cell_length_b   7.23404972
_cell_length_c   7.23405200
_cell_angle_alpha   60.49845769
_cell_angle_beta   60.49844980
_cell_angle_gamma   60.49845396
_symmetry_Int_Tables_number   1
_chemical_formula_structural   Ca3Pt4PbO14
_chemical_formula_sum   'Ca3 Pt4 Pb1 O14'
_cell_volume   270.70406143
_cell_formula_units_Z   1
loop_
 _symmetry_equiv_pos_site_id
 _symmetry_equiv_pos_as_xyz
  1  'x, y, z'
loop_
 _atom_site_type_symbol
 _atom_site_label
 _atom_site_symmetry_multiplicity
 _atom_site_fract_x
 _atom_site_fract_y
 _atom_site_fract_z
 _atom_site_occupancy
  Ca  Ca0  1  0.625000  0.125000  0.625000  1
  Ca  Ca1  1  0.625000  0.625000  0.125000  1
  Ca  Ca2  1  0.125000  0.625000  0.625000  1
  Pt  Pt3  1  0.625000  0.125000  0.125000  1
  Pt  Pt4  1  0.125000  0.625000  0.125000  1
  Pt  Pt5  1  0.125000  0.125000  0.625000  1
  Pt  Pt6  1  0.125000  0.125000  0.125000  1
  Pb  Pb7  1  0.625000  0.625000  0.625000  1
  O  O8  1  0.208817  0.208817  0.791257  1
  O  O9  1  0.208817  0.791257  0.208817  1
  O  O10  1  0.458743  0.041183  0.041183  1
  O  O11  1  0.215930  0.792254  0.792254  1
  O  O12  1  0.034070  0.457746  0.457746  1
  O  O13  1  0.792254  0.792254  0.215930  1
  O  O14  1  0.457746  0.457746  0.034070  1
  O  O15  1  0.507099  0.507099  0.507099  1
  O  O16  1  0.041183  0.041183  0.458743  1
  O  O17  1  0.457746  0.034070  0.457746  1
  O  O18  1  0.041183  0.458743  0.041183  1
  O  O19  1  0.742901  0.742901  0.742901  1
  O  O20  1  0.792254  0.215930  0.792254  1
  O  O21  1  0.791257  0.208817  0.208817  1
