# generated using pymatgen
data_Rb3Al12TlSe20
_symmetry_space_group_name_H-M   'P 1'
_cell_length_a   13.46064110
_cell_length_b   7.55531738
_cell_length_c   11.16990700
_cell_angle_alpha   75.75915617
_cell_angle_beta   89.83606759
_cell_angle_gamma   90.12190627
_symmetry_Int_Tables_number   1
_chemical_formula_structural   Rb3Al12TlSe20
_chemical_formula_sum   'Rb3 Al12 Tl1 Se20'
_cell_volume   1101.05562494
_cell_formula_units_Z   1
loop_
 _symmetry_equiv_pos_site_id
 _symmetry_equiv_pos_as_xyz
  1  'x, y, z'
loop_
 _atom_site_type_symbol
 _atom_site_label
 _atom_site_symmetry_multiplicity
 _atom_site_fract_x
 _atom_site_fract_y
 _atom_site_fract_z
 _atom_site_occupancy
  Rb  Rb0  1  0.121568  0.159370  0.121426  1
  Rb  Rb1  1  0.380816  0.160291  0.618910  1
  Rb  Rb2  1  0.878287  0.839280  0.879588  1
  Al  Al3  1  0.921860  0.796676  0.398025  1
  Al  Al4  1  0.575746  0.800560  0.900723  1
  Al  Al5  1  0.424938  0.198531  0.102725  1
  Al  Al6  1  0.397969  0.564476  0.810418  1
  Al  Al7  1  0.102874  0.564597  0.309832  1
  Al  Al8  1  0.339824  0.705292  0.128426  1
  Al  Al9  1  0.601323  0.437211  0.192840  1
  Al  Al10  1  0.075348  0.201155  0.601412  1
  Al  Al11  1  0.661841  0.293060  0.873843  1
  Al  Al12  1  0.895480  0.437031  0.688752  1
  Al  Al13  1  0.162096  0.706277  0.627542  1
  Al  Al14  1  0.836304  0.294235  0.372742  1
  Tl  Tl15  1  0.633872  0.839729  0.358283  1
  Se  Se16  1  0.824172  0.714721  0.578702  1
  Se  Se17  1  0.103611  0.814709  0.413653  1
  Se  Se18  1  0.669369  0.720493  0.086023  1
  Se  Se19  1  0.394413  0.815218  0.913905  1
  Se  Se20  1  0.330090  0.282306  0.919629  1
  Se  Se21  1  0.663558  0.347718  0.397806  1
  Se  Se22  1  0.579060  0.578537  0.769711  1
  Se  Se23  1  0.606910  0.187493  0.089046  1
  Se  Se24  1  0.893642  0.185647  0.585748  1
  Se  Se25  1  0.629643  0.072315  0.758430  1
  Se  Se26  1  0.376688  0.922285  0.245647  1
  Se  Se27  1  0.170833  0.283948  0.418215  1
  Se  Se28  1  0.076163  0.423052  0.733008  1
  Se  Se29  1  0.922257  0.576732  0.264479  1
  Se  Se30  1  0.863777  0.068179  0.257842  1
  Se  Se31  1  0.127713  0.927439  0.742763  1
  Se  Se32  1  0.835500  0.342831  0.895327  1
  Se  Se33  1  0.335706  0.658701  0.604790  1
  Se  Se34  1  0.421045  0.419077  0.234981  1
  Se  Se35  1  0.165709  0.660827  0.104807  1
