# generated using pymatgen
data_Ce2Ta3Si4
_symmetry_space_group_name_H-M   'P 1'
_cell_length_a   6.95567214
_cell_length_b   7.12548316
_cell_length_c   13.42636800
_cell_angle_alpha   90.00000000
_cell_angle_beta   90.00000000
_cell_angle_gamma   90.00069519
_symmetry_Int_Tables_number   1
_chemical_formula_structural   Ce2Ta3Si4
_chemical_formula_sum   'Ce8 Ta12 Si16'
_cell_volume   665.44469486
_cell_formula_units_Z   4
loop_
 _symmetry_equiv_pos_site_id
 _symmetry_equiv_pos_as_xyz
  1  'x, y, z'
loop_
 _atom_site_type_symbol
 _atom_site_label
 _atom_site_symmetry_multiplicity
 _atom_site_fract_x
 _atom_site_fract_y
 _atom_site_fract_z
 _atom_site_occupancy
  Ce  Ce0  1  0.996539  0.167786  0.094152  1
  Ce  Ce1  1  0.496594  0.332386  0.405819  1
  Ce  Ce2  1  0.503311  0.667694  0.905654  1
  Ce  Ce3  1  0.003540  0.832105  0.594286  1
  Ce  Ce4  1  0.003540  0.832105  0.905714  1
  Ce  Ce5  1  0.503311  0.667694  0.594346  1
  Ce  Ce6  1  0.496594  0.332386  0.094181  1
  Ce  Ce7  1  0.996539  0.167786  0.405848  1
  Ta  Ta8  1  0.337950  0.005526  0.750000  1
  Ta  Ta9  1  0.662005  0.994183  0.250000  1
  Ta  Ta10  1  0.162154  0.506156  0.250000  1
  Ta  Ta11  1  0.837812  0.493891  0.750000  1
  Ta  Ta12  1  0.835908  0.673080  0.125209  1
  Ta  Ta13  1  0.335903  0.827259  0.374761  1
  Ta  Ta14  1  0.664323  0.172834  0.874813  1
  Ta  Ta15  1  0.163951  0.326936  0.625184  1
  Ta  Ta16  1  0.163951  0.326936  0.874816  1
  Ta  Ta17  1  0.664323  0.172834  0.625187  1
  Ta  Ta18  1  0.335903  0.827259  0.125239  1
  Ta  Ta19  1  0.835908  0.673080  0.374791  1
  Si  Si20  1  0.797154  0.377220  0.250000  1
  Si  Si21  1  0.297318  0.123348  0.250000  1
  Si  Si22  1  0.703045  0.876951  0.750000  1
  Si  Si23  1  0.202415  0.622641  0.750000  1
  Si  Si24  1  0.039506  0.874331  0.250000  1
  Si  Si25  1  0.539498  0.625878  0.250000  1
  Si  Si26  1  0.460287  0.373673  0.750000  1
  Si  Si27  1  0.960601  0.125414  0.750000  1
  Si  Si28  1  0.840230  0.460055  0.956738  1
  Si  Si29  1  0.340375  0.040055  0.543300  1
  Si  Si30  1  0.659688  0.959852  0.043253  1
  Si  Si31  1  0.159765  0.540348  0.456713  1
  Si  Si32  1  0.159765  0.540348  0.043287  1
  Si  Si33  1  0.659688  0.959852  0.456747  1
  Si  Si34  1  0.340375  0.040055  0.956700  1
  Si  Si35  1  0.840230  0.460055  0.543262  1
