# generated using pymatgen
data_TbHo9(In2Au)4
_symmetry_space_group_name_H-M   'P 1'
_cell_length_a   3.64842700
_cell_length_b   8.20921547
_cell_length_c   18.42730305
_cell_angle_alpha   90.03875278
_cell_angle_beta   90.00000000
_cell_angle_gamma   90.00000000
_symmetry_Int_Tables_number   1
_chemical_formula_structural   TbHo9(In2Au)4
_chemical_formula_sum   'Tb1 Ho9 In8 Au4'
_cell_volume   551.91092993
_cell_formula_units_Z   1
loop_
 _symmetry_equiv_pos_site_id
 _symmetry_equiv_pos_as_xyz
  1  'x, y, z'
loop_
 _atom_site_type_symbol
 _atom_site_label
 _atom_site_symmetry_multiplicity
 _atom_site_fract_x
 _atom_site_fract_y
 _atom_site_fract_z
 _atom_site_occupancy
  Tb  Tb0  1  0.000000  0.500000  0.500000  1
  Ho  Ho1  1  0.000000  0.000000  0.000000  1
  Ho  Ho2  1  0.000000  0.736303  0.282044  1
  Ho  Ho3  1  0.000000  0.263697  0.717956  1
  Ho  Ho4  1  0.000000  0.763643  0.782259  1
  Ho  Ho5  1  0.000000  0.236357  0.217741  1
  Ho  Ho6  1  0.000000  0.619455  0.079610  1
  Ho  Ho7  1  0.000000  0.380545  0.920390  1
  Ho  Ho8  1  0.000000  0.880399  0.579779  1
  Ho  Ho9  1  0.000000  0.119601  0.420221  1
  In  In10  1  0.500000  0.711628  0.933008  1
  In  In11  1  0.500000  0.288372  0.066992  1
  In  In12  1  0.500000  0.789738  0.432787  1
  In  In13  1  0.500000  0.210262  0.567213  1
  In  In14  1  0.500000  0.581010  0.647214  1
  In  In15  1  0.500000  0.418990  0.352786  1
  In  In16  1  0.500000  0.919227  0.146576  1
  In  In17  1  0.500000  0.080773  0.853424  1
  Au  Au18  1  0.500000  0.526567  0.196290  1
  Au  Au19  1  0.500000  0.473433  0.803710  1
  Au  Au20  1  0.500000  0.973576  0.696652  1
  Au  Au21  1  0.500000  0.026424  0.303348  1
