# generated using pymatgen
data_Tb6MnFe9(Co2P3)4
_symmetry_space_group_name_H-M   'P 1'
_cell_length_a   3.71231600
_cell_length_b   10.60417700
_cell_length_c   12.13666500
_cell_angle_alpha   90.00000000
_cell_angle_beta   90.00000000
_cell_angle_gamma   90.00000000
_symmetry_Int_Tables_number   1
_chemical_formula_structural   Tb6MnFe9(Co2P3)4
_chemical_formula_sum   'Tb6 Mn1 Fe9 Co8 P12'
_cell_volume   477.77263336
_cell_formula_units_Z   1
loop_
 _symmetry_equiv_pos_site_id
 _symmetry_equiv_pos_as_xyz
  1  'x, y, z'
loop_
 _atom_site_type_symbol
 _atom_site_label
 _atom_site_symmetry_multiplicity
 _atom_site_fract_x
 _atom_site_fract_y
 _atom_site_fract_z
 _atom_site_occupancy
  Tb  Tb0  1  0.000000  0.500000  0.525807  1
  Tb  Tb1  1  0.500000  0.000000  0.476136  1
  Tb  Tb2  1  0.500000  0.819778  0.204235  1
  Tb  Tb3  1  0.500000  0.180222  0.204235  1
  Tb  Tb4  1  0.000000  0.680445  0.795238  1
  Tb  Tb5  1  0.000000  0.319555  0.795238  1
  Mn  Mn6  1  0.500000  0.500000  0.152174  1
  Fe  Fe7  1  0.000000  0.000000  0.844304  1
  Fe  Fe8  1  0.000000  0.500000  0.988513  1
  Fe  Fe9  1  0.500000  0.000000  0.010536  1
  Fe  Fe10  1  0.000000  0.167528  0.003587  1
  Fe  Fe11  1  0.000000  0.832472  0.003587  1
  Fe  Fe12  1  0.000000  0.202274  0.570683  1
  Fe  Fe13  1  0.000000  0.797726  0.570683  1
  Fe  Fe14  1  0.000000  0.618854  0.291047  1
  Fe  Fe15  1  0.000000  0.381146  0.291047  1
  Co  Co16  1  0.500000  0.500000  0.700507  1
  Co  Co17  1  0.000000  0.000000  0.300218  1
  Co  Co18  1  0.500000  0.332205  0.993918  1
  Co  Co19  1  0.500000  0.667795  0.993918  1
  Co  Co20  1  0.500000  0.297974  0.430304  1
  Co  Co21  1  0.500000  0.702026  0.430304  1
  Co  Co22  1  0.500000  0.881199  0.710759  1
  Co  Co23  1  0.500000  0.118801  0.710759  1
  P  P24  1  0.500000  0.500000  0.885289  1
  P  P25  1  0.000000  0.000000  0.114524  1
  P  P26  1  0.500000  0.500000  0.344009  1
  P  P27  1  0.000000  0.000000  0.657248  1
  P  P28  1  0.500000  0.306323  0.615428  1
  P  P29  1  0.500000  0.693677  0.615428  1
  P  P30  1  0.000000  0.192673  0.384677  1
  P  P31  1  0.000000  0.807327  0.384677  1
  P  P32  1  0.500000  0.847070  0.894602  1
  P  P33  1  0.500000  0.152930  0.894602  1
  P  P34  1  0.000000  0.654689  0.105890  1
  P  P35  1  0.000000  0.345311  0.105890  1
