# generated using pymatgen
data_K2Sn(CO3)2
_symmetry_space_group_name_H-M   'P 1'
_cell_length_a   6.74091056
_cell_length_b   7.01976552
_cell_length_c   9.89180129
_cell_angle_alpha   99.41582999
_cell_angle_beta   70.07851593
_cell_angle_gamma   118.69441445
_symmetry_Int_Tables_number   1
_chemical_formula_structural   K2Sn(CO3)2
_chemical_formula_sum   'K4 Sn2 C4 O12'
_cell_volume   386.02343194
_cell_formula_units_Z   2
loop_
 _symmetry_equiv_pos_site_id
 _symmetry_equiv_pos_as_xyz
  1  'x, y, z'
loop_
 _atom_site_type_symbol
 _atom_site_label
 _atom_site_symmetry_multiplicity
 _atom_site_fract_x
 _atom_site_fract_y
 _atom_site_fract_z
 _atom_site_occupancy
  K  K0  1  0.671168  0.348447  0.100260  1
  K  K1  1  0.021428  0.848446  0.399740  1
  K  K2  1  0.572722  0.151554  0.600260  1
  K  K3  1  0.422982  0.651555  0.899741  1
  Sn  Sn4  1  0.998871  0.000000  0.000000  1
  Sn  Sn5  1  0.248872  0.500001  0.500000  1
  C  C6  1  0.102403  0.342934  0.242735  1
  C  C7  1  0.595139  0.842935  0.257266  1
  C  C8  1  0.009469  0.157065  0.742735  1
  C  C9  1  0.002203  0.657065  0.757265  1
  O  O10  1  0.064019  0.355002  0.124933  1
  O  O11  1  0.629954  0.935433  0.139501  1
  O  O12  1  0.717408  0.744494  0.250984  1
  O  O13  1  0.218391  0.244493  0.249016  1
  O  O14  1  0.019453  0.435432  0.360499  1
  O  O15  1  0.438951  0.855003  0.375067  1
  O  O16  1  0.959016  0.144998  0.624933  1
  O  O17  1  0.944521  0.564568  0.639501  1
  O  O18  1  0.222915  0.755507  0.750984  1
  O  O19  1  0.223899  0.255506  0.749016  1
  O  O20  1  0.834022  0.064567  0.860500  1
  O  O21  1  0.833949  0.644997  0.875067  1
