# generated using pymatgen
data_Th(Al2Re)4
_symmetry_space_group_name_H-M   'P 1'
_cell_length_a   5.25333174
_cell_length_b   6.94997403
_cell_length_c   6.94997302
_cell_angle_alpha   81.78790312
_cell_angle_beta   67.79392825
_cell_angle_gamma   67.79392375
_symmetry_Int_Tables_number   1
_chemical_formula_structural   Th(Al2Re)4
_chemical_formula_sum   'Th1 Al8 Re4'
_cell_volume   217.50243210
_cell_formula_units_Z   1
loop_
 _symmetry_equiv_pos_site_id
 _symmetry_equiv_pos_as_xyz
  1  'x, y, z'
loop_
 _atom_site_type_symbol
 _atom_site_label
 _atom_site_symmetry_multiplicity
 _atom_site_fract_x
 _atom_site_fract_y
 _atom_site_fract_z
 _atom_site_occupancy
  Th  Th0  1  0.000000  0.000000  0.000000  1
  Al  Al1  1  0.000000  0.349642  0.650358  1
  Al  Al2  1  0.000000  0.650358  0.349642  1
  Al  Al3  1  0.650358  0.349642  0.349642  1
  Al  Al4  1  0.349642  0.650358  0.650358  1
  Al  Al5  1  0.500000  0.782678  0.217322  1
  Al  Al6  1  0.500000  0.217322  0.782678  1
  Al  Al7  1  0.717322  0.782678  0.782678  1
  Al  Al8  1  0.282678  0.217322  0.217322  1
  Re  Re9  1  0.000000  0.000000  0.500000  1
  Re  Re10  1  0.500000  0.000000  0.500000  1
  Re  Re11  1  0.500000  0.500000  0.000000  1
  Re  Re12  1  0.000000  0.500000  0.000000  1
