# generated using pymatgen
data_Lu2B8IrRu
_symmetry_space_group_name_H-M   'P 1'
_cell_length_a   3.52762600
_cell_length_b   5.91863893
_cell_length_c   11.46650143
_cell_angle_alpha   89.85635440
_cell_angle_beta   90.00000000
_cell_angle_gamma   90.00000000
_symmetry_Int_Tables_number   1
_chemical_formula_structural   Lu2B8IrRu
_chemical_formula_sum   'Lu4 B16 Ir2 Ru2'
_cell_volume   239.40540213
_cell_formula_units_Z   2
loop_
 _symmetry_equiv_pos_site_id
 _symmetry_equiv_pos_as_xyz
  1  'x, y, z'
loop_
 _atom_site_type_symbol
 _atom_site_label
 _atom_site_symmetry_multiplicity
 _atom_site_fract_x
 _atom_site_fract_y
 _atom_site_fract_z
 _atom_site_occupancy
  Lu  Lu0  1  0.000000  0.630602  0.352758  1
  Lu  Lu1  1  0.000000  0.369398  0.647242  1
  Lu  Lu2  1  0.000000  0.131946  0.151285  1
  Lu  Lu3  1  0.000000  0.868054  0.848715  1
  B  B4  1  0.500000  0.792517  0.188806  1
  B  B5  1  0.500000  0.207483  0.811194  1
  B  B6  1  0.500000  0.292408  0.313768  1
  B  B7  1  0.500000  0.707592  0.686232  1
  B  B8  1  0.500000  0.864326  0.028393  1
  B  B9  1  0.500000  0.135674  0.971607  1
  B  B10  1  0.500000  0.365293  0.469793  1
  B  B11  1  0.500000  0.634707  0.530207  1
  B  B12  1  0.500000  0.887056  0.452994  1
  B  B13  1  0.500000  0.112944  0.547006  1
  B  B14  1  0.500000  0.386895  0.048483  1
  B  B15  1  0.500000  0.613105  0.951517  1
  B  B16  1  0.500000  0.976226  0.307570  1
  B  B17  1  0.500000  0.023774  0.692430  1
  B  B18  1  0.500000  0.477155  0.194455  1
  B  B19  1  0.500000  0.522845  0.805545  1
  Ir  Ir20  1  0.000000  0.646591  0.096810  1
  Ir  Ir21  1  0.000000  0.353409  0.903190  1
  Ru  Ru22  1  0.000000  0.141846  0.406167  1
  Ru  Ru23  1  0.000000  0.858154  0.593833  1
