# generated using pymatgen
data_TaCdHg3Sb3O14
_symmetry_space_group_name_H-M   'P 1'
_cell_length_a   7.50051740
_cell_length_b   7.50051629
_cell_length_c   7.50051692
_cell_angle_alpha   59.11930554
_cell_angle_beta   59.11931208
_cell_angle_gamma   59.11930606
_symmetry_Int_Tables_number   1
_chemical_formula_structural   TaCdHg3Sb3O14
_chemical_formula_sum   'Ta1 Cd1 Hg3 Sb3 O14'
_cell_volume   292.38254363
_cell_formula_units_Z   1
loop_
 _symmetry_equiv_pos_site_id
 _symmetry_equiv_pos_as_xyz
  1  'x, y, z'
loop_
 _atom_site_type_symbol
 _atom_site_label
 _atom_site_symmetry_multiplicity
 _atom_site_fract_x
 _atom_site_fract_y
 _atom_site_fract_z
 _atom_site_occupancy
  Ta  Ta0  1  0.625000  0.625000  0.625000  1
  Cd  Cd1  1  0.125000  0.125000  0.125000  1
  Hg  Hg2  1  0.625000  0.125000  0.125000  1
  Hg  Hg3  1  0.125000  0.625000  0.125000  1
  Hg  Hg4  1  0.125000  0.125000  0.625000  1
  Sb  Sb5  1  0.125000  0.625000  0.625000  1
  Sb  Sb6  1  0.625000  0.125000  0.625000  1
  Sb  Sb7  1  0.625000  0.625000  0.125000  1
  O  O8  1  0.688805  0.688805  0.309693  1
  O  O9  1  0.301028  0.301028  0.703072  1
  O  O10  1  0.688805  0.309693  0.688805  1
  O  O11  1  0.301028  0.703072  0.301028  1
  O  O12  1  0.309693  0.688805  0.688805  1
  O  O13  1  0.703072  0.301028  0.301028  1
  O  O14  1  0.561195  0.561195  0.940307  1
  O  O15  1  0.948972  0.948972  0.546928  1
  O  O16  1  0.561195  0.940307  0.561195  1
  O  O17  1  0.948972  0.546928  0.948972  1
  O  O18  1  0.940307  0.561195  0.561195  1
  O  O19  1  0.546928  0.948972  0.948972  1
  O  O20  1  0.251615  0.251615  0.251615  1
  O  O21  1  0.998385  0.998385  0.998385  1
