# generated using pymatgen
data_YEr2Tm13(In3Co)2
_symmetry_space_group_name_H-M   'P 1'
_cell_length_a   10.22354200
_cell_length_b   10.23573115
_cell_length_c   6.95099900
_cell_angle_alpha   90.02023653
_cell_angle_beta   90.00000000
_cell_angle_gamma   119.96060858
_symmetry_Int_Tables_number   1
_chemical_formula_structural   YEr2Tm13(In3Co)2
_chemical_formula_sum   'Y1 Er2 Tm13 In6 Co2'
_cell_volume   630.18828681
_cell_formula_units_Z   1
loop_
 _symmetry_equiv_pos_site_id
 _symmetry_equiv_pos_as_xyz
  1  'x, y, z'
loop_
 _atom_site_type_symbol
 _atom_site_label
 _atom_site_symmetry_multiplicity
 _atom_site_fract_x
 _atom_site_fract_y
 _atom_site_fract_z
 _atom_site_occupancy
  Y  Y0  1  0.534238  0.068475  0.791006  1
  Er  Er1  1  0.000130  0.000259  0.779359  1
  Er  Er2  1  0.999916  0.999833  0.279353  1
  Tm  Tm3  1  0.929555  0.464654  0.791422  1
  Tm  Tm4  1  0.535101  0.464654  0.791422  1
  Tm  Tm5  1  0.464274  0.928547  0.291596  1
  Tm  Tm6  1  0.070543  0.535489  0.292184  1
  Tm  Tm7  1  0.464947  0.535489  0.292184  1
  Tm  Tm8  1  0.821602  0.643204  0.498156  1
  Tm  Tm9  1  0.357271  0.179387  0.496712  1
  Tm  Tm10  1  0.822117  0.179387  0.496712  1
  Tm  Tm11  1  0.178836  0.357671  0.998997  1
  Tm  Tm12  1  0.642881  0.820428  0.999214  1
  Tm  Tm13  1  0.177548  0.820428  0.999214  1
  Tm  Tm14  1  0.666989  0.333975  0.182652  1
  Tm  Tm15  1  0.332932  0.665864  0.682981  1
  In  In16  1  0.836614  0.673228  0.039044  1
  In  In17  1  0.325313  0.162539  0.039790  1
  In  In18  1  0.837225  0.162539  0.039790  1
  In  In19  1  0.163318  0.326636  0.540816  1
  In  In20  1  0.674272  0.837511  0.540543  1
  In  In21  1  0.163240  0.837511  0.540543  1
  Co  Co22  1  0.667770  0.335538  0.564979  1
  Co  Co23  1  0.333373  0.666748  0.067234  1
