# generated using pymatgen
data_Ca4Si2IrPt3
_symmetry_space_group_name_H-M   'P 1'
_cell_length_a   5.65941619
_cell_length_b   5.62535976
_cell_length_c   7.63698766
_cell_angle_alpha   80.71559450
_cell_angle_beta   80.43505834
_cell_angle_gamma   61.71673504
_symmetry_Int_Tables_number   1
_chemical_formula_structural   Ca4Si2IrPt3
_chemical_formula_sum   'Ca4 Si2 Ir1 Pt3'
_cell_volume   210.17294770
_cell_formula_units_Z   1
loop_
 _symmetry_equiv_pos_site_id
 _symmetry_equiv_pos_as_xyz
  1  'x, y, z'
loop_
 _atom_site_type_symbol
 _atom_site_label
 _atom_site_symmetry_multiplicity
 _atom_site_fract_x
 _atom_site_fract_y
 _atom_site_fract_z
 _atom_site_occupancy
  Ca  Ca0  1  0.969025  0.724113  0.152340  1
  Ca  Ca1  1  0.279152  0.021887  0.353036  1
  Ca  Ca2  1  0.027900  0.276054  0.848302  1
  Ca  Ca3  1  0.722807  0.976979  0.647338  1
  Si  Si4  1  0.410757  0.595619  0.743926  1
  Si  Si5  1  0.602872  0.403985  0.253807  1
  Ir  Ir6  1  0.756851  0.490914  0.496871  1
  Pt  Pt7  1  0.490454  0.760313  0.996024  1
  Pt  Pt8  1  0.232415  0.506299  0.502524  1
  Pt  Pt9  1  0.507768  0.243835  0.005832  1
