# generated using pymatgen
data_Sc3Nb2Ga(B2Ru5)2
_symmetry_space_group_name_H-M   'P 1'
_cell_length_a   9.42374295
_cell_length_b   9.42098595
_cell_length_c   3.05823400
_cell_angle_alpha   90.00000000
_cell_angle_beta   90.00000000
_cell_angle_gamma   89.89509354
_symmetry_Int_Tables_number   1
_chemical_formula_structural   Sc3Nb2Ga(B2Ru5)2
_chemical_formula_sum   'Sc3 Nb2 Ga1 B4 Ru10'
_cell_volume   271.51246442
_cell_formula_units_Z   1
loop_
 _symmetry_equiv_pos_site_id
 _symmetry_equiv_pos_as_xyz
  1  'x, y, z'
loop_
 _atom_site_type_symbol
 _atom_site_label
 _atom_site_symmetry_multiplicity
 _atom_site_fract_x
 _atom_site_fract_y
 _atom_site_fract_z
 _atom_site_occupancy
  Sc  Sc0  1  0.824167  0.673890  0.000000  1
  Sc  Sc1  1  0.175232  0.328151  0.000000  1
  Sc  Sc2  1  0.325153  0.823857  0.000000  1
  Nb  Nb3  1  0.674181  0.175788  0.000000  1
  Nb  Nb4  1  0.003315  0.998480  0.000000  1
  Ga  Ga5  1  0.500016  0.501818  0.000000  1
  B  B6  1  0.619063  0.872208  0.000000  1
  B  B7  1  0.380206  0.128340  0.000000  1
  B  B8  1  0.127513  0.617419  0.000000  1
  B  B9  1  0.874141  0.382626  0.000000  1
  Ru  Ru10  1  0.503555  0.003709  0.500000  1
  Ru  Ru11  1  0.997719  0.499005  0.500000  1
  Ru  Ru12  1  0.570557  0.715385  0.500000  1
  Ru  Ru13  1  0.438593  0.284418  0.500000  1
  Ru  Ru14  1  0.071464  0.779541  0.500000  1
  Ru  Ru15  1  0.918402  0.215884  0.500000  1
  Ru  Ru16  1  0.285640  0.568745  0.500000  1
  Ru  Ru17  1  0.711404  0.421545  0.500000  1
  Ru  Ru18  1  0.219547  0.075529  0.500000  1
  Ru  Ru19  1  0.780133  0.933662  0.500000  1
