# generated using pymatgen
data_TbYFe2(Ni4P3)2
_symmetry_space_group_name_H-M   'P 1'
_cell_length_a   3.70092900
_cell_length_b   10.32689200
_cell_length_c   11.89218700
_cell_angle_alpha   90.00000000
_cell_angle_beta   90.00000000
_cell_angle_gamma   90.00000000
_symmetry_Int_Tables_number   1
_chemical_formula_structural   TbYFe2(Ni4P3)2
_chemical_formula_sum   'Tb2 Y2 Fe4 Ni16 P12'
_cell_volume   454.50861380
_cell_formula_units_Z   2
loop_
 _symmetry_equiv_pos_site_id
 _symmetry_equiv_pos_as_xyz
  1  'x, y, z'
loop_
 _atom_site_type_symbol
 _atom_site_label
 _atom_site_symmetry_multiplicity
 _atom_site_fract_x
 _atom_site_fract_y
 _atom_site_fract_z
 _atom_site_occupancy
  Tb  Tb0  1  0.750000  0.420422  0.295492  1
  Tb  Tb1  1  0.750000  0.079578  0.795492  1
  Y  Y2  1  0.250000  0.579711  0.704504  1
  Y  Y3  1  0.250000  0.920289  0.204504  1
  Fe  Fe4  1  0.250000  0.464071  0.931852  1
  Fe  Fe5  1  0.250000  0.035929  0.431852  1
  Fe  Fe6  1  0.750000  0.536145  0.067977  1
  Fe  Fe7  1  0.750000  0.963855  0.567977  1
  Ni  Ni8  1  0.250000  0.713091  0.994043  1
  Ni  Ni9  1  0.250000  0.786909  0.494043  1
  Ni  Ni10  1  0.750000  0.286943  0.005964  1
  Ni  Ni11  1  0.750000  0.213057  0.505964  1
  Ni  Ni12  1  0.250000  0.407160  0.488204  1
  Ni  Ni13  1  0.250000  0.092840  0.988204  1
  Ni  Ni14  1  0.750000  0.593034  0.511904  1
  Ni  Ni15  1  0.750000  0.906966  0.011904  1
  Ni  Ni16  1  0.250000  0.224962  0.176847  1
  Ni  Ni17  1  0.250000  0.275038  0.676847  1
  Ni  Ni18  1  0.750000  0.774955  0.823245  1
  Ni  Ni19  1  0.750000  0.725045  0.323245  1
  Ni  Ni20  1  0.250000  0.877451  0.701298  1
  Ni  Ni21  1  0.250000  0.622549  0.201298  1
  Ni  Ni22  1  0.750000  0.122500  0.298668  1
  Ni  Ni23  1  0.750000  0.377500  0.798668  1
  P  P24  1  0.250000  0.425861  0.111468  1
  P  P25  1  0.250000  0.074139  0.611468  1
  P  P26  1  0.750000  0.574189  0.888303  1
  P  P27  1  0.750000  0.925811  0.388303  1
  P  P28  1  0.250000  0.269475  0.869201  1
  P  P29  1  0.250000  0.230525  0.369201  1
  P  P30  1  0.750000  0.730697  0.130964  1
  P  P31  1  0.750000  0.769303  0.630964  1
  P  P32  1  0.250000  0.604315  0.393143  1
  P  P33  1  0.250000  0.895685  0.893143  1
  P  P34  1  0.750000  0.395805  0.606921  1
  P  P35  1  0.750000  0.104195  0.106921  1
