# generated using pymatgen
data_La4Y6Ru3Rh
_symmetry_space_group_name_H-M   'P 1'
_cell_length_a   6.58724370
_cell_length_b   7.27725383
_cell_length_c   8.92057630
_cell_angle_alpha   96.34389369
_cell_angle_beta   111.87139529
_cell_angle_gamma   89.91664904
_symmetry_Int_Tables_number   1
_chemical_formula_structural   La4Y6Ru3Rh
_chemical_formula_sum   'La4 Y6 Ru3 Rh1'
_cell_volume   394.05081989
_cell_formula_units_Z   1
loop_
 _symmetry_equiv_pos_site_id
 _symmetry_equiv_pos_as_xyz
  1  'x, y, z'
loop_
 _atom_site_type_symbol
 _atom_site_label
 _atom_site_symmetry_multiplicity
 _atom_site_fract_x
 _atom_site_fract_y
 _atom_site_fract_z
 _atom_site_occupancy
  La  La0  1  0.987450  0.912976  0.192737  1
  La  La1  1  0.788319  0.592971  0.803483  1
  La  La2  1  0.016109  0.092925  0.805993  1
  La  La3  1  0.215259  0.405893  0.194901  1
  Y  Y4  1  0.635137  0.816586  0.430175  1
  Y  Y5  1  0.210981  0.684968  0.572874  1
  Y  Y6  1  0.363408  0.185155  0.570818  1
  Y  Y7  1  0.793652  0.315000  0.431413  1
  Y  Y8  1  0.427570  0.750035  0.999350  1
  Y  Y9  1  0.570379  0.248060  0.997702  1
  Ru  Ru10  1  0.607536  0.916400  0.777078  1
  Ru  Ru11  1  0.166845  0.417092  0.774177  1
  Ru  Ru12  1  0.393612  0.082629  0.223383  1
  Rh  Rh13  1  0.823742  0.579309  0.225917  1
