# generated using pymatgen
data_Al2Zn4Pd9Pt
_symmetry_space_group_name_H-M   'P 1'
_cell_length_a   4.12495400
_cell_length_b   5.44026303
_cell_length_c   10.57379606
_cell_angle_alpha   90.01267906
_cell_angle_beta   90.00000000
_cell_angle_gamma   90.00000000
_symmetry_Int_Tables_number   1
_chemical_formula_structural   Al2Zn4Pd9Pt
_chemical_formula_sum   'Al2 Zn4 Pd9 Pt1'
_cell_volume   237.28480447
_cell_formula_units_Z   1
loop_
 _symmetry_equiv_pos_site_id
 _symmetry_equiv_pos_as_xyz
  1  'x, y, z'
loop_
 _atom_site_type_symbol
 _atom_site_label
 _atom_site_symmetry_multiplicity
 _atom_site_fract_x
 _atom_site_fract_y
 _atom_site_fract_z
 _atom_site_occupancy
  Al  Al0  1  0.000000  0.000747  0.000096  1
  Al  Al1  1  0.000000  0.499946  0.500089  1
  Zn  Zn2  1  0.500000  0.162153  0.360340  1
  Zn  Zn3  1  0.500000  0.837436  0.639308  1
  Zn  Zn4  1  0.500000  0.662503  0.139555  1
  Zn  Zn5  1  0.500000  0.337677  0.860703  1
  Pd  Pd6  1  0.500000  0.819478  0.892532  1
  Pd  Pd7  1  0.500000  0.679875  0.393692  1
  Pd  Pd8  1  0.500000  0.319588  0.606770  1
  Pd  Pd9  1  0.000000  0.999770  0.500103  1
  Pd  Pd10  1  0.000000  0.501338  0.000023  1
  Pd  Pd11  1  0.000000  0.901441  0.235265  1
  Pd  Pd12  1  0.000000  0.098283  0.765279  1
  Pd  Pd13  1  0.000000  0.401793  0.265947  1
  Pd  Pd14  1  0.000000  0.598533  0.734171  1
  Pt  Pt15  1  0.500000  0.179439  0.106127  1
