# generated using pymatgen
data_Th3Ga3OsPdPt
_symmetry_space_group_name_H-M   'P 1'
_cell_length_a   7.46443400
_cell_length_b   7.46443323
_cell_length_c   3.98531300
_cell_angle_alpha   90.00000000
_cell_angle_beta   90.00000000
_cell_angle_gamma   120.00001228
_symmetry_Int_Tables_number   1
_chemical_formula_structural   Th3Ga3OsPdPt
_chemical_formula_sum   'Th3 Ga3 Os1 Pd1 Pt1'
_cell_volume   192.30329853
_cell_formula_units_Z   1
loop_
 _symmetry_equiv_pos_site_id
 _symmetry_equiv_pos_as_xyz
  1  'x, y, z'
loop_
 _atom_site_type_symbol
 _atom_site_label
 _atom_site_symmetry_multiplicity
 _atom_site_fract_x
 _atom_site_fract_y
 _atom_site_fract_z
 _atom_site_occupancy
  Th  Th0  1  0.421189  0.413952  0.500000  1
  Th  Th1  1  0.586048  0.007237  0.500000  1
  Th  Th2  1  0.992763  0.578811  0.500000  1
  Ga  Ga3  1  0.757596  0.751277  0.000000  1
  Ga  Ga4  1  0.248723  0.006319  0.000000  1
  Ga  Ga5  1  0.993681  0.242404  0.000000  1
  Os  Os6  1  0.666667  0.333333  0.000000  1
  Pd  Pd7  1  0.000000  0.000000  0.500000  1
  Pt  Pt8  1  0.333333  0.666667  0.000000  1
