# generated using pymatgen
data_Mn3Nb6Cr(FeN)2
_symmetry_space_group_name_H-M   'P 1'
_cell_length_a   8.05482269
_cell_length_b   8.05482219
_cell_length_c   8.06801200
_cell_angle_alpha   59.94581698
_cell_angle_beta   59.94581904
_cell_angle_gamma   59.90271693
_symmetry_Int_Tables_number   1
_chemical_formula_structural   Mn3Nb6Cr(FeN)2
_chemical_formula_sum   'Mn6 Nb12 Cr2 Fe4 N4'
_cell_volume   369.56218785
_cell_formula_units_Z   2
loop_
 _symmetry_equiv_pos_site_id
 _symmetry_equiv_pos_as_xyz
  1  'x, y, z'
loop_
 _atom_site_type_symbol
 _atom_site_label
 _atom_site_symmetry_multiplicity
 _atom_site_fract_x
 _atom_site_fract_y
 _atom_site_fract_z
 _atom_site_occupancy
  Mn  Mn0  1  0.625465  0.625465  0.123551  1
  Mn  Mn1  1  0.625465  0.625465  0.625518  1
  Mn  Mn2  1  0.729581  0.422967  0.423726  1
  Mn  Mn3  1  0.422967  0.729581  0.423726  1
  Mn  Mn4  1  0.422558  0.422558  0.731854  1
  Mn  Mn5  1  0.422558  0.422558  0.423029  1
  Nb  Nb6  1  0.801492  0.801492  0.198508  1
  Nb  Nb7  1  0.195167  0.195167  0.804833  1
  Nb  Nb8  1  0.802897  0.197620  0.803557  1
  Nb  Nb9  1  0.197620  0.802897  0.195925  1
  Nb  Nb10  1  0.197620  0.802897  0.803557  1
  Nb  Nb11  1  0.802897  0.197620  0.195925  1
  Nb  Nb12  1  0.447952  0.447952  0.052048  1
  Nb  Nb13  1  0.055022  0.055022  0.444978  1
  Nb  Nb14  1  0.446733  0.052901  0.445960  1
  Nb  Nb15  1  0.052901  0.446733  0.054406  1
  Nb  Nb16  1  0.052901  0.446733  0.445960  1
  Nb  Nb17  1  0.446733  0.052901  0.054406  1
  Cr  Cr18  1  0.123771  0.625468  0.625380  1
  Cr  Cr19  1  0.625468  0.123771  0.625380  1
  Fe  Fe20  1  0.524558  0.825678  0.824881  1
  Fe  Fe21  1  0.825678  0.524558  0.824881  1
  Fe  Fe22  1  0.826070  0.826070  0.522182  1
  Fe  Fe23  1  0.826070  0.826070  0.825676  1
  N  N24  1  0.624878  0.125009  0.125056  1
  N  N25  1  0.125009  0.624878  0.125056  1
  N  N26  1  0.124981  0.124981  0.624919  1
  N  N27  1  0.124981  0.124981  0.125117  1
