# generated using pymatgen
data_Tb3Ho2IrRu
_symmetry_space_group_name_H-M   'P 1'
_cell_length_a   6.41206434
_cell_length_b   7.29205916
_cell_length_c   8.51188047
_cell_angle_alpha   96.79903056
_cell_angle_beta   112.12657354
_cell_angle_gamma   89.99999610
_symmetry_Int_Tables_number   1
_chemical_formula_structural   Tb3Ho2IrRu
_chemical_formula_sum   'Tb6 Ho4 Ir2 Ru2'
_cell_volume   365.65769152
_cell_formula_units_Z   2
loop_
 _symmetry_equiv_pos_site_id
 _symmetry_equiv_pos_as_xyz
  1  'x, y, z'
loop_
 _atom_site_type_symbol
 _atom_site_label
 _atom_site_symmetry_multiplicity
 _atom_site_fract_x
 _atom_site_fract_y
 _atom_site_fract_z
 _atom_site_occupancy
  Tb  Tb0  1  0.978601  0.917985  0.186250  1
  Tb  Tb1  1  0.792350  0.582015  0.813750  1
  Tb  Tb2  1  0.024334  0.085271  0.814667  1
  Tb  Tb3  1  0.209667  0.414729  0.185333  1
  Tb  Tb4  1  0.642510  0.816271  0.435197  1
  Tb  Tb5  1  0.207313  0.683729  0.564803  1
  Ho  Ho6  1  0.355938  0.186022  0.563549  1
  Ho  Ho7  1  0.792390  0.313978  0.436451  1
  Ho  Ho8  1  0.423037  0.750000  0.000000  1
  Ho  Ho9  1  0.576189  0.250000  0.000000  1
  Ir  Ir10  1  0.822504  0.576043  0.220839  1
  Ir  Ir11  1  0.601667  0.923957  0.779161  1
  Ru  Ru12  1  0.176322  0.424836  0.779144  1
  Ru  Ru13  1  0.397178  0.075164  0.220856  1
