# generated using pymatgen
data_Zn3SnP6N13
_symmetry_space_group_name_H-M   'P 1'
_cell_length_a   7.07316175
_cell_length_b   7.15166931
_cell_length_c   7.07316254
_cell_angle_alpha   109.69620762
_cell_angle_beta   109.24528219
_cell_angle_gamma   109.69621729
_symmetry_Int_Tables_number   1
_chemical_formula_structural   Zn3SnP6N13
_chemical_formula_sum   'Zn3 Sn1 P6 N13'
_cell_volume   274.66250859
_cell_formula_units_Z   1
loop_
 _symmetry_equiv_pos_site_id
 _symmetry_equiv_pos_as_xyz
  1  'x, y, z'
loop_
 _atom_site_type_symbol
 _atom_site_label
 _atom_site_symmetry_multiplicity
 _atom_site_fract_x
 _atom_site_fract_y
 _atom_site_fract_z
 _atom_site_occupancy
  Zn  Zn0  1  0.705114  0.006319  0.000000  1
  Zn  Zn1  1  0.000000  0.006319  0.705114  1
  Zn  Zn2  1  0.294886  0.301205  0.294886  1
  Sn  Sn3  1  0.000000  0.723288  0.000000  1
  P  P4  1  0.495695  0.242172  0.746655  1
  P  P5  1  0.504305  0.746477  0.250960  1
  P  P6  1  0.749040  0.495517  0.253345  1
  P  P7  1  0.250960  0.746477  0.504305  1
  P  P8  1  0.746655  0.242172  0.495695  1
  P  P9  1  0.253345  0.495517  0.749040  1
  N  N10  1  0.000000  0.730421  0.453613  1
  N  N11  1  0.280932  0.544749  0.547419  1
  N  N12  1  0.729068  0.444489  0.000000  1
  N  N13  1  0.270932  0.715422  0.270932  1
  N  N14  1  0.452581  0.997330  0.733513  1
  N  N15  1  0.719068  0.263817  0.266487  1
  N  N16  1  0.546387  0.276807  0.546387  1
  N  N17  1  0.733513  0.997330  0.452581  1
  N  N18  1  0.266487  0.263817  0.719068  1
  N  N19  1  0.453613  0.730421  0.000000  1
  N  N20  1  0.547419  0.544749  0.280932  1
  N  N21  1  0.000000  0.444489  0.729068  1
  N  N22  1  0.000000  0.040693  0.000000  1
