# generated using pymatgen
data_Np3Cr(Ni4P3)2
_symmetry_space_group_name_H-M   'P 1'
_cell_length_a   12.34860900
_cell_length_b   12.31994565
_cell_length_c   3.72277800
_cell_angle_alpha   90.00000000
_cell_angle_beta   90.00000000
_cell_angle_gamma   119.92324875
_symmetry_Int_Tables_number   1
_chemical_formula_structural   Np3Cr(Ni4P3)2
_chemical_formula_sum   'Np6 Cr2 Ni16 P12'
_cell_volume   490.86262398
_cell_formula_units_Z   2
loop_
 _symmetry_equiv_pos_site_id
 _symmetry_equiv_pos_as_xyz
  1  'x, y, z'
loop_
 _atom_site_type_symbol
 _atom_site_label
 _atom_site_symmetry_multiplicity
 _atom_site_fract_x
 _atom_site_fract_y
 _atom_site_fract_z
 _atom_site_occupancy
  Np  Np0  1  0.812343  0.811817  0.500000  1
  Np  Np1  1  0.000000  0.177650  0.500000  1
  Np  Np2  1  0.337253  0.667745  0.000000  1
  Np  Np3  1  0.662747  0.330492  0.000000  1
  Np  Np4  1  0.000000  0.559522  0.000000  1
  Np  Np5  1  0.187657  0.999475  0.500000  1
  Cr  Cr6  1  0.444233  0.444064  0.000000  1
  Cr  Cr7  1  0.555767  0.999833  0.000000  1
  Ni  Ni8  1  0.620865  0.819853  0.000000  1
  Ni  Ni9  1  0.379135  0.198989  0.000000  1
  Ni  Ni10  1  0.000000  0.723798  0.500000  1
  Ni  Ni11  1  0.282540  0.283880  0.500000  1
  Ni  Ni12  1  0.878409  0.345969  0.500000  1
  Ni  Ni13  1  0.717460  0.001339  0.500000  1
  Ni  Ni14  1  0.807985  0.623827  0.000000  1
  Ni  Ni15  1  0.192015  0.815842  0.000000  1
  Ni  Ni16  1  0.366924  0.886520  0.500000  1
  Ni  Ni17  1  0.121591  0.467558  0.500000  1
  Ni  Ni18  1  0.633076  0.519596  0.500000  1
  Ni  Ni19  1  0.000000  0.000990  0.000000  1
  Ni  Ni20  1  0.518298  0.644311  0.500000  1
  Ni  Ni21  1  0.481702  0.126013  0.500000  1
  Ni  Ni22  1  0.201602  0.376303  0.000000  1
  Ni  Ni23  1  0.798398  0.174701  0.000000  1
  P  P24  1  0.000000  0.344008  0.000000  1
  P  P25  1  0.817620  0.516340  0.500000  1
  P  P26  1  0.682269  0.163303  0.500000  1
  P  P27  1  0.181611  0.178126  0.000000  1
  P  P28  1  0.628368  0.636053  0.000000  1
  P  P29  1  0.818389  0.996515  0.000000  1
  P  P30  1  0.520610  0.838159  0.500000  1
  P  P31  1  0.182380  0.698719  0.500000  1
  P  P32  1  0.371632  0.007686  0.000000  1
  P  P33  1  0.479390  0.317550  0.500000  1
  P  P34  1  0.000000  0.822422  0.000000  1
  P  P35  1  0.317731  0.481032  0.500000  1
