# generated using pymatgen
data_Dy3YAl18Co5Au
_symmetry_space_group_name_H-M   'P 1'
_cell_length_a   7.43214891
_cell_length_b   7.43213092
_cell_length_c   9.35172600
_cell_angle_alpha   89.78928806
_cell_angle_beta   89.78853421
_cell_angle_gamma   119.15924364
_symmetry_Int_Tables_number   1
_chemical_formula_structural   Dy3YAl18Co5Au
_chemical_formula_sum   'Dy3 Y1 Al18 Co5 Au1'
_cell_volume   451.08254137
_cell_formula_units_Z   1
loop_
 _symmetry_equiv_pos_site_id
 _symmetry_equiv_pos_as_xyz
  1  'x, y, z'
loop_
 _atom_site_type_symbol
 _atom_site_label
 _atom_site_symmetry_multiplicity
 _atom_site_fract_x
 _atom_site_fract_y
 _atom_site_fract_z
 _atom_site_occupancy
  Dy  Dy0  1  0.995554  0.677582  0.251322  1
  Dy  Dy1  1  0.004456  0.322420  0.748678  1
  Dy  Dy2  1  0.677576  0.995543  0.251322  1
  Y  Y3  1  0.322416  0.004455  0.748684  1
  Al  Al4  1  0.137459  0.137458  0.263292  1
  Al  Al5  1  0.862525  0.862550  0.736707  1
  Al  Al6  1  0.332273  0.332299  0.542409  1
  Al  Al7  1  0.655024  0.655051  0.051892  1
  Al  Al8  1  0.344948  0.344993  0.948122  1
  Al  Al9  1  0.667716  0.667726  0.457577  1
  Al  Al10  1  0.340030  0.557880  0.252372  1
  Al  Al11  1  0.659996  0.442158  0.747615  1
  Al  Al12  1  0.557861  0.340031  0.252385  1
  Al  Al13  1  0.442118  0.659950  0.747629  1
  Al  Al14  1  0.001373  0.349723  0.076429  1
  Al  Al15  1  0.003346  0.663101  0.569671  1
  Al  Al16  1  0.336883  0.996634  0.430299  1
  Al  Al17  1  0.650299  0.998626  0.923584  1
  Al  Al18  1  0.998673  0.650288  0.923583  1
  Al  Al19  1  0.996662  0.336894  0.430318  1
  Al  Al20  1  0.663125  0.003339  0.569670  1
  Al  Al21  1  0.349694  0.001306  0.076449  1
  Co  Co22  1  0.999982  0.999998  0.499987  1
  Co  Co23  1  0.671039  0.328972  0.000002  1
  Co  Co24  1  0.329019  0.670972  0.499993  1
  Co  Co25  1  0.328970  0.671025  0.000005  1
  Co  Co26  1  0.670995  0.329028  0.499993  1
  Au  Au27  1  0.999988  0.999999  0.000009  1
