# generated using pymatgen
data_Ca2Co2PdN3
_symmetry_space_group_name_H-M   'P 1'
_cell_length_a   6.24604837
_cell_length_b   6.24604967
_cell_length_c   6.29010102
_cell_angle_alpha   89.91792627
_cell_angle_beta   89.91792484
_cell_angle_gamma   116.30388807
_symmetry_Int_Tables_number   1
_chemical_formula_structural   Ca2Co2PdN3
_chemical_formula_sum   'Ca4 Co4 Pd2 N6'
_cell_volume   219.98645987
_cell_formula_units_Z   2
loop_
 _symmetry_equiv_pos_site_id
 _symmetry_equiv_pos_as_xyz
  1  'x, y, z'
loop_
 _atom_site_type_symbol
 _atom_site_label
 _atom_site_symmetry_multiplicity
 _atom_site_fract_x
 _atom_site_fract_y
 _atom_site_fract_z
 _atom_site_occupancy
  Ca  Ca0  1  0.825877  0.679102  0.894534  1
  Ca  Ca1  1  0.320898  0.174123  0.605466  1
  Ca  Ca2  1  0.174123  0.320898  0.105466  1
  Ca  Ca3  1  0.679102  0.825877  0.394534  1
  Co  Co4  1  0.569500  0.172307  0.100287  1
  Co  Co5  1  0.430500  0.827693  0.899713  1
  Co  Co6  1  0.827693  0.430500  0.399713  1
  Co  Co7  1  0.172307  0.569500  0.600287  1
  Pd  Pd8  1  0.812410  0.187590  0.750000  1
  Pd  Pd9  1  0.187590  0.812410  0.250000  1
  N  N10  1  0.420672  0.579328  0.750000  1
  N  N11  1  0.579328  0.420672  0.250000  1
  N  N12  1  0.991366  0.727135  0.528301  1
  N  N13  1  0.727135  0.991366  0.028301  1
  N  N14  1  0.008634  0.272865  0.471699  1
  N  N15  1  0.272865  0.008634  0.971699  1
