# generated using pymatgen
data_Gd2DyHoB10
_symmetry_space_group_name_H-M   'P 1'
_cell_length_a   7.11888200
_cell_length_b   7.11292238
_cell_length_c   7.14248202
_cell_angle_alpha   76.78207995
_cell_angle_beta   90.00000000
_cell_angle_gamma   90.00000000
_symmetry_Int_Tables_number   1
_chemical_formula_structural   Gd2DyHoB10
_chemical_formula_sum   'Gd4 Dy2 Ho2 B20'
_cell_volume   352.08562370
_cell_formula_units_Z   2
loop_
 _symmetry_equiv_pos_site_id
 _symmetry_equiv_pos_as_xyz
  1  'x, y, z'
loop_
 _atom_site_type_symbol
 _atom_site_label
 _atom_site_symmetry_multiplicity
 _atom_site_fract_x
 _atom_site_fract_y
 _atom_site_fract_z
 _atom_site_occupancy
  Gd  Gd0  1  0.691804  0.770593  0.626639  1
  Gd  Gd1  1  0.191804  0.229407  0.873361  1
  Gd  Gd2  1  0.308235  0.229359  0.373411  1
  Gd  Gd3  1  0.808235  0.770641  0.126589  1
  Dy  Dy4  1  0.315255  0.755505  0.253311  1
  Dy  Dy5  1  0.815255  0.244495  0.246689  1
  Ho  Ho6  1  0.684713  0.244773  0.746708  1
  Ho  Ho7  1  0.184713  0.755227  0.753292  1
  B  B8  1  0.502617  0.313926  0.040733  1
  B  B9  1  0.002617  0.686074  0.459267  1
  B  B10  1  0.497366  0.686080  0.959118  1
  B  B11  1  0.997366  0.313920  0.540882  1
  B  B12  1  0.488832  0.926094  0.925042  1
  B  B13  1  0.988832  0.073906  0.574958  1
  B  B14  1  0.511184  0.074039  0.074752  1
  B  B15  1  0.011184  0.925961  0.425248  1
  B  B16  1  0.326164  0.496509  0.039762  1
  B  B17  1  0.826164  0.503491  0.460238  1
  B  B18  1  0.673799  0.503506  0.960098  1
  B  B19  1  0.173799  0.496494  0.539902  1
  B  B20  1  0.910816  0.498549  0.910841  1
  B  B21  1  0.410816  0.501451  0.589159  1
  B  B22  1  0.089223  0.501501  0.089055  1
  B  B23  1  0.589223  0.498499  0.410945  1
  B  B24  1  0.961519  0.496616  0.674289  1
  B  B25  1  0.461519  0.503384  0.825711  1
  B  B26  1  0.038470  0.503392  0.325787  1
  B  B27  1  0.538470  0.496608  0.174213  1
