# generated using pymatgen
data_Nd5CoSn2
_symmetry_space_group_name_H-M   'P 1'
_cell_length_a   8.11600600
_cell_length_b   9.15717800
_cell_length_c   12.65501500
_cell_angle_alpha   90.00000000
_cell_angle_beta   90.00000000
_cell_angle_gamma   90.00000000
_symmetry_Int_Tables_number   1
_chemical_formula_structural   Nd5CoSn2
_chemical_formula_sum   'Nd20 Co4 Sn8'
_cell_volume   940.51706498
_cell_formula_units_Z   4
loop_
 _symmetry_equiv_pos_site_id
 _symmetry_equiv_pos_as_xyz
  1  'x, y, z'
loop_
 _atom_site_type_symbol
 _atom_site_label
 _atom_site_symmetry_multiplicity
 _atom_site_fract_x
 _atom_site_fract_y
 _atom_site_fract_z
 _atom_site_occupancy
  Nd  Nd0  1  0.153128  0.750000  0.207904  1
  Nd  Nd1  1  0.653128  0.250000  0.292096  1
  Nd  Nd2  1  0.846872  0.250000  0.792096  1
  Nd  Nd3  1  0.346872  0.750000  0.707904  1
  Nd  Nd4  1  0.448232  0.750000  0.997671  1
  Nd  Nd5  1  0.948232  0.250000  0.502329  1
  Nd  Nd6  1  0.551768  0.250000  0.002329  1
  Nd  Nd7  1  0.051768  0.750000  0.497671  1
  Nd  Nd8  1  0.622567  0.750000  0.303910  1
  Nd  Nd9  1  0.122567  0.250000  0.196090  1
  Nd  Nd10  1  0.377433  0.250000  0.696090  1
  Nd  Nd11  1  0.877433  0.750000  0.803910  1
  Nd  Nd12  1  0.822134  0.968127  0.069215  1
  Nd  Nd13  1  0.322134  0.031873  0.430785  1
  Nd  Nd14  1  0.177866  0.468127  0.930785  1
  Nd  Nd15  1  0.677866  0.531873  0.569215  1
  Nd  Nd16  1  0.177866  0.031873  0.930785  1
  Nd  Nd17  1  0.677866  0.968127  0.569215  1
  Nd  Nd18  1  0.822134  0.531873  0.069215  1
  Nd  Nd19  1  0.322134  0.468127  0.430785  1
  Co  Co20  1  0.422746  0.750000  0.490976  1
  Co  Co21  1  0.922746  0.250000  0.009024  1
  Co  Co22  1  0.577254  0.250000  0.509024  1
  Co  Co23  1  0.077254  0.750000  0.990976  1
  Sn  Sn24  1  0.927956  0.994499  0.329047  1
  Sn  Sn25  1  0.427956  0.005501  0.170953  1
  Sn  Sn26  1  0.072044  0.494499  0.670953  1
  Sn  Sn27  1  0.572044  0.505501  0.829047  1
  Sn  Sn28  1  0.072044  0.005501  0.670953  1
  Sn  Sn29  1  0.572044  0.994499  0.829047  1
  Sn  Sn30  1  0.927956  0.505501  0.329047  1
  Sn  Sn31  1  0.427956  0.494499  0.170953  1
