# generated using pymatgen
data_NaNd(SeO4)2
_symmetry_space_group_name_H-M   'P 1'
_cell_length_a   7.22772582
_cell_length_b   6.66117607
_cell_length_c   7.47830353
_cell_angle_alpha   96.42750132
_cell_angle_beta   99.44140068
_cell_angle_gamma   89.83861920
_symmetry_Int_Tables_number   1
_chemical_formula_structural   NaNd(SeO4)2
_chemical_formula_sum   'Na2 Nd2 Se4 O16'
_cell_volume   352.89001620
_cell_formula_units_Z   2
loop_
 _symmetry_equiv_pos_site_id
 _symmetry_equiv_pos_as_xyz
  1  'x, y, z'
loop_
 _atom_site_type_symbol
 _atom_site_label
 _atom_site_symmetry_multiplicity
 _atom_site_fract_x
 _atom_site_fract_y
 _atom_site_fract_z
 _atom_site_occupancy
  Na  Na0  1  0.688044  0.062426  0.284227  1
  Na  Na1  1  0.311955  0.937574  0.715772  1
  Nd  Nd2  1  0.194208  0.357849  0.200928  1
  Nd  Nd3  1  0.805793  0.642152  0.799075  1
  Se  Se4  1  0.182499  0.866487  0.214479  1
  Se  Se5  1  0.714863  0.564703  0.287490  1
  Se  Se6  1  0.285137  0.435296  0.712510  1
  Se  Se7  1  0.817502  0.133513  0.785521  1
  O  O8  1  0.105293  0.677137  0.048651  1
  O  O9  1  0.706958  0.705681  0.114851  1
  O  O10  1  0.347155  0.011843  0.155512  1
  O  O11  1  0.015275  0.035331  0.243847  1
  O  O12  1  0.534816  0.399285  0.247808  1
  O  O13  1  0.908056  0.427980  0.316482  1
  O  O14  1  0.263046  0.738280  0.388966  1
  O  O15  1  0.708735  0.722486  0.477263  1
  O  O16  1  0.291264  0.277514  0.522737  1
  O  O17  1  0.736955  0.261720  0.611034  1
  O  O18  1  0.091944  0.572020  0.683519  1
  O  O19  1  0.465184  0.600714  0.752192  1
  O  O20  1  0.984725  0.964669  0.756153  1
  O  O21  1  0.652845  0.988157  0.844487  1
  O  O22  1  0.293043  0.294318  0.885150  1
  O  O23  1  0.894708  0.322863  0.951350  1
