# generated using pymatgen
data_Pr2Nd4Al24Ru3Rh5
_symmetry_space_group_name_H-M   'P 1'
_cell_length_a   8.88928400
_cell_length_b   8.92803346
_cell_length_c   9.68109803
_cell_angle_alpha   90.10759649
_cell_angle_beta   90.00000000
_cell_angle_gamma   119.85653826
_symmetry_Int_Tables_number   1
_chemical_formula_structural   Pr2Nd4Al24Ru3Rh5
_chemical_formula_sum   'Pr2 Nd4 Al24 Ru3 Rh5'
_cell_volume   666.35065890
_cell_formula_units_Z   1
loop_
 _symmetry_equiv_pos_site_id
 _symmetry_equiv_pos_as_xyz
  1  'x, y, z'
loop_
 _atom_site_type_symbol
 _atom_site_label
 _atom_site_symmetry_multiplicity
 _atom_site_fract_x
 _atom_site_fract_y
 _atom_site_fract_z
 _atom_site_occupancy
  Pr  Pr0  1  0.190550  0.381099  0.250454  1
  Pr  Pr1  1  0.809450  0.618901  0.749546  1
  Nd  Nd2  1  0.618425  0.810911  0.250202  1
  Nd  Nd3  1  0.381575  0.189089  0.749798  1
  Nd  Nd4  1  0.192488  0.810911  0.250202  1
  Nd  Nd5  1  0.807512  0.189089  0.749798  1
  Al  Al6  1  0.333696  0.667394  0.020913  1
  Al  Al7  1  0.666304  0.332606  0.979087  1
  Al  Al8  1  0.665242  0.330482  0.520451  1
  Al  Al9  1  0.334758  0.669518  0.479549  1
  Al  Al10  1  0.162899  0.325796  0.575003  1
  Al  Al11  1  0.837101  0.674204  0.424997  1
  Al  Al12  1  0.672958  0.838046  0.574723  1
  Al  Al13  1  0.837293  0.674585  0.075202  1
  Al  Al14  1  0.327042  0.161954  0.425277  1
  Al  Al15  1  0.162707  0.325415  0.924798  1
  Al  Al16  1  0.165088  0.838046  0.574723  1
  Al  Al17  1  0.326647  0.163769  0.075167  1
  Al  Al18  1  0.834912  0.161954  0.425277  1
  Al  Al19  1  0.673353  0.836231  0.924833  1
  Al  Al20  1  0.837123  0.163769  0.075167  1
  Al  Al21  1  0.162877  0.836231  0.924833  1
  Al  Al22  1  0.563343  0.126685  0.251012  1
  Al  Al23  1  0.436657  0.873315  0.748988  1
  Al  Al24  1  0.873735  0.437870  0.249608  1
  Al  Al25  1  0.126265  0.562130  0.750392  1
  Al  Al26  1  0.564135  0.437870  0.249608  1
  Al  Al27  1  0.435865  0.562130  0.750392  1
  Al  Al28  1  0.000650  0.001301  0.250103  1
  Al  Al29  1  0.999350  0.998699  0.749897  1
  Ru  Ru30  1  0.500000  0.000000  0.500000  1
  Ru  Ru31  1  0.000000  0.000000  0.000000  1
  Ru  Ru32  1  0.000000  0.000000  0.500000  1
  Rh  Rh33  1  0.500000  0.000000  0.000000  1
  Rh  Rh34  1  0.000000  0.500000  0.000000  1
  Rh  Rh35  1  0.500000  0.500000  0.000000  1
  Rh  Rh36  1  0.000000  0.500000  0.500000  1
  Rh  Rh37  1  0.500000  0.500000  0.500000  1
