# generated using pymatgen
data_GaBiTeO6
_symmetry_space_group_name_H-M   'P 1'
_cell_length_a   5.23286001
_cell_length_b   9.06454604
_cell_length_c   10.07457300
_cell_angle_alpha   89.99834669
_cell_angle_beta   90.00225806
_cell_angle_gamma   90.00182491
_symmetry_Int_Tables_number   1
_chemical_formula_structural   GaBiTeO6
_chemical_formula_sum   'Ga4 Bi4 Te4 O24'
_cell_volume   477.87226298
_cell_formula_units_Z   4
loop_
 _symmetry_equiv_pos_site_id
 _symmetry_equiv_pos_as_xyz
  1  'x, y, z'
loop_
 _atom_site_type_symbol
 _atom_site_label
 _atom_site_symmetry_multiplicity
 _atom_site_fract_x
 _atom_site_fract_y
 _atom_site_fract_z
 _atom_site_occupancy
  Ga  Ga0  1  0.500031  0.833345  0.749998  1
  Ga  Ga1  1  0.499969  0.166655  0.250002  1
  Ga  Ga2  1  0.000031  0.333345  0.749998  1
  Ga  Ga3  1  0.999969  0.666655  0.250002  1
  Bi  Bi4  1  0.000000  0.000000  0.500000  1
  Bi  Bi5  1  0.500000  0.500000  0.500000  1
  Bi  Bi6  1  0.000000  0.000000  0.000000  1
  Bi  Bi7  1  0.500000  0.500000  0.000000  1
  Te  Te8  1  0.500053  0.166693  0.750001  1
  Te  Te9  1  0.000053  0.666693  0.750001  1
  Te  Te10  1  0.999947  0.333307  0.249999  1
  Te  Te11  1  0.499947  0.833307  0.249999  1
  O  O12  1  0.630204  0.003592  0.641760  1
  O  O13  1  0.130204  0.503592  0.641760  1
  O  O14  1  0.679654  0.313309  0.641761  1
  O  O15  1  0.179654  0.813309  0.641761  1
  O  O16  1  0.190264  0.183133  0.641759  1
  O  O17  1  0.690264  0.683133  0.641759  1
  O  O18  1  0.179577  0.186698  0.141759  1
  O  O19  1  0.679577  0.686698  0.141759  1
  O  O20  1  0.130140  0.496420  0.141756  1
  O  O21  1  0.630140  0.996420  0.141756  1
  O  O22  1  0.690198  0.316868  0.141766  1
  O  O23  1  0.190198  0.816868  0.141766  1
  O  O24  1  0.869796  0.496408  0.358240  1
  O  O25  1  0.369796  0.996408  0.358240  1
  O  O26  1  0.820346  0.186691  0.358239  1
  O  O27  1  0.320346  0.686691  0.358239  1
  O  O28  1  0.309736  0.316867  0.358241  1
  O  O29  1  0.809736  0.816867  0.358241  1
  O  O30  1  0.320423  0.313302  0.858241  1
  O  O31  1  0.820423  0.813302  0.858241  1
  O  O32  1  0.369860  0.003580  0.858244  1
  O  O33  1  0.869860  0.503580  0.858244  1
  O  O34  1  0.809802  0.183132  0.858234  1
  O  O35  1  0.309802  0.683132  0.858234  1
