# generated using pymatgen
data_Li4Tm8Sc8Si15Sn
_symmetry_space_group_name_H-M   'P 1'
_cell_length_a   6.85715111
_cell_length_b   7.39894022
_cell_length_c   14.04052968
_cell_angle_alpha   90.09841061
_cell_angle_beta   89.71999990
_cell_angle_gamma   90.04084062
_symmetry_Int_Tables_number   1
_chemical_formula_structural   Li4Tm8Sc8Si15Sn
_chemical_formula_sum   'Li4 Tm8 Sc8 Si15 Sn1'
_cell_volume   712.34568246
_cell_formula_units_Z   1
loop_
 _symmetry_equiv_pos_site_id
 _symmetry_equiv_pos_as_xyz
  1  'x, y, z'
loop_
 _atom_site_type_symbol
 _atom_site_label
 _atom_site_symmetry_multiplicity
 _atom_site_fract_x
 _atom_site_fract_y
 _atom_site_fract_z
 _atom_site_occupancy
  Li  Li0  1  0.159810  0.508178  0.753498  1
  Li  Li1  1  0.838900  0.491108  0.248639  1
  Li  Li2  1  0.338764  0.009916  0.247725  1
  Li  Li3  1  0.663731  0.988863  0.755518  1
  Tm  Tm4  1  0.012213  0.184004  0.097194  1
  Tm  Tm5  1  0.987624  0.816480  0.903637  1
  Tm  Tm6  1  0.487269  0.682889  0.903013  1
  Tm  Tm7  1  0.986399  0.825321  0.599013  1
  Tm  Tm8  1  0.511206  0.316920  0.097389  1
  Tm  Tm9  1  0.008752  0.178258  0.398023  1
  Tm  Tm10  1  0.514253  0.314709  0.397706  1
  Tm  Tm11  1  0.501170  0.694323  0.601689  1
  Sc  Sc12  1  0.342418  0.163889  0.632651  1
  Sc  Sc13  1  0.666190  0.821326  0.370659  1
  Sc  Sc14  1  0.165518  0.684859  0.368677  1
  Sc  Sc15  1  0.668189  0.820224  0.125604  1
  Sc  Sc16  1  0.821174  0.318153  0.628124  1
  Sc  Sc17  1  0.330044  0.178894  0.874318  1
  Sc  Sc18  1  0.829563  0.320977  0.873824  1
  Sc  Sc19  1  0.169772  0.678564  0.125757  1
  Si  Si20  1  0.031103  0.101090  0.751372  1
  Si  Si21  1  0.968143  0.901145  0.247069  1
  Si  Si22  1  0.468775  0.599498  0.248247  1
  Si  Si23  1  0.527825  0.403355  0.752108  1
  Si  Si24  1  0.280022  0.873837  0.752713  1
  Si  Si25  1  0.716493  0.122304  0.247272  1
  Si  Si26  1  0.215922  0.378171  0.248927  1
  Si  Si27  1  0.785839  0.621605  0.751632  1
  Si  Si28  1  0.828489  0.539528  0.463250  1
  Si  Si29  1  0.338346  0.963082  0.464898  1
  Si  Si30  1  0.839597  0.535298  0.035519  1
  Si  Si31  1  0.662340  0.038786  0.530928  1
  Si  Si32  1  0.159579  0.463744  0.964690  1
  Si  Si33  1  0.660028  0.035834  0.964600  1
  Si  Si34  1  0.339134  0.964247  0.035316  1
  Sn  Sn35  1  0.175406  0.460622  0.538801  1
