# generated using pymatgen
data_YbDy2Al3Si2Pt
_symmetry_space_group_name_H-M   'P 1'
_cell_length_a   6.94586400
_cell_length_b   6.90786558
_cell_length_c   4.23552400
_cell_angle_alpha   90.00000000
_cell_angle_beta   90.00000000
_cell_angle_gamma   120.18214026
_symmetry_Int_Tables_number   1
_chemical_formula_structural   YbDy2Al3Si2Pt
_chemical_formula_sum   'Yb1 Dy2 Al3 Si2 Pt1'
_cell_volume   175.67417130
_cell_formula_units_Z   1
loop_
 _symmetry_equiv_pos_site_id
 _symmetry_equiv_pos_as_xyz
  1  'x, y, z'
loop_
 _atom_site_type_symbol
 _atom_site_label
 _atom_site_symmetry_multiplicity
 _atom_site_fract_x
 _atom_site_fract_y
 _atom_site_fract_z
 _atom_site_occupancy
  Yb  Yb0  1  0.582085  0.000000  0.000000  1
  Dy  Dy1  1  0.418333  0.419385  0.000000  1
  Dy  Dy2  1  0.998946  0.580614  0.000000  1
  Al  Al3  1  0.236466  0.000000  0.499999  1
  Al  Al4  1  0.004529  0.238856  0.499999  1
  Al  Al5  1  0.765674  0.761144  0.499999  1
  Si  Si6  1  0.666846  0.340437  0.499999  1
  Si  Si7  1  0.326409  0.659563  0.499999  1
  Pt  Pt8  1  0.000712  0.000000  0.000000  1
