# generated using pymatgen
data_La5Nd5(USe10)2
_symmetry_space_group_name_H-M   'P 1'
_cell_length_a   7.96269146
_cell_length_b   8.52992489
_cell_length_c   12.59226931
_cell_angle_alpha   90.06762173
_cell_angle_beta   90.01508158
_cell_angle_gamma   90.03562717
_symmetry_Int_Tables_number   1
_chemical_formula_structural   La5Nd5(USe10)2
_chemical_formula_sum   'La5 Nd5 U2 Se20'
_cell_volume   855.28074829
_cell_formula_units_Z   1
loop_
 _symmetry_equiv_pos_site_id
 _symmetry_equiv_pos_as_xyz
  1  'x, y, z'
loop_
 _atom_site_type_symbol
 _atom_site_label
 _atom_site_symmetry_multiplicity
 _atom_site_fract_x
 _atom_site_fract_y
 _atom_site_fract_z
 _atom_site_occupancy
  La  La0  1  0.525930  0.502307  0.322261  1
  La  La1  1  0.973477  0.997779  0.823801  1
  La  La2  1  0.480008  0.998281  0.677200  1
  La  La3  1  0.020428  0.501324  0.176671  1
  La  La4  1  0.479472  0.501666  0.677784  1
  Nd  Nd5  1  0.018398  0.996489  0.179217  1
  Nd  Nd6  1  0.525677  0.000492  0.320926  1
  Nd  Nd7  1  0.974274  0.499593  0.821864  1
  Nd  Nd8  1  0.078982  0.750243  0.491197  1
  Nd  Nd9  1  0.421575  0.750702  0.991831  1
  U  U10  1  0.941491  0.249264  0.505645  1
  U  U11  1  0.558495  0.250675  0.005949  1
  Se  Se12  1  0.838405  0.970133  0.596406  1
  Se  Se13  1  0.661616  0.530275  0.096545  1
  Se  Se14  1  0.164079  0.447369  0.403584  1
  Se  Se15  1  0.336690  0.052549  0.903251  1
  Se  Se16  1  0.165178  0.052191  0.402469  1
  Se  Se17  1  0.333357  0.447898  0.904314  1
  Se  Se18  1  0.838270  0.529244  0.596953  1
  Se  Se19  1  0.664248  0.970873  0.097290  1
  Se  Se20  1  0.824914  0.753600  0.311012  1
  Se  Se21  1  0.675969  0.747913  0.811451  1
  Se  Se22  1  0.167039  0.251478  0.681851  1
  Se  Se23  1  0.330967  0.246844  0.181521  1
  Se  Se24  1  0.463455  0.752693  0.497804  1
  Se  Se25  1  0.037570  0.749725  0.999394  1
  Se  Se26  1  0.551610  0.248096  0.499471  1
  Se  Se27  1  0.949039  0.250018  0.000799  1
  Se  Se28  1  0.197727  0.747277  0.719846  1
  Se  Se29  1  0.300484  0.754113  0.219372  1
  Se  Se30  1  0.807797  0.246787  0.290790  1
  Se  Se31  1  0.693379  0.252106  0.791529  1
