# generated using pymatgen
data_Hf6Tc6NiAs5
_symmetry_space_group_name_H-M   'P 1'
_cell_length_a   7.76806814
_cell_length_b   7.77137460
_cell_length_c   7.76806862
_cell_angle_alpha   127.21563510
_cell_angle_beta   124.83578446
_cell_angle_gamma   79.85003394
_symmetry_Int_Tables_number   1
_chemical_formula_structural   Hf6Tc6NiAs5
_chemical_formula_sum   'Hf6 Tc6 Ni1 As5'
_cell_volume   296.07220471
_cell_formula_units_Z   1
loop_
 _symmetry_equiv_pos_site_id
 _symmetry_equiv_pos_as_xyz
  1  'x, y, z'
loop_
 _atom_site_type_symbol
 _atom_site_label
 _atom_site_symmetry_multiplicity
 _atom_site_fract_x
 _atom_site_fract_y
 _atom_site_fract_z
 _atom_site_occupancy
  Hf  Hf0  1  0.437348  0.628934  0.691586  1
  Hf  Hf1  1  0.543779  0.253204  0.209425  1
  Hf  Hf2  1  0.749829  0.850563  0.600735  1
  Hf  Hf3  1  0.250036  0.871840  0.121803  1
  Hf  Hf4  1  0.063298  0.254117  0.690819  1
  Hf  Hf5  1  0.955288  0.663603  0.208314  1
  Tc  Tc6  1  0.512635  0.505450  0.017980  1
  Tc  Tc7  1  0.987469  0.505450  0.492814  1
  Tc  Tc8  1  0.110323  0.253097  0.110914  1
  Tc  Tc9  1  0.859666  0.000663  0.112649  1
  Tc  Tc10  1  0.388014  0.000663  0.640997  1
  Tc  Tc11  1  0.642183  0.253097  0.642774  1
  Ni  Ni12  1  0.250852  0.249617  0.498766  1
  As  As13  1  0.749262  0.255633  0.006370  1
  As  As14  1  0.331298  0.586715  0.251336  1
  As  As15  1  0.665041  0.920121  0.251822  1
  As  As16  1  0.168299  0.920121  0.755079  1
  As  As17  1  0.835379  0.586715  0.755417  1
