# generated using pymatgen
data_Ho3ScGa4Pt
_symmetry_space_group_name_H-M   'P 1'
_cell_length_a   7.06838500
_cell_length_b   7.06903950
_cell_length_c   4.35575700
_cell_angle_alpha   90.00000000
_cell_angle_beta   90.00000000
_cell_angle_gamma   119.99693263
_symmetry_Int_Tables_number   1
_chemical_formula_structural   Ho3ScGa4Pt
_chemical_formula_sum   'Ho3 Sc1 Ga4 Pt1'
_cell_volume   188.48999482
_cell_formula_units_Z   1
loop_
 _symmetry_equiv_pos_site_id
 _symmetry_equiv_pos_as_xyz
  1  'x, y, z'
loop_
 _atom_site_type_symbol
 _atom_site_label
 _atom_site_symmetry_multiplicity
 _atom_site_fract_x
 _atom_site_fract_y
 _atom_site_fract_z
 _atom_site_occupancy
  Ho  Ho0  1  0.593855  0.000000  0.000000  1
  Ho  Ho1  1  0.419351  0.420886  0.000000  1
  Ho  Ho2  1  0.998467  0.579114  0.000000  1
  Sc  Sc3  1  0.222433  0.000000  0.499999  1
  Ga  Ga4  1  0.002643  0.250577  0.499999  1
  Ga  Ga5  1  0.670152  0.331666  0.499999  1
  Ga  Ga6  1  0.338485  0.668334  0.499999  1
  Ga  Ga7  1  0.752066  0.749423  0.499999  1
  Pt  Pt8  1  0.002548  0.000000  0.000000  1
