# generated using pymatgen
data_Li3La4ZnPt4
_symmetry_space_group_name_H-M   'P 1'
_cell_length_a   4.15847600
_cell_length_b   7.33843005
_cell_length_c   8.70985983
_cell_angle_alpha   90.07967851
_cell_angle_beta   90.00000000
_cell_angle_gamma   90.00000000
_symmetry_Int_Tables_number   1
_chemical_formula_structural   Li3La4ZnPt4
_chemical_formula_sum   'Li3 La4 Zn1 Pt4'
_cell_volume   265.79579387
_cell_formula_units_Z   1
loop_
 _symmetry_equiv_pos_site_id
 _symmetry_equiv_pos_as_xyz
  1  'x, y, z'
loop_
 _atom_site_type_symbol
 _atom_site_label
 _atom_site_symmetry_multiplicity
 _atom_site_fract_x
 _atom_site_fract_y
 _atom_site_fract_z
 _atom_site_occupancy
  Li  Li0  1  0.250000  0.623496  0.556201  1
  Li  Li1  1  0.750000  0.376126  0.443536  1
  Li  Li2  1  0.750000  0.879715  0.053309  1
  La  La3  1  0.250000  0.549573  0.186586  1
  La  La4  1  0.750000  0.447531  0.815448  1
  La  La5  1  0.750000  0.953518  0.688147  1
  La  La6  1  0.250000  0.049754  0.311807  1
  Zn  Zn7  1  0.250000  0.122174  0.943404  1
  Pt  Pt8  1  0.250000  0.748496  0.879797  1
  Pt  Pt9  1  0.750000  0.249914  0.118328  1
  Pt  Pt10  1  0.750000  0.755002  0.378416  1
  Pt  Pt11  1  0.250000  0.244702  0.625019  1
