# generated using pymatgen
data_Ce6Al24Ir3Ru5
_symmetry_space_group_name_H-M   'P 1'
_cell_length_a   8.88504500
_cell_length_b   8.89326660
_cell_length_c   9.52498185
_cell_angle_alpha   89.85711176
_cell_angle_beta   90.00000000
_cell_angle_gamma   119.96941961
_symmetry_Int_Tables_number   1
_chemical_formula_structural   Ce6Al24Ir3Ru5
_chemical_formula_sum   'Ce6 Al24 Ir3 Ru5'
_cell_volume   652.00012180
_cell_formula_units_Z   1
loop_
 _symmetry_equiv_pos_site_id
 _symmetry_equiv_pos_as_xyz
  1  'x, y, z'
loop_
 _atom_site_type_symbol
 _atom_site_label
 _atom_site_symmetry_multiplicity
 _atom_site_fract_x
 _atom_site_fract_y
 _atom_site_fract_z
 _atom_site_occupancy
  Ce  Ce0  1  0.806353  0.612706  0.748617  1
  Ce  Ce1  1  0.193659  0.806737  0.250361  1
  Ce  Ce2  1  0.613079  0.806737  0.250361  1
  Ce  Ce3  1  0.386921  0.193263  0.749639  1
  Ce  Ce4  1  0.806341  0.193263  0.749639  1
  Ce  Ce5  1  0.193647  0.387294  0.251383  1
  Al  Al6  1  0.332664  0.665329  0.481020  1
  Al  Al7  1  0.665893  0.331786  0.979419  1
  Al  Al8  1  0.667336  0.334671  0.518980  1
  Al  Al9  1  0.334107  0.668214  0.020581  1
  Al  Al10  1  0.162225  0.324449  0.578174  1
  Al  Al11  1  0.675394  0.836685  0.577032  1
  Al  Al12  1  0.161291  0.836685  0.577032  1
  Al  Al13  1  0.836745  0.161000  0.077303  1
  Al  Al14  1  0.838709  0.163315  0.422968  1
  Al  Al15  1  0.837865  0.675730  0.076468  1
  Al  Al16  1  0.324255  0.161000  0.077303  1
  Al  Al17  1  0.675745  0.839000  0.922697  1
  Al  Al18  1  0.162135  0.324270  0.923532  1
  Al  Al19  1  0.837775  0.675551  0.421826  1
  Al  Al20  1  0.000023  0.000045  0.250026  1
  Al  Al21  1  0.999977  0.999955  0.749974  1
  Al  Al22  1  0.562518  0.125036  0.248299  1
  Al  Al23  1  0.437406  0.562481  0.748910  1
  Al  Al24  1  0.125075  0.562481  0.748910  1
  Al  Al25  1  0.874925  0.437519  0.251090  1
  Al  Al26  1  0.562594  0.437519  0.251090  1
  Al  Al27  1  0.437482  0.874964  0.751701  1
  Al  Al28  1  0.163255  0.839000  0.922697  1
  Al  Al29  1  0.324606  0.163315  0.422968  1
  Ir  Ir30  1  0.500000  0.000000  0.500000  1
  Ir  Ir31  1  0.500000  0.500000  0.000000  1
  Ir  Ir32  1  0.000000  0.500000  0.000000  1
  Ru  Ru33  1  0.000000  0.000000  0.500000  1
  Ru  Ru34  1  0.000000  0.000000  0.000000  1
  Ru  Ru35  1  0.000000  0.500000  0.500000  1
  Ru  Ru36  1  0.500000  0.500000  0.500000  1
  Ru  Ru37  1  0.500000  0.000000  0.000000  1
