# generated using pymatgen
data_P4PtSeO14
_symmetry_space_group_name_H-M   'P 1'
_cell_length_a   4.85710807
_cell_length_b   6.98687596
_cell_length_c   8.16602489
_cell_angle_alpha   91.41536654
_cell_angle_beta   92.49862125
_cell_angle_gamma   106.32665080
_symmetry_Int_Tables_number   1
_chemical_formula_structural   P4PtSeO14
_chemical_formula_sum   'P4 Pt1 Se1 O14'
_cell_volume   265.49696687
_cell_formula_units_Z   1
loop_
 _symmetry_equiv_pos_site_id
 _symmetry_equiv_pos_as_xyz
  1  'x, y, z'
loop_
 _atom_site_type_symbol
 _atom_site_label
 _atom_site_symmetry_multiplicity
 _atom_site_fract_x
 _atom_site_fract_y
 _atom_site_fract_z
 _atom_site_occupancy
  P  P0  1  0.528637  0.137804  0.768128  1
  P  P1  1  0.114297  0.748179  0.694862  1
  P  P2  1  0.885703  0.251821  0.305138  1
  P  P3  1  0.471363  0.862196  0.231872  1
  Pt  Pt4  1  0.000000  0.000000  0.000000  1
  Se  Se5  1  0.500000  0.500000  0.500000  1
  O  O6  1  0.378687  0.171400  0.924139  1
  O  O7  1  0.033242  0.753344  0.875516  1
  O  O8  1  0.803334  0.072640  0.799282  1
  O  O9  1  0.291225  0.598091  0.682784  1
  O  O10  1  0.617035  0.323360  0.665009  1
  O  O11  1  0.311252  0.967298  0.651374  1
  O  O12  1  0.865369  0.715897  0.564870  1
  O  O13  1  0.134631  0.284103  0.435130  1
  O  O14  1  0.688748  0.032702  0.348626  1
  O  O15  1  0.382965  0.676640  0.334991  1
  O  O16  1  0.708775  0.401909  0.317216  1
  O  O17  1  0.196666  0.927360  0.200718  1
  O  O18  1  0.966758  0.246656  0.124484  1
  O  O19  1  0.621313  0.828600  0.075861  1
