# generated using pymatgen
data_Lu2P4Se13
_symmetry_space_group_name_H-M   'P 1'
_cell_length_a   10.48303826
_cell_length_b   10.82446755
_cell_length_c   13.26828627
_cell_angle_alpha   71.48042376
_cell_angle_beta   72.18878910
_cell_angle_gamma   69.48983462
_symmetry_Int_Tables_number   1
_chemical_formula_structural   Lu2P4Se13
_chemical_formula_sum   'Lu4 P8 Se26'
_cell_volume   1304.63998509
_cell_formula_units_Z   2
loop_
 _symmetry_equiv_pos_site_id
 _symmetry_equiv_pos_as_xyz
  1  'x, y, z'
loop_
 _atom_site_type_symbol
 _atom_site_label
 _atom_site_symmetry_multiplicity
 _atom_site_fract_x
 _atom_site_fract_y
 _atom_site_fract_z
 _atom_site_occupancy
  Lu  Lu0  1  0.600919  0.012078  0.609381  1
  Lu  Lu1  1  0.102500  0.509768  0.109050  1
  Lu  Lu2  1  0.399081  0.987922  0.390619  1
  Lu  Lu3  1  0.897500  0.490232  0.890950  1
  P  P4  1  0.244228  0.569634  0.273100  1
  P  P5  1  0.497414  0.257141  0.389925  1
  P  P6  1  0.755772  0.430366  0.726900  1
  P  P7  1  0.227301  0.935003  0.246429  1
  P  P8  1  0.132009  0.232809  0.024413  1
  P  P9  1  0.867991  0.767191  0.975587  1
  P  P10  1  0.502586  0.742859  0.610075  1
  P  P11  1  0.772699  0.064997  0.753571  1
  Se  Se12  1  0.145419  0.005615  0.088706  1
  Se  Se13  1  0.854581  0.994385  0.911294  1
  Se  Se14  1  0.878867  0.237029  0.661929  1
  Se  Se15  1  0.928044  0.353360  0.110907  1
  Se  Se16  1  0.519346  0.188601  0.245800  1
  Se  Se17  1  0.307971  0.784197  0.560357  1
  Se  Se18  1  0.454249  0.867994  0.216831  1
  Se  Se19  1  0.872659  0.924506  0.646635  1
  Se  Se20  1  0.480654  0.811399  0.754200  1
  Se  Se21  1  0.348875  0.163391  0.531657  1
  Se  Se22  1  0.091994  0.453029  0.333845  1
  Se  Se23  1  0.419625  0.488892  0.368118  1
  Se  Se24  1  0.121133  0.762971  0.338071  1
  Se  Se25  1  0.071956  0.646640  0.889093  1
  Se  Se26  1  0.545751  0.132006  0.783169  1
  Se  Se27  1  0.651125  0.836609  0.468343  1
  Se  Se28  1  0.677385  0.390752  0.902759  1
  Se  Se29  1  0.692029  0.215803  0.439643  1
  Se  Se30  1  0.695485  0.713984  0.956791  1
  Se  Se31  1  0.120071  0.260468  0.856054  1
  Se  Se32  1  0.908006  0.546971  0.666155  1
  Se  Se33  1  0.322615  0.609248  0.097241  1
  Se  Se34  1  0.879929  0.739532  0.143946  1
  Se  Se35  1  0.304515  0.286016  0.043209  1
  Se  Se36  1  0.580375  0.511108  0.631882  1
  Se  Se37  1  0.127341  0.075494  0.353365  1
