# generated using pymatgen
data_Hf7(ScSn2)5
_symmetry_space_group_name_H-M   'P 1'
_cell_length_a   10.98417844
_cell_length_b   11.00939655
_cell_length_c   11.00939627
_cell_angle_alpha   148.97693259
_cell_angle_beta   132.33390353
_cell_angle_gamma   57.98904061
_symmetry_Int_Tables_number   1
_chemical_formula_structural   Hf7(ScSn2)5
_chemical_formula_sum   'Hf7 Sc5 Sn10'
_cell_volume   503.35044381
_cell_formula_units_Z   1
loop_
 _symmetry_equiv_pos_site_id
 _symmetry_equiv_pos_as_xyz
  1  'x, y, z'
loop_
 _atom_site_type_symbol
 _atom_site_label
 _atom_site_symmetry_multiplicity
 _atom_site_fract_x
 _atom_site_fract_y
 _atom_site_fract_z
 _atom_site_occupancy
  Hf  Hf0  1  0.309754  0.559950  0.249652  1
  Hf  Hf1  1  0.688848  0.440653  0.749354  1
  Hf  Hf2  1  0.688848  0.939494  0.248196  1
  Hf  Hf3  1  0.309754  0.060102  0.749804  1
  Hf  Hf4  1  0.675693  0.435441  0.240252  1
  Hf  Hf5  1  0.324048  0.564261  0.759787  1
  Hf  Hf6  1  0.197403  0.935694  0.261710  1
  Sc  Sc7  1  0.803990  0.064312  0.739678  1
  Sc  Sc8  1  0.256649  0.142878  0.113770  1
  Sc  Sc9  1  0.746058  0.857834  0.888223  1
  Sc  Sc10  1  0.029453  0.642388  0.387065  1
  Sc  Sc11  1  0.970325  0.357644  0.612681  1
  Sn  Sn12  1  0.592570  0.289669  0.302901  1
  Sn  Sn13  1  0.406459  0.710228  0.696231  1
  Sn  Sn14  1  0.986509  0.790244  0.196265  1
  Sn  Sn15  1  0.012296  0.209707  0.802588  1
  Sn  Sn16  1  0.999900  0.249364  0.250332  1
  Sn  Sn17  1  0.999900  0.749569  0.750537  1
  Sn  Sn18  1  0.466291  0.068204  0.398086  1
  Sn  Sn19  1  0.535180  0.931991  0.603190  1
  Sn  Sn20  1  0.669931  0.568191  0.101740  1
  Sn  Sn21  1  0.330141  0.432183  0.897958  1
