# generated using pymatgen
data_DyTmB24
_symmetry_space_group_name_H-M   'P 1'
_cell_length_a   5.28914689
_cell_length_b   5.28914809
_cell_length_c   9.16056501
_cell_angle_alpha   73.22039403
_cell_angle_beta   106.77960924
_cell_angle_gamma   120.00000266
_symmetry_Int_Tables_number   1
_chemical_formula_structural   DyTmB24
_chemical_formula_sum   'Dy1 Tm1 B24'
_cell_volume   209.24013072
_cell_formula_units_Z   1
loop_
 _symmetry_equiv_pos_site_id
 _symmetry_equiv_pos_as_xyz
  1  'x, y, z'
loop_
 _atom_site_type_symbol
 _atom_site_label
 _atom_site_symmetry_multiplicity
 _atom_site_fract_x
 _atom_site_fract_y
 _atom_site_fract_z
 _atom_site_occupancy
  Dy  Dy0  1  0.249952  0.750048  0.749854  1
  Tm  Tm1  1  0.749977  0.250023  0.249934  1
  B  B2  1  0.999979  0.661684  0.000474  1
  B  B3  1  0.662179  0.000021  0.000474  1
  B  B4  1  0.338316  0.337821  0.000474  1
  B  B5  1  0.338316  0.000021  0.000474  1
  B  B6  1  0.662179  0.661684  0.000474  1
  B  B7  1  0.999979  0.337821  0.000474  1
  B  B8  1  0.668917  0.331083  0.668624  1
  B  B9  1  0.330791  0.331083  0.668624  1
  B  B10  1  0.668917  0.669209  0.668624  1
  B  B11  1  0.331039  0.668961  0.330988  1
  B  B12  1  0.668910  0.668961  0.330988  1
  B  B13  1  0.331039  0.331090  0.330988  1
  B  B14  1  0.168967  0.831033  0.169057  1
  B  B15  1  0.831121  0.831033  0.169057  1
  B  B16  1  0.168967  0.168879  0.169057  1
  B  B17  1  0.831078  0.168922  0.831390  1
  B  B18  1  0.169232  0.168922  0.831390  1
  B  B19  1  0.831078  0.830768  0.831390  1
  B  B20  1  0.500054  0.162268  0.499532  1
  B  B21  1  0.161745  0.499946  0.499532  1
  B  B22  1  0.837732  0.838255  0.499532  1
  B  B23  1  0.837732  0.499946  0.499532  1
  B  B24  1  0.161745  0.162268  0.499532  1
  B  B25  1  0.500054  0.838255  0.499532  1
