# generated using pymatgen
data_Sr6TiFeRuO12
_symmetry_space_group_name_H-M   'P 1'
_cell_length_a   8.84005483
_cell_length_b   8.84005389
_cell_length_c   6.92607408
_cell_angle_alpha   67.50284768
_cell_angle_beta   67.50284268
_cell_angle_gamma   36.84795846
_symmetry_Int_Tables_number   1
_chemical_formula_structural   Sr6TiFeRuO12
_chemical_formula_sum   'Sr6 Ti1 Fe1 Ru1 O12'
_cell_volume   297.01453072
_cell_formula_units_Z   1
loop_
 _symmetry_equiv_pos_site_id
 _symmetry_equiv_pos_as_xyz
  1  'x, y, z'
loop_
 _atom_site_type_symbol
 _atom_site_label
 _atom_site_symmetry_multiplicity
 _atom_site_fract_x
 _atom_site_fract_y
 _atom_site_fract_z
 _atom_site_occupancy
  Sr  Sr0  1  0.878624  0.878624  0.711702  1
  Sr  Sr1  1  0.216199  0.216199  0.708888  1
  Sr  Sr2  1  0.549550  0.549550  0.709075  1
  Sr  Sr3  1  0.453295  0.453295  0.289942  1
  Sr  Sr4  1  0.781874  0.781874  0.292492  1
  Sr  Sr5  1  0.119250  0.119250  0.287995  1
  Ti  Ti6  1  0.329899  0.329899  0.000514  1
  Fe  Fe7  1  0.668189  0.668189  0.999813  1
  Ru  Ru8  1  0.999548  0.999548  0.999923  1
  O  O9  1  0.946642  0.946642  0.319028  1
  O  O10  1  0.281697  0.281697  0.316409  1
  O  O11  1  0.612381  0.612381  0.323368  1
  O  O12  1  0.387218  0.387218  0.682739  1
  O  O13  1  0.720868  0.720868  0.676884  1
  O  O14  1  0.052359  0.052359  0.681204  1
  O  O15  1  0.497723  0.006385  0.999920  1
  O  O16  1  0.836431  0.327508  0.000126  1
  O  O17  1  0.166528  0.667833  0.999967  1
  O  O18  1  0.006385  0.497723  0.999920  1
  O  O19  1  0.327508  0.836431  0.000126  1
  O  O20  1  0.667833  0.166528  0.999967  1
