# generated using pymatgen
data_RbBa(PPt)2
_symmetry_space_group_name_H-M   'P 1'
_cell_length_a   6.60033993
_cell_length_b   6.61562500
_cell_length_c   6.59464398
_cell_angle_alpha   90.00000000
_cell_angle_beta   89.60118178
_cell_angle_gamma   90.00000000
_symmetry_Int_Tables_number   1
_chemical_formula_structural   RbBa(PPt)2
_chemical_formula_sum   'Rb2 Ba2 P4 Pt4'
_cell_volume   287.95061905
_cell_formula_units_Z   2
loop_
 _symmetry_equiv_pos_site_id
 _symmetry_equiv_pos_as_xyz
  1  'x, y, z'
loop_
 _atom_site_type_symbol
 _atom_site_label
 _atom_site_symmetry_multiplicity
 _atom_site_fract_x
 _atom_site_fract_y
 _atom_site_fract_z
 _atom_site_occupancy
  Rb  Rb0  1  0.624116  0.372161  0.868388  1
  Rb  Rb1  1  0.375884  0.872161  0.631612  1
  Ba  Ba2  1  0.136489  0.131240  0.125961  1
  Ba  Ba3  1  0.863511  0.631240  0.374039  1
  P  P4  1  0.592712  0.905325  0.095868  1
  P  P5  1  0.092733  0.591825  0.908704  1
  P  P6  1  0.907267  0.091825  0.591296  1
  P  P7  1  0.407288  0.405325  0.404132  1
  Pt  Pt8  1  0.146999  0.349998  0.647519  1
  Pt  Pt9  1  0.653130  0.149450  0.348641  1
  Pt  Pt10  1  0.853001  0.849998  0.852481  1
  Pt  Pt11  1  0.346870  0.649450  0.151359  1
