# generated using pymatgen
data_Hf8CoTc3Os4
_symmetry_space_group_name_H-M   'P 1'
_cell_length_a   6.49394300
_cell_length_b   4.59059300
_cell_length_c   9.19965100
_cell_angle_alpha   90.00000000
_cell_angle_beta   89.99973687
_cell_angle_gamma   90.00000000
_symmetry_Int_Tables_number   1
_chemical_formula_structural   Hf8CoTc3Os4
_chemical_formula_sum   'Hf8 Co1 Tc3 Os4'
_cell_volume   274.25124930
_cell_formula_units_Z   1
loop_
 _symmetry_equiv_pos_site_id
 _symmetry_equiv_pos_as_xyz
  1  'x, y, z'
loop_
 _atom_site_type_symbol
 _atom_site_label
 _atom_site_symmetry_multiplicity
 _atom_site_fract_x
 _atom_site_fract_y
 _atom_site_fract_z
 _atom_site_occupancy
  Hf  Hf0  1  0.000672  0.750001  0.125011  1
  Hf  Hf1  1  0.499426  0.750001  0.125014  1
  Hf  Hf2  1  0.000721  0.250001  0.374635  1
  Hf  Hf3  1  0.499344  0.250001  0.374642  1
  Hf  Hf4  1  0.499410  0.750001  0.625009  1
  Hf  Hf5  1  0.000488  0.750001  0.625012  1
  Hf  Hf6  1  0.499255  0.250001  0.875336  1
  Hf  Hf7  1  0.000637  0.250001  0.875343  1
  Co  Co8  1  0.750044  0.250001  0.124996  1
  Tc  Tc9  1  0.250027  0.750001  0.373713  1
  Tc  Tc10  1  0.749954  0.250001  0.624982  1
  Tc  Tc11  1  0.249953  0.750001  0.876305  1
  Os  Os12  1  0.250036  0.250001  0.125007  1
  Os  Os13  1  0.750024  0.750001  0.372379  1
  Os  Os14  1  0.249952  0.250001  0.625007  1
  Os  Os15  1  0.749957  0.750001  0.877606  1
