# generated using pymatgen
data_Sm2CoH8Rh
_symmetry_space_group_name_H-M   'P 1'
_cell_length_a   6.26635450
_cell_length_b   6.26635470
_cell_length_c   4.95353500
_cell_angle_alpha   90.00000000
_cell_angle_beta   90.00000000
_cell_angle_gamma   145.45398348
_symmetry_Int_Tables_number   1
_chemical_formula_structural   Sm2CoH8Rh
_chemical_formula_sum   'Sm2 Co1 H8 Rh1'
_cell_volume   110.30120754
_cell_formula_units_Z   1
loop_
 _symmetry_equiv_pos_site_id
 _symmetry_equiv_pos_as_xyz
  1  'x, y, z'
loop_
 _atom_site_type_symbol
 _atom_site_label
 _atom_site_symmetry_multiplicity
 _atom_site_fract_x
 _atom_site_fract_y
 _atom_site_fract_z
 _atom_site_occupancy
  Sm  Sm0  1  0.867298  0.132702  0.750000  1
  Sm  Sm1  1  0.135778  0.864222  0.250000  1
  Co  Co2  1  0.400016  0.599984  0.250000  1
  H  H3  1  0.090043  0.909957  0.750000  1
  H  H4  1  0.910644  0.089356  0.250000  1
  H  H5  1  0.695852  0.304148  0.494084  1
  H  H6  1  0.308865  0.691135  0.494678  1
  H  H7  1  0.695852  0.304148  0.005916  1
  H  H8  1  0.308865  0.691135  0.005322  1
  H  H9  1  0.496028  0.503972  0.010277  1
  H  H10  1  0.496028  0.503972  0.489723  1
  Rh  Rh11  1  0.594732  0.405268  0.750000  1
