# generated using pymatgen
data_LiHo8Co2Hg
_symmetry_space_group_name_H-M   'P 1'
_cell_length_a   9.42175736
_cell_length_b   9.39757904
_cell_length_c   9.42175733
_cell_angle_alpha   60.08485079
_cell_angle_beta   60.21396942
_cell_angle_gamma   60.08485442
_symmetry_Int_Tables_number   1
_chemical_formula_structural   LiHo8Co2Hg
_chemical_formula_sum   'Li2 Ho16 Co4 Hg2'
_cell_volume   591.58861044
_cell_formula_units_Z   2
loop_
 _symmetry_equiv_pos_site_id
 _symmetry_equiv_pos_as_xyz
  1  'x, y, z'
loop_
 _atom_site_type_symbol
 _atom_site_label
 _atom_site_symmetry_multiplicity
 _atom_site_fract_x
 _atom_site_fract_y
 _atom_site_fract_z
 _atom_site_occupancy
  Li  Li0  1  0.575389  0.569254  0.286104  1
  Li  Li1  1  0.286104  0.569254  0.575389  1
  Ho  Ho2  1  0.937031  0.938608  0.562474  1
  Ho  Ho3  1  0.810668  0.188028  0.186823  1
  Ho  Ho4  1  0.937031  0.561887  0.562474  1
  Ho  Ho5  1  0.940176  0.559824  0.940176  1
  Ho  Ho6  1  0.810668  0.814482  0.186823  1
  Ho  Ho7  1  0.344458  0.342093  0.344458  1
  Ho  Ho8  1  0.562474  0.938608  0.937031  1
  Ho  Ho9  1  0.563636  0.936364  0.563636  1
  Ho  Ho10  1  0.186823  0.814482  0.810668  1
  Ho  Ho11  1  0.186823  0.188028  0.810668  1
  Ho  Ho12  1  0.349913  0.345723  0.958642  1
  Ho  Ho13  1  0.344458  0.968990  0.344458  1
  Ho  Ho14  1  0.809115  0.190885  0.809115  1
  Ho  Ho15  1  0.562474  0.561887  0.937031  1
  Ho  Ho16  1  0.182294  0.817706  0.182294  1
  Ho  Ho17  1  0.958642  0.345723  0.349913  1
  Co  Co18  1  0.576548  0.142587  0.138280  1
  Co  Co19  1  0.139067  0.144222  0.139067  1
  Co  Co20  1  0.139067  0.577646  0.139067  1
  Co  Co21  1  0.138280  0.142587  0.576548  1
  Hg  Hg22  1  0.579432  0.589556  0.579432  1
  Hg  Hg23  1  0.579432  0.251581  0.579432  1
