# generated using pymatgen
data_Ac2AlZn7
_symmetry_space_group_name_H-M   'P 1'
_cell_length_a   6.21019000
_cell_length_b   6.21018945
_cell_length_c   6.19674700
_cell_angle_alpha   90.00000000
_cell_angle_beta   90.00000000
_cell_angle_gamma   117.61031604
_symmetry_Int_Tables_number   1
_chemical_formula_structural   Ac2AlZn7
_chemical_formula_sum   'Ac2 Al1 Zn7'
_cell_volume   211.77081776
_cell_formula_units_Z   1
loop_
 _symmetry_equiv_pos_site_id
 _symmetry_equiv_pos_as_xyz
  1  'x, y, z'
loop_
 _atom_site_type_symbol
 _atom_site_label
 _atom_site_symmetry_multiplicity
 _atom_site_fract_x
 _atom_site_fract_y
 _atom_site_fract_z
 _atom_site_occupancy
  Ac  Ac0  1  0.266599  0.733401  0.750000  1
  Ac  Ac1  1  0.731865  0.268135  0.250000  1
  Al  Al2  1  0.854505  0.145495  0.750000  1
  Zn  Zn3  1  0.147810  0.852190  0.250000  1
  Zn  Zn4  1  0.607982  0.392018  0.750000  1
  Zn  Zn5  1  0.389454  0.610546  0.250000  1
  Zn  Zn6  1  0.783193  0.782300  0.003313  1
  Zn  Zn7  1  0.783193  0.782300  0.496687  1
  Zn  Zn8  1  0.217700  0.216807  0.003313  1
  Zn  Zn9  1  0.217700  0.216807  0.496687  1
