# generated using pymatgen
data_Cs8Na4NdIn3Bi8
_symmetry_space_group_name_H-M   'P 1'
_cell_length_a   11.83099207
_cell_length_b   11.82203172
_cell_length_c   7.60807524
_cell_angle_alpha   89.91803964
_cell_angle_beta   90.11597519
_cell_angle_gamma   100.97663926
_symmetry_Int_Tables_number   1
_chemical_formula_structural   Cs8Na4NdIn3Bi8
_chemical_formula_sum   'Cs8 Na4 Nd1 In3 Bi8'
_cell_volume   1044.64301526
_cell_formula_units_Z   1
loop_
 _symmetry_equiv_pos_site_id
 _symmetry_equiv_pos_as_xyz
  1  'x, y, z'
loop_
 _atom_site_type_symbol
 _atom_site_label
 _atom_site_symmetry_multiplicity
 _atom_site_fract_x
 _atom_site_fract_y
 _atom_site_fract_z
 _atom_site_occupancy
  Cs  Cs0  1  0.083832  0.429659  0.256894  1
  Cs  Cs1  1  0.429656  0.083836  0.743065  1
  Cs  Cs2  1  0.917635  0.577102  0.748714  1
  Cs  Cs3  1  0.577091  0.917621  0.251288  1
  Cs  Cs4  1  0.669592  0.330104  0.225843  1
  Cs  Cs5  1  0.820536  0.170499  0.715235  1
  Cs  Cs6  1  0.330089  0.669562  0.774141  1
  Cs  Cs7  1  0.170494  0.820532  0.284755  1
  Na  Na8  1  0.382631  0.382612  0.999962  1
  Na  Na9  1  0.120508  0.120497  0.500010  1
  Na  Na10  1  0.620841  0.620842  0.000013  1
  Na  Na11  1  0.878253  0.878261  0.500002  1
  Nd  Nd12  1  0.124879  0.124922  0.000093  1
  In  In13  1  0.370087  0.370126  0.500089  1
  In  In14  1  0.870492  0.870510  0.999985  1
  In  In15  1  0.634478  0.634473  0.499979  1
  Bi  Bi16  1  0.846376  0.655846  0.246740  1
  Bi  Bi17  1  0.655869  0.846384  0.753239  1
  Bi  Bi18  1  0.155872  0.347503  0.745558  1
  Bi  Bi19  1  0.347479  0.155872  0.254444  1
  Bi  Bi20  1  0.893642  0.095398  0.214328  1
  Bi  Bi21  1  0.596153  0.408115  0.705554  1
  Bi  Bi22  1  0.095373  0.893568  0.785632  1
  Bi  Bi23  1  0.408138  0.596152  0.294439  1
