# generated using pymatgen
data_LaThB4(OsRu)2
_symmetry_space_group_name_H-M   'P 1'
_cell_length_a   6.83550718
_cell_length_b   6.05787192
_cell_length_c   5.63656457
_cell_angle_alpha   71.43328096
_cell_angle_beta   57.15178160
_cell_angle_gamma   51.41494133
_symmetry_Int_Tables_number   1
_chemical_formula_structural   LaThB4(OsRu)2
_chemical_formula_sum   'La1 Th1 B4 Os2 Ru2'
_cell_volume   153.20512355
_cell_formula_units_Z   1
loop_
 _symmetry_equiv_pos_site_id
 _symmetry_equiv_pos_as_xyz
  1  'x, y, z'
loop_
 _atom_site_type_symbol
 _atom_site_label
 _atom_site_symmetry_multiplicity
 _atom_site_fract_x
 _atom_site_fract_y
 _atom_site_fract_z
 _atom_site_occupancy
  La  La0  1  0.000000  0.000000  0.000000  1
  Th  Th1  1  0.250000  0.250000  0.250000  1
  B  B2  1  0.319199  0.680801  0.319199  1
  B  B3  1  0.680801  0.319199  0.680801  1
  B  B4  1  0.566180  0.933820  0.566180  1
  B  B5  1  0.933820  0.566180  0.933820  1
  Os  Os6  1  0.637041  0.637041  0.362959  1
  Os  Os7  1  0.362959  0.362959  0.637041  1
  Ru  Ru8  1  0.613681  0.613681  0.886319  1
  Ru  Ru9  1  0.886319  0.886319  0.613681  1
