# generated using pymatgen
data_Ca3Dy2Zr3(P3Pd4)4
_symmetry_space_group_name_H-M   'P 1'
_cell_length_a   13.24472900
_cell_length_b   13.24472813
_cell_length_c   4.02546800
_cell_angle_alpha   90.00000000
_cell_angle_beta   90.00000000
_cell_angle_gamma   119.97335909
_symmetry_Int_Tables_number   1
_chemical_formula_structural   Ca3Dy2Zr3(P3Pd4)4
_chemical_formula_sum   'Ca3 Dy2 Zr3 P12 Pd16'
_cell_volume   611.71574580
_cell_formula_units_Z   1
loop_
 _symmetry_equiv_pos_site_id
 _symmetry_equiv_pos_as_xyz
  1  'x, y, z'
loop_
 _atom_site_type_symbol
 _atom_site_label
 _atom_site_symmetry_multiplicity
 _atom_site_fract_x
 _atom_site_fract_y
 _atom_site_fract_z
 _atom_site_occupancy
  Ca  Ca0  1  0.186911  0.186911  0.500000  1
  Ca  Ca1  1  0.333267  0.666796  0.000000  1
  Ca  Ca2  1  0.666796  0.333267  0.000000  1
  Dy  Dy3  1  0.812389  0.000015  0.500000  1
  Dy  Dy4  1  0.000015  0.812389  0.500000  1
  Zr  Zr5  1  0.554384  0.554384  0.000000  1
  Zr  Zr6  1  0.445732  0.999127  0.000000  1
  Zr  Zr7  1  0.999127  0.445732  0.000000  1
  P  P8  1  0.825953  0.825953  0.000000  1
  P  P9  1  0.172792  0.998564  0.000000  1
  P  P10  1  0.998564  0.172792  0.000000  1
  P  P11  1  0.163249  0.478085  0.500000  1
  P  P12  1  0.521503  0.684849  0.500000  1
  P  P13  1  0.316185  0.836614  0.500000  1
  P  P14  1  0.684849  0.521503  0.500000  1
  P  P15  1  0.836614  0.316185  0.500000  1
  P  P16  1  0.478085  0.163249  0.500000  1
  P  P17  1  0.357902  0.357902  0.000000  1
  P  P18  1  0.642909  0.999919  0.000000  1
  P  P19  1  0.999919  0.642909  0.000000  1
  Pd  Pd20  1  0.725314  0.725314  0.500000  1
  Pd  Pd21  1  0.274516  0.998617  0.500000  1
  Pd  Pd22  1  0.998617  0.274516  0.500000  1
  Pd  Pd23  1  0.184418  0.375969  0.000000  1
  Pd  Pd24  1  0.627494  0.811541  0.000000  1
  Pd  Pd25  1  0.187906  0.816521  0.000000  1
  Pd  Pd26  1  0.811541  0.627494  0.000000  1
  Pd  Pd27  1  0.816521  0.187906  0.000000  1
  Pd  Pd28  1  0.375969  0.184418  0.000000  1
  Pd  Pd29  1  0.357906  0.489286  0.500000  1
  Pd  Pd30  1  0.511725  0.868162  0.500000  1
  Pd  Pd31  1  0.131654  0.642755  0.500000  1
  Pd  Pd32  1  0.868162  0.511725  0.500000  1
  Pd  Pd33  1  0.642755  0.131654  0.500000  1
  Pd  Pd34  1  0.489286  0.357906  0.500000  1
  Pd  Pd35  1  0.999070  0.999070  0.000000  1
