# generated using pymatgen
data_TbDyMnC2
_symmetry_space_group_name_H-M   'P 1'
_cell_length_a   5.05770900
_cell_length_b   6.35203200
_cell_length_c   9.71211900
_cell_angle_alpha   90.00000000
_cell_angle_beta   90.00000000
_cell_angle_gamma   90.00000000
_symmetry_Int_Tables_number   1
_chemical_formula_structural   TbDyMnC2
_chemical_formula_sum   'Tb4 Dy4 Mn4 C8'
_cell_volume   312.01861916
_cell_formula_units_Z   4
loop_
 _symmetry_equiv_pos_site_id
 _symmetry_equiv_pos_as_xyz
  1  'x, y, z'
loop_
 _atom_site_type_symbol
 _atom_site_label
 _atom_site_symmetry_multiplicity
 _atom_site_fract_x
 _atom_site_fract_y
 _atom_site_fract_z
 _atom_site_occupancy
  Tb  Tb0  1  0.750000  0.477238  0.786652  1
  Tb  Tb1  1  0.250000  0.022762  0.286652  1
  Tb  Tb2  1  0.750000  0.977238  0.713348  1
  Tb  Tb3  1  0.250000  0.522762  0.213348  1
  Dy  Dy4  1  0.750000  0.816866  0.055348  1
  Dy  Dy5  1  0.250000  0.683134  0.555348  1
  Dy  Dy6  1  0.750000  0.316866  0.444652  1
  Dy  Dy7  1  0.250000  0.183134  0.944652  1
  Mn  Mn8  1  0.750000  0.270064  0.143671  1
  Mn  Mn9  1  0.250000  0.229936  0.643671  1
  Mn  Mn10  1  0.750000  0.770064  0.356329  1
  Mn  Mn11  1  0.250000  0.729936  0.856329  1
  C  C12  1  0.750000  0.191274  0.966228  1
  C  C13  1  0.250000  0.808726  0.033772  1
  C  C14  1  0.750000  0.691274  0.533772  1
  C  C15  1  0.250000  0.308726  0.466228  1
  C  C16  1  0.750000  0.035214  0.259663  1
  C  C17  1  0.250000  0.464786  0.759663  1
  C  C18  1  0.750000  0.535214  0.240337  1
  C  C19  1  0.250000  0.964786  0.740337  1
