# generated using pymatgen
data_Nd2Dy3Pb4
_symmetry_space_group_name_H-M   'P 1'
_cell_length_a   8.30814500
_cell_length_b   8.36594948
_cell_length_c   15.86494000
_cell_angle_alpha   90.00000000
_cell_angle_beta   90.00000000
_cell_angle_gamma   90.04409186
_symmetry_Int_Tables_number   1
_chemical_formula_structural   Nd2Dy3Pb4
_chemical_formula_sum   'Nd8 Dy12 Pb16'
_cell_volume   1102.70059888
_cell_formula_units_Z   4
loop_
 _symmetry_equiv_pos_site_id
 _symmetry_equiv_pos_as_xyz
  1  'x, y, z'
loop_
 _atom_site_type_symbol
 _atom_site_label
 _atom_site_symmetry_multiplicity
 _atom_site_fract_x
 _atom_site_fract_y
 _atom_site_fract_z
 _atom_site_occupancy
  Nd  Nd0  1  0.474036  0.677522  0.597834  1
  Nd  Nd1  1  0.974094  0.822613  0.902279  1
  Nd  Nd2  1  0.525984  0.322294  0.097886  1
  Nd  Nd3  1  0.025826  0.177287  0.402132  1
  Nd  Nd4  1  0.525984  0.322294  0.402114  1
  Nd  Nd5  1  0.025826  0.177287  0.097868  1
  Nd  Nd6  1  0.474036  0.677522  0.902166  1
  Nd  Nd7  1  0.974094  0.822613  0.597721  1
  Dy  Dy8  1  0.632876  0.158169  0.622233  1
  Dy  Dy9  1  0.132805  0.341817  0.877592  1
  Dy  Dy10  1  0.367223  0.842026  0.122407  1
  Dy  Dy11  1  0.867012  0.658131  0.377580  1
  Dy  Dy12  1  0.367223  0.842026  0.377593  1
  Dy  Dy13  1  0.867012  0.658131  0.122420  1
  Dy  Dy14  1  0.632876  0.158169  0.877767  1
  Dy  Dy15  1  0.132805  0.341817  0.622408  1
  Dy  Dy16  1  0.799118  0.494917  0.750000  1
  Dy  Dy17  1  0.299232  0.005084  0.750000  1
  Dy  Dy18  1  0.200952  0.505030  0.250000  1
  Dy  Dy19  1  0.700819  0.994635  0.250000  1
  Pb  Pb20  1  0.706978  0.960292  0.456334  1
  Pb  Pb21  1  0.206848  0.539882  0.043353  1
  Pb  Pb22  1  0.293205  0.039945  0.956739  1
  Pb  Pb23  1  0.793168  0.460230  0.543275  1
  Pb  Pb24  1  0.293205  0.039945  0.543261  1
  Pb  Pb25  1  0.793168  0.460230  0.956725  1
  Pb  Pb26  1  0.706978  0.960292  0.043666  1
  Pb  Pb27  1  0.206848  0.539882  0.456647  1
  Pb  Pb28  1  0.437143  0.372304  0.750000  1
  Pb  Pb29  1  0.937091  0.127625  0.750000  1
  Pb  Pb30  1  0.563193  0.627846  0.250000  1
  Pb  Pb31  1  0.062344  0.872825  0.250000  1
  Pb  Pb32  1  0.663131  0.848864  0.750000  1
  Pb  Pb33  1  0.163066  0.651360  0.750000  1
  Pb  Pb34  1  0.336971  0.151141  0.250000  1
  Pb  Pb35  1  0.836831  0.347955  0.250000  1
