# generated using pymatgen
data_TbYb2Y(Pt2O7)2
_symmetry_space_group_name_H-M   'P 1'
_cell_length_a   7.27530599
_cell_length_b   7.26100062
_cell_length_c   7.27530585
_cell_angle_alpha   60.01964258
_cell_angle_beta   60.03061997
_cell_angle_gamma   60.01964468
_symmetry_Int_Tables_number   1
_chemical_formula_structural   TbYb2Y(Pt2O7)2
_chemical_formula_sum   'Tb1 Yb2 Y1 Pt4 O14'
_cell_volume   271.90258659
_cell_formula_units_Z   1
loop_
 _symmetry_equiv_pos_site_id
 _symmetry_equiv_pos_as_xyz
  1  'x, y, z'
loop_
 _atom_site_type_symbol
 _atom_site_label
 _atom_site_symmetry_multiplicity
 _atom_site_fract_x
 _atom_site_fract_y
 _atom_site_fract_z
 _atom_site_occupancy
  Tb  Tb0  1  0.125000  0.125000  0.125000  1
  Yb  Yb1  1  0.125000  0.125000  0.625000  1
  Yb  Yb2  1  0.625000  0.125000  0.125000  1
  Y  Y3  1  0.125000  0.625000  0.125000  1
  Pt  Pt4  1  0.625000  0.625000  0.625000  1
  Pt  Pt5  1  0.125000  0.625000  0.625000  1
  Pt  Pt6  1  0.625000  0.625000  0.125000  1
  Pt  Pt7  1  0.625000  0.125000  0.625000  1
  O  O8  1  0.289526  0.706030  0.714063  1
  O  O9  1  0.536030  0.959993  0.960480  1
  O  O10  1  0.714063  0.706030  0.289526  1
  O  O11  1  0.289520  0.290007  0.713970  1
  O  O12  1  0.004022  0.995013  0.004022  1
  O  O13  1  0.288089  0.711733  0.288089  1
  O  O14  1  0.707940  0.291908  0.707940  1
  O  O15  1  0.961911  0.538267  0.961911  1
  O  O16  1  0.535937  0.543970  0.960474  1
  O  O17  1  0.960480  0.959993  0.536030  1
  O  O18  1  0.245978  0.254987  0.245978  1
  O  O19  1  0.542060  0.958092  0.542060  1
  O  O20  1  0.713970  0.290007  0.289520  1
  O  O21  1  0.960474  0.543970  0.535937  1
