# generated using pymatgen
data_Er2Tm6Re3B24Os
_symmetry_space_group_name_H-M   'P 1'
_cell_length_a   3.63973500
_cell_length_b   9.10168644
_cell_length_c   11.47390301
_cell_angle_alpha   90.07049043
_cell_angle_beta   90.00000000
_cell_angle_gamma   90.00000000
_symmetry_Int_Tables_number   1
_chemical_formula_structural   Er2Tm6Re3B24Os
_chemical_formula_sum   'Er2 Tm6 Re3 B24 Os1'
_cell_volume   380.10403529
_cell_formula_units_Z   1
loop_
 _symmetry_equiv_pos_site_id
 _symmetry_equiv_pos_as_xyz
  1  'x, y, z'
loop_
 _atom_site_type_symbol
 _atom_site_label
 _atom_site_symmetry_multiplicity
 _atom_site_fract_x
 _atom_site_fract_y
 _atom_site_fract_z
 _atom_site_occupancy
  Er  Er0  1  0.000000  0.321193  0.414203  1
  Er  Er1  1  0.000000  0.677927  0.587604  1
  Tm  Tm2  1  0.000000  0.824079  0.084287  1
  Tm  Tm3  1  0.000000  0.177236  0.913537  1
  Tm  Tm4  1  0.000000  0.942413  0.370243  1
  Tm  Tm5  1  0.000000  0.056674  0.629188  1
  Tm  Tm6  1  0.000000  0.442655  0.129556  1
  Tm  Tm7  1  0.000000  0.557157  0.871122  1
  Re  Re8  1  0.000000  0.362325  0.678399  1
  Re  Re9  1  0.000000  0.138005  0.179643  1
  Re  Re10  1  0.000000  0.862100  0.820881  1
  B  B11  1  0.500000  0.553506  0.433120  1
  B  B12  1  0.500000  0.447297  0.566452  1
  B  B13  1  0.500000  0.052835  0.066433  1
  B  B14  1  0.500000  0.947425  0.933331  1
  B  B15  1  0.500000  0.749063  0.418857  1
  B  B16  1  0.500000  0.250041  0.580804  1
  B  B17  1  0.500000  0.249669  0.080771  1
  B  B18  1  0.500000  0.750799  0.919367  1
  B  B19  1  0.500000  0.791261  0.265140  1
  B  B20  1  0.500000  0.207795  0.734682  1
  B  B21  1  0.500000  0.292079  0.235172  1
  B  B22  1  0.500000  0.707753  0.765546  1
  B  B23  1  0.500000  0.630753  0.185207  1
  B  B24  1  0.500000  0.369926  0.814762  1
  B  B25  1  0.500000  0.130305  0.315409  1
  B  B26  1  0.500000  0.869475  0.685035  1
  B  B27  1  0.500000  0.981052  0.211971  1
  B  B28  1  0.500000  0.018997  0.787659  1
  B  B29  1  0.500000  0.482173  0.288009  1
  B  B30  1  0.500000  0.519183  0.712200  1
  B  B31  1  0.500000  0.601235  0.028687  1
  B  B32  1  0.500000  0.399175  0.972140  1
  B  B33  1  0.500000  0.099896  0.471781  1
  B  B34  1  0.500000  0.898471  0.527903  1
  Os  Os35  1  0.000000  0.638072  0.320897  1
