# generated using pymatgen
data_La8Gd5Y7Si16
_symmetry_space_group_name_H-M   'P 1'
_cell_length_a   7.51005879
_cell_length_b   7.88064338
_cell_length_c   14.99134400
_cell_angle_alpha   89.96455658
_cell_angle_beta   90.09253467
_cell_angle_gamma   90.08601563
_symmetry_Int_Tables_number   1
_chemical_formula_structural   La8Gd5Y7Si16
_chemical_formula_sum   'La8 Gd5 Y7 Si16'
_cell_volume   887.24680353
_cell_formula_units_Z   1
loop_
 _symmetry_equiv_pos_site_id
 _symmetry_equiv_pos_as_xyz
  1  'x, y, z'
loop_
 _atom_site_type_symbol
 _atom_site_label
 _atom_site_symmetry_multiplicity
 _atom_site_fract_x
 _atom_site_fract_y
 _atom_site_fract_z
 _atom_site_occupancy
  La  La0  1  0.023093  0.180962  0.402230  1
  La  La1  1  0.523404  0.319030  0.401606  1
  La  La2  1  0.475637  0.679513  0.901558  1
  La  La3  1  0.476159  0.680539  0.598420  1
  La  La4  1  0.977553  0.819893  0.598747  1
  La  La5  1  0.977777  0.819185  0.901975  1
  La  La6  1  0.523327  0.319031  0.098346  1
  La  La7  1  0.023521  0.180687  0.098518  1
  Gd  Gd8  1  0.320650  0.180341  0.622526  1
  Gd  Gd9  1  0.651037  0.988416  0.749140  1
  Gd  Gd10  1  0.849166  0.487277  0.250074  1
  Gd  Gd11  1  0.349637  0.012441  0.249784  1
  Gd  Gd12  1  0.152500  0.511740  0.749525  1
  Y  Y13  1  0.677901  0.819621  0.376214  1
  Y  Y14  1  0.177536  0.680151  0.376612  1
  Y  Y15  1  0.822582  0.319772  0.877318  1
  Y  Y16  1  0.821636  0.320653  0.623175  1
  Y  Y17  1  0.321763  0.180928  0.877362  1
  Y  Y18  1  0.177683  0.680698  0.123194  1
  Y  Y19  1  0.677400  0.819760  0.123057  1
  Si  Si20  1  0.266987  0.884123  0.750666  1
  Si  Si21  1  0.469975  0.611318  0.249588  1
  Si  Si22  1  0.028297  0.112702  0.751267  1
  Si  Si23  1  0.531101  0.387590  0.750358  1
  Si  Si24  1  0.142690  0.470286  0.538590  1
  Si  Si25  1  0.970249  0.889290  0.249790  1
  Si  Si26  1  0.733685  0.114459  0.249873  1
  Si  Si27  1  0.855693  0.530901  0.038648  1
  Si  Si28  1  0.354695  0.968995  0.038147  1
  Si  Si29  1  0.144740  0.469225  0.961910  1
  Si  Si30  1  0.645913  0.029707  0.537684  1
  Si  Si31  1  0.356264  0.968203  0.460753  1
  Si  Si32  1  0.855211  0.531480  0.461220  1
  Si  Si33  1  0.766764  0.615249  0.750526  1
  Si  Si34  1  0.233717  0.385952  0.250004  1
  Si  Si35  1  0.644055  0.029878  0.961592  1
