# generated using pymatgen
data_Y3ZrGa2Rh3
_symmetry_space_group_name_H-M   'P 1'
_cell_length_a   7.22677855
_cell_length_b   7.09390750
_cell_length_c   4.10976100
_cell_angle_alpha   90.00000000
_cell_angle_beta   90.00000000
_cell_angle_gamma   119.39305802
_symmetry_Int_Tables_number   1
_chemical_formula_structural   Y3ZrGa2Rh3
_chemical_formula_sum   'Y3 Zr1 Ga2 Rh3'
_cell_volume   183.56979849
_cell_formula_units_Z   1
loop_
 _symmetry_equiv_pos_site_id
 _symmetry_equiv_pos_as_xyz
  1  'x, y, z'
loop_
 _atom_site_type_symbol
 _atom_site_label
 _atom_site_symmetry_multiplicity
 _atom_site_fract_x
 _atom_site_fract_y
 _atom_site_fract_z
 _atom_site_occupancy
  Y  Y0  1  0.999997  0.614668  0.500000  1
  Y  Y1  1  0.437198  0.418412  0.500000  1
  Y  Y2  1  0.562798  0.981220  0.500000  1
  Zr  Zr3  1  0.000011  0.238380  0.000000  1
  Ga  Ga4  1  0.251270  0.004021  0.000000  1
  Ga  Ga5  1  0.748721  0.752770  0.000000  1
  Rh  Rh6  1  0.326353  0.656606  0.000000  1
  Rh  Rh7  1  0.999990  0.003670  0.500000  1
  Rh  Rh8  1  0.673662  0.330254  0.000000  1
