# generated using pymatgen
data_Tm6Co17Si12W
_symmetry_space_group_name_H-M   'P 1'
_cell_length_a   3.75809100
_cell_length_b   10.69148300
_cell_length_c   12.33192600
_cell_angle_alpha   90.00000000
_cell_angle_beta   90.00000000
_cell_angle_gamma   90.00000000
_symmetry_Int_Tables_number   1
_chemical_formula_structural   Tm6Co17Si12W
_chemical_formula_sum   'Tm6 Co17 Si12 W1'
_cell_volume   495.49143510
_cell_formula_units_Z   1
loop_
 _symmetry_equiv_pos_site_id
 _symmetry_equiv_pos_as_xyz
  1  'x, y, z'
loop_
 _atom_site_type_symbol
 _atom_site_label
 _atom_site_symmetry_multiplicity
 _atom_site_fract_x
 _atom_site_fract_y
 _atom_site_fract_z
 _atom_site_occupancy
  Tm  Tm0  1  0.000000  0.500000  0.527688  1
  Tm  Tm1  1  0.500000  0.000000  0.473343  1
  Tm  Tm2  1  0.500000  0.820451  0.207163  1
  Tm  Tm3  1  0.500000  0.179549  0.207163  1
  Tm  Tm4  1  0.000000  0.681613  0.797541  1
  Tm  Tm5  1  0.000000  0.318387  0.797541  1
  Co  Co6  1  0.000000  0.000000  0.845816  1
  Co  Co7  1  0.500000  0.500000  0.696495  1
  Co  Co8  1  0.000000  0.000000  0.303474  1
  Co  Co9  1  0.000000  0.500000  0.984165  1
  Co  Co10  1  0.500000  0.000000  0.017033  1
  Co  Co11  1  0.500000  0.327196  0.992084  1
  Co  Co12  1  0.500000  0.672804  0.992084  1
  Co  Co13  1  0.000000  0.164698  0.002532  1
  Co  Co14  1  0.000000  0.835302  0.002532  1
  Co  Co15  1  0.500000  0.300433  0.432468  1
  Co  Co16  1  0.500000  0.699567  0.432468  1
  Co  Co17  1  0.000000  0.198010  0.571602  1
  Co  Co18  1  0.000000  0.801990  0.571602  1
  Co  Co19  1  0.500000  0.883409  0.706468  1
  Co  Co20  1  0.500000  0.116591  0.706468  1
  Co  Co21  1  0.000000  0.619632  0.292739  1
  Co  Co22  1  0.000000  0.380368  0.292739  1
  Si  Si23  1  0.500000  0.500000  0.882723  1
  Si  Si24  1  0.000000  0.000000  0.117755  1
  Si  Si25  1  0.500000  0.500000  0.347049  1
  Si  Si26  1  0.000000  0.000000  0.659608  1
  Si  Si27  1  0.500000  0.304628  0.616437  1
  Si  Si28  1  0.500000  0.695372  0.616437  1
  Si  Si29  1  0.000000  0.195253  0.386964  1
  Si  Si30  1  0.000000  0.804747  0.386964  1
  Si  Si31  1  0.500000  0.854856  0.889990  1
  Si  Si32  1  0.500000  0.145144  0.889990  1
  Si  Si33  1  0.000000  0.659097  0.103725  1
  Si  Si34  1  0.000000  0.340903  0.103725  1
  W  W35  1  0.500000  0.500000  0.145426  1
