# generated using pymatgen
data_TmLu(Si7Rh3)2
_symmetry_space_group_name_H-M   'P 1'
_cell_length_a   7.96407697
_cell_length_b   7.96407718
_cell_length_c   7.96407850
_cell_angle_alpha   57.09205443
_cell_angle_beta   57.09205397
_cell_angle_gamma   57.09204803
_symmetry_Int_Tables_number   1
_chemical_formula_structural   TmLu(Si7Rh3)2
_chemical_formula_sum   'Tm1 Lu1 Si14 Rh6'
_cell_volume   333.24512378
_cell_formula_units_Z   1
loop_
 _symmetry_equiv_pos_site_id
 _symmetry_equiv_pos_as_xyz
  1  'x, y, z'
loop_
 _atom_site_type_symbol
 _atom_site_label
 _atom_site_symmetry_multiplicity
 _atom_site_fract_x
 _atom_site_fract_y
 _atom_site_fract_z
 _atom_site_occupancy
  Tm  Tm0  1  0.500000  0.500000  0.500000  1
  Lu  Lu1  1  0.000000  0.000000  0.000000  1
  Si  Si2  1  0.749907  0.749907  0.749907  1
  Si  Si3  1  0.250093  0.250093  0.250093  1
  Si  Si4  1  0.851920  0.065321  0.672305  1
  Si  Si5  1  0.672305  0.851920  0.065321  1
  Si  Si6  1  0.065321  0.672305  0.851920  1
  Si  Si7  1  0.648640  0.828135  0.433989  1
  Si  Si8  1  0.433989  0.648640  0.828135  1
  Si  Si9  1  0.828135  0.433989  0.648640  1
  Si  Si10  1  0.171865  0.566011  0.351360  1
  Si  Si11  1  0.566011  0.351360  0.171865  1
  Si  Si12  1  0.351360  0.171865  0.566011  1
  Si  Si13  1  0.934679  0.327695  0.148080  1
  Si  Si14  1  0.327695  0.148080  0.934679  1
  Si  Si15  1  0.148080  0.934679  0.327695  1
  Rh  Rh16  1  0.070700  0.428603  0.750477  1
  Rh  Rh17  1  0.249523  0.929300  0.571397  1
  Rh  Rh18  1  0.571397  0.249523  0.929300  1
  Rh  Rh19  1  0.929300  0.571397  0.249523  1
  Rh  Rh20  1  0.428603  0.750477  0.070700  1
  Rh  Rh21  1  0.750477  0.070700  0.428603  1
