# generated using pymatgen
data_Dy7Tm9In4Ir2PdRh
_symmetry_space_group_name_H-M   'P 1'
_cell_length_a   9.58987436
_cell_length_b   9.58987297
_cell_length_c   9.57962900
_cell_angle_alpha   60.03532628
_cell_angle_beta   60.03533105
_cell_angle_gamma   60.15607404
_symmetry_Int_Tables_number   1
_chemical_formula_structural   Dy7Tm9In4Ir2PdRh
_chemical_formula_sum   'Dy7 Tm9 In4 Ir2 Pd1 Rh1'
_cell_volume   624.02409889
_cell_formula_units_Z   1
loop_
 _symmetry_equiv_pos_site_id
 _symmetry_equiv_pos_as_xyz
  1  'x, y, z'
loop_
 _atom_site_type_symbol
 _atom_site_label
 _atom_site_symmetry_multiplicity
 _atom_site_fract_x
 _atom_site_fract_y
 _atom_site_fract_z
 _atom_site_occupancy
  Dy  Dy0  1  0.060383  0.060383  0.439646  1
  Dy  Dy1  1  0.190108  0.811321  0.809943  1
  Dy  Dy2  1  0.813334  0.189396  0.188339  1
  Dy  Dy3  1  0.811321  0.190108  0.809943  1
  Dy  Dy4  1  0.189396  0.813334  0.188339  1
  Dy  Dy5  1  0.810214  0.810214  0.189860  1
  Dy  Dy6  1  0.188333  0.188333  0.813197  1
  Tm  Tm7  1  0.598864  0.598864  0.597385  1
  Tm  Tm8  1  0.602205  0.602205  0.200484  1
  Tm  Tm9  1  0.602553  0.199274  0.602229  1
  Tm  Tm10  1  0.199274  0.602553  0.602229  1
  Tm  Tm11  1  0.054760  0.440983  0.439976  1
  Tm  Tm12  1  0.440446  0.059514  0.060758  1
  Tm  Tm13  1  0.440983  0.054760  0.439976  1
  Tm  Tm14  1  0.059514  0.440446  0.060758  1
  Tm  Tm15  1  0.439632  0.439632  0.056070  1
  In  In16  1  0.832689  0.832689  0.832493  1
  In  In17  1  0.832672  0.832672  0.502084  1
  In  In18  1  0.832274  0.502822  0.832429  1
  In  In19  1  0.502822  0.832274  0.832429  1
  Ir  Ir20  1  0.392729  0.823099  0.391509  1
  Ir  Ir21  1  0.823099  0.392729  0.391509  1
  Pd  Pd22  1  0.391456  0.391456  0.393308  1
  Rh  Rh23  1  0.390939  0.390939  0.825102  1
