# generated using pymatgen
data_Ce2TmLu7(Al2Ru3)2
_symmetry_space_group_name_H-M   'P 1'
_cell_length_a   8.34649712
_cell_length_b   8.26509485
_cell_length_c   8.23487718
_cell_angle_alpha   109.93339004
_cell_angle_beta   109.43024440
_cell_angle_gamma   110.12057516
_symmetry_Int_Tables_number   1
_chemical_formula_structural   Ce2TmLu7(Al2Ru3)2
_chemical_formula_sum   'Ce2 Tm1 Lu7 Al4 Ru6'
_cell_volume   431.42102132
_cell_formula_units_Z   1
loop_
 _symmetry_equiv_pos_site_id
 _symmetry_equiv_pos_as_xyz
  1  'x, y, z'
loop_
 _atom_site_type_symbol
 _atom_site_label
 _atom_site_symmetry_multiplicity
 _atom_site_fract_x
 _atom_site_fract_y
 _atom_site_fract_z
 _atom_site_occupancy
  Ce  Ce0  1  0.943372  0.252016  0.194929  1
  Ce  Ce1  1  0.196446  0.941482  0.251487  1
  Tm  Tm2  1  0.253777  0.185557  0.930790  1
  Lu  Lu3  1  0.780493  0.784734  0.778429  1
  Lu  Lu4  1  0.319448  0.569195  0.753477  1
  Lu  Lu5  1  0.750375  0.319093  0.570583  1
  Lu  Lu6  1  0.570460  0.748040  0.315732  1
  Lu  Lu7  1  0.717667  0.502821  0.998057  1
  Lu  Lu8  1  0.998455  0.718701  0.505707  1
  Lu  Lu9  1  0.501061  0.992867  0.715432  1
  Al  Al10  1  0.418215  0.413666  0.410455  1
  Al  Al11  1  0.091992  0.492546  0.995210  1
  Al  Al12  1  0.997217  0.091325  0.504525  1
  Al  Al13  1  0.502577  0.007877  0.093408  1
  Ru  Ru14  1  0.865500  0.115127  0.741151  1
  Ru  Ru15  1  0.752855  0.896379  0.121142  1
  Ru  Ru16  1  0.124241  0.761076  0.901023  1
  Ru  Ru17  1  0.227782  0.597189  0.366911  1
  Ru  Ru18  1  0.360771  0.225556  0.600097  1
  Ru  Ru19  1  0.627294  0.384755  0.251456  1
