# generated using pymatgen
data_Rb12Na8Zr3GeP12
_symmetry_space_group_name_H-M   'P 1'
_cell_length_a   10.70161253
_cell_length_b   10.70161225
_cell_length_c   15.59328669
_cell_angle_alpha   90.01889789
_cell_angle_beta   90.01889506
_cell_angle_gamma   142.63356405
_symmetry_Int_Tables_number   1
_chemical_formula_structural   Rb12Na8Zr3GeP12
_chemical_formula_sum   'Rb12 Na8 Zr3 Ge1 P12'
_cell_volume   1083.82813818
_cell_formula_units_Z   1
loop_
 _symmetry_equiv_pos_site_id
 _symmetry_equiv_pos_as_xyz
  1  'x, y, z'
loop_
 _atom_site_type_symbol
 _atom_site_label
 _atom_site_symmetry_multiplicity
 _atom_site_fract_x
 _atom_site_fract_y
 _atom_site_fract_z
 _atom_site_occupancy
  Rb  Rb0  1  0.931992  0.601421  0.829082  1
  Rb  Rb1  1  0.550575  0.892411  0.320976  1
  Rb  Rb2  1  0.398579  0.068008  0.170918  1
  Rb  Rb3  1  0.050786  0.390363  0.175574  1
  Rb  Rb4  1  0.891340  0.550986  0.322176  1
  Rb  Rb5  1  0.449014  0.108660  0.677824  1
  Rb  Rb6  1  0.609637  0.949214  0.824426  1
  Rb  Rb7  1  0.282305  0.282186  0.315537  1
  Rb  Rb8  1  0.778439  0.773957  0.184165  1
  Rb  Rb9  1  0.226043  0.221561  0.815835  1
  Rb  Rb10  1  0.717814  0.717695  0.684463  1
  Rb  Rb11  1  0.107589  0.449425  0.679024  1
  Na  Na12  1  0.920769  0.079231  0.000000  1
  Na  Na13  1  0.580483  0.419517  0.500000  1
  Na  Na14  1  0.080744  0.919256  0.000000  1
  Na  Na15  1  0.419220  0.580780  0.500000  1
  Na  Na16  1  0.753074  0.246926  0.000000  1
  Na  Na17  1  0.744538  0.255462  0.500000  1
  Na  Na18  1  0.245464  0.754536  0.000000  1
  Na  Na19  1  0.255658  0.744342  0.500000  1
  Zr  Zr20  1  0.913525  0.086475  0.500000  1
  Zr  Zr21  1  0.419589  0.580411  0.000000  1
  Zr  Zr22  1  0.086420  0.913580  0.500000  1
  Ge  Ge23  1  0.583809  0.416191  0.000000  1
  P  P24  1  0.855494  0.553361  0.091646  1
  P  P25  1  0.446639  0.144506  0.908354  1
  P  P26  1  0.628973  0.942152  0.596772  1
  P  P27  1  0.941805  0.628817  0.596671  1
  P  P28  1  0.133187  0.441421  0.905152  1
  P  P29  1  0.558579  0.866813  0.094848  1
  P  P30  1  0.371183  0.058195  0.403329  1
  P  P31  1  0.199731  0.199763  0.586548  1
  P  P32  1  0.702227  0.693312  0.912497  1
  P  P33  1  0.306688  0.297773  0.087503  1
  P  P34  1  0.057848  0.371027  0.403228  1
  P  P35  1  0.800237  0.800269  0.413452  1
