# generated using pymatgen
data_Pr4NdGa2Pb
_symmetry_space_group_name_H-M   'P 1'
_cell_length_a   9.24699554
_cell_length_b   9.24699506
_cell_length_c   9.24699500
_cell_angle_alpha   127.55875551
_cell_angle_beta   127.55876884
_cell_angle_gamma   77.34092170
_symmetry_Int_Tables_number   1
_chemical_formula_structural   Pr4NdGa2Pb
_chemical_formula_sum   'Pr8 Nd2 Ga4 Pb2'
_cell_volume   482.04017774
_cell_formula_units_Z   2
loop_
 _symmetry_equiv_pos_site_id
 _symmetry_equiv_pos_as_xyz
  1  'x, y, z'
loop_
 _atom_site_type_symbol
 _atom_site_label
 _atom_site_symmetry_multiplicity
 _atom_site_fract_x
 _atom_site_fract_y
 _atom_site_fract_z
 _atom_site_occupancy
  Pr  Pr0  1  0.524242  0.024242  0.837544  1
  Pr  Pr1  1  0.186696  0.686696  0.162435  1
  Pr  Pr2  1  0.024271  0.186683  0.499957  1
  Pr  Pr3  1  0.686683  0.524271  0.499957  1
  Pr  Pr4  1  0.475758  0.975758  0.162456  1
  Pr  Pr5  1  0.813304  0.313304  0.837565  1
  Pr  Pr6  1  0.975729  0.813317  0.500043  1
  Pr  Pr7  1  0.313317  0.475729  0.500043  1
  Nd  Nd8  1  0.500000  0.500000  0.000000  1
  Nd  Nd9  1  0.000000  0.000000  0.000000  1
  Ga  Ga10  1  0.877949  0.377949  0.255899  1
  Ga  Ga11  1  0.122051  0.622051  0.744101  1
  Ga  Ga12  1  0.377945  0.122055  0.500000  1
  Ga  Ga13  1  0.622055  0.877945  0.500000  1
  Pb  Pb14  1  0.250107  0.249893  0.000000  1
  Pb  Pb15  1  0.749893  0.750107  0.000000  1
