# generated using pymatgen
data_CrFe6(ReMo)3
_symmetry_space_group_name_H-M   'P 1'
_cell_length_a   9.10585893
_cell_length_b   9.10585938
_cell_length_c   9.10586000
_cell_angle_alpha   29.98667729
_cell_angle_beta   29.98667242
_cell_angle_gamma   29.98667423
_symmetry_Int_Tables_number   1
_chemical_formula_structural   CrFe6(ReMo)3
_chemical_formula_sum   'Cr1 Fe6 Re3 Mo3'
_cell_volume   167.05947320
_cell_formula_units_Z   1
loop_
 _symmetry_equiv_pos_site_id
 _symmetry_equiv_pos_as_xyz
  1  'x, y, z'
loop_
 _atom_site_type_symbol
 _atom_site_label
 _atom_site_symmetry_multiplicity
 _atom_site_fract_x
 _atom_site_fract_y
 _atom_site_fract_z
 _atom_site_occupancy
  Cr  Cr0  1  0.000400  0.000400  0.000400  1
  Fe  Fe1  1  0.586322  0.093059  0.093059  1
  Fe  Fe2  1  0.093059  0.093059  0.586322  1
  Fe  Fe3  1  0.093059  0.586322  0.093059  1
  Fe  Fe4  1  0.907209  0.413379  0.907209  1
  Fe  Fe5  1  0.413379  0.907209  0.907209  1
  Fe  Fe6  1  0.907209  0.907209  0.413379  1
  Re  Re7  1  0.164273  0.164273  0.164273  1
  Re  Re8  1  0.836054  0.836054  0.836054  1
  Re  Re9  1  0.347634  0.347634  0.347634  1
  Mo  Mo10  1  0.651905  0.651905  0.651905  1
  Mo  Mo11  1  0.451201  0.451201  0.451201  1
  Mo  Mo12  1  0.548293  0.548293  0.548293  1
