# generated using pymatgen
data_Mn12Cr8Si(MoC3)2
_symmetry_space_group_name_H-M   'P 1'
_cell_length_a   7.44791812
_cell_length_b   7.44280291
_cell_length_c   7.45108457
_cell_angle_alpha   60.10315425
_cell_angle_beta   60.03963750
_cell_angle_gamma   60.02800860
_symmetry_Int_Tables_number   1
_chemical_formula_structural   Mn12Cr8Si(MoC3)2
_chemical_formula_sum   'Mn12 Cr8 Si1 Mo2 C6'
_cell_volume   292.43914773
_cell_formula_units_Z   1
loop_
 _symmetry_equiv_pos_site_id
 _symmetry_equiv_pos_as_xyz
  1  'x, y, z'
loop_
 _atom_site_type_symbol
 _atom_site_label
 _atom_site_symmetry_multiplicity
 _atom_site_fract_x
 _atom_site_fract_y
 _atom_site_fract_z
 _atom_site_occupancy
  Mn  Mn0  1  0.615986  0.615245  0.152182  1
  Mn  Mn1  1  0.616711  0.151980  0.615238  1
  Mn  Mn2  1  0.152147  0.616409  0.615976  1
  Mn  Mn3  1  0.615752  0.615952  0.615926  1
  Mn  Mn4  1  0.384184  0.383563  0.848452  1
  Mn  Mn5  1  0.384674  0.848412  0.382859  1
  Mn  Mn6  1  0.848451  0.383819  0.383343  1
  Mn  Mn7  1  0.383971  0.384064  0.383384  1
  Mn  Mn8  1  0.998887  0.999361  0.340150  1
  Mn  Mn9  1  0.661543  0.998736  0.339525  1
  Mn  Mn10  1  0.999076  0.661892  0.340294  1
  Mn  Mn11  1  0.660025  0.338373  0.000826  1
  Cr  Cr12  1  0.000148  0.340498  0.999000  1
  Cr  Cr13  1  0.999685  0.341316  0.658844  1
  Cr  Cr14  1  0.341040  0.658590  0.000717  1
  Cr  Cr15  1  0.340810  0.000314  0.658313  1
  Cr  Cr16  1  0.339958  0.999130  0.000649  1
  Cr  Cr17  1  0.999727  0.001542  0.658275  1
  Cr  Cr18  1  0.999900  0.660217  0.000752  1
  Cr  Cr19  1  0.660293  0.000274  0.000998  1
  Si  Si20  1  0.997672  0.999693  0.003638  1
  Mo  Mo21  1  0.750005  0.750449  0.749120  1
  Mo  Mo22  1  0.249916  0.249937  0.250665  1
  C  C23  1  0.719748  0.719057  0.282373  1
  C  C24  1  0.277630  0.720451  0.282316  1
  C  C25  1  0.719880  0.278241  0.279854  1
  C  C26  1  0.282911  0.282260  0.717825  1
  C  C27  1  0.717685  0.282086  0.720434  1
  C  C28  1  0.281584  0.718139  0.718070  1
