# generated using pymatgen
data_Tb13Dy3In4(OsRh)2
_symmetry_space_group_name_H-M   'P 1'
_cell_length_a   9.70089164
_cell_length_b   9.77081824
_cell_length_c   9.69698191
_cell_angle_alpha   59.77434219
_cell_angle_beta   59.55315214
_cell_angle_gamma   59.73473142
_symmetry_Int_Tables_number   1
_chemical_formula_structural   Tb13Dy3In4(OsRh)2
_chemical_formula_sum   'Tb13 Dy3 In4 Os2 Rh2'
_cell_volume   645.30573368
_cell_formula_units_Z   1
loop_
 _symmetry_equiv_pos_site_id
 _symmetry_equiv_pos_as_xyz
  1  'x, y, z'
loop_
 _atom_site_type_symbol
 _atom_site_label
 _atom_site_symmetry_multiplicity
 _atom_site_fract_x
 _atom_site_fract_y
 _atom_site_fract_z
 _atom_site_occupancy
  Tb  Tb0  1  0.650751  0.047152  0.650975  1
  Tb  Tb1  1  0.060120  0.058216  0.445163  1
  Tb  Tb2  1  0.445163  0.436500  0.060120  1
  Tb  Tb3  1  0.650975  0.651122  0.650751  1
  Tb  Tb4  1  0.811343  0.192192  0.189455  1
  Tb  Tb5  1  0.189455  0.807010  0.811343  1
  Tb  Tb6  1  0.043655  0.652129  0.651775  1
  Tb  Tb7  1  0.445275  0.058203  0.060068  1
  Tb  Tb8  1  0.437158  0.062842  0.437158  1
  Tb  Tb9  1  0.056726  0.443274  0.056726  1
  Tb  Tb10  1  0.651775  0.652441  0.043655  1
  Tb  Tb11  1  0.192383  0.807617  0.192383  1
  Tb  Tb12  1  0.060068  0.436454  0.445275  1
  Dy  Dy13  1  0.810880  0.806575  0.189998  1
  Dy  Dy14  1  0.809340  0.190660  0.809340  1
  Dy  Dy15  1  0.189998  0.192547  0.810880  1
  In  In16  1  0.418845  0.416948  0.418832  1
  In  In17  1  0.417620  0.416993  0.748144  1
  In  In18  1  0.418832  0.745375  0.418845  1
  In  In19  1  0.748144  0.417241  0.417620  1
  Os  Os20  1  0.857509  0.421767  0.856801  1
  Os  Os21  1  0.856801  0.863924  0.857509  1
  Rh  Rh22  1  0.857123  0.861062  0.420062  1
  Rh  Rh23  1  0.420062  0.861756  0.857123  1
