# generated using pymatgen
data_Tm2Fe3P6Ir5Rh2
_symmetry_space_group_name_H-M   'P 1'
_cell_length_a   3.86173800
_cell_length_b   10.60168600
_cell_length_c   12.33548200
_cell_angle_alpha   90.00000000
_cell_angle_beta   90.00000000
_cell_angle_gamma   90.00000000
_symmetry_Int_Tables_number   1
_chemical_formula_structural   Tm2Fe3P6Ir5Rh2
_chemical_formula_sum   'Tm4 Fe6 P12 Ir10 Rh4'
_cell_volume   505.02615060
_cell_formula_units_Z   2
loop_
 _symmetry_equiv_pos_site_id
 _symmetry_equiv_pos_as_xyz
  1  'x, y, z'
loop_
 _atom_site_type_symbol
 _atom_site_label
 _atom_site_symmetry_multiplicity
 _atom_site_fract_x
 _atom_site_fract_y
 _atom_site_fract_z
 _atom_site_occupancy
  Tm  Tm0  1  0.250000  0.576742  0.712752  1
  Tm  Tm1  1  0.250000  0.923258  0.212752  1
  Tm  Tm2  1  0.750000  0.415279  0.289613  1
  Tm  Tm3  1  0.750000  0.084721  0.789613  1
  Fe  Fe4  1  0.750000  0.124493  0.302395  1
  Fe  Fe5  1  0.750000  0.375507  0.802395  1
  Fe  Fe6  1  0.250000  0.459216  0.932003  1
  Fe  Fe7  1  0.250000  0.040784  0.432003  1
  Fe  Fe8  1  0.750000  0.541781  0.065653  1
  Fe  Fe9  1  0.750000  0.958219  0.565653  1
  P  P10  1  0.250000  0.430820  0.104946  1
  P  P11  1  0.250000  0.069180  0.604946  1
  P  P12  1  0.750000  0.557167  0.888349  1
  P  P13  1  0.750000  0.942833  0.388349  1
  P  P14  1  0.250000  0.273170  0.864070  1
  P  P15  1  0.250000  0.226830  0.364070  1
  P  P16  1  0.750000  0.733780  0.131372  1
  P  P17  1  0.750000  0.766220  0.631372  1
  P  P18  1  0.250000  0.597109  0.387583  1
  P  P19  1  0.250000  0.902891  0.887583  1
  P  P20  1  0.750000  0.398946  0.623488  1
  P  P21  1  0.750000  0.101054  0.123488  1
  Ir  Ir22  1  0.250000  0.405357  0.474526  1
  Ir  Ir23  1  0.250000  0.094643  0.974526  1
  Ir  Ir24  1  0.750000  0.587151  0.523202  1
  Ir  Ir25  1  0.750000  0.912849  0.023202  1
  Ir  Ir26  1  0.250000  0.229678  0.175424  1
  Ir  Ir27  1  0.250000  0.270322  0.675424  1
  Ir  Ir28  1  0.750000  0.761398  0.824217  1
  Ir  Ir29  1  0.750000  0.738602  0.324217  1
  Ir  Ir30  1  0.250000  0.881870  0.701523  1
  Ir  Ir31  1  0.250000  0.618130  0.201523  1
  Rh  Rh32  1  0.250000  0.720753  0.988366  1
  Rh  Rh33  1  0.250000  0.779247  0.488366  1
  Rh  Rh34  1  0.750000  0.280809  0.010519  1
  Rh  Rh35  1  0.750000  0.219191  0.510519  1
