# generated using pymatgen
data_Th14ReRu5
_symmetry_space_group_name_H-M   'P 1'
_cell_length_a   9.93495900
_cell_length_b   9.99934224
_cell_length_c   6.35802080
_cell_angle_alpha   89.63800093
_cell_angle_beta   90.00000000
_cell_angle_gamma   119.78723222
_symmetry_Int_Tables_number   1
_chemical_formula_structural   Th14ReRu5
_chemical_formula_sum   'Th14 Re1 Ru5'
_cell_volume   548.15794854
_cell_formula_units_Z   1
loop_
 _symmetry_equiv_pos_site_id
 _symmetry_equiv_pos_as_xyz
  1  'x, y, z'
loop_
 _atom_site_type_symbol
 _atom_site_label
 _atom_site_symmetry_multiplicity
 _atom_site_fract_x
 _atom_site_fract_y
 _atom_site_fract_z
 _atom_site_occupancy
  Th  Th0  1  0.462930  0.542394  0.297285  1
  Th  Th1  1  0.079464  0.542394  0.297285  1
  Th  Th2  1  0.919475  0.457876  0.798241  1
  Th  Th3  1  0.251525  0.126106  0.503728  1
  Th  Th4  1  0.540993  0.081986  0.797804  1
  Th  Th5  1  0.749575  0.874645  0.004966  1
  Th  Th6  1  0.666251  0.332501  0.288041  1
  Th  Th7  1  0.125071  0.874645  0.004966  1
  Th  Th8  1  0.459203  0.918406  0.299136  1
  Th  Th9  1  0.538400  0.457876  0.798241  1
  Th  Th10  1  0.874580  0.126106  0.503728  1
  Th  Th11  1  0.126482  0.252963  0.004260  1
  Th  Th12  1  0.874412  0.748826  0.508347  1
  Th  Th13  1  0.333694  0.667389  0.790778  1
  Re  Re14  1  0.812824  0.625649  0.052370  1
  Ru  Ru15  1  0.813235  0.183918  0.046050  1
  Ru  Ru16  1  0.626140  0.814794  0.548611  1
  Ru  Ru17  1  0.370682  0.183918  0.046050  1
  Ru  Ru18  1  0.186408  0.372816  0.545501  1
  Ru  Ru19  1  0.188655  0.814794  0.548611  1
