# generated using pymatgen
data_LiHo(NiH3)2
_symmetry_space_group_name_H-M   'P 1'
_cell_length_a   4.79918357
_cell_length_b   4.79918314
_cell_length_c   4.79915500
_cell_angle_alpha   120.00008732
_cell_angle_beta   119.99977047
_cell_angle_gamma   90.00042841
_symmetry_Int_Tables_number   1
_chemical_formula_structural   LiHo(NiH3)2
_chemical_formula_sum   'Li1 Ho1 Ni2 H6'
_cell_volume   78.15986016
_cell_formula_units_Z   1
loop_
 _symmetry_equiv_pos_site_id
 _symmetry_equiv_pos_as_xyz
  1  'x, y, z'
loop_
 _atom_site_type_symbol
 _atom_site_label
 _atom_site_symmetry_multiplicity
 _atom_site_fract_x
 _atom_site_fract_y
 _atom_site_fract_z
 _atom_site_occupancy
  Li  Li0  1  0.749998  0.749997  0.999999  1
  Ho  Ho1  1  0.249994  0.249996  0.999994  1
  Ni  Ni2  1  0.499992  0.000003  0.500001  1
  Ni  Ni3  1  0.000003  0.499998  0.499999  1
  H  H4  1  0.250058  0.750055  0.000111  1
  H  H5  1  0.749945  0.750055  0.500000  1
  H  H6  1  0.749945  0.249945  0.500000  1
  H  H7  1  0.250056  0.750054  0.500000  1
  H  H8  1  0.250057  0.249944  0.500000  1
  H  H9  1  0.749947  0.249944  0.999890  1
