# generated using pymatgen
data_SrV2PbO7
_symmetry_space_group_name_H-M   'P 1'
_cell_length_a   6.28107013
_cell_length_b   6.28107146
_cell_length_c   5.08926542
_cell_angle_alpha   83.03726047
_cell_angle_beta   83.03725472
_cell_angle_gamma   104.35131621
_symmetry_Int_Tables_number   1
_chemical_formula_structural   SrV2PbO7
_chemical_formula_sum   'Sr1 V2 Pb1 O7'
_cell_volume   190.67706607
_cell_formula_units_Z   1
loop_
 _symmetry_equiv_pos_site_id
 _symmetry_equiv_pos_as_xyz
  1  'x, y, z'
loop_
 _atom_site_type_symbol
 _atom_site_label
 _atom_site_symmetry_multiplicity
 _atom_site_fract_x
 _atom_site_fract_y
 _atom_site_fract_z
 _atom_site_occupancy
  Sr  Sr0  1  0.695239  0.304761  0.500000  1
  V  V1  1  0.780369  0.780609  0.920878  1
  V  V2  1  0.219391  0.219631  0.079122  1
  Pb  Pb3  1  0.307550  0.692450  0.500000  1
  O  O4  1  0.398336  0.112386  0.249157  1
  O  O5  1  0.887614  0.601664  0.750843  1
  O  O6  1  0.625821  0.906702  0.725473  1
  O  O7  1  0.093298  0.374179  0.274527  1
  O  O8  1  0.007878  0.992122  0.000000  1
  O  O9  1  0.365728  0.381223  0.779879  1
  O  O10  1  0.618777  0.634272  0.220121  1
