# generated using pymatgen
data_Sr20Si11Hg
_symmetry_space_group_name_H-M   'P 1'
_cell_length_a   8.15138500
_cell_length_b   8.15138500
_cell_length_c   15.82651000
_cell_angle_alpha   90.00000000
_cell_angle_beta   90.00000000
_cell_angle_gamma   90.00000000
_symmetry_Int_Tables_number   1
_chemical_formula_structural   Sr20Si11Hg
_chemical_formula_sum   'Sr20 Si11 Hg1'
_cell_volume   1051.59368221
_cell_formula_units_Z   1
loop_
 _symmetry_equiv_pos_site_id
 _symmetry_equiv_pos_as_xyz
  1  'x, y, z'
loop_
 _atom_site_type_symbol
 _atom_site_label
 _atom_site_symmetry_multiplicity
 _atom_site_fract_x
 _atom_site_fract_y
 _atom_site_fract_z
 _atom_site_occupancy
  Sr  Sr0  1  0.326419  0.681960  0.112462  1
  Sr  Sr1  1  0.181960  0.173581  0.112462  1
  Sr  Sr2  1  0.500000  0.000000  0.727598  1
  Sr  Sr3  1  0.322140  0.682357  0.392583  1
  Sr  Sr4  1  0.664892  0.690811  0.887245  1
  Sr  Sr5  1  0.182357  0.177860  0.392583  1
  Sr  Sr6  1  0.677860  0.317643  0.392583  1
  Sr  Sr7  1  0.172520  0.813520  0.608075  1
  Sr  Sr8  1  0.335108  0.309189  0.887245  1
  Sr  Sr9  1  0.190811  0.835108  0.887245  1
  Sr  Sr10  1  0.500000  0.000000  0.253177  1
  Sr  Sr11  1  0.827480  0.186480  0.608075  1
  Sr  Sr12  1  0.313520  0.327480  0.608075  1
  Sr  Sr13  1  0.817643  0.822140  0.392583  1
  Sr  Sr14  1  0.809189  0.164892  0.887245  1
  Sr  Sr15  1  0.818040  0.826419  0.112462  1
  Sr  Sr16  1  0.000000  0.500000  0.258338  1
  Sr  Sr17  1  0.000000  0.500000  0.757121  1
  Sr  Sr18  1  0.673581  0.318040  0.112462  1
  Sr  Sr19  1  0.686480  0.672520  0.608075  1
  Si  Si20  1  0.107429  0.108345  0.747787  1
  Si  Si21  1  0.391655  0.607429  0.747787  1
  Si  Si22  1  0.608008  0.607028  0.252591  1
  Si  Si23  1  0.500000  0.000000  0.005547  1
  Si  Si24  1  0.107028  0.891992  0.252591  1
  Si  Si25  1  0.608345  0.392571  0.747787  1
  Si  Si26  1  0.892571  0.891655  0.747787  1
  Si  Si27  1  0.391992  0.392972  0.252591  1
  Si  Si28  1  0.892972  0.108008  0.252591  1
  Si  Si29  1  0.500000  0.000000  0.503213  1
  Si  Si30  1  0.000000  0.500000  0.496620  1
  Hg  Hg31  1  0.000000  0.500000  0.995412  1
