# generated using pymatgen
data_LuNiBN
_symmetry_space_group_name_H-M   'P 1'
_cell_length_a   3.42108500
_cell_length_b   3.42108500
_cell_length_c   7.44788800
_cell_angle_alpha   90.00000000
_cell_angle_beta   90.00000000
_cell_angle_gamma   90.00000000
_symmetry_Int_Tables_number   1
_chemical_formula_structural   LuNiBN
_chemical_formula_sum   'Lu2 Ni2 B2 N2'
_cell_volume   87.16875973
_cell_formula_units_Z   2
loop_
 _symmetry_equiv_pos_site_id
 _symmetry_equiv_pos_as_xyz
  1  'x, y, z'
loop_
 _atom_site_type_symbol
 _atom_site_label
 _atom_site_symmetry_multiplicity
 _atom_site_fract_x
 _atom_site_fract_y
 _atom_site_fract_z
 _atom_site_occupancy
  Lu  Lu0  1  0.499999  0.000000  0.165750  1
  Lu  Lu1  1  0.000000  0.499999  0.834250  1
  Ni  Ni2  1  0.000000  0.000000  0.500001  1
  Ni  Ni3  1  0.499999  0.499999  0.500001  1
  B  B4  1  0.000000  0.499999  0.334796  1
  B  B5  1  0.499999  0.000000  0.665204  1
  N  N6  1  0.000000  0.499999  0.137725  1
  N  N7  1  0.499999  0.000000  0.862275  1
