# generated using pymatgen
data_Al6ZnFeSi2(BO9)2
_symmetry_space_group_name_H-M   'P 1'
_cell_length_a   5.83352700
_cell_length_b   10.46132300
_cell_length_c   11.23762700
_cell_angle_alpha   90.00000000
_cell_angle_beta   90.00000000
_cell_angle_gamma   90.00000000
_symmetry_Int_Tables_number   1
_chemical_formula_structural   Al6ZnFeSi2(BO9)2
_chemical_formula_sum   'Al12 Zn2 Fe2 Si4 B4 O36'
_cell_volume   685.79203471
_cell_formula_units_Z   2
loop_
 _symmetry_equiv_pos_site_id
 _symmetry_equiv_pos_as_xyz
  1  'x, y, z'
loop_
 _atom_site_type_symbol
 _atom_site_label
 _atom_site_symmetry_multiplicity
 _atom_site_fract_x
 _atom_site_fract_y
 _atom_site_fract_z
 _atom_site_occupancy
  Al  Al0  1  0.250000  0.273355  0.052008  1
  Al  Al1  1  0.750000  0.726645  0.947992  1
  Al  Al2  1  0.750000  0.772586  0.447962  1
  Al  Al3  1  0.250000  0.227414  0.552038  1
  Al  Al4  1  0.000000  0.500000  0.000000  1
  Al  Al5  1  0.000000  0.000000  0.500000  1
  Al  Al6  1  0.500000  0.500000  0.000000  1
  Al  Al7  1  0.500000  0.000000  0.500000  1
  Al  Al8  1  0.000000  0.000000  0.000000  1
  Al  Al9  1  0.000000  0.500000  0.500000  1
  Al  Al10  1  0.500000  0.000000  0.000000  1
  Al  Al11  1  0.500000  0.500000  0.500000  1
  Zn  Zn12  1  0.250000  0.408337  0.278039  1
  Zn  Zn13  1  0.750000  0.591663  0.721961  1
  Fe  Fe14  1  0.750000  0.907319  0.219417  1
  Fe  Fe15  1  0.250000  0.092681  0.780583  1
  Si  Si16  1  0.250000  0.066325  0.236564  1
  Si  Si17  1  0.750000  0.933675  0.763436  1
  Si  Si18  1  0.750000  0.563628  0.263686  1
  Si  Si19  1  0.250000  0.436372  0.736314  1
  B  B20  1  0.250000  0.748787  0.999420  1
  B  B21  1  0.750000  0.251213  0.000580  1
  B  B22  1  0.750000  0.248904  0.500326  1
  B  B23  1  0.250000  0.751096  0.499674  1
  O  O24  1  0.045854  0.680828  0.000368  1
  O  O25  1  0.954146  0.319172  0.999632  1
  O  O26  1  0.954018  0.180766  0.499681  1
  O  O27  1  0.545854  0.319172  0.999632  1
  O  O28  1  0.045982  0.819234  0.500319  1
  O  O29  1  0.454146  0.680828  0.000368  1
  O  O30  1  0.454018  0.819234  0.500319  1
  O  O31  1  0.545982  0.180766  0.499681  1
  O  O32  1  0.025181  0.006538  0.169300  1
  O  O33  1  0.974819  0.993462  0.830700  1
  O  O34  1  0.977033  0.504534  0.329977  1
  O  O35  1  0.525181  0.993462  0.830700  1
  O  O36  1  0.022967  0.495466  0.670023  1
  O  O37  1  0.474819  0.006538  0.169300  1
  O  O38  1  0.477033  0.495466  0.670023  1
  O  O39  1  0.522967  0.504534  0.329977  1
  O  O40  1  0.250000  0.453081  0.096355  1
  O  O41  1  0.750000  0.546919  0.903645  1
  O  O42  1  0.750000  0.952733  0.404251  1
  O  O43  1  0.250000  0.047267  0.595749  1
  O  O44  1  0.250000  0.224372  0.209474  1
  O  O45  1  0.750000  0.775628  0.790526  1
  O  O46  1  0.750000  0.721069  0.291747  1
  O  O47  1  0.250000  0.278931  0.708253  1
  O  O48  1  0.250000  0.026761  0.378150  1
  O  O49  1  0.750000  0.973239  0.621850  1
  O  O50  1  0.750000  0.526402  0.121081  1
  O  O51  1  0.250000  0.473598  0.878919  1
  O  O52  1  0.250000  0.382895  0.480916  1
  O  O53  1  0.750000  0.617105  0.519084  1
  O  O54  1  0.750000  0.882446  0.018926  1
  O  O55  1  0.250000  0.117554  0.981074  1
  O  O56  1  0.250000  0.621547  0.495437  1
  O  O57  1  0.750000  0.378453  0.504563  1
  O  O58  1  0.750000  0.121588  0.004825  1
  O  O59  1  0.250000  0.878412  0.995175  1
