# generated using pymatgen
data_LaEuSiNiI
_symmetry_space_group_name_H-M   'P 1'
_cell_length_a   4.25132500
_cell_length_b   4.25132436
_cell_length_c   8.59654400
_cell_angle_alpha   90.00000000
_cell_angle_beta   90.00000000
_cell_angle_gamma   119.99999719
_symmetry_Int_Tables_number   1
_chemical_formula_structural   LaEuSiNiI
_chemical_formula_sum   'La1 Eu1 Si1 Ni1 I1'
_cell_volume   134.55600437
_cell_formula_units_Z   1
loop_
 _symmetry_equiv_pos_site_id
 _symmetry_equiv_pos_as_xyz
  1  'x, y, z'
loop_
 _atom_site_type_symbol
 _atom_site_label
 _atom_site_symmetry_multiplicity
 _atom_site_fract_x
 _atom_site_fract_y
 _atom_site_fract_z
 _atom_site_occupancy
  La  La0  1  0.000000  0.000000  0.792583  1
  Eu  Eu1  1  0.000000  0.000000  0.214059  1
  Si  Si2  1  0.333333  0.666667  0.997598  1
  Ni  Ni3  1  0.666667  0.333333  0.996128  1
  I  I4  1  0.666667  0.333333  0.499632  1
