# generated using pymatgen
data_LaPrTh2(CoB10)2
_symmetry_space_group_name_H-M   'P 1'
_cell_length_a   4.19869800
_cell_length_b   5.64118382
_cell_length_c   11.25183100
_cell_angle_alpha   90.15680230
_cell_angle_beta   90.00000000
_cell_angle_gamma   90.00000000
_symmetry_Int_Tables_number   1
_chemical_formula_structural   LaPrTh2(CoB10)2
_chemical_formula_sum   'La1 Pr1 Th2 Co2 B20'
_cell_volume   266.50567675
_cell_formula_units_Z   1
loop_
 _symmetry_equiv_pos_site_id
 _symmetry_equiv_pos_as_xyz
  1  'x, y, z'
loop_
 _atom_site_type_symbol
 _atom_site_label
 _atom_site_symmetry_multiplicity
 _atom_site_fract_x
 _atom_site_fract_y
 _atom_site_fract_z
 _atom_site_occupancy
  La  La0  1  0.500000  0.301490  0.865766  1
  Pr  Pr1  1  0.500000  0.699242  0.134275  1
  Th  Th2  1  0.500000  0.801172  0.633999  1
  Th  Th3  1  0.500000  0.198360  0.365734  1
  Co  Co4  1  0.000000  0.499879  0.499841  1
  Co  Co5  1  0.000000  0.999828  0.000374  1
  B  B6  1  0.000000  0.126876  0.539668  1
  B  B7  1  0.000000  0.873070  0.459904  1
  B  B8  1  0.000000  0.627654  0.959225  1
  B  B9  1  0.000000  0.372622  0.041240  1
  B  B10  1  0.000000  0.152512  0.696269  1
  B  B11  1  0.000000  0.847218  0.303450  1
  B  B12  1  0.298464  0.201436  0.113746  1
  B  B13  1  0.298448  0.799651  0.886421  1
  B  B14  1  0.700368  0.701473  0.386963  1
  B  B15  1  0.700344  0.298418  0.612607  1
  B  B16  1  0.701552  0.799651  0.886421  1
  B  B17  1  0.701536  0.201436  0.113746  1
  B  B18  1  0.299656  0.298418  0.612607  1
  B  B19  1  0.299632  0.701473  0.386963  1
  B  B20  1  0.000000  0.035605  0.187702  1
  B  B21  1  0.000000  0.964025  0.812193  1
  B  B22  1  0.000000  0.534581  0.313743  1
  B  B23  1  0.000000  0.464801  0.686488  1
  B  B24  1  0.000000  0.345010  0.198038  1
  B  B25  1  0.000000  0.654099  0.802614  1
