# generated using pymatgen
data_Ca6YTh(Si3Pd)4
_symmetry_space_group_name_H-M   'P 1'
_cell_length_a   8.27063000
_cell_length_b   8.27062941
_cell_length_c   8.33914800
_cell_angle_alpha   90.00000000
_cell_angle_beta   90.00000000
_cell_angle_gamma   120.00000237
_symmetry_Int_Tables_number   1
_chemical_formula_structural   Ca6YTh(Si3Pd)4
_chemical_formula_sum   'Ca6 Y1 Th1 Si12 Pd4'
_cell_volume   494.00285235
_cell_formula_units_Z   1
loop_
 _symmetry_equiv_pos_site_id
 _symmetry_equiv_pos_as_xyz
  1  'x, y, z'
loop_
 _atom_site_type_symbol
 _atom_site_label
 _atom_site_symmetry_multiplicity
 _atom_site_fract_x
 _atom_site_fract_y
 _atom_site_fract_z
 _atom_site_occupancy
  Ca  Ca0  1  0.500819  0.001636  0.250000  1
  Ca  Ca1  1  0.499211  0.998423  0.750000  1
  Ca  Ca2  1  0.998364  0.499181  0.250000  1
  Ca  Ca3  1  0.001577  0.500789  0.750000  1
  Ca  Ca4  1  0.500819  0.499181  0.250000  1
  Ca  Ca5  1  0.499211  0.500789  0.750000  1
  Y  Y6  1  0.000000  0.000000  0.750000  1
  Th  Th7  1  0.000000  0.000000  0.250000  1
  Si  Si8  1  0.164883  0.329766  0.998664  1
  Si  Si9  1  0.835120  0.670240  0.997550  1
  Si  Si10  1  0.670234  0.835117  0.998664  1
  Si  Si11  1  0.835120  0.670240  0.502450  1
  Si  Si12  1  0.329760  0.164880  0.997550  1
  Si  Si13  1  0.164883  0.329766  0.501336  1
  Si  Si14  1  0.164883  0.835117  0.998664  1
  Si  Si15  1  0.329760  0.164880  0.502450  1
  Si  Si16  1  0.835120  0.164880  0.997550  1
  Si  Si17  1  0.670234  0.835117  0.501336  1
  Si  Si18  1  0.835120  0.164880  0.502450  1
  Si  Si19  1  0.164883  0.835117  0.501336  1
  Pd  Pd20  1  0.333333  0.666667  0.001806  1
  Pd  Pd21  1  0.666667  0.333333  0.996937  1
  Pd  Pd22  1  0.666667  0.333333  0.503063  1
  Pd  Pd23  1  0.333333  0.666667  0.498194  1
