# generated using pymatgen
data_Nd2InCuRh
_symmetry_space_group_name_H-M   'P 1'
_cell_length_a   7.74687200
_cell_length_b   7.72043900
_cell_length_c   3.89023400
_cell_angle_alpha   90.00000000
_cell_angle_beta   90.00000000
_cell_angle_gamma   90.00000000
_symmetry_Int_Tables_number   1
_chemical_formula_structural   Nd2InCuRh
_chemical_formula_sum   'Nd4 In2 Cu2 Rh2'
_cell_volume   232.67198843
_cell_formula_units_Z   2
loop_
 _symmetry_equiv_pos_site_id
 _symmetry_equiv_pos_as_xyz
  1  'x, y, z'
loop_
 _atom_site_type_symbol
 _atom_site_label
 _atom_site_symmetry_multiplicity
 _atom_site_fract_x
 _atom_site_fract_y
 _atom_site_fract_z
 _atom_site_occupancy
  Nd  Nd0  1  0.686981  0.174543  0.500000  1
  Nd  Nd1  1  0.337522  0.822022  0.500000  1
  Nd  Nd2  1  0.813019  0.674543  0.500000  1
  Nd  Nd3  1  0.162478  0.322022  0.500000  1
  In  In4  1  0.496606  0.497512  0.000000  1
  In  In5  1  0.003394  0.997512  0.000000  1
  Cu  Cu6  1  0.383349  0.124775  0.000000  1
  Cu  Cu7  1  0.116651  0.624775  0.000000  1
  Rh  Rh8  1  0.882284  0.381148  0.000000  1
  Rh  Rh9  1  0.617716  0.881148  0.000000  1
