# generated using pymatgen
data_Hf18Ti2FeMo6S
_symmetry_space_group_name_H-M   'P 1'
_cell_length_a   8.41572800
_cell_length_b   8.73469342
_cell_length_c   8.73469302
_cell_angle_alpha   120.00639409
_cell_angle_beta   90.00000000
_cell_angle_gamma   90.00000000
_symmetry_Int_Tables_number   1
_chemical_formula_structural   Hf18Ti2FeMo6S
_chemical_formula_sum   'Hf18 Ti2 Fe1 Mo6 S1'
_cell_volume   556.01902129
_cell_formula_units_Z   1
loop_
 _symmetry_equiv_pos_site_id
 _symmetry_equiv_pos_as_xyz
  1  'x, y, z'
loop_
 _atom_site_type_symbol
 _atom_site_label
 _atom_site_symmetry_multiplicity
 _atom_site_fract_x
 _atom_site_fract_y
 _atom_site_fract_z
 _atom_site_occupancy
  Hf  Hf0  1  0.551121  0.802989  0.605978  1
  Hf  Hf1  1  0.551139  0.802994  0.197006  1
  Hf  Hf2  1  0.551121  0.394022  0.197011  1
  Hf  Hf3  1  0.440725  0.202752  0.405497  1
  Hf  Hf4  1  0.440740  0.202749  0.797251  1
  Hf  Hf5  1  0.440725  0.594503  0.797248  1
  Hf  Hf6  1  0.059275  0.202752  0.405497  1
  Hf  Hf7  1  0.059260  0.202749  0.797251  1
  Hf  Hf8  1  0.059275  0.594503  0.797248  1
  Hf  Hf9  1  0.948879  0.802989  0.605978  1
  Hf  Hf10  1  0.948861  0.802994  0.197006  1
  Hf  Hf11  1  0.948879  0.394022  0.197011  1
  Hf  Hf12  1  0.750000  0.453700  0.907354  1
  Hf  Hf13  1  0.750000  0.453722  0.546278  1
  Hf  Hf14  1  0.750000  0.092646  0.546300  1
  Hf  Hf15  1  0.250000  0.540750  0.081500  1
  Hf  Hf16  1  0.250000  0.540749  0.459251  1
  Hf  Hf17  1  0.250000  0.918500  0.459250  1
  Ti  Ti18  1  0.495268  0.999998  0.000002  1
  Ti  Ti19  1  0.004732  0.999998  0.000002  1
  Fe  Fe20  1  0.250000  0.333314  0.666686  1
  Mo  Mo21  1  0.750000  0.112399  0.224844  1
  Mo  Mo22  1  0.750000  0.112412  0.887588  1
  Mo  Mo23  1  0.750000  0.775156  0.887601  1
  Mo  Mo24  1  0.250000  0.884589  0.769186  1
  Mo  Mo25  1  0.250000  0.884575  0.115425  1
  Mo  Mo26  1  0.250000  0.230814  0.115411  1
  S  S27  1  0.750000  0.666661  0.333339  1
