# generated using pymatgen
data_Gd3Er(MoO6)2
_symmetry_space_group_name_H-M   'P 1'
_cell_length_a   10.04016795
_cell_length_b   10.04016804
_cell_length_c   5.44226100
_cell_angle_alpha   74.92083805
_cell_angle_beta   74.92084024
_cell_angle_gamma   68.13114900
_symmetry_Int_Tables_number   1
_chemical_formula_structural   Gd3Er(MoO6)2
_chemical_formula_sum   'Gd6 Er2 Mo4 O24'
_cell_volume   483.37094942
_cell_formula_units_Z   2
loop_
 _symmetry_equiv_pos_site_id
 _symmetry_equiv_pos_as_xyz
  1  'x, y, z'
loop_
 _atom_site_type_symbol
 _atom_site_label
 _atom_site_symmetry_multiplicity
 _atom_site_fract_x
 _atom_site_fract_y
 _atom_site_fract_z
 _atom_site_occupancy
  Gd  Gd0  1  0.216393  0.448352  0.878962  1
  Gd  Gd1  1  0.448352  0.216393  0.378962  1
  Gd  Gd2  1  0.783607  0.551648  0.121038  1
  Gd  Gd3  1  0.551648  0.783607  0.621038  1
  Gd  Gd4  1  0.862850  0.137150  0.250000  1
  Gd  Gd5  1  0.137150  0.862850  0.750000  1
  Er  Er6  1  0.395012  0.604988  0.250000  1
  Er  Er7  1  0.604988  0.395012  0.750000  1
  Mo  Mo8  1  0.988219  0.703833  0.438206  1
  Mo  Mo9  1  0.296167  0.011781  0.061794  1
  Mo  Mo10  1  0.011781  0.296167  0.561794  1
  Mo  Mo11  1  0.703833  0.988219  0.938206  1
  O  O12  1  0.429478  0.392569  0.576949  1
  O  O13  1  0.607431  0.570522  0.923051  1
  O  O14  1  0.570522  0.607431  0.423051  1
  O  O15  1  0.392569  0.429478  0.076949  1
  O  O16  1  0.194630  0.662401  0.574089  1
  O  O17  1  0.337599  0.805370  0.925911  1
  O  O18  1  0.805370  0.337599  0.425911  1
  O  O19  1  0.662401  0.194630  0.074089  1
  O  O20  1  0.114395  0.672956  0.129276  1
  O  O21  1  0.327044  0.885605  0.370724  1
  O  O22  1  0.885605  0.327044  0.870724  1
  O  O23  1  0.672956  0.114395  0.629276  1
  O  O24  1  0.711233  0.817405  0.864635  1
  O  O25  1  0.182595  0.288767  0.635365  1
  O  O26  1  0.288767  0.182595  0.135365  1
  O  O27  1  0.817405  0.711233  0.364635  1
  O  O28  1  0.887407  0.951629  0.986338  1
  O  O29  1  0.048371  0.112593  0.513662  1
  O  O30  1  0.976053  0.569186  0.741201  1
  O  O31  1  0.951629  0.887407  0.486338  1
  O  O32  1  0.569186  0.976053  0.241201  1
  O  O33  1  0.023947  0.430814  0.258799  1
  O  O34  1  0.430814  0.023947  0.758799  1
  O  O35  1  0.112593  0.048371  0.013662  1
