# generated using pymatgen
data_Nb4V4Ge3P
_symmetry_space_group_name_H-M   'P 1'
_cell_length_a   3.45646600
_cell_length_b   6.62464118
_cell_length_c   7.98624648
_cell_angle_alpha   89.61940941
_cell_angle_beta   90.00000000
_cell_angle_gamma   90.00000000
_symmetry_Int_Tables_number   1
_chemical_formula_structural   Nb4V4Ge3P
_chemical_formula_sum   'Nb4 V4 Ge3 P1'
_cell_volume   182.86381566
_cell_formula_units_Z   1
loop_
 _symmetry_equiv_pos_site_id
 _symmetry_equiv_pos_as_xyz
  1  'x, y, z'
loop_
 _atom_site_type_symbol
 _atom_site_label
 _atom_site_symmetry_multiplicity
 _atom_site_fract_x
 _atom_site_fract_y
 _atom_site_fract_z
 _atom_site_occupancy
  Nb  Nb0  1  0.250000  0.028449  0.832966  1
  Nb  Nb1  1  0.250000  0.552979  0.676122  1
  Nb  Nb2  1  0.750000  0.954564  0.162306  1
  Nb  Nb3  1  0.750000  0.451702  0.333463  1
  V  V4  1  0.250000  0.128423  0.440649  1
  V  V5  1  0.250000  0.635369  0.052245  1
  V  V6  1  0.750000  0.868052  0.565496  1
  V  V7  1  0.750000  0.381657  0.938085  1
  Ge  Ge8  1  0.250000  0.751915  0.359986  1
  Ge  Ge9  1  0.250000  0.255180  0.135475  1
  Ge  Ge10  1  0.750000  0.246487  0.640793  1
  P  P11  1  0.750000  0.745222  0.862414  1
