# generated using pymatgen
data_Ba4Ca(YbBi4)3
_symmetry_space_group_name_H-M   'P 1'
_cell_length_a   6.80664367
_cell_length_b   7.03221457
_cell_length_c   15.12952900
_cell_angle_alpha   90.00000000
_cell_angle_beta   90.00000000
_cell_angle_gamma   89.92653012
_symmetry_Int_Tables_number   1
_chemical_formula_structural   Ba4Ca(YbBi4)3
_chemical_formula_sum   'Ba4 Ca1 Yb3 Bi12'
_cell_volume   724.18609344
_cell_formula_units_Z   1
loop_
 _symmetry_equiv_pos_site_id
 _symmetry_equiv_pos_as_xyz
  1  'x, y, z'
loop_
 _atom_site_type_symbol
 _atom_site_label
 _atom_site_symmetry_multiplicity
 _atom_site_fract_x
 _atom_site_fract_y
 _atom_site_fract_z
 _atom_site_occupancy
  Ba  Ba0  1  0.543745  0.500534  0.249567  1
  Ba  Ba1  1  0.455124  0.500200  0.750358  1
  Ba  Ba2  1  0.956255  0.999466  0.249567  1
  Ba  Ba3  1  0.044876  0.999800  0.750358  1
  Ca  Ca4  1  0.250000  0.750000  0.498894  1
  Yb  Yb5  1  0.750000  0.750000  0.999261  1
  Yb  Yb6  1  0.250000  0.250000  0.000701  1
  Yb  Yb7  1  0.750000  0.250000  0.500859  1
  Bi  Bi8  1  0.750000  0.750000  0.447048  1
  Bi  Bi9  1  0.250000  0.250000  0.552856  1
  Bi  Bi10  1  0.750000  0.250000  0.052928  1
  Bi  Bi11  1  0.250000  0.750000  0.947253  1
  Bi  Bi12  1  0.064552  0.551238  0.143811  1
  Bi  Bi13  1  0.934829  0.448104  0.856144  1
  Bi  Bi14  1  0.063510  0.448696  0.355372  1
  Bi  Bi15  1  0.436490  0.051304  0.355372  1
  Bi  Bi16  1  0.935250  0.550237  0.644847  1
  Bi  Bi17  1  0.564750  0.949763  0.644847  1
  Bi  Bi18  1  0.435448  0.948762  0.143811  1
  Bi  Bi19  1  0.565171  0.051896  0.856144  1
