# generated using pymatgen
data_Dy11Er9Co3Bi8Os
_symmetry_space_group_name_H-M   'P 1'
_cell_length_a   7.95320605
_cell_length_b   8.88997100
_cell_length_c   12.39827901
_cell_angle_alpha   90.00000000
_cell_angle_beta   90.20721382
_cell_angle_gamma   90.00000000
_symmetry_Int_Tables_number   1
_chemical_formula_structural   Dy11Er9Co3Bi8Os
_chemical_formula_sum   'Dy11 Er9 Co3 Bi8 Os1'
_cell_volume   876.59934908
_cell_formula_units_Z   1
loop_
 _symmetry_equiv_pos_site_id
 _symmetry_equiv_pos_as_xyz
  1  'x, y, z'
loop_
 _atom_site_type_symbol
 _atom_site_label
 _atom_site_symmetry_multiplicity
 _atom_site_fract_x
 _atom_site_fract_y
 _atom_site_fract_z
 _atom_site_occupancy
  Dy  Dy0  1  0.846735  0.750000  0.800822  1
  Dy  Dy1  1  0.347377  0.250000  0.698680  1
  Dy  Dy2  1  0.654910  0.750000  0.294940  1
  Dy  Dy3  1  0.376272  0.750000  0.693132  1
  Dy  Dy4  1  0.620057  0.250000  0.311429  1
  Dy  Dy5  1  0.879541  0.250000  0.812041  1
  Dy  Dy6  1  0.120076  0.750000  0.186448  1
  Dy  Dy7  1  0.946090  0.750000  0.503992  1
  Dy  Dy8  1  0.049580  0.250000  0.496740  1
  Dy  Dy9  1  0.451604  0.250000  0.997126  1
  Dy  Dy10  1  0.547969  0.750000  0.002715  1
  Er  Er11  1  0.152812  0.250000  0.197606  1
  Er  Er12  1  0.675291  0.040863  0.564905  1
  Er  Er13  1  0.325031  0.965868  0.436229  1
  Er  Er14  1  0.174633  0.966458  0.936884  1
  Er  Er15  1  0.325031  0.534132  0.436229  1
  Er  Er16  1  0.825377  0.035880  0.063224  1
  Er  Er17  1  0.675291  0.459137  0.564905  1
  Er  Er18  1  0.825377  0.464120  0.063224  1
  Er  Er19  1  0.174633  0.533542  0.936884  1
  Co  Co20  1  0.435399  0.250000  0.491232  1
  Co  Co21  1  0.060012  0.250000  0.992379  1
  Co  Co22  1  0.939264  0.750000  0.007252  1
  Bi  Bi23  1  0.569799  0.492244  0.827091  1
  Bi  Bi24  1  0.429726  0.506829  0.173420  1
  Bi  Bi25  1  0.069418  0.507225  0.674617  1
  Bi  Bi26  1  0.429726  0.993171  0.173420  1
  Bi  Bi27  1  0.932558  0.492263  0.325606  1
  Bi  Bi28  1  0.569799  0.007756  0.827091  1
  Bi  Bi29  1  0.932558  0.007737  0.325606  1
  Bi  Bi30  1  0.069418  0.992775  0.674617  1
  Os  Os31  1  0.568635  0.750000  0.509514  1
