# generated using pymatgen
data_Er2U2Ge6Ru7
_symmetry_space_group_name_H-M   'P 1'
_cell_length_a   7.17261863
_cell_length_b   7.24636857
_cell_length_c   7.17261923
_cell_angle_alpha   109.44124777
_cell_angle_beta   109.11561633
_cell_angle_gamma   109.44123884
_symmetry_Int_Tables_number   1
_chemical_formula_structural   Er2U2Ge6Ru7
_chemical_formula_sum   'Er2 U2 Ge6 Ru7'
_cell_volume   288.44167652
_cell_formula_units_Z   1
loop_
 _symmetry_equiv_pos_site_id
 _symmetry_equiv_pos_as_xyz
  1  'x, y, z'
loop_
 _atom_site_type_symbol
 _atom_site_label
 _atom_site_symmetry_multiplicity
 _atom_site_fract_x
 _atom_site_fract_y
 _atom_site_fract_z
 _atom_site_occupancy
  Er  Er0  1  0.000000  0.000000  0.500000  1
  Er  Er1  1  0.500000  0.000000  0.000000  1
  U  U2  1  0.000000  0.500000  0.000000  1
  U  U3  1  0.500000  0.500000  0.500000  1
  Ge  Ge4  1  0.689496  0.693388  0.003892  1
  Ge  Ge5  1  0.312699  0.000000  0.312699  1
  Ge  Ge6  1  0.996108  0.306612  0.310504  1
  Ge  Ge7  1  0.310504  0.306612  0.996108  1
  Ge  Ge8  1  0.687301  0.000000  0.687301  1
  Ge  Ge9  1  0.003892  0.693388  0.689496  1
  Ru  Ru10  1  0.752525  0.264611  0.512085  1
  Ru  Ru11  1  0.750000  0.500000  0.250000  1
  Ru  Ru12  1  0.512085  0.264611  0.752525  1
  Ru  Ru13  1  0.250000  0.500000  0.750000  1
  Ru  Ru14  1  0.247475  0.735389  0.487915  1
  Ru  Ru15  1  0.487915  0.735389  0.247475  1
  Ru  Ru16  1  0.000000  0.000000  0.000000  1
