# generated using pymatgen
data_Pr8Dy7Ho(ScSi4)4
_symmetry_space_group_name_H-M   'P 1'
_cell_length_a   7.40224810
_cell_length_b   7.78645010
_cell_length_c   14.75056902
_cell_angle_alpha   90.00526368
_cell_angle_beta   89.99618521
_cell_angle_gamma   89.98198444
_symmetry_Int_Tables_number   1
_chemical_formula_structural   Pr8Dy7Ho(ScSi4)4
_chemical_formula_sum   'Pr8 Dy7 Ho1 Sc4 Si16'
_cell_volume   850.18197244
_cell_formula_units_Z   1
loop_
 _symmetry_equiv_pos_site_id
 _symmetry_equiv_pos_as_xyz
  1  'x, y, z'
loop_
 _atom_site_type_symbol
 _atom_site_label
 _atom_site_symmetry_multiplicity
 _atom_site_fract_x
 _atom_site_fract_y
 _atom_site_fract_z
 _atom_site_occupancy
  Pr  Pr0  1  0.019122  0.179999  0.401525  1
  Pr  Pr1  1  0.518997  0.319962  0.401531  1
  Pr  Pr2  1  0.480932  0.680068  0.901442  1
  Pr  Pr3  1  0.480902  0.680018  0.598541  1
  Pr  Pr4  1  0.981001  0.820036  0.598519  1
  Pr  Pr5  1  0.980933  0.820048  0.901463  1
  Pr  Pr6  1  0.519089  0.319972  0.098517  1
  Pr  Pr7  1  0.019079  0.180024  0.098529  1
  Dy  Dy8  1  0.677836  0.821831  0.374968  1
  Dy  Dy9  1  0.177826  0.678214  0.374953  1
  Dy  Dy10  1  0.822107  0.321739  0.874908  1
  Dy  Dy11  1  0.822150  0.321655  0.625073  1
  Dy  Dy12  1  0.322179  0.178177  0.874854  1
  Dy  Dy13  1  0.177872  0.678211  0.125075  1
  Dy  Dy14  1  0.677849  0.821797  0.125083  1
  Ho  Ho15  1  0.322190  0.178059  0.625136  1
  Sc  Sc16  1  0.654580  0.987523  0.749953  1
  Sc  Sc17  1  0.845321  0.487497  0.249988  1
  Sc  Sc18  1  0.345315  0.012500  0.249989  1
  Sc  Sc19  1  0.154705  0.512371  0.749919  1
  Si  Si20  1  0.278744  0.874462  0.749880  1
  Si  Si21  1  0.477854  0.603865  0.250003  1
  Si  Si22  1  0.022491  0.103983  0.749817  1
  Si  Si23  1  0.521859  0.395735  0.749843  1
  Si  Si24  1  0.147785  0.467827  0.539538  1
  Si  Si25  1  0.977876  0.896163  0.249998  1
  Si  Si26  1  0.721390  0.125906  0.249982  1
  Si  Si27  1  0.852576  0.531848  0.039422  1
  Si  Si28  1  0.352568  0.968167  0.039448  1
  Si  Si29  1  0.147411  0.468159  0.960600  1
  Si  Si30  1  0.646978  0.032076  0.539581  1
  Si  Si31  1  0.352436  0.968412  0.460790  1
  Si  Si32  1  0.852605  0.531794  0.460597  1
  Si  Si33  1  0.778598  0.625981  0.749990  1
  Si  Si34  1  0.221385  0.374073  0.249993  1
  Si  Si35  1  0.647456  0.031849  0.960550  1
