# generated using pymatgen
data_Dy3Al12(RuRh)2
_symmetry_space_group_name_H-M   'P 1'
_cell_length_a   8.84292899
_cell_length_b   8.78788108
_cell_length_c   9.50747300
_cell_angle_alpha   90.00000000
_cell_angle_beta   90.00000000
_cell_angle_gamma   119.79429246
_symmetry_Int_Tables_number   1
_chemical_formula_structural   Dy3Al12(RuRh)2
_chemical_formula_sum   'Dy6 Al24 Ru4 Rh4'
_cell_volume   641.16903517
_cell_formula_units_Z   2
loop_
 _symmetry_equiv_pos_site_id
 _symmetry_equiv_pos_as_xyz
  1  'x, y, z'
loop_
 _atom_site_type_symbol
 _atom_site_label
 _atom_site_symmetry_multiplicity
 _atom_site_fract_x
 _atom_site_fract_y
 _atom_site_fract_z
 _atom_site_occupancy
  Dy  Dy0  1  0.190039  0.804000  0.250000  1
  Dy  Dy1  1  0.190039  0.386039  0.250000  1
  Dy  Dy2  1  0.616419  0.808209  0.250000  1
  Dy  Dy3  1  0.809961  0.196000  0.750000  1
  Dy  Dy4  1  0.809961  0.613961  0.750000  1
  Dy  Dy5  1  0.383581  0.191791  0.750000  1
  Al  Al6  1  0.560977  0.438060  0.250000  1
  Al  Al7  1  0.560977  0.122918  0.250000  1
  Al  Al8  1  0.876092  0.438046  0.250000  1
  Al  Al9  1  0.439023  0.561940  0.750000  1
  Al  Al10  1  0.439023  0.877082  0.750000  1
  Al  Al11  1  0.123908  0.561954  0.750000  1
  Al  Al12  1  0.325199  0.162600  0.422437  1
  Al  Al13  1  0.837682  0.164088  0.421966  1
  Al  Al14  1  0.837682  0.673594  0.421966  1
  Al  Al15  1  0.674801  0.837400  0.577563  1
  Al  Al16  1  0.162318  0.835912  0.578034  1
  Al  Al17  1  0.162318  0.326406  0.578034  1
  Al  Al18  1  0.674801  0.837400  0.922437  1
  Al  Al19  1  0.162318  0.835912  0.921966  1
  Al  Al20  1  0.162318  0.326406  0.921966  1
  Al  Al21  1  0.325199  0.162600  0.077563  1
  Al  Al22  1  0.837682  0.164088  0.078034  1
  Al  Al23  1  0.837682  0.673594  0.078034  1
  Al  Al24  1  0.668663  0.334331  0.522442  1
  Al  Al25  1  0.331337  0.665669  0.477558  1
  Al  Al26  1  0.331337  0.665669  0.022442  1
  Al  Al27  1  0.668663  0.334331  0.977558  1
  Al  Al28  1  0.997655  0.998828  0.250000  1
  Al  Al29  1  0.002345  0.001172  0.750000  1
  Ru  Ru30  1  0.000000  0.000000  0.500000  1
  Ru  Ru31  1  0.000000  0.000000  0.000000  1
  Ru  Ru32  1  0.000000  0.500000  0.500000  1
  Ru  Ru33  1  0.000000  0.500000  0.000000  1
  Rh  Rh34  1  0.500000  0.500000  0.500000  1
  Rh  Rh35  1  0.500000  0.000000  0.500000  1
  Rh  Rh36  1  0.500000  0.500000  0.000000  1
  Rh  Rh37  1  0.500000  0.000000  0.000000  1
