# generated using pymatgen
data_Ca2YbDy(Ga2Ag)4
_symmetry_space_group_name_H-M   'P 1'
_cell_length_a   4.37301700
_cell_length_b   7.04400198
_cell_length_c   10.47634922
_cell_angle_alpha   89.05730846
_cell_angle_beta   90.00000000
_cell_angle_gamma   90.00000000
_symmetry_Int_Tables_number   1
_chemical_formula_structural   Ca2YbDy(Ga2Ag)4
_chemical_formula_sum   'Ca2 Yb1 Dy1 Ga8 Ag4'
_cell_volume   322.66496848
_cell_formula_units_Z   1
loop_
 _symmetry_equiv_pos_site_id
 _symmetry_equiv_pos_as_xyz
  1  'x, y, z'
loop_
 _atom_site_type_symbol
 _atom_site_label
 _atom_site_symmetry_multiplicity
 _atom_site_fract_x
 _atom_site_fract_y
 _atom_site_fract_z
 _atom_site_occupancy
  Ca  Ca0  1  0.250000  0.776054  0.824893  1
  Ca  Ca1  1  0.750000  0.224158  0.172755  1
  Yb  Yb2  1  0.250000  0.275469  0.672141  1
  Dy  Dy3  1  0.750000  0.719729  0.330498  1
  Ga  Ga4  1  0.250000  0.703007  0.532925  1
  Ga  Ga5  1  0.750000  0.300127  0.466555  1
  Ga  Ga6  1  0.750000  0.795260  0.037375  1
  Ga  Ga7  1  0.250000  0.200787  0.965348  1
  Ga  Ga8  1  0.250000  0.924080  0.154006  1
  Ga  Ga9  1  0.750000  0.075329  0.849031  1
  Ga  Ga10  1  0.750000  0.574162  0.645542  1
  Ga  Ga11  1  0.250000  0.427326  0.349741  1
  Ag  Ag12  1  0.250000  0.542937  0.098294  1
  Ag  Ag13  1  0.750000  0.456870  0.899380  1
  Ag  Ag14  1  0.750000  0.961703  0.599485  1
  Ag  Ag15  1  0.250000  0.043002  0.402034  1
