# generated using pymatgen
data_DyHo5Al24GaOs7
_symmetry_space_group_name_H-M   'P 1'
_cell_length_a   8.86384104
_cell_length_b   8.86352396
_cell_length_c   9.55109227
_cell_angle_alpha   90.08827459
_cell_angle_beta   89.90185272
_cell_angle_gamma   119.84617256
_symmetry_Int_Tables_number   1
_chemical_formula_structural   DyHo5Al24GaOs7
_chemical_formula_sum   'Dy1 Ho5 Al24 Ga1 Os7'
_cell_volume   650.85220673
_cell_formula_units_Z   1
loop_
 _symmetry_equiv_pos_site_id
 _symmetry_equiv_pos_as_xyz
  1  'x, y, z'
loop_
 _atom_site_type_symbol
 _atom_site_label
 _atom_site_symmetry_multiplicity
 _atom_site_fract_x
 _atom_site_fract_y
 _atom_site_fract_z
 _atom_site_occupancy
  Dy  Dy0  1  0.191430  0.385488  0.246196  1
  Ho  Ho1  1  0.808500  0.614120  0.753730  1
  Ho  Ho2  1  0.614191  0.808578  0.246253  1
  Ho  Ho3  1  0.385872  0.191482  0.753718  1
  Ho  Ho4  1  0.194756  0.805336  0.255136  1
  Ho  Ho5  1  0.805249  0.194777  0.744848  1
  Al  Al6  1  0.327520  0.672660  0.021994  1
  Al  Al7  1  0.672507  0.327479  0.977895  1
  Al  Al8  1  0.666053  0.333961  0.518490  1
  Al  Al9  1  0.334027  0.666180  0.481603  1
  Al  Al10  1  0.162545  0.325409  0.572471  1
  Al  Al11  1  0.837482  0.674588  0.427667  1
  Al  Al12  1  0.674597  0.837454  0.572376  1
  Al  Al13  1  0.852246  0.678769  0.081813  1
  Al  Al14  1  0.325451  0.162478  0.427690  1
  Al  Al15  1  0.147741  0.321224  0.918071  1
  Al  Al16  1  0.162961  0.837021  0.576141  1
  Al  Al17  1  0.321258  0.147664  0.081772  1
  Al  Al18  1  0.836930  0.162924  0.423910  1
  Al  Al19  1  0.678785  0.852267  0.918163  1
  Al  Al20  1  0.836750  0.163069  0.077368  1
  Al  Al21  1  0.163146  0.836885  0.922575  1
  Al  Al22  1  0.561850  0.121220  0.249470  1
  Al  Al23  1  0.438144  0.878763  0.750531  1
  Al  Al24  1  0.878598  0.438192  0.249475  1
  Al  Al25  1  0.121245  0.561859  0.750510  1
  Al  Al26  1  0.565449  0.434773  0.257737  1
  Al  Al27  1  0.434730  0.565267  0.742311  1
  Al  Al28  1  0.998679  0.000999  0.250728  1
  Al  Al29  1  0.001194  0.998784  0.749282  1
  Ga  Ga30  1  0.500028  0.500030  0.999977  1
  Os  Os31  1  0.500043  0.000054  0.999977  1
  Os  Os32  1  0.999914  0.500070  0.999857  1
  Os  Os33  1  0.500038  0.000074  0.500034  1
  Os  Os34  1  0.999940  0.500049  0.500110  1
  Os  Os35  1  0.500154  0.500055  0.500116  1
  Os  Os36  1  0.000006  0.000005  0.999978  1
  Os  Os37  1  0.999992  0.999992  0.500029  1
