# generated using pymatgen
data_TbTmOs3Ru
_symmetry_space_group_name_H-M   'P 1'
_cell_length_a   5.26761200
_cell_length_b   5.26761180
_cell_length_c   8.99499400
_cell_angle_alpha   90.00000000
_cell_angle_beta   90.00000000
_cell_angle_gamma   120.00001382
_symmetry_Int_Tables_number   1
_chemical_formula_structural   TbTmOs3Ru
_chemical_formula_sum   'Tb2 Tm2 Os6 Ru2'
_cell_volume   216.15186614
_cell_formula_units_Z   2
loop_
 _symmetry_equiv_pos_site_id
 _symmetry_equiv_pos_as_xyz
  1  'x, y, z'
loop_
 _atom_site_type_symbol
 _atom_site_label
 _atom_site_symmetry_multiplicity
 _atom_site_fract_x
 _atom_site_fract_y
 _atom_site_fract_z
 _atom_site_occupancy
  Tb  Tb0  1  0.666667  0.333333  0.933232  1
  Tb  Tb1  1  0.333333  0.666667  0.066768  1
  Tm  Tm2  1  0.333333  0.666667  0.433964  1
  Tm  Tm3  1  0.666667  0.333333  0.566036  1
  Os  Os4  1  0.829365  0.170635  0.252605  1
  Os  Os5  1  0.829365  0.658730  0.252605  1
  Os  Os6  1  0.341270  0.170635  0.252605  1
  Os  Os7  1  0.170635  0.829365  0.747395  1
  Os  Os8  1  0.170635  0.341270  0.747395  1
  Os  Os9  1  0.658730  0.829365  0.747395  1
  Ru  Ru10  1  0.000000  0.000000  0.500000  1
  Ru  Ru11  1  0.000000  0.000000  0.000000  1
