# generated using pymatgen
data_Ba2FeReN4
_symmetry_space_group_name_H-M   'P 1'
_cell_length_a   6.03609400
_cell_length_b   6.63327502
_cell_length_c   7.93969872
_cell_angle_alpha   66.47923380
_cell_angle_beta   90.00000000
_cell_angle_gamma   90.00000000
_symmetry_Int_Tables_number   1
_chemical_formula_structural   Ba2FeReN4
_chemical_formula_sum   'Ba4 Fe2 Re2 N8'
_cell_volume   291.48575226
_cell_formula_units_Z   2
loop_
 _symmetry_equiv_pos_site_id
 _symmetry_equiv_pos_as_xyz
  1  'x, y, z'
loop_
 _atom_site_type_symbol
 _atom_site_label
 _atom_site_symmetry_multiplicity
 _atom_site_fract_x
 _atom_site_fract_y
 _atom_site_fract_z
 _atom_site_occupancy
  Ba  Ba0  1  0.250000  0.263463  0.053219  1
  Ba  Ba1  1  0.750000  0.736537  0.946781  1
  Ba  Ba2  1  0.750000  0.844498  0.401895  1
  Ba  Ba3  1  0.250000  0.155502  0.598105  1
  Fe  Fe4  1  0.750000  0.357022  0.391970  1
  Fe  Fe5  1  0.250000  0.642978  0.608030  1
  Re  Re6  1  0.250000  0.687656  0.223210  1
  Re  Re7  1  0.750000  0.312344  0.776790  1
  N  N8  1  0.502557  0.495118  0.729274  1
  N  N9  1  0.002557  0.504882  0.270726  1
  N  N10  1  0.497443  0.504882  0.270726  1
  N  N11  1  0.997443  0.495118  0.729274  1
  N  N12  1  0.750000  0.137335  0.633864  1
  N  N13  1  0.250000  0.862665  0.366136  1
  N  N14  1  0.750000  0.127152  0.017486  1
  N  N15  1  0.250000  0.872848  0.982514  1
