# generated using pymatgen
data_LaCoF7
_symmetry_space_group_name_H-M   'P 1'
_cell_length_a   5.60687900
_cell_length_b   9.10869141
_cell_length_c   12.14980757
_cell_angle_alpha   62.16554560
_cell_angle_beta   90.00000000
_cell_angle_gamma   90.00000000
_symmetry_Int_Tables_number   1
_chemical_formula_structural   LaCoF7
_chemical_formula_sum   'La4 Co4 F28'
_cell_volume   548.71441932
_cell_formula_units_Z   4
loop_
 _symmetry_equiv_pos_site_id
 _symmetry_equiv_pos_as_xyz
  1  'x, y, z'
loop_
 _atom_site_type_symbol
 _atom_site_label
 _atom_site_symmetry_multiplicity
 _atom_site_fract_x
 _atom_site_fract_y
 _atom_site_fract_z
 _atom_site_occupancy
  La  La0  1  0.760056  0.804443  0.266794  1
  La  La1  1  0.260056  0.195557  0.233206  1
  La  La2  1  0.239944  0.195557  0.733206  1
  La  La3  1  0.739944  0.804443  0.766794  1
  Co  Co4  1  0.243472  0.726134  0.543714  1
  Co  Co5  1  0.743472  0.273866  0.956286  1
  Co  Co6  1  0.756528  0.273866  0.456286  1
  Co  Co7  1  0.256528  0.726134  0.043714  1
  F  F8  1  0.976610  0.714648  0.462558  1
  F  F9  1  0.476610  0.285352  0.037442  1
  F  F10  1  0.023390  0.285352  0.537442  1
  F  F11  1  0.523390  0.714648  0.962558  1
  F  F12  1  0.072475  0.708133  0.928158  1
  F  F13  1  0.572475  0.291867  0.571842  1
  F  F14  1  0.927525  0.291867  0.071842  1
  F  F15  1  0.427525  0.708133  0.428158  1
  F  F16  1  0.736651  0.497530  0.866075  1
  F  F17  1  0.236651  0.502470  0.633925  1
  F  F18  1  0.263349  0.502470  0.133925  1
  F  F19  1  0.763349  0.497530  0.366075  1
  F  F20  1  0.740671  0.051808  0.041680  1
  F  F21  1  0.240671  0.948192  0.458320  1
  F  F22  1  0.259329  0.948192  0.958320  1
  F  F23  1  0.759329  0.051808  0.541680  1
  F  F24  1  0.059920  0.740414  0.662595  1
  F  F25  1  0.559920  0.259586  0.837405  1
  F  F26  1  0.940080  0.259586  0.337405  1
  F  F27  1  0.440080  0.740414  0.162595  1
  F  F28  1  0.007057  0.269500  0.871026  1
  F  F29  1  0.507057  0.730500  0.628974  1
  F  F30  1  0.992943  0.730500  0.128974  1
  F  F31  1  0.492943  0.269500  0.371026  1
  F  F32  1  0.095326  0.968936  0.227939  1
  F  F33  1  0.595326  0.031064  0.272061  1
  F  F34  1  0.904674  0.031064  0.772061  1
  F  F35  1  0.404674  0.968936  0.727939  1
