# generated using pymatgen
data_Eu3Ga24MoPd8
_symmetry_space_group_name_H-M   'P 1'
_cell_length_a   8.55723786
_cell_length_b   8.55723836
_cell_length_c   8.55723936
_cell_angle_alpha   90.07171083
_cell_angle_beta   90.07171407
_cell_angle_gamma   90.07171407
_symmetry_Int_Tables_number   1
_chemical_formula_structural   Eu3Ga24MoPd8
_chemical_formula_sum   'Eu3 Ga24 Mo1 Pd8'
_cell_volume   626.61370947
_cell_formula_units_Z   1
loop_
 _symmetry_equiv_pos_site_id
 _symmetry_equiv_pos_as_xyz
  1  'x, y, z'
loop_
 _atom_site_type_symbol
 _atom_site_label
 _atom_site_symmetry_multiplicity
 _atom_site_fract_x
 _atom_site_fract_y
 _atom_site_fract_z
 _atom_site_occupancy
  Eu  Eu0  1  0.000000  0.500000  0.000000  1
  Eu  Eu1  1  0.500000  0.000000  0.000000  1
  Eu  Eu2  1  0.000000  0.000000  0.500000  1
  Ga  Ga3  1  0.989278  0.643086  0.643086  1
  Ga  Ga4  1  0.643086  0.643086  0.989278  1
  Ga  Ga5  1  0.643086  0.989278  0.643086  1
  Ga  Ga6  1  0.010722  0.356914  0.356914  1
  Ga  Ga7  1  0.356914  0.356914  0.010722  1
  Ga  Ga8  1  0.356914  0.010722  0.356914  1
  Ga  Ga9  1  0.735512  0.500000  0.264488  1
  Ga  Ga10  1  0.264488  0.500000  0.735512  1
  Ga  Ga11  1  0.500000  0.264488  0.735512  1
  Ga  Ga12  1  0.500000  0.735512  0.264488  1
  Ga  Ga13  1  0.264488  0.735512  0.500000  1
  Ga  Ga14  1  0.735512  0.264488  0.500000  1
  Ga  Ga15  1  0.839555  0.142595  0.839555  1
  Ga  Ga16  1  0.142595  0.839555  0.839555  1
  Ga  Ga17  1  0.839555  0.839555  0.142595  1
  Ga  Ga18  1  0.160445  0.857405  0.160445  1
  Ga  Ga19  1  0.857405  0.160445  0.160445  1
  Ga  Ga20  1  0.160445  0.160445  0.857405  1
  Ga  Ga21  1  0.728288  0.486718  0.728288  1
  Ga  Ga22  1  0.486718  0.728288  0.728288  1
  Ga  Ga23  1  0.728288  0.728288  0.486718  1
  Ga  Ga24  1  0.271712  0.513282  0.271712  1
  Ga  Ga25  1  0.513282  0.271712  0.271712  1
  Ga  Ga26  1  0.271712  0.271712  0.513282  1
  Mo  Mo27  1  0.500000  0.500000  0.500000  1
  Pd  Pd28  1  0.836008  0.836008  0.836008  1
  Pd  Pd29  1  0.163992  0.163992  0.163992  1
  Pd  Pd30  1  0.663012  0.336988  0.000000  1
  Pd  Pd31  1  0.000000  0.336988  0.663012  1
  Pd  Pd32  1  0.336988  0.000000  0.663012  1
  Pd  Pd33  1  0.336988  0.663012  0.000000  1
  Pd  Pd34  1  0.000000  0.663012  0.336988  1
  Pd  Pd35  1  0.663012  0.000000  0.336988  1
