# generated using pymatgen
data_Hf18Ta2Re6SiRu
_symmetry_space_group_name_H-M   'P 1'
_cell_length_a   8.67869800
_cell_length_b   8.67869719
_cell_length_c   8.57824000
_cell_angle_alpha   90.00000000
_cell_angle_beta   90.00000000
_cell_angle_gamma   120.00000310
_symmetry_Int_Tables_number   1
_chemical_formula_structural   Hf18Ta2Re6SiRu
_chemical_formula_sum   'Hf18 Ta2 Re6 Si1 Ru1'
_cell_volume   559.54874021
_cell_formula_units_Z   1
loop_
 _symmetry_equiv_pos_site_id
 _symmetry_equiv_pos_as_xyz
  1  'x, y, z'
loop_
 _atom_site_type_symbol
 _atom_site_label
 _atom_site_symmetry_multiplicity
 _atom_site_fract_x
 _atom_site_fract_y
 _atom_site_fract_z
 _atom_site_occupancy
  Hf  Hf0  1  0.199859  0.800141  0.447021  1
  Hf  Hf1  1  0.199859  0.399718  0.447021  1
  Hf  Hf2  1  0.600282  0.800141  0.447021  1
  Hf  Hf3  1  0.804166  0.195834  0.547293  1
  Hf  Hf4  1  0.804166  0.608331  0.547293  1
  Hf  Hf5  1  0.391669  0.195834  0.547293  1
  Hf  Hf6  1  0.804166  0.195834  0.952707  1
  Hf  Hf7  1  0.804166  0.608331  0.952707  1
  Hf  Hf8  1  0.391669  0.195834  0.952707  1
  Hf  Hf9  1  0.199859  0.800141  0.052979  1
  Hf  Hf10  1  0.199859  0.399718  0.052979  1
  Hf  Hf11  1  0.600282  0.800141  0.052979  1
  Hf  Hf12  1  0.541309  0.458691  0.250000  1
  Hf  Hf13  1  0.541309  0.082616  0.250000  1
  Hf  Hf14  1  0.917384  0.458691  0.250000  1
  Hf  Hf15  1  0.461019  0.538981  0.750000  1
  Hf  Hf16  1  0.461019  0.922039  0.750000  1
  Hf  Hf17  1  0.077961  0.538981  0.750000  1
  Ta  Ta18  1  0.000000  0.000000  0.499784  1
  Ta  Ta19  1  0.000000  0.000000  0.000216  1
  Re  Re20  1  0.885906  0.114094  0.250000  1
  Re  Re21  1  0.885906  0.771812  0.250000  1
  Re  Re22  1  0.228188  0.114094  0.250000  1
  Re  Re23  1  0.113532  0.886468  0.750000  1
  Re  Re24  1  0.113532  0.227062  0.750000  1
  Re  Re25  1  0.772938  0.886468  0.750000  1
  Si  Si26  1  0.666667  0.333333  0.750000  1
  Ru  Ru27  1  0.333333  0.666667  0.250000  1
