# generated using pymatgen
data_ErLu2P4Ir7
_symmetry_space_group_name_H-M   'P 1'
_cell_length_a   7.65419753
_cell_length_b   7.65419778
_cell_length_c   9.15377986
_cell_angle_alpha   57.18723028
_cell_angle_beta   57.18723032
_cell_angle_gamma   29.79793625
_symmetry_Int_Tables_number   1
_chemical_formula_structural   ErLu2P4Ir7
_chemical_formula_sum   'Er1 Lu2 P4 Ir7'
_cell_volume   220.66303393
_cell_formula_units_Z   1
loop_
 _symmetry_equiv_pos_site_id
 _symmetry_equiv_pos_as_xyz
  1  'x, y, z'
loop_
 _atom_site_type_symbol
 _atom_site_label
 _atom_site_symmetry_multiplicity
 _atom_site_fract_x
 _atom_site_fract_y
 _atom_site_fract_z
 _atom_site_occupancy
  Er  Er0  1  0.500000  0.500000  0.500000  1
  Lu  Lu1  1  0.827538  0.827538  0.169073  1
  Lu  Lu2  1  0.172462  0.172462  0.830927  1
  P  P3  1  0.389458  0.389458  0.326574  1
  P  P4  1  0.610542  0.610542  0.673426  1
  P  P5  1  0.832449  0.832449  0.773181  1
  P  P6  1  0.167551  0.167551  0.226819  1
  Ir  Ir7  1  0.665431  0.665431  0.080033  1
  Ir  Ir8  1  0.006571  0.006571  0.223894  1
  Ir  Ir9  1  0.993429  0.993429  0.776106  1
  Ir  Ir10  1  0.500000  0.500000  0.000000  1
  Ir  Ir11  1  0.200283  0.200283  0.446338  1
  Ir  Ir12  1  0.799717  0.799717  0.553662  1
  Ir  Ir13  1  0.334569  0.334569  0.919967  1
