# generated using pymatgen
data_La4NdTmTa2O14
_symmetry_space_group_name_H-M   'P 1'
_cell_length_a   6.69347508
_cell_length_b   6.68277803
_cell_length_c   7.76406600
_cell_angle_alpha   90.00000000
_cell_angle_beta   90.00000000
_cell_angle_gamma   108.95743081
_symmetry_Int_Tables_number   1
_chemical_formula_structural   La4NdTmTa2O14
_chemical_formula_sum   'La4 Nd1 Tm1 Ta2 O14'
_cell_volume   328.45731653
_cell_formula_units_Z   1
loop_
 _symmetry_equiv_pos_site_id
 _symmetry_equiv_pos_as_xyz
  1  'x, y, z'
loop_
 _atom_site_type_symbol
 _atom_site_label
 _atom_site_symmetry_multiplicity
 _atom_site_fract_x
 _atom_site_fract_y
 _atom_site_fract_z
 _atom_site_occupancy
  La  La0  1  0.526768  0.521558  0.498154  1
  La  La1  1  0.526768  0.521558  0.001846  1
  La  La2  1  0.007557  0.469774  0.750000  1
  La  La3  1  0.466199  0.003326  0.250000  1
  Nd  Nd4  1  0.535592  0.003582  0.750000  1
  Tm  Tm5  1  0.002064  0.527564  0.250000  1
  Ta  Ta6  1  0.001286  0.001611  0.497247  1
  Ta  Ta7  1  0.001286  0.001611  0.002753  1
  O  O8  1  0.946159  0.053192  0.750000  1
  O  O9  1  0.056666  0.941630  0.250000  1
  O  O10  1  0.349229  0.635209  0.250000  1
  O  O11  1  0.643951  0.370515  0.750000  1
  O  O12  1  0.375599  0.634222  0.750000  1
  O  O13  1  0.648917  0.381436  0.250000  1
  O  O14  1  0.306932  0.069379  0.965744  1
  O  O15  1  0.678748  0.918419  0.477300  1
  O  O16  1  0.306932  0.069379  0.534256  1
  O  O17  1  0.678748  0.918419  0.022700  1
  O  O18  1  0.036630  0.298635  0.453078  1
  O  O19  1  0.933670  0.680173  0.984870  1
  O  O20  1  0.933670  0.680173  0.515130  1
  O  O21  1  0.036630  0.298635  0.046922  1
