# generated using pymatgen
data_Li3SnPd2
_symmetry_space_group_name_H-M   'P 1'
_cell_length_a   4.48541486
_cell_length_b   4.48541511
_cell_length_c   5.36895750
_cell_angle_alpha   90.39068002
_cell_angle_beta   90.39068031
_cell_angle_gamma   59.93762329
_symmetry_Int_Tables_number   1
_chemical_formula_structural   Li3SnPd2
_chemical_formula_sum   'Li3 Sn1 Pd2'
_cell_volume   93.48438693
_cell_formula_units_Z   1
loop_
 _symmetry_equiv_pos_site_id
 _symmetry_equiv_pos_as_xyz
  1  'x, y, z'
loop_
 _atom_site_type_symbol
 _atom_site_label
 _atom_site_symmetry_multiplicity
 _atom_site_fract_x
 _atom_site_fract_y
 _atom_site_fract_z
 _atom_site_occupancy
  Li  Li0  1  0.335306  0.335306  0.184709  1
  Li  Li1  1  0.666936  0.666936  0.339803  1
  Li  Li2  1  0.331561  0.331561  0.678467  1
  Sn  Sn3  1  0.000473  0.000473  0.985761  1
  Pd  Pd4  1  0.999993  0.999993  0.484511  1
  Pd  Pd5  1  0.665731  0.665731  0.826748  1
