# generated using pymatgen
data_B6Os3Ru
_symmetry_space_group_name_H-M   'P 1'
_cell_length_a   2.94013000
_cell_length_b   2.94013113
_cell_length_c   12.91007700
_cell_angle_alpha   90.00000000
_cell_angle_beta   90.00000000
_cell_angle_gamma   120.00000977
_symmetry_Int_Tables_number   1
_chemical_formula_structural   B6Os3Ru
_chemical_formula_sum   'B6 Os3 Ru1'
_cell_volume   96.64795201
_cell_formula_units_Z   1
loop_
 _symmetry_equiv_pos_site_id
 _symmetry_equiv_pos_as_xyz
  1  'x, y, z'
loop_
 _atom_site_type_symbol
 _atom_site_label
 _atom_site_symmetry_multiplicity
 _atom_site_fract_x
 _atom_site_fract_y
 _atom_site_fract_z
 _atom_site_occupancy
  B  B0  1  0.666667  0.333333  0.249027  1
  B  B1  1  0.333333  0.666667  0.750179  1
  B  B2  1  0.333333  0.666667  0.530237  1
  B  B3  1  0.666667  0.333333  0.031645  1
  B  B4  1  0.333333  0.666667  0.970499  1
  B  B5  1  0.666667  0.333333  0.468884  1
  Os  Os6  1  0.333333  0.666667  0.359367  1
  Os  Os7  1  0.666667  0.333333  0.860946  1
  Os  Os8  1  0.666667  0.333333  0.639681  1
  Ru  Ru9  1  0.333333  0.666667  0.139535  1
