# generated using pymatgen
data_Ce2Th2Re5Os3
_symmetry_space_group_name_H-M   'P 1'
_cell_length_a   5.41962865
_cell_length_b   5.18775346
_cell_length_c   9.39728165
_cell_angle_alpha   90.00000083
_cell_angle_beta   89.77705698
_cell_angle_gamma   118.59449241
_symmetry_Int_Tables_number   1
_chemical_formula_structural   Ce2Th2Re5Os3
_chemical_formula_sum   'Ce2 Th2 Re5 Os3'
_cell_volume   231.98274896
_cell_formula_units_Z   1
loop_
 _symmetry_equiv_pos_site_id
 _symmetry_equiv_pos_as_xyz
  1  'x, y, z'
loop_
 _atom_site_type_symbol
 _atom_site_label
 _atom_site_symmetry_multiplicity
 _atom_site_fract_x
 _atom_site_fract_y
 _atom_site_fract_z
 _atom_site_occupancy
  Ce  Ce0  1  0.664706  0.332352  0.439638  1
  Ce  Ce1  1  0.335443  0.667722  0.558900  1
  Th  Th2  1  0.335166  0.667584  0.936193  1
  Th  Th3  1  0.667054  0.333527  0.065449  1
  Re  Re4  1  0.158851  0.827123  0.252466  1
  Re  Re5  1  0.158851  0.331727  0.252466  1
  Re  Re6  1  0.349458  0.174729  0.747273  1
  Re  Re7  1  0.839132  0.171844  0.747827  1
  Re  Re8  1  0.839132  0.667288  0.747827  1
  Os  Os9  1  0.001444  0.000722  0.498642  1
  Os  Os10  1  0.004075  0.002037  0.001166  1
  Os  Os11  1  0.646689  0.823345  0.252152  1
