# generated using pymatgen
data_Nd2DyEr5(CdIr)2
_symmetry_space_group_name_H-M   'P 1'
_cell_length_a   9.68844705
_cell_length_b   9.66212094
_cell_length_c   9.66230935
_cell_angle_alpha   59.88206665
_cell_angle_beta   59.91075609
_cell_angle_gamma   59.91040670
_symmetry_Int_Tables_number   1
_chemical_formula_structural   Nd2DyEr5(CdIr)2
_chemical_formula_sum   'Nd4 Dy2 Er10 Cd4 Ir4'
_cell_volume   638.14115379
_cell_formula_units_Z   2
loop_
 _symmetry_equiv_pos_site_id
 _symmetry_equiv_pos_as_xyz
  1  'x, y, z'
loop_
 _atom_site_type_symbol
 _atom_site_label
 _atom_site_symmetry_multiplicity
 _atom_site_fract_x
 _atom_site_fract_y
 _atom_site_fract_z
 _atom_site_occupancy
  Nd  Nd0  1  0.563338  0.936782  0.562032  1
  Nd  Nd1  1  0.937837  0.562030  0.936793  1
  Nd  Nd2  1  0.563328  0.562033  0.936793  1
  Nd  Nd3  1  0.937835  0.936801  0.562026  1
  Dy  Dy4  1  0.946761  0.553233  0.553242  1
  Dy  Dy5  1  0.554235  0.945766  0.945774  1
  Er  Er6  1  0.350924  0.347418  0.347397  1
  Er  Er7  1  0.345399  0.352045  0.957153  1
  Er  Er8  1  0.345396  0.957147  0.352046  1
  Er  Er9  1  0.954256  0.347416  0.347409  1
  Er  Er10  1  0.813993  0.185998  0.185988  1
  Er  Er11  1  0.185944  0.814048  0.814070  1
  Er  Er12  1  0.190179  0.811367  0.186956  1
  Er  Er13  1  0.811494  0.186977  0.811382  1
  Er  Er14  1  0.190165  0.186962  0.811375  1
  Er  Er15  1  0.811504  0.811378  0.186966  1
  Cd  Cd16  1  0.582430  0.578094  0.578102  1
  Cd  Cd17  1  0.579277  0.582596  0.258846  1
  Cd  Cd18  1  0.579277  0.258852  0.582591  1
  Cd  Cd19  1  0.261375  0.578093  0.578099  1
  Ir  Ir20  1  0.144762  0.140249  0.140255  1
  Ir  Ir21  1  0.137773  0.148369  0.576086  1
  Ir  Ir22  1  0.137782  0.576085  0.148366  1
  Ir  Ir23  1  0.574735  0.140257  0.140251  1
