# generated using pymatgen
data_MgNi3Sn7Rh
_symmetry_space_group_name_H-M   'P 1'
_cell_length_a   6.28976282
_cell_length_b   6.27705351
_cell_length_c   7.65077724
_cell_angle_alpha   113.74612069
_cell_angle_beta   113.85892138
_cell_angle_gamma   90.35048708
_symmetry_Int_Tables_number   1
_chemical_formula_structural   MgNi3Sn7Rh
_chemical_formula_sum   'Mg1 Ni3 Sn7 Rh1'
_cell_volume   247.65484897
_cell_formula_units_Z   1
loop_
 _symmetry_equiv_pos_site_id
 _symmetry_equiv_pos_as_xyz
  1  'x, y, z'
loop_
 _atom_site_type_symbol
 _atom_site_label
 _atom_site_symmetry_multiplicity
 _atom_site_fract_x
 _atom_site_fract_y
 _atom_site_fract_z
 _atom_site_occupancy
  Mg  Mg0  1  0.628694  0.910656  0.256306  1
  Ni  Ni1  1  0.008281  0.783774  0.507607  1
  Ni  Ni2  1  0.247867  0.532558  0.004575  1
  Ni  Ni3  1  0.757086  0.042724  0.005104  1
  Sn  Sn4  1  0.384434  0.674842  0.773365  1
  Sn  Sn5  1  0.375838  0.161388  0.760607  1
  Sn  Sn6  1  0.882889  0.668025  0.760470  1
  Sn  Sn7  1  0.877757  0.153441  0.743305  1
  Sn  Sn8  1  0.122456  0.414846  0.254050  1
  Sn  Sn9  1  0.123235  0.908489  0.252148  1
  Sn  Sn10  1  0.630264  0.415441  0.252339  1
  Rh  Rh11  1  0.499999  0.292415  0.507724  1
