# generated using pymatgen
data_YbTmRuPtO7
_symmetry_space_group_name_H-M   'P 1'
_cell_length_a   7.24099279
_cell_length_b   7.21881293
_cell_length_c   7.21881262
_cell_angle_alpha   59.42759255
_cell_angle_beta   59.89831185
_cell_angle_gamma   59.89831752
_symmetry_Int_Tables_number   1
_chemical_formula_structural   YbTmRuPtO7
_chemical_formula_sum   'Yb2 Tm2 Ru2 Pt2 O14'
_cell_volume   265.23886949
_cell_formula_units_Z   2
loop_
 _symmetry_equiv_pos_site_id
 _symmetry_equiv_pos_as_xyz
  1  'x, y, z'
loop_
 _atom_site_type_symbol
 _atom_site_label
 _atom_site_symmetry_multiplicity
 _atom_site_fract_x
 _atom_site_fract_y
 _atom_site_fract_z
 _atom_site_occupancy
  Yb  Yb0  1  0.125000  0.125000  0.625000  1
  Yb  Yb1  1  0.125000  0.625000  0.125000  1
  Tm  Tm2  1  0.125000  0.125000  0.125000  1
  Tm  Tm3  1  0.625000  0.125000  0.125000  1
  Ru  Ru4  1  0.625000  0.625000  0.625000  1
  Ru  Ru5  1  0.125000  0.625000  0.625000  1
  Pt  Pt6  1  0.625000  0.125000  0.625000  1
  Pt  Pt7  1  0.625000  0.625000  0.125000  1
  O  O8  1  0.543832  0.539176  0.956691  1
  O  O9  1  0.960300  0.539176  0.956691  1
  O  O10  1  0.289700  0.293309  0.710824  1
  O  O11  1  0.992820  0.007180  0.007180  1
  O  O12  1  0.306510  0.693490  0.693490  1
  O  O13  1  0.706168  0.710824  0.293309  1
  O  O14  1  0.718439  0.281561  0.281561  1
  O  O15  1  0.543832  0.956691  0.539176  1
  O  O16  1  0.706168  0.293309  0.710824  1
  O  O17  1  0.531561  0.968439  0.968439  1
  O  O18  1  0.960300  0.956691  0.539176  1
  O  O19  1  0.257180  0.242820  0.242820  1
  O  O20  1  0.289700  0.710824  0.293309  1
  O  O21  1  0.943490  0.556510  0.556510  1
