# generated using pymatgen
data_Eu2MgInRh2
_symmetry_space_group_name_H-M   'P 1'
_cell_length_a   4.32648700
_cell_length_b   7.36396800
_cell_length_c   8.59484700
_cell_angle_alpha   90.00000000
_cell_angle_beta   90.00000000
_cell_angle_gamma   90.00000000
_symmetry_Int_Tables_number   1
_chemical_formula_structural   Eu2MgInRh2
_chemical_formula_sum   'Eu4 Mg2 In2 Rh4'
_cell_volume   273.83278650
_cell_formula_units_Z   2
loop_
 _symmetry_equiv_pos_site_id
 _symmetry_equiv_pos_as_xyz
  1  'x, y, z'
loop_
 _atom_site_type_symbol
 _atom_site_label
 _atom_site_symmetry_multiplicity
 _atom_site_fract_x
 _atom_site_fract_y
 _atom_site_fract_z
 _atom_site_occupancy
  Eu  Eu0  1  0.250000  0.030549  0.324744  1
  Eu  Eu1  1  0.250000  0.530549  0.175256  1
  Eu  Eu2  1  0.750000  0.969907  0.675800  1
  Eu  Eu3  1  0.750000  0.469907  0.824200  1
  Mg  Mg4  1  0.250000  0.137663  0.941439  1
  Mg  Mg5  1  0.250000  0.637663  0.558561  1
  In  In6  1  0.750000  0.861569  0.057141  1
  In  In7  1  0.750000  0.361569  0.442859  1
  Rh  Rh8  1  0.250000  0.268873  0.631299  1
  Rh  Rh9  1  0.250000  0.768873  0.868701  1
  Rh  Rh10  1  0.750000  0.731438  0.369894  1
  Rh  Rh11  1  0.750000  0.231438  0.130106  1
