# generated using pymatgen
data_Y4MnAl18Pt5
_symmetry_space_group_name_H-M   'P 1'
_cell_length_a   7.59181194
_cell_length_b   7.59181050
_cell_length_c   9.47118708
_cell_angle_alpha   89.96666142
_cell_angle_beta   89.96665685
_cell_angle_gamma   119.61080762
_symmetry_Int_Tables_number   1
_chemical_formula_structural   Y4MnAl18Pt5
_chemical_formula_sum   'Y4 Mn1 Al18 Pt5'
_cell_volume   474.58655558
_cell_formula_units_Z   1
loop_
 _symmetry_equiv_pos_site_id
 _symmetry_equiv_pos_as_xyz
  1  'x, y, z'
loop_
 _atom_site_type_symbol
 _atom_site_label
 _atom_site_symmetry_multiplicity
 _atom_site_fract_x
 _atom_site_fract_y
 _atom_site_fract_z
 _atom_site_occupancy
  Y  Y0  1  0.994647  0.669723  0.248518  1
  Y  Y1  1  0.005353  0.330277  0.751482  1
  Y  Y2  1  0.669723  0.994647  0.248518  1
  Y  Y3  1  0.330277  0.005353  0.751482  1
  Mn  Mn4  1  0.000000  0.000000  0.000000  1
  Al  Al5  1  0.123408  0.123408  0.241063  1
  Al  Al6  1  0.876592  0.876592  0.758937  1
  Al  Al7  1  0.998665  0.323347  0.071373  1
  Al  Al8  1  0.001335  0.676653  0.928627  1
  Al  Al9  1  0.998462  0.664972  0.578222  1
  Al  Al10  1  0.335028  0.001538  0.421778  1
  Al  Al11  1  0.001538  0.335028  0.421778  1
  Al  Al12  1  0.664972  0.998462  0.578222  1
  Al  Al13  1  0.676653  0.001335  0.928627  1
  Al  Al14  1  0.323347  0.998665  0.071373  1
  Al  Al15  1  0.333728  0.333728  0.557887  1
  Al  Al16  1  0.666272  0.666272  0.442113  1
  Al  Al17  1  0.677902  0.677902  0.051175  1
  Al  Al18  1  0.322098  0.322098  0.948825  1
  Al  Al19  1  0.339875  0.544835  0.248355  1
  Al  Al20  1  0.660125  0.455165  0.751645  1
  Al  Al21  1  0.544835  0.339875  0.248355  1
  Al  Al22  1  0.455165  0.660125  0.751645  1
  Pt  Pt23  1  0.671956  0.328044  0.000000  1
  Pt  Pt24  1  0.328044  0.671956  0.000000  1
  Pt  Pt25  1  0.327829  0.672171  0.500000  1
  Pt  Pt26  1  0.672171  0.327829  0.500000  1
  Pt  Pt27  1  0.000000  0.000000  0.500000  1
