# generated using pymatgen
data_TbDy3GeBr6
_symmetry_space_group_name_H-M   'P 1'
_cell_length_a   4.08205500
_cell_length_b   13.28375303
_cell_length_c   14.12102325
_cell_angle_alpha   90.15617946
_cell_angle_beta   90.00000000
_cell_angle_gamma   90.00000000
_symmetry_Int_Tables_number   1
_chemical_formula_structural   TbDy3GeBr6
_chemical_formula_sum   'Tb2 Dy6 Ge2 Br12'
_cell_volume   765.70978887
_cell_formula_units_Z   2
loop_
 _symmetry_equiv_pos_site_id
 _symmetry_equiv_pos_as_xyz
  1  'x, y, z'
loop_
 _atom_site_type_symbol
 _atom_site_label
 _atom_site_symmetry_multiplicity
 _atom_site_fract_x
 _atom_site_fract_y
 _atom_site_fract_z
 _atom_site_occupancy
  Tb  Tb0  1  0.000000  0.619046  0.921038  1
  Tb  Tb1  1  0.000000  0.380954  0.078962  1
  Dy  Dy2  1  0.500000  0.118584  0.341100  1
  Dy  Dy3  1  0.500000  0.881416  0.658900  1
  Dy  Dy4  1  0.500000  0.619143  0.159270  1
  Dy  Dy5  1  0.500000  0.380857  0.840730  1
  Dy  Dy6  1  0.000000  0.118364  0.578636  1
  Dy  Dy7  1  0.000000  0.881636  0.421364  1
  Ge  Ge8  1  0.500000  0.000000  0.500000  1
  Ge  Ge9  1  0.500000  0.500000  0.000000  1
  Br  Br10  1  0.500000  0.243459  0.162911  1
  Br  Br11  1  0.500000  0.756541  0.837089  1
  Br  Br12  1  0.500000  0.744499  0.337453  1
  Br  Br13  1  0.500000  0.255501  0.662547  1
  Br  Br14  1  0.000000  0.253901  0.410843  1
  Br  Br15  1  0.000000  0.746099  0.589157  1
  Br  Br16  1  0.000000  0.754391  0.090501  1
  Br  Br17  1  0.000000  0.245609  0.909499  1
  Br  Br18  1  0.000000  0.002954  0.244632  1
  Br  Br19  1  0.000000  0.997046  0.755368  1
  Br  Br20  1  0.000000  0.504529  0.256023  1
  Br  Br21  1  0.000000  0.495471  0.743977  1
