# generated using pymatgen
data_NaLi2(NiN)2
_symmetry_space_group_name_H-M   'P 1'
_cell_length_a   7.14318500
_cell_length_b   7.14318500
_cell_length_c   3.45379800
_cell_angle_alpha   90.00000000
_cell_angle_beta   90.00000000
_cell_angle_gamma   90.00000000
_symmetry_Int_Tables_number   1
_chemical_formula_structural   NaLi2(NiN)2
_chemical_formula_sum   'Na2 Li4 Ni4 N4'
_cell_volume   176.23036051
_cell_formula_units_Z   2
loop_
 _symmetry_equiv_pos_site_id
 _symmetry_equiv_pos_as_xyz
  1  'x, y, z'
loop_
 _atom_site_type_symbol
 _atom_site_label
 _atom_site_symmetry_multiplicity
 _atom_site_fract_x
 _atom_site_fract_y
 _atom_site_fract_z
 _atom_site_occupancy
  Na  Na0  1  0.000000  0.000000  0.000000  1
  Na  Na1  1  0.500000  0.500000  0.000000  1
  Li  Li2  1  0.120544  0.620544  0.000000  1
  Li  Li3  1  0.879456  0.379456  0.000000  1
  Li  Li4  1  0.620544  0.879456  0.000000  1
  Li  Li5  1  0.379456  0.120544  0.000000  1
  Ni  Ni6  1  0.673673  0.173673  0.500000  1
  Ni  Ni7  1  0.326327  0.826327  0.500000  1
  Ni  Ni8  1  0.173673  0.326327  0.500000  1
  Ni  Ni9  1  0.826327  0.673673  0.500000  1
  N  N10  1  0.673639  0.173639  0.000000  1
  N  N11  1  0.326361  0.826361  0.000000  1
  N  N12  1  0.173639  0.326361  0.000000  1
  N  N13  1  0.826361  0.673639  0.000000  1
