# generated using pymatgen
data_ErTm3FeTc7
_symmetry_space_group_name_H-M   'P 1'
_cell_length_a   5.37234500
_cell_length_b   5.37234519
_cell_length_c   8.76736200
_cell_angle_alpha   89.99826890
_cell_angle_beta   90.00173303
_cell_angle_gamma   121.58911789
_symmetry_Int_Tables_number   1
_chemical_formula_structural   ErTm3FeTc7
_chemical_formula_sum   'Er1 Tm3 Fe1 Tc7'
_cell_volume   215.54991585
_cell_formula_units_Z   1
loop_
 _symmetry_equiv_pos_site_id
 _symmetry_equiv_pos_as_xyz
  1  'x, y, z'
loop_
 _atom_site_type_symbol
 _atom_site_label
 _atom_site_symmetry_multiplicity
 _atom_site_fract_x
 _atom_site_fract_y
 _atom_site_fract_z
 _atom_site_occupancy
  Er  Er0  1  0.334677  0.665323  0.063018  1
  Tm  Tm1  1  0.334715  0.665285  0.437017  1
  Tm  Tm2  1  0.666260  0.333740  0.561698  1
  Tm  Tm3  1  0.666260  0.333740  0.938273  1
  Fe  Fe4  1  0.828059  0.171941  0.250038  1
  Tc  Tc5  1  0.002580  0.997420  0.492208  1
  Tc  Tc6  1  0.002591  0.997409  0.007805  1
  Tc  Tc7  1  0.823397  0.657033  0.250052  1
  Tc  Tc8  1  0.342967  0.176603  0.250052  1
  Tc  Tc9  1  0.169534  0.830466  0.749943  1
  Tc  Tc10  1  0.170115  0.341155  0.749948  1
  Tc  Tc11  1  0.658845  0.829885  0.749948  1
