# generated using pymatgen
data_Dy2YMg3NiGe2
_symmetry_space_group_name_H-M   'P 1'
_cell_length_a   7.20835600
_cell_length_b   7.19091921
_cell_length_c   4.27251000
_cell_angle_alpha   90.00000000
_cell_angle_beta   90.00000000
_cell_angle_gamma   120.08024536
_symmetry_Int_Tables_number   1
_chemical_formula_structural   Dy2YMg3NiGe2
_chemical_formula_sum   'Dy2 Y1 Mg3 Ni1 Ge2'
_cell_volume   191.63843473
_cell_formula_units_Z   1
loop_
 _symmetry_equiv_pos_site_id
 _symmetry_equiv_pos_as_xyz
  1  'x, y, z'
loop_
 _atom_site_type_symbol
 _atom_site_label
 _atom_site_symmetry_multiplicity
 _atom_site_fract_x
 _atom_site_fract_y
 _atom_site_fract_z
 _atom_site_occupancy
  Dy  Dy0  1  0.999759  0.590732  0.000000  1
  Dy  Dy1  1  0.409027  0.409268  0.000000  1
  Y  Y2  1  0.589965  0.000000  0.000000  1
  Mg  Mg3  1  0.238517  0.000000  0.500000  1
  Mg  Mg4  1  0.761513  0.761546  0.500000  1
  Mg  Mg5  1  0.999967  0.238454  0.500000  1
  Ni  Ni6  1  0.000979  0.000000  0.000000  1
  Ge  Ge7  1  0.667147  0.334019  0.500000  1
  Ge  Ge8  1  0.333127  0.665981  0.500000  1
