# generated using pymatgen
data_Tb3HoTm4(SiBr6)2
_symmetry_space_group_name_H-M   'P 1'
_cell_length_a   4.03307800
_cell_length_b   13.18188068
_cell_length_c   13.93063271
_cell_angle_alpha   90.03669873
_cell_angle_beta   90.00000000
_cell_angle_gamma   90.00000000
_symmetry_Int_Tables_number   1
_chemical_formula_structural   Tb3HoTm4(SiBr6)2
_chemical_formula_sum   'Tb3 Ho1 Tm4 Si2 Br12'
_cell_volume   740.60177806
_cell_formula_units_Z   1
loop_
 _symmetry_equiv_pos_site_id
 _symmetry_equiv_pos_as_xyz
  1  'x, y, z'
loop_
 _atom_site_type_symbol
 _atom_site_label
 _atom_site_symmetry_multiplicity
 _atom_site_fract_x
 _atom_site_fract_y
 _atom_site_fract_z
 _atom_site_occupancy
  Tb  Tb0  1  0.000000  0.881315  0.420938  1
  Tb  Tb1  1  0.000000  0.619002  0.920742  1
  Tb  Tb2  1  0.000000  0.381001  0.079264  1
  Ho  Ho3  1  0.000000  0.118448  0.578874  1
  Tm  Tm4  1  0.500000  0.117446  0.342046  1
  Tm  Tm5  1  0.500000  0.882652  0.658018  1
  Tm  Tm6  1  0.500000  0.617379  0.157943  1
  Tm  Tm7  1  0.500000  0.382624  0.842086  1
  Si  Si8  1  0.500000  0.000896  0.500607  1
  Si  Si9  1  0.500000  0.500003  0.000001  1
  Br  Br10  1  0.500000  0.241398  0.165323  1
  Br  Br11  1  0.500000  0.758631  0.834699  1
  Br  Br12  1  0.500000  0.741559  0.334855  1
  Br  Br13  1  0.500000  0.257406  0.664488  1
  Br  Br14  1  0.000000  0.254168  0.409220  1
  Br  Br15  1  0.000000  0.745564  0.591413  1
  Br  Br16  1  0.000000  0.754517  0.091460  1
  Br  Br17  1  0.000000  0.245481  0.908521  1
  Br  Br18  1  0.000000  0.005044  0.242532  1
  Br  Br19  1  0.000000  0.995507  0.756981  1
  Br  Br20  1  0.000000  0.505063  0.257562  1
  Br  Br21  1  0.000000  0.494896  0.742429  1
