# generated using pymatgen
data_NdThB4(OsRu)2
_symmetry_space_group_name_H-M   'P 1'
_cell_length_a   6.79474850
_cell_length_b   6.02070327
_cell_length_c   5.61664097
_cell_angle_alpha   71.35086491
_cell_angle_beta   57.09342637
_cell_angle_gamma   51.55570967
_symmetry_Int_Tables_number   1
_chemical_formula_structural   NdThB4(OsRu)2
_chemical_formula_sum   'Nd1 Th1 B4 Os2 Ru2'
_cell_volume   151.03052468
_cell_formula_units_Z   1
loop_
 _symmetry_equiv_pos_site_id
 _symmetry_equiv_pos_as_xyz
  1  'x, y, z'
loop_
 _atom_site_type_symbol
 _atom_site_label
 _atom_site_symmetry_multiplicity
 _atom_site_fract_x
 _atom_site_fract_y
 _atom_site_fract_z
 _atom_site_occupancy
  Nd  Nd0  1  0.000000  0.000000  0.000000  1
  Th  Th1  1  0.250000  0.250000  0.250000  1
  B  B2  1  0.317527  0.682473  0.317527  1
  B  B3  1  0.682473  0.317527  0.682473  1
  B  B4  1  0.565418  0.934582  0.565418  1
  B  B5  1  0.934582  0.565418  0.934582  1
  Os  Os6  1  0.637352  0.637352  0.362648  1
  Os  Os7  1  0.362648  0.362648  0.637352  1
  Ru  Ru8  1  0.613245  0.613245  0.886755  1
  Ru  Ru9  1  0.886755  0.886755  0.613245  1
