# generated using pymatgen
data_SmY3V4F28
_symmetry_space_group_name_H-M   'P 1'
_cell_length_a   5.54980309
_cell_length_b   8.88577777
_cell_length_c   11.86511114
_cell_angle_alpha   63.44239415
_cell_angle_beta   89.98586101
_cell_angle_gamma   89.98034368
_symmetry_Int_Tables_number   1
_chemical_formula_structural   SmY3V4F28
_chemical_formula_sum   'Sm1 Y3 V4 F28'
_cell_volume   523.38106986
_cell_formula_units_Z   1
loop_
 _symmetry_equiv_pos_site_id
 _symmetry_equiv_pos_as_xyz
  1  'x, y, z'
loop_
 _atom_site_type_symbol
 _atom_site_label
 _atom_site_symmetry_multiplicity
 _atom_site_fract_x
 _atom_site_fract_y
 _atom_site_fract_z
 _atom_site_occupancy
  Sm  Sm0  1  0.257719  0.808667  0.270322  1
  Y  Y1  1  0.741749  0.193065  0.728982  1
  Y  Y2  1  0.758482  0.196794  0.228005  1
  Y  Y3  1  0.241840  0.808353  0.770472  1
  V  V4  1  0.753134  0.726143  0.043053  1
  V  V5  1  0.245511  0.275017  0.953464  1
  V  V6  1  0.253714  0.272092  0.455194  1
  V  V7  1  0.745856  0.725546  0.548009  1
  F  F8  1  0.949504  0.705039  0.427497  1
  F  F9  1  0.047426  0.293197  0.574714  1
  F  F10  1  0.451442  0.294749  0.073599  1
  F  F11  1  0.547985  0.705337  0.923280  1
  F  F12  1  0.480709  0.730684  0.138173  1
  F  F13  1  0.517110  0.267201  0.858083  1
  F  F14  1  0.981134  0.268014  0.359224  1
  F  F15  1  0.018827  0.731977  0.643060  1
  F  F16  1  0.953745  0.745371  0.166898  1
  F  F17  1  0.040374  0.252189  0.831655  1
  F  F18  1  0.459054  0.251180  0.332422  1
  F  F19  1  0.541564  0.747143  0.670332  1
  F  F20  1  0.765613  0.494638  0.136130  1
  F  F21  1  0.234576  0.505466  0.861343  1
  F  F22  1  0.266691  0.502487  0.362843  1
  F  F23  1  0.735585  0.494086  0.639935  1
  F  F24  1  0.966107  0.286524  0.044266  1
  F  F25  1  0.034259  0.714056  0.953576  1
  F  F26  1  0.466968  0.712437  0.458424  1
  F  F27  1  0.533201  0.284628  0.545906  1
  F  F28  1  0.742922  0.953348  0.457477  1
  F  F29  1  0.256925  0.043700  0.545208  1
  F  F30  1  0.242949  0.046109  0.044383  1
  F  F31  1  0.756901  0.954462  0.954128  1
  F  F32  1  0.584075  0.976844  0.231154  1
  F  F33  1  0.425510  0.025871  0.767956  1
  F  F34  1  0.075685  0.032461  0.268789  1
  F  F35  1  0.925153  0.975122  0.732043  1
