# generated using pymatgen
data_Pr8Zn8IrPtRh6
_symmetry_space_group_name_H-M   'P 1'
_cell_length_a   4.03931200
_cell_length_b   7.39532324
_cell_length_c   16.72153869
_cell_angle_alpha   90.10298527
_cell_angle_beta   90.00000000
_cell_angle_gamma   90.00000000
_symmetry_Int_Tables_number   1
_chemical_formula_structural   Pr8Zn8IrPtRh6
_chemical_formula_sum   'Pr8 Zn8 Ir1 Pt1 Rh6'
_cell_volume   499.50529616
_cell_formula_units_Z   1
loop_
 _symmetry_equiv_pos_site_id
 _symmetry_equiv_pos_as_xyz
  1  'x, y, z'
loop_
 _atom_site_type_symbol
 _atom_site_label
 _atom_site_symmetry_multiplicity
 _atom_site_fract_x
 _atom_site_fract_y
 _atom_site_fract_z
 _atom_site_occupancy
  Pr  Pr0  1  0.750000  0.452783  0.215669  1
  Pr  Pr1  1  0.750000  0.952977  0.283444  1
  Pr  Pr2  1  0.750000  0.830876  0.060756  1
  Pr  Pr3  1  0.250000  0.044591  0.719896  1
  Pr  Pr4  1  0.250000  0.169024  0.939963  1
  Pr  Pr5  1  0.250000  0.548742  0.784131  1
  Pr  Pr6  1  0.750000  0.332432  0.436004  1
  Pr  Pr7  1  0.250000  0.669878  0.560198  1
  Zn  Zn8  1  0.250000  0.996854  0.437234  1
  Zn  Zn9  1  0.750000  0.501128  0.940310  1
  Zn  Zn10  1  0.750000  0.998311  0.560050  1
  Zn  Zn11  1  0.250000  0.624758  0.348731  1
  Zn  Zn12  1  0.750000  0.377805  0.653434  1
  Zn  Zn13  1  0.750000  0.873840  0.850689  1
  Zn  Zn14  1  0.250000  0.499385  0.059690  1
  Zn  Zn15  1  0.250000  0.125337  0.150531  1
  Ir  Ir16  1  0.250000  0.244077  0.313499  1
  Pt  Pt17  1  0.250000  0.243580  0.566652  1
  Rh  Rh18  1  0.750000  0.256566  0.065107  1
  Rh  Rh19  1  0.750000  0.254779  0.812918  1
  Rh  Rh20  1  0.250000  0.743789  0.934394  1
  Rh  Rh21  1  0.750000  0.755021  0.685752  1
  Rh  Rh22  1  0.750000  0.756746  0.434985  1
  Rh  Rh23  1  0.250000  0.746718  0.185960  1
