# generated using pymatgen
data_Zr9Be2(SiP)2
_symmetry_space_group_name_H-M   'P 1'
_cell_length_a   12.12525000
_cell_length_b   12.12525000
_cell_length_c   3.67280900
_cell_angle_alpha   90.00000000
_cell_angle_beta   90.00000000
_cell_angle_gamma   90.00000000
_symmetry_Int_Tables_number   1
_chemical_formula_structural   Zr9Be2(SiP)2
_chemical_formula_sum   'Zr18 Be4 Si4 P4'
_cell_volume   539.98257727
_cell_formula_units_Z   2
loop_
 _symmetry_equiv_pos_site_id
 _symmetry_equiv_pos_as_xyz
  1  'x, y, z'
loop_
 _atom_site_type_symbol
 _atom_site_label
 _atom_site_symmetry_multiplicity
 _atom_site_fract_x
 _atom_site_fract_y
 _atom_site_fract_z
 _atom_site_occupancy
  Zr  Zr0  1  0.000000  0.000000  0.000000  1
  Zr  Zr1  1  0.500000  0.500000  0.000000  1
  Zr  Zr2  1  0.107569  0.185618  0.500000  1
  Zr  Zr3  1  0.185618  0.892431  0.500000  1
  Zr  Zr4  1  0.814382  0.107569  0.500000  1
  Zr  Zr5  1  0.892431  0.814382  0.500000  1
  Zr  Zr6  1  0.395406  0.681072  0.500000  1
  Zr  Zr7  1  0.604594  0.318928  0.500000  1
  Zr  Zr8  1  0.681072  0.604594  0.500000  1
  Zr  Zr9  1  0.318928  0.395406  0.500000  1
  Zr  Zr10  1  0.099972  0.402996  0.000000  1
  Zr  Zr11  1  0.402996  0.900028  0.000000  1
  Zr  Zr12  1  0.597004  0.099972  0.000000  1
  Zr  Zr13  1  0.900028  0.597004  0.000000  1
  Zr  Zr14  1  0.385981  0.119877  0.500000  1
  Zr  Zr15  1  0.119877  0.614019  0.500000  1
  Zr  Zr16  1  0.880123  0.385981  0.500000  1
  Zr  Zr17  1  0.614019  0.880123  0.500000  1
  Be  Be18  1  0.262750  0.241340  0.000000  1
  Be  Be19  1  0.241340  0.737250  0.000000  1
  Be  Be20  1  0.758660  0.262750  0.000000  1
  Be  Be21  1  0.737250  0.758660  0.000000  1
  Si  Si22  1  0.226812  0.057213  0.000000  1
  Si  Si23  1  0.057213  0.773188  0.000000  1
  Si  Si24  1  0.942787  0.226812  0.000000  1
  Si  Si25  1  0.773188  0.942787  0.000000  1
  P  P26  1  0.276196  0.557141  0.000000  1
  P  P27  1  0.723804  0.442859  0.000000  1
  P  P28  1  0.557141  0.723804  0.000000  1
  P  P29  1  0.442859  0.276196  0.000000  1
