# generated using pymatgen
data_Tb4AlRu6W
_symmetry_space_group_name_H-M   'P 1'
_cell_length_a   5.21800643
_cell_length_b   5.21800596
_cell_length_c   8.96566200
_cell_angle_alpha   90.00000000
_cell_angle_beta   90.00000000
_cell_angle_gamma   114.94723280
_symmetry_Int_Tables_number   1
_chemical_formula_structural   Tb4AlRu6W
_chemical_formula_sum   'Tb4 Al1 Ru6 W1'
_cell_volume   221.33675487
_cell_formula_units_Z   1
loop_
 _symmetry_equiv_pos_site_id
 _symmetry_equiv_pos_as_xyz
  1  'x, y, z'
loop_
 _atom_site_type_symbol
 _atom_site_label
 _atom_site_symmetry_multiplicity
 _atom_site_fract_x
 _atom_site_fract_y
 _atom_site_fract_z
 _atom_site_occupancy
  Tb  Tb0  1  0.326169  0.673831  0.433753  1
  Tb  Tb1  1  0.670146  0.329854  0.567413  1
  Tb  Tb2  1  0.670146  0.329854  0.932587  1
  Tb  Tb3  1  0.326169  0.673831  0.066247  1
  Al  Al4  1  0.163578  0.836422  0.750000  1
  Ru  Ru5  1  0.988665  0.011335  0.501728  1
  Ru  Ru6  1  0.988665  0.011335  0.998272  1
  Ru  Ru7  1  0.826088  0.642695  0.250000  1
  Ru  Ru8  1  0.357305  0.173912  0.250000  1
  Ru  Ru9  1  0.184690  0.347982  0.750000  1
  Ru  Ru10  1  0.652018  0.815310  0.750000  1
  W  W11  1  0.846360  0.153640  0.250000  1
