# generated using pymatgen
data_HfZr2Sc5(InAu2)4
_symmetry_space_group_name_H-M   'P 1'
_cell_length_a   7.63611878
_cell_length_b   7.63611880
_cell_length_c   7.09239900
_cell_angle_alpha   90.00000000
_cell_angle_beta   90.00000000
_cell_angle_gamma   89.41777415
_symmetry_Int_Tables_number   1
_chemical_formula_structural   HfZr2Sc5(InAu2)4
_chemical_formula_sum   'Hf1 Zr2 Sc5 In4 Au8'
_cell_volume   413.53863336
_cell_formula_units_Z   1
loop_
 _symmetry_equiv_pos_site_id
 _symmetry_equiv_pos_as_xyz
  1  'x, y, z'
loop_
 _atom_site_type_symbol
 _atom_site_label
 _atom_site_symmetry_multiplicity
 _atom_site_fract_x
 _atom_site_fract_y
 _atom_site_fract_z
 _atom_site_occupancy
  Hf  Hf0  1  0.686942  0.313058  0.000000  1
  Zr  Zr1  1  0.143749  0.147924  0.000000  1
  Zr  Zr2  1  0.852076  0.856251  0.000000  1
  Sc  Sc3  1  0.647885  0.352115  0.500000  1
  Sc  Sc4  1  0.351300  0.648700  0.500000  1
  Sc  Sc5  1  0.312916  0.687084  0.000000  1
  Sc  Sc6  1  0.815222  0.812888  0.500000  1
  Sc  Sc7  1  0.187112  0.184778  0.500000  1
  In  In8  1  0.499985  0.998759  0.244166  1
  In  In9  1  0.499985  0.998759  0.755834  1
  In  In10  1  0.001241  0.500015  0.244166  1
  In  In11  1  0.001241  0.500015  0.755834  1
  Au  Au12  1  0.370089  0.368660  0.213130  1
  Au  Au13  1  0.631340  0.629911  0.786870  1
  Au  Au14  1  0.631340  0.629911  0.213130  1
  Au  Au15  1  0.867147  0.132853  0.709631  1
  Au  Au16  1  0.867147  0.132853  0.290369  1
  Au  Au17  1  0.370089  0.368660  0.786870  1
  Au  Au18  1  0.131595  0.868405  0.288568  1
  Au  Au19  1  0.131595  0.868405  0.711432  1
