# generated using pymatgen
data_DyCrFe3P3Ir
_symmetry_space_group_name_H-M   'P 1'
_cell_length_a   3.71884400
_cell_length_b   10.37031600
_cell_length_c   12.18349100
_cell_angle_alpha   90.00000000
_cell_angle_beta   90.00000000
_cell_angle_gamma   90.00000000
_symmetry_Int_Tables_number   1
_chemical_formula_structural   DyCrFe3P3Ir
_chemical_formula_sum   'Dy4 Cr4 Fe12 P12 Ir4'
_cell_volume   469.86348742
_cell_formula_units_Z   4
loop_
 _symmetry_equiv_pos_site_id
 _symmetry_equiv_pos_as_xyz
  1  'x, y, z'
loop_
 _atom_site_type_symbol
 _atom_site_label
 _atom_site_symmetry_multiplicity
 _atom_site_fract_x
 _atom_site_fract_y
 _atom_site_fract_z
 _atom_site_occupancy
  Dy  Dy0  1  0.250000  0.580958  0.712557  1
  Dy  Dy1  1  0.250000  0.919042  0.212557  1
  Dy  Dy2  1  0.750000  0.419042  0.287443  1
  Dy  Dy3  1  0.750000  0.080958  0.787443  1
  Cr  Cr4  1  0.250000  0.701394  0.987261  1
  Cr  Cr5  1  0.250000  0.798606  0.487261  1
  Cr  Cr6  1  0.750000  0.298606  0.012739  1
  Cr  Cr7  1  0.750000  0.201394  0.512739  1
  Fe  Fe8  1  0.250000  0.220951  0.171443  1
  Fe  Fe9  1  0.250000  0.279049  0.671443  1
  Fe  Fe10  1  0.750000  0.779049  0.828557  1
  Fe  Fe11  1  0.750000  0.720951  0.328557  1
  Fe  Fe12  1  0.250000  0.876751  0.696336  1
  Fe  Fe13  1  0.250000  0.623249  0.196336  1
  Fe  Fe14  1  0.750000  0.123249  0.303664  1
  Fe  Fe15  1  0.750000  0.376751  0.803664  1
  Fe  Fe16  1  0.250000  0.462787  0.934994  1
  Fe  Fe17  1  0.250000  0.037213  0.434994  1
  Fe  Fe18  1  0.750000  0.537213  0.065006  1
  Fe  Fe19  1  0.750000  0.962787  0.565006  1
  P  P20  1  0.250000  0.425260  0.111052  1
  P  P21  1  0.250000  0.074740  0.611052  1
  P  P22  1  0.750000  0.574740  0.888948  1
  P  P23  1  0.750000  0.925260  0.388948  1
  P  P24  1  0.250000  0.273904  0.857530  1
  P  P25  1  0.250000  0.226096  0.357530  1
  P  P26  1  0.750000  0.726096  0.142470  1
  P  P27  1  0.750000  0.773904  0.642470  1
  P  P28  1  0.250000  0.605919  0.378966  1
  P  P29  1  0.250000  0.894081  0.878966  1
  P  P30  1  0.750000  0.394081  0.621034  1
  P  P31  1  0.750000  0.105919  0.121034  1
  Ir  Ir32  1  0.250000  0.402083  0.478836  1
  Ir  Ir33  1  0.250000  0.097917  0.978836  1
  Ir  Ir34  1  0.750000  0.597917  0.521164  1
  Ir  Ir35  1  0.750000  0.902083  0.021164  1
