# generated using pymatgen
data_Rb4ScPaTe6
_symmetry_space_group_name_H-M   'P 1'
_cell_length_a   14.99764800
_cell_length_b   7.37466903
_cell_length_c   9.61141395
_cell_angle_alpha   72.90431545
_cell_angle_beta   90.00000000
_cell_angle_gamma   90.00000000
_symmetry_Int_Tables_number   1
_chemical_formula_structural   Rb4ScPaTe6
_chemical_formula_sum   'Rb8 Sc2 Pa2 Te12'
_cell_volume   1016.07762200
_cell_formula_units_Z   2
loop_
 _symmetry_equiv_pos_site_id
 _symmetry_equiv_pos_as_xyz
  1  'x, y, z'
loop_
 _atom_site_type_symbol
 _atom_site_label
 _atom_site_symmetry_multiplicity
 _atom_site_fract_x
 _atom_site_fract_y
 _atom_site_fract_z
 _atom_site_occupancy
  Rb  Rb0  1  0.961238  0.659346  0.671146  1
  Rb  Rb1  1  0.461238  0.840654  0.328854  1
  Rb  Rb2  1  0.039057  0.342221  0.328474  1
  Rb  Rb3  1  0.539057  0.157779  0.671526  1
  Rb  Rb4  1  0.871296  0.074786  0.895033  1
  Rb  Rb5  1  0.371296  0.425214  0.104967  1
  Rb  Rb6  1  0.128674  0.921627  0.103958  1
  Rb  Rb7  1  0.628674  0.578373  0.896042  1
  Sc  Sc8  1  0.750211  0.664409  0.290337  1
  Sc  Sc9  1  0.250211  0.835591  0.709663  1
  Pa  Pa10  1  0.249748  0.335350  0.709158  1
  Pa  Pa11  1  0.749748  0.164650  0.290842  1
  Te  Te12  1  0.908266  0.910318  0.285005  1
  Te  Te13  1  0.408266  0.589682  0.714995  1
  Te  Te14  1  0.091547  0.078376  0.714525  1
  Te  Te15  1  0.591547  0.421624  0.285475  1
  Te  Te16  1  0.819832  0.333504  0.517870  1
  Te  Te17  1  0.319832  0.166496  0.482130  1
  Te  Te18  1  0.180333  0.677238  0.482037  1
  Te  Te19  1  0.680333  0.822762  0.517963  1
  Te  Te20  1  0.840331  0.502258  0.071926  1
  Te  Te21  1  0.340331  0.997742  0.928074  1
  Te  Te22  1  0.159467  0.503660  0.928597  1
  Te  Te23  1  0.659467  0.996340  0.071403  1
