# generated using pymatgen
data_NdDyPa2(NiP)4
_symmetry_space_group_name_H-M   'P 1'
_cell_length_a   3.93936300
_cell_length_b   3.93936361
_cell_length_c   15.38249300
_cell_angle_alpha   90.00000000
_cell_angle_beta   90.00000000
_cell_angle_gamma   119.99996971
_symmetry_Int_Tables_number   1
_chemical_formula_structural   NdDyPa2(NiP)4
_chemical_formula_sum   'Nd1 Dy1 Pa2 Ni4 P4'
_cell_volume   206.73288265
_cell_formula_units_Z   1
loop_
 _symmetry_equiv_pos_site_id
 _symmetry_equiv_pos_as_xyz
  1  'x, y, z'
loop_
 _atom_site_type_symbol
 _atom_site_label
 _atom_site_symmetry_multiplicity
 _atom_site_fract_x
 _atom_site_fract_y
 _atom_site_fract_z
 _atom_site_occupancy
  Nd  Nd0  1  0.000000  0.000000  0.000000  1
  Dy  Dy1  1  0.000000  0.000000  0.500000  1
  Pa  Pa2  1  0.000000  0.000000  0.253432  1
  Pa  Pa3  1  0.000000  0.000000  0.746568  1
  Ni  Ni4  1  0.333333  0.666667  0.367752  1
  Ni  Ni5  1  0.666667  0.333333  0.632248  1
  Ni  Ni6  1  0.666667  0.333333  0.859633  1
  Ni  Ni7  1  0.333333  0.666667  0.140367  1
  P  P8  1  0.333333  0.666667  0.868982  1
  P  P9  1  0.666667  0.333333  0.131018  1
  P  P10  1  0.666667  0.333333  0.376617  1
  P  P11  1  0.333333  0.666667  0.623383  1
