# generated using pymatgen
data_Lu20AlGaBi10
_symmetry_space_group_name_H-M   'P 1'
_cell_length_a   8.04669658
_cell_length_b   9.32746000
_cell_length_c   11.72544975
_cell_angle_alpha   90.00000000
_cell_angle_beta   89.91811274
_cell_angle_gamma   90.00000000
_symmetry_Int_Tables_number   1
_chemical_formula_structural   Lu20AlGaBi10
_chemical_formula_sum   'Lu20 Al1 Ga1 Bi10'
_cell_volume   880.05555131
_cell_formula_units_Z   1
loop_
 _symmetry_equiv_pos_site_id
 _symmetry_equiv_pos_as_xyz
  1  'x, y, z'
loop_
 _atom_site_type_symbol
 _atom_site_label
 _atom_site_symmetry_multiplicity
 _atom_site_fract_x
 _atom_site_fract_y
 _atom_site_fract_z
 _atom_site_occupancy
  Lu  Lu0  1  0.035537  0.250000  0.509194  1
  Lu  Lu1  1  0.978852  0.750000  0.490417  1
  Lu  Lu2  1  0.479616  0.750000  0.009831  1
  Lu  Lu3  1  0.538816  0.250000  0.990355  1
  Lu  Lu4  1  0.354174  0.250000  0.292711  1
  Lu  Lu5  1  0.651301  0.750000  0.718436  1
  Lu  Lu6  1  0.151075  0.750000  0.781213  1
  Lu  Lu7  1  0.854394  0.250000  0.206267  1
  Lu  Lu8  1  0.180728  0.250000  0.784957  1
  Lu  Lu9  1  0.809312  0.750000  0.217459  1
  Lu  Lu10  1  0.310188  0.750000  0.282664  1
  Lu  Lu11  1  0.683270  0.250000  0.715321  1
  Lu  Lu12  1  0.184883  0.073558  0.055792  1
  Lu  Lu13  1  0.808756  0.949390  0.941195  1
  Lu  Lu14  1  0.307257  0.946566  0.558296  1
  Lu  Lu15  1  0.808756  0.550610  0.941195  1
  Lu  Lu16  1  0.685710  0.072661  0.444290  1
  Lu  Lu17  1  0.184883  0.426442  0.055792  1
  Lu  Lu18  1  0.685710  0.427339  0.444290  1
  Lu  Lu19  1  0.307257  0.553434  0.558296  1
  Al  Al20  1  0.407583  0.250000  0.543717  1
  Ga  Ga21  1  0.910216  0.250000  0.959171  1
  Bi  Bi22  1  0.595945  0.750000  0.457854  1
  Bi  Bi23  1  0.095358  0.750000  0.041772  1
  Bi  Bi24  1  0.060379  0.002345  0.323153  1
  Bi  Bi25  1  0.937049  0.998128  0.676806  1
  Bi  Bi26  1  0.437099  0.998622  0.823413  1
  Bi  Bi27  1  0.937049  0.501872  0.676806  1
  Bi  Bi28  1  0.560685  0.002806  0.176385  1
  Bi  Bi29  1  0.060379  0.497655  0.323153  1
  Bi  Bi30  1  0.560685  0.497194  0.176385  1
  Bi  Bi31  1  0.437099  0.501378  0.823413  1
