# generated using pymatgen
data_Li2CeDyPt2
_symmetry_space_group_name_H-M   'P 1'
_cell_length_a   4.02779900
_cell_length_b   7.08214000
_cell_length_c   8.50140400
_cell_angle_alpha   90.00000000
_cell_angle_beta   90.00000000
_cell_angle_gamma   90.00000000
_symmetry_Int_Tables_number   1
_chemical_formula_structural   Li2CeDyPt2
_chemical_formula_sum   'Li4 Ce2 Dy2 Pt4'
_cell_volume   242.50625920
_cell_formula_units_Z   2
loop_
 _symmetry_equiv_pos_site_id
 _symmetry_equiv_pos_as_xyz
  1  'x, y, z'
loop_
 _atom_site_type_symbol
 _atom_site_label
 _atom_site_symmetry_multiplicity
 _atom_site_fract_x
 _atom_site_fract_y
 _atom_site_fract_z
 _atom_site_occupancy
  Li  Li0  1  0.250000  0.374643  0.550288  1
  Li  Li1  1  0.250000  0.874643  0.949712  1
  Li  Li2  1  0.750000  0.625318  0.440203  1
  Li  Li3  1  0.750000  0.125318  0.059797  1
  Ce  Ce4  1  0.750000  0.048901  0.683864  1
  Ce  Ce5  1  0.750000  0.548901  0.816136  1
  Dy  Dy6  1  0.250000  0.949173  0.314545  1
  Dy  Dy7  1  0.250000  0.449173  0.185455  1
  Pt  Pt8  1  0.250000  0.260163  0.874279  1
  Pt  Pt9  1  0.250000  0.760163  0.625721  1
  Pt  Pt10  1  0.750000  0.741801  0.126139  1
  Pt  Pt11  1  0.750000  0.241801  0.373861  1
