# generated using pymatgen
data_Tb7Dy9Cd3Co4Hg
_symmetry_space_group_name_H-M   'P 1'
_cell_length_a   9.52410596
_cell_length_b   9.51673577
_cell_length_c   9.52522670
_cell_angle_alpha   60.00420754
_cell_angle_beta   60.03379744
_cell_angle_gamma   60.01181130
_symmetry_Int_Tables_number   1
_chemical_formula_structural   Tb7Dy9Cd3Co4Hg
_chemical_formula_sum   'Tb7 Dy9 Cd3 Co4 Hg1'
_cell_volume   610.71128940
_cell_formula_units_Z   1
loop_
 _symmetry_equiv_pos_site_id
 _symmetry_equiv_pos_as_xyz
  1  'x, y, z'
loop_
 _atom_site_type_symbol
 _atom_site_label
 _atom_site_symmetry_multiplicity
 _atom_site_fract_x
 _atom_site_fract_y
 _atom_site_fract_z
 _atom_site_occupancy
  Tb  Tb0  1  0.153684  0.537917  0.153413  1
  Tb  Tb1  1  0.688132  0.311309  0.688891  1
  Tb  Tb2  1  0.689013  0.310550  0.312239  1
  Tb  Tb3  1  0.938368  0.561348  0.562124  1
  Tb  Tb4  1  0.540782  0.153285  0.152390  1
  Tb  Tb5  1  0.152767  0.153304  0.540822  1
  Tb  Tb6  1  0.938586  0.937588  0.561590  1
  Dy  Dy7  1  0.312364  0.687928  0.311989  1
  Dy  Dy8  1  0.561277  0.937501  0.938608  1
  Dy  Dy9  1  0.561364  0.937863  0.562135  1
  Dy  Dy10  1  0.688273  0.687591  0.312730  1
  Dy  Dy11  1  0.561832  0.561692  0.938415  1
  Dy  Dy12  1  0.938140  0.561001  0.938346  1
  Dy  Dy13  1  0.313028  0.687091  0.688521  1
  Dy  Dy14  1  0.153547  0.154298  0.152736  1
  Dy  Dy15  1  0.312241  0.310265  0.689526  1
  Cd  Cd16  1  0.919940  0.919128  0.920186  1
  Cd  Cd17  1  0.919744  0.919276  0.241512  1
  Cd  Cd18  1  0.242036  0.919178  0.919640  1
  Co  Co19  1  0.358299  0.359130  0.922371  1
  Co  Co20  1  0.358827  0.922356  0.358488  1
  Co  Co21  1  0.922408  0.359298  0.358088  1
  Co  Co22  1  0.359043  0.359480  0.358829  1
  Hg  Hg23  1  0.916306  0.251622  0.916410  1
