# generated using pymatgen
data_Tb2(DyBi)3
_symmetry_space_group_name_H-M   'P 1'
_cell_length_a   9.22962683
_cell_length_b   9.22284296
_cell_length_c   6.37366600
_cell_angle_alpha   90.00000000
_cell_angle_beta   90.00000000
_cell_angle_gamma   119.97569394
_symmetry_Int_Tables_number   1
_chemical_formula_structural   Tb2(DyBi)3
_chemical_formula_sum   'Tb4 Dy6 Bi6'
_cell_volume   469.97548653
_cell_formula_units_Z   2
loop_
 _symmetry_equiv_pos_site_id
 _symmetry_equiv_pos_as_xyz
  1  'x, y, z'
loop_
 _atom_site_type_symbol
 _atom_site_label
 _atom_site_symmetry_multiplicity
 _atom_site_fract_x
 _atom_site_fract_y
 _atom_site_fract_z
 _atom_site_occupancy
  Tb  Tb0  1  0.000000  0.244188  0.750000  1
  Tb  Tb1  1  0.244627  0.244516  0.250000  1
  Tb  Tb2  1  0.755373  0.999888  0.250000  1
  Tb  Tb3  1  0.000000  0.755684  0.250000  1
  Dy  Dy4  1  0.666783  0.333372  0.000106  1
  Dy  Dy5  1  0.333217  0.666590  0.000106  1
  Dy  Dy6  1  0.333217  0.666590  0.499894  1
  Dy  Dy7  1  0.666783  0.333372  0.499894  1
  Dy  Dy8  1  0.755722  0.755746  0.750000  1
  Dy  Dy9  1  0.244278  0.000025  0.750000  1
  Bi  Bi10  1  0.388984  0.388592  0.750000  1
  Bi  Bi11  1  0.611016  0.999609  0.750000  1
  Bi  Bi12  1  0.000000  0.611795  0.750000  1
  Bi  Bi13  1  0.611282  0.611286  0.250000  1
  Bi  Bi14  1  0.388718  0.000004  0.250000  1
  Bi  Bi15  1  0.000000  0.388744  0.250000  1
