# generated using pymatgen
data_Pa2F9
_symmetry_space_group_name_H-M   'P 1'
_cell_length_a   7.43975146
_cell_length_b   7.43975114
_cell_length_c   7.43975100
_cell_angle_alpha   109.47122024
_cell_angle_beta   109.47121938
_cell_angle_gamma   109.47122661
_symmetry_Int_Tables_number   1
_chemical_formula_structural   Pa2F9
_chemical_formula_sum   'Pa4 F18'
_cell_volume   316.99566469
_cell_formula_units_Z   2
loop_
 _symmetry_equiv_pos_site_id
 _symmetry_equiv_pos_as_xyz
  1  'x, y, z'
loop_
 _atom_site_type_symbol
 _atom_site_label
 _atom_site_symmetry_multiplicity
 _atom_site_fract_x
 _atom_site_fract_y
 _atom_site_fract_z
 _atom_site_occupancy
  Pa  Pa0  1  0.625611  0.625611  0.625611  1
  Pa  Pa1  1  0.000000  0.374389  0.000000  1
  Pa  Pa2  1  0.374389  0.000000  0.000000  1
  Pa  Pa3  1  0.000000  0.000000  0.374389  1
  F  F4  1  0.000000  0.772763  0.772763  1
  F  F5  1  0.000000  0.227237  0.227237  1
  F  F6  1  0.227237  0.000000  0.227237  1
  F  F7  1  0.772763  0.000000  0.772763  1
  F  F8  1  0.765894  0.765894  0.412964  1
  F  F9  1  0.647070  0.234106  0.000000  1
  F  F10  1  0.234106  0.647070  0.000000  1
  F  F11  1  0.352930  0.587036  0.352930  1
  F  F12  1  0.647070  0.000000  0.234106  1
  F  F13  1  0.000000  0.647070  0.234106  1
  F  F14  1  0.587036  0.352930  0.352930  1
  F  F15  1  0.412964  0.765894  0.765894  1
  F  F16  1  0.765894  0.412964  0.765894  1
  F  F17  1  0.234106  0.000000  0.647070  1
  F  F18  1  0.000000  0.234106  0.647070  1
  F  F19  1  0.352930  0.352930  0.587036  1
  F  F20  1  0.772763  0.772763  0.000000  1
  F  F21  1  0.227237  0.227237  0.000000  1
