# generated using pymatgen
data_KRb19(ZrP3)4
_symmetry_space_group_name_H-M   'P 1'
_cell_length_a   8.67776268
_cell_length_b   9.22332028
_cell_length_c   18.08517988
_cell_angle_alpha   60.47931659
_cell_angle_beta   90.47522881
_cell_angle_gamma   90.22765677
_symmetry_Int_Tables_number   1
_chemical_formula_structural   KRb19(ZrP3)4
_chemical_formula_sum   'K1 Rb19 Zr4 P12'
_cell_volume   1259.53716492
_cell_formula_units_Z   1
loop_
 _symmetry_equiv_pos_site_id
 _symmetry_equiv_pos_as_xyz
  1  'x, y, z'
loop_
 _atom_site_type_symbol
 _atom_site_label
 _atom_site_symmetry_multiplicity
 _atom_site_fract_x
 _atom_site_fract_y
 _atom_site_fract_z
 _atom_site_occupancy
  K  K0  1  0.544829  0.542585  0.750790  1
  Rb  Rb1  1  0.175819  0.841335  0.742365  1
  Rb  Rb2  1  0.675932  0.153142  0.759470  1
  Rb  Rb3  1  0.824192  0.155389  0.258166  1
  Rb  Rb4  1  0.323778  0.844182  0.241029  1
  Rb  Rb5  1  0.165738  0.163813  0.420265  1
  Rb  Rb6  1  0.659570  0.836882  0.080617  1
  Rb  Rb7  1  0.835669  0.838593  0.580183  1
  Rb  Rb8  1  0.339251  0.169681  0.916340  1
  Rb  Rb9  1  0.007307  0.084340  0.087182  1
  Rb  Rb10  1  0.508603  0.917493  0.410207  1
  Rb  Rb11  1  0.990664  0.916620  0.909647  1
  Rb  Rb12  1  0.493708  0.078690  0.592360  1
  Rb  Rb13  1  0.512278  0.269073  0.079345  1
  Rb  Rb14  1  0.019228  0.732194  0.422483  1
  Rb  Rb15  1  0.478878  0.731939  0.918513  1
  Rb  Rb16  1  0.985018  0.266028  0.580637  1
  Rb  Rb17  1  0.970846  0.545072  0.255519  1
  Rb  Rb18  1  0.471821  0.455354  0.245352  1
  Rb  Rb19  1  0.031881  0.456008  0.745078  1
  Zr  Zr20  1  0.375548  0.495338  0.581036  1
  Zr  Zr21  1  0.866398  0.504979  0.919357  1
  Zr  Zr22  1  0.628783  0.503563  0.421728  1
  Zr  Zr23  1  0.124661  0.496340  0.079538  1
  P  P24  1  0.330099  0.486644  0.440210  1
  P  P25  1  0.825715  0.516477  0.059605  1
  P  P26  1  0.674192  0.513041  0.562663  1
  P  P27  1  0.164817  0.484304  0.939726  1
  P  P28  1  0.200593  0.227054  0.213707  1
  P  P29  1  0.702372  0.772183  0.287635  1
  P  P30  1  0.792937  0.773134  0.784281  1
  P  P31  1  0.299472  0.226375  0.714042  1
  P  P32  1  0.249543  0.752516  0.075097  1
  P  P33  1  0.749833  0.248443  0.424275  1
  P  P34  1  0.742616  0.250131  0.922468  1
  P  P35  1  0.257413  0.751063  0.579085  1
