# generated using pymatgen
data_Tb7Y(AsI6)2
_symmetry_space_group_name_H-M   'P 1'
_cell_length_a   4.25948700
_cell_length_b   13.94813308
_cell_length_c   14.75797109
_cell_angle_alpha   89.98746197
_cell_angle_beta   90.00000000
_cell_angle_gamma   90.00000000
_symmetry_Int_Tables_number   1
_chemical_formula_structural   Tb7Y(AsI6)2
_chemical_formula_sum   'Tb7 Y1 As2 I12'
_cell_volume   876.79895671
_cell_formula_units_Z   1
loop_
 _symmetry_equiv_pos_site_id
 _symmetry_equiv_pos_as_xyz
  1  'x, y, z'
loop_
 _atom_site_type_symbol
 _atom_site_label
 _atom_site_symmetry_multiplicity
 _atom_site_fract_x
 _atom_site_fract_y
 _atom_site_fract_z
 _atom_site_occupancy
  Tb  Tb0  1  0.500000  0.885164  0.652874  1
  Tb  Tb1  1  0.500000  0.614889  0.152938  1
  Tb  Tb2  1  0.500000  0.385119  0.847064  1
  Tb  Tb3  1  0.000000  0.109984  0.573194  1
  Tb  Tb4  1  0.000000  0.889967  0.426872  1
  Tb  Tb5  1  0.000000  0.609982  0.926852  1
  Tb  Tb6  1  0.000000  0.390011  0.073158  1
  Y  Y7  1  0.500000  0.114810  0.347169  1
  As  As8  1  0.500000  0.000155  0.499809  1
  As  As9  1  0.500000  0.500002  0.000000  1
  I  I10  1  0.500000  0.245541  0.160600  1
  I  I11  1  0.500000  0.754382  0.839475  1
  I  I12  1  0.500000  0.745654  0.339486  1
  I  I13  1  0.500000  0.254354  0.660492  1
  I  I14  1  0.000000  0.258597  0.413947  1
  I  I15  1  0.000000  0.741159  0.585907  1
  I  I16  1  0.000000  0.758831  0.085904  1
  I  I17  1  0.000000  0.241173  0.914091  1
  I  I18  1  0.000000  0.999784  0.240883  1
  I  I19  1  0.000000  0.000436  0.759288  1
  I  I20  1  0.000000  0.499575  0.259275  1
  I  I21  1  0.000000  0.500430  0.740721  1
