# generated using pymatgen
data_Ta3NbS6
_symmetry_space_group_name_H-M   'P 1'
_cell_length_a   5.78383600
_cell_length_b   5.78382068
_cell_length_c   12.81011600
_cell_angle_alpha   89.99970305
_cell_angle_beta   90.00027830
_cell_angle_gamma   119.99965602
_symmetry_Int_Tables_number   1
_chemical_formula_structural   Ta3NbS6
_chemical_formula_sum   'Ta6 Nb2 S12'
_cell_volume   371.12139261
_cell_formula_units_Z   2
loop_
 _symmetry_equiv_pos_site_id
 _symmetry_equiv_pos_as_xyz
  1  'x, y, z'
loop_
 _atom_site_type_symbol
 _atom_site_label
 _atom_site_symmetry_multiplicity
 _atom_site_fract_x
 _atom_site_fract_y
 _atom_site_fract_z
 _atom_site_occupancy
  Ta  Ta0  1  0.999985  0.999984  0.999999  1
  Ta  Ta1  1  0.333324  0.666658  0.998945  1
  Ta  Ta2  1  0.333335  0.666668  0.501056  1
  Ta  Ta3  1  0.999999  0.000002  0.500000  1
  Ta  Ta4  1  0.666669  0.333334  0.498944  1
  Ta  Ta5  1  0.666656  0.333325  0.001056  1
  Nb  Nb6  1  0.333328  0.666665  0.250004  1
  Nb  Nb7  1  0.666663  0.333330  0.749998  1
  S  S8  1  0.332259  0.000670  0.122985  1
  S  S9  1  0.668396  0.667712  0.122986  1
  S  S10  1  0.999310  0.331578  0.122987  1
  S  S11  1  0.668415  0.000687  0.377015  1
  S  S12  1  0.999314  0.667735  0.377015  1
  S  S13  1  0.332268  0.331588  0.377016  1
  S  S14  1  0.331590  0.332267  0.622984  1
  S  S15  1  0.667736  0.999319  0.622985  1
  S  S16  1  0.000684  0.668413  0.622985  1
  S  S17  1  0.331582  0.999315  0.877013  1
  S  S18  1  0.667714  0.668394  0.877013  1
  S  S19  1  0.000670  0.332260  0.877015  1
