# generated using pymatgen
data_Pa(SF3)2
_symmetry_space_group_name_H-M   'P 1'
_cell_length_a   5.66667933
_cell_length_b   7.51773735
_cell_length_c   8.47509172
_cell_angle_alpha   73.44522442
_cell_angle_beta   76.72061870
_cell_angle_gamma   79.77648198
_symmetry_Int_Tables_number   1
_chemical_formula_structural   Pa(SF3)2
_chemical_formula_sum   'Pa2 S4 F12'
_cell_volume   334.38654486
_cell_formula_units_Z   2
loop_
 _symmetry_equiv_pos_site_id
 _symmetry_equiv_pos_as_xyz
  1  'x, y, z'
loop_
 _atom_site_type_symbol
 _atom_site_label
 _atom_site_symmetry_multiplicity
 _atom_site_fract_x
 _atom_site_fract_y
 _atom_site_fract_z
 _atom_site_occupancy
  Pa  Pa0  1  0.615765  0.177932  0.660357  1
  Pa  Pa1  1  0.384235  0.822068  0.339643  1
  S  S2  1  0.957909  0.306773  0.046363  1
  S  S3  1  0.864095  0.538385  0.869592  1
  S  S4  1  0.135905  0.461615  0.130408  1
  S  S5  1  0.042091  0.693227  0.953637  1
  F  F6  1  0.933242  0.298534  0.541181  1
  F  F7  1  0.831386  0.906271  0.727404  1
  F  F8  1  0.600556  0.566512  0.328399  1
  F  F9  1  0.549256  0.178147  0.426848  1
  F  F10  1  0.696992  0.938426  0.194147  1
  F  F11  1  0.704213  0.223779  0.882066  1
  F  F12  1  0.295787  0.776221  0.117934  1
  F  F13  1  0.303008  0.061574  0.805853  1
  F  F14  1  0.450744  0.821853  0.573152  1
  F  F15  1  0.399444  0.433488  0.671601  1
  F  F16  1  0.168614  0.093729  0.272596  1
  F  F17  1  0.066758  0.701466  0.458819  1
