# generated using pymatgen
data_LuScCrB6
_symmetry_space_group_name_H-M   'P 1'
_cell_length_a   3.40267000
_cell_length_b   8.86796800
_cell_length_c   11.21426500
_cell_angle_alpha   90.00000000
_cell_angle_beta   90.00000000
_cell_angle_gamma   90.00000000
_symmetry_Int_Tables_number   1
_chemical_formula_structural   LuScCrB6
_chemical_formula_sum   'Lu4 Sc4 Cr4 B24'
_cell_volume   338.38785223
_cell_formula_units_Z   4
loop_
 _symmetry_equiv_pos_site_id
 _symmetry_equiv_pos_as_xyz
  1  'x, y, z'
loop_
 _atom_site_type_symbol
 _atom_site_label
 _atom_site_symmetry_multiplicity
 _atom_site_fract_x
 _atom_site_fract_y
 _atom_site_fract_z
 _atom_site_occupancy
  Lu  Lu0  1  0.500000  0.322803  0.414493  1
  Lu  Lu1  1  0.500000  0.677197  0.585507  1
  Lu  Lu2  1  0.500000  0.177197  0.914493  1
  Lu  Lu3  1  0.500000  0.822803  0.085507  1
  Sc  Sc4  1  0.500000  0.443249  0.130484  1
  Sc  Sc5  1  0.500000  0.556751  0.869516  1
  Sc  Sc6  1  0.500000  0.056751  0.630484  1
  Sc  Sc7  1  0.500000  0.943249  0.369516  1
  Cr  Cr8  1  0.500000  0.141499  0.181559  1
  Cr  Cr9  1  0.500000  0.858501  0.818441  1
  Cr  Cr10  1  0.500000  0.358501  0.681559  1
  Cr  Cr11  1  0.500000  0.641499  0.318441  1
  B  B12  1  0.000000  0.097127  0.473605  1
  B  B13  1  0.000000  0.902873  0.526395  1
  B  B14  1  0.000000  0.402873  0.973605  1
  B  B15  1  0.000000  0.597127  0.026395  1
  B  B16  1  0.000000  0.130228  0.317222  1
  B  B17  1  0.000000  0.869772  0.682778  1
  B  B18  1  0.000000  0.369772  0.817222  1
  B  B19  1  0.000000  0.630228  0.182778  1
  B  B20  1  0.000000  0.053857  0.066644  1
  B  B21  1  0.000000  0.946143  0.933356  1
  B  B22  1  0.000000  0.446143  0.566644  1
  B  B23  1  0.000000  0.553857  0.433356  1
  B  B24  1  0.000000  0.481674  0.287270  1
  B  B25  1  0.000000  0.518326  0.712730  1
  B  B26  1  0.000000  0.018326  0.787270  1
  B  B27  1  0.000000  0.981674  0.212730  1
  B  B28  1  0.000000  0.252599  0.081262  1
  B  B29  1  0.000000  0.747401  0.918738  1
  B  B30  1  0.000000  0.247401  0.581262  1
  B  B31  1  0.000000  0.752599  0.418738  1
  B  B32  1  0.000000  0.294750  0.236116  1
  B  B33  1  0.000000  0.705250  0.763884  1
  B  B34  1  0.000000  0.205250  0.736116  1
  B  B35  1  0.000000  0.794750  0.263884  1
