# generated using pymatgen
data_YLu3Al18(Pd2Rh)2
_symmetry_space_group_name_H-M   'P 1'
_cell_length_a   7.59100529
_cell_length_b   7.58882185
_cell_length_c   9.40609600
_cell_angle_alpha   90.00000000
_cell_angle_beta   90.00000000
_cell_angle_gamma   119.61907090
_symmetry_Int_Tables_number   1
_chemical_formula_structural   YLu3Al18(Pd2Rh)2
_chemical_formula_sum   'Y1 Lu3 Al18 Pd4 Rh2'
_cell_volume   471.05103433
_cell_formula_units_Z   1
loop_
 _symmetry_equiv_pos_site_id
 _symmetry_equiv_pos_as_xyz
  1  'x, y, z'
loop_
 _atom_site_type_symbol
 _atom_site_label
 _atom_site_symmetry_multiplicity
 _atom_site_fract_x
 _atom_site_fract_y
 _atom_site_fract_z
 _atom_site_occupancy
  Y  Y0  1  0.332642  0.005787  0.750000  1
  Lu  Lu1  1  0.993807  0.668194  0.250000  1
  Lu  Lu2  1  0.005447  0.331738  0.750000  1
  Lu  Lu3  1  0.668917  0.994140  0.250000  1
  Al  Al4  1  0.123826  0.124025  0.250000  1
  Al  Al5  1  0.874653  0.874892  0.750000  1
  Al  Al6  1  0.998772  0.331151  0.078183  1
  Al  Al7  1  0.000095  0.668163  0.924052  1
  Al  Al8  1  0.000095  0.668163  0.575948  1
  Al  Al9  1  0.330891  0.998652  0.420891  1
  Al  Al10  1  0.998772  0.331151  0.421817  1
  Al  Al11  1  0.670223  0.001178  0.575936  1
  Al  Al12  1  0.670223  0.001178  0.924064  1
  Al  Al13  1  0.330891  0.998652  0.079109  1
  Al  Al14  1  0.328928  0.329823  0.555645  1
  Al  Al15  1  0.670899  0.670863  0.442606  1
  Al  Al16  1  0.670899  0.670863  0.057394  1
  Al  Al17  1  0.328928  0.329823  0.944355  1
  Al  Al18  1  0.340807  0.548268  0.250000  1
  Al  Al19  1  0.660370  0.453567  0.750000  1
  Al  Al20  1  0.548665  0.340908  0.250000  1
  Al  Al21  1  0.452227  0.658887  0.750000  1
  Pd  Pd22  1  0.672862  0.327448  0.000287  1
  Pd  Pd23  1  0.327116  0.672286  0.000213  1
  Pd  Pd24  1  0.327116  0.672286  0.499787  1
  Pd  Pd25  1  0.672862  0.327448  0.499713  1
  Rh  Rh26  1  0.999533  0.000234  0.999959  1
  Rh  Rh27  1  0.999533  0.000234  0.500041  1
