# generated using pymatgen
data_La7Y11(TmIn8)2
_symmetry_space_group_name_H-M   'P 1'
_cell_length_a   8.40443213
_cell_length_b   8.39940955
_cell_length_c   15.56991600
_cell_angle_alpha   90.16830478
_cell_angle_beta   89.95921873
_cell_angle_gamma   90.09414607
_symmetry_Int_Tables_number   1
_chemical_formula_structural   La7Y11(TmIn8)2
_chemical_formula_sum   'La7 Y11 Tm2 In16'
_cell_volume   1099.10917437
_cell_formula_units_Z   1
loop_
 _symmetry_equiv_pos_site_id
 _symmetry_equiv_pos_as_xyz
  1  'x, y, z'
loop_
 _atom_site_type_symbol
 _atom_site_label
 _atom_site_symmetry_multiplicity
 _atom_site_fract_x
 _atom_site_fract_y
 _atom_site_fract_z
 _atom_site_occupancy
  La  La0  1  0.005019  0.354166  0.536927  1
  La  La1  1  0.645846  0.992951  0.964788  1
  La  La2  1  0.142653  0.505705  0.787313  1
  La  La3  1  0.855382  0.496360  0.285162  1
  La  La4  1  0.504962  0.143495  0.211284  1
  La  La5  1  0.493647  0.856672  0.713840  1
  La  La6  1  0.356000  0.005144  0.460741  1
  Y  Y7  1  0.347458  0.498136  0.374643  1
  Y  Y8  1  0.845369  0.997492  0.370923  1
  Y  Y9  1  0.000891  0.151927  0.125707  1
  Y  Y10  1  0.001455  0.847939  0.626413  1
  Y  Y11  1  0.654220  0.503053  0.880402  1
  Y  Y12  1  0.499235  0.345775  0.623749  1
  Y  Y13  1  0.498588  0.652050  0.123195  1
  Y  Y14  1  0.151967  0.000145  0.876784  1
  Y  Y15  1  0.002940  0.640179  0.037511  1
  Y  Y16  1  0.674853  0.675472  0.500107  1
  Y  Y17  1  0.823973  0.176678  0.751796  1
  Tm  Tm18  1  0.173503  0.822380  0.248736  1
  Tm  Tm19  1  0.324080  0.327472  0.000310  1
  In  In20  1  0.052787  0.712254  0.434180  1
  In  In21  1  0.950658  0.295028  0.936751  1
  In  In22  1  0.712453  0.051853  0.564731  1
  In  In23  1  0.209173  0.449330  0.183391  1
  In  In24  1  0.786420  0.553509  0.686830  1
  In  In25  1  0.447914  0.213933  0.816356  1
  In  In26  1  0.552458  0.786155  0.313016  1
  In  In27  1  0.286418  0.946316  0.065395  1
  In  In28  1  0.854441  0.800465  0.820731  1
  In  In29  1  0.142048  0.200311  0.318289  1
  In  In30  1  0.802706  0.851379  0.174811  1
  In  In31  1  0.299908  0.644435  0.568162  1
  In  In32  1  0.705506  0.359878  0.071181  1
  In  In33  1  0.644407  0.298615  0.430541  1
  In  In34  1  0.350568  0.697739  0.932375  1
  In  In35  1  0.200096  0.145611  0.682930  1
