# generated using pymatgen
data_LaNd2Zn4(PtRh)2
_symmetry_space_group_name_H-M   'P 1'
_cell_length_a   8.33298638
_cell_length_b   8.33298661
_cell_length_c   8.33298717
_cell_angle_alpha   151.20497459
_cell_angle_beta   126.89045761
_cell_angle_gamma   61.53410424
_symmetry_Int_Tables_number   1
_chemical_formula_structural   LaNd2Zn4(PtRh)2
_chemical_formula_sum   'La1 Nd2 Zn4 Pt2 Rh2'
_cell_volume   221.06884244
_cell_formula_units_Z   1
loop_
 _symmetry_equiv_pos_site_id
 _symmetry_equiv_pos_as_xyz
  1  'x, y, z'
loop_
 _atom_site_type_symbol
 _atom_site_label
 _atom_site_symmetry_multiplicity
 _atom_site_fract_x
 _atom_site_fract_y
 _atom_site_fract_z
 _atom_site_occupancy
  La  La0  1  0.500000  0.000000  0.500000  1
  Nd  Nd1  1  0.869893  0.869893  0.000000  1
  Nd  Nd2  1  0.130107  0.130107  0.000000  1
  Zn  Zn3  1  0.481393  0.675479  0.805915  1
  Zn  Zn4  1  0.869564  0.675479  0.194085  1
  Zn  Zn5  1  0.130436  0.324521  0.805915  1
  Zn  Zn6  1  0.518607  0.324521  0.194085  1
  Pt  Pt7  1  0.803987  0.500000  0.303987  1
  Pt  Pt8  1  0.196013  0.500000  0.696013  1
  Rh  Rh9  1  0.282359  0.782359  0.500000  1
  Rh  Rh10  1  0.717641  0.217641  0.500000  1
