# generated using pymatgen
data_Sc16AlZn3Ni4
_symmetry_space_group_name_H-M   'P 1'
_cell_length_a   8.79571255
_cell_length_b   8.79571267
_cell_length_c   8.79571342
_cell_angle_alpha   60.11185019
_cell_angle_beta   60.11185308
_cell_angle_gamma   60.11185170
_symmetry_Int_Tables_number   1
_chemical_formula_structural   Sc16AlZn3Ni4
_chemical_formula_sum   'Sc16 Al1 Zn3 Ni4'
_cell_volume   482.38891051
_cell_formula_units_Z   1
loop_
 _symmetry_equiv_pos_site_id
 _symmetry_equiv_pos_as_xyz
  1  'x, y, z'
loop_
 _atom_site_type_symbol
 _atom_site_label
 _atom_site_symmetry_multiplicity
 _atom_site_fract_x
 _atom_site_fract_y
 _atom_site_fract_z
 _atom_site_occupancy
  Sc  Sc0  1  0.355274  0.355274  0.355274  1
  Sc  Sc1  1  0.354476  0.354476  0.936029  1
  Sc  Sc2  1  0.354476  0.936029  0.354476  1
  Sc  Sc3  1  0.936029  0.354476  0.354476  1
  Sc  Sc4  1  0.809599  0.189985  0.189985  1
  Sc  Sc5  1  0.191994  0.809027  0.809027  1
  Sc  Sc6  1  0.189985  0.809599  0.189985  1
  Sc  Sc7  1  0.809027  0.191994  0.809027  1
  Sc  Sc8  1  0.189985  0.189985  0.809599  1
  Sc  Sc9  1  0.809027  0.809027  0.191994  1
  Sc  Sc10  1  0.937517  0.564644  0.564644  1
  Sc  Sc11  1  0.564755  0.936186  0.936186  1
  Sc  Sc12  1  0.564644  0.937517  0.564644  1
  Sc  Sc13  1  0.936186  0.564755  0.936186  1
  Sc  Sc14  1  0.564644  0.564644  0.937517  1
  Sc  Sc15  1  0.936186  0.936186  0.564755  1
  Al  Al16  1  0.578746  0.578746  0.578746  1
  Zn  Zn17  1  0.580895  0.580895  0.256480  1
  Zn  Zn18  1  0.580895  0.256480  0.580895  1
  Zn  Zn19  1  0.256480  0.580895  0.580895  1
  Ni  Ni20  1  0.144431  0.144431  0.144431  1
  Ni  Ni21  1  0.144280  0.144280  0.566189  1
  Ni  Ni22  1  0.144280  0.566189  0.144280  1
  Ni  Ni23  1  0.566189  0.144280  0.144280  1
