# generated using pymatgen
data_Pa2AsN2
_symmetry_space_group_name_H-M   'P 1'
_cell_length_a   3.90485800
_cell_length_b   3.90485867
_cell_length_c   6.82283000
_cell_angle_alpha   90.00000000
_cell_angle_beta   90.00000000
_cell_angle_gamma   119.99999432
_symmetry_Int_Tables_number   1
_chemical_formula_structural   Pa2AsN2
_chemical_formula_sum   'Pa2 As1 N2'
_cell_volume   90.09605441
_cell_formula_units_Z   1
loop_
 _symmetry_equiv_pos_site_id
 _symmetry_equiv_pos_as_xyz
  1  'x, y, z'
loop_
 _atom_site_type_symbol
 _atom_site_label
 _atom_site_symmetry_multiplicity
 _atom_site_fract_x
 _atom_site_fract_y
 _atom_site_fract_z
 _atom_site_occupancy
  Pa  Pa0  1  0.666667  0.333333  0.711062  1
  Pa  Pa1  1  0.333333  0.666667  0.288938  1
  As  As2  1  0.000000  0.000000  0.000000  1
  N  N3  1  0.333333  0.666667  0.622655  1
  N  N4  1  0.666667  0.333333  0.377345  1
