# generated using pymatgen
data_SrHg2Pt4PbO14
_symmetry_space_group_name_H-M   'P 1'
_cell_length_a   7.38290041
_cell_length_b   7.30108853
_cell_length_c   7.32076036
_cell_angle_alpha   60.08884091
_cell_angle_beta   61.05279165
_cell_angle_gamma   60.36589098
_symmetry_Int_Tables_number   1
_chemical_formula_structural   SrHg2Pt4PbO14
_chemical_formula_sum   'Sr1 Hg2 Pt4 Pb1 O14'
_cell_volume   282.16011284
_cell_formula_units_Z   1
loop_
 _symmetry_equiv_pos_site_id
 _symmetry_equiv_pos_as_xyz
  1  'x, y, z'
loop_
 _atom_site_type_symbol
 _atom_site_label
 _atom_site_symmetry_multiplicity
 _atom_site_fract_x
 _atom_site_fract_y
 _atom_site_fract_z
 _atom_site_occupancy
  Sr  Sr0  1  0.125000  0.125000  0.625000  1
  Hg  Hg1  1  0.125000  0.125000  0.125000  1
  Hg  Hg2  1  0.125000  0.625000  0.125000  1
  Pt  Pt3  1  0.625000  0.625000  0.125000  1
  Pt  Pt4  1  0.625000  0.625000  0.625000  1
  Pt  Pt5  1  0.625000  0.125000  0.625000  1
  Pt  Pt6  1  0.125000  0.625000  0.625000  1
  Pb  Pb7  1  0.625000  0.125000  0.125000  1
  O  O8  1  0.696106  0.294195  0.295461  1
  O  O9  1  0.703006  0.290069  0.716856  1
  O  O10  1  0.986988  0.988981  0.035050  1
  O  O11  1  0.299057  0.702076  0.296792  1
  O  O12  1  0.696106  0.714236  0.295461  1
  O  O13  1  0.950143  0.547974  0.548017  1
  O  O14  1  0.299857  0.702026  0.701983  1
  O  O15  1  0.263012  0.261019  0.214950  1
  O  O16  1  0.950943  0.547924  0.953208  1
  O  O17  1  0.546994  0.959931  0.533144  1
  O  O18  1  0.553894  0.535764  0.954539  1
  O  O19  1  0.950143  0.953867  0.548017  1
  O  O20  1  0.553894  0.955805  0.954539  1
  O  O21  1  0.299857  0.296133  0.701983  1
