# generated using pymatgen
data_Tb16In4Os3Rh
_symmetry_space_group_name_H-M   'P 1'
_cell_length_a   9.64430863
_cell_length_b   9.70750200
_cell_length_c   9.70750100
_cell_angle_alpha   60.00000001
_cell_angle_beta   59.78301061
_cell_angle_gamma   59.78300727
_symmetry_Int_Tables_number   1
_chemical_formula_structural   Tb16In4Os3Rh
_chemical_formula_sum   'Tb16 In4 Os3 Rh1'
_cell_volume   640.52902492
_cell_formula_units_Z   1
loop_
 _symmetry_equiv_pos_site_id
 _symmetry_equiv_pos_as_xyz
  1  'x, y, z'
loop_
 _atom_site_type_symbol
 _atom_site_label
 _atom_site_symmetry_multiplicity
 _atom_site_fract_x
 _atom_site_fract_y
 _atom_site_fract_z
 _atom_site_occupancy
  Tb  Tb0  1  0.810428  0.807856  0.190858  1
  Tb  Tb1  1  0.810428  0.190858  0.807856  1
  Tb  Tb2  1  0.189048  0.192633  0.809160  1
  Tb  Tb3  1  0.651769  0.046720  0.650756  1
  Tb  Tb4  1  0.059823  0.058189  0.440994  1
  Tb  Tb5  1  0.442847  0.436449  0.060352  1
  Tb  Tb6  1  0.651769  0.650756  0.650756  1
  Tb  Tb7  1  0.810428  0.190858  0.190858  1
  Tb  Tb8  1  0.189048  0.809160  0.809160  1
  Tb  Tb9  1  0.042890  0.652370  0.652370  1
  Tb  Tb10  1  0.442847  0.060352  0.060352  1
  Tb  Tb11  1  0.442847  0.060352  0.436449  1
  Tb  Tb12  1  0.059823  0.440994  0.058189  1
  Tb  Tb13  1  0.651769  0.650756  0.046720  1
  Tb  Tb14  1  0.189048  0.809160  0.192633  1
  Tb  Tb15  1  0.059823  0.440994  0.440994  1
  In  In16  1  0.418488  0.418076  0.418076  1
  In  In17  1  0.418488  0.418076  0.745359  1
  In  In18  1  0.418488  0.745359  0.418076  1
  In  In19  1  0.746040  0.417986  0.417986  1
  Os  Os20  1  0.857422  0.421627  0.860476  1
  Os  Os21  1  0.857422  0.860476  0.860476  1
  Os  Os22  1  0.857422  0.860476  0.421627  1
  Rh  Rh23  1  0.421597  0.859468  0.859468  1
