# generated using pymatgen
data_Tb5Ho(RuBr3)2
_symmetry_space_group_name_H-M   'P 1'
_cell_length_a   4.09716700
_cell_length_b   8.57235828
_cell_length_c   11.90786611
_cell_angle_alpha   87.73081884
_cell_angle_beta   90.00000000
_cell_angle_gamma   90.00000000
_symmetry_Int_Tables_number   1
_chemical_formula_structural   Tb5Ho(RuBr3)2
_chemical_formula_sum   'Tb5 Ho1 Ru2 Br6'
_cell_volume   417.90467705
_cell_formula_units_Z   1
loop_
 _symmetry_equiv_pos_site_id
 _symmetry_equiv_pos_as_xyz
  1  'x, y, z'
loop_
 _atom_site_type_symbol
 _atom_site_label
 _atom_site_symmetry_multiplicity
 _atom_site_fract_x
 _atom_site_fract_y
 _atom_site_fract_z
 _atom_site_occupancy
  Tb  Tb0  1  0.250000  0.277112  0.394731  1
  Tb  Tb1  1  0.750000  0.722753  0.604523  1
  Tb  Tb2  1  0.250000  0.863371  0.365302  1
  Tb  Tb3  1  0.750000  0.136844  0.634319  1
  Tb  Tb4  1  0.250000  0.892899  0.827170  1
  Ho  Ho5  1  0.750000  0.107258  0.174613  1
  Ru  Ru6  1  0.250000  0.939552  0.596526  1
  Ru  Ru7  1  0.750000  0.060483  0.403100  1
  Br  Br8  1  0.250000  0.429075  0.629818  1
  Br  Br9  1  0.750000  0.570976  0.369123  1
  Br  Br10  1  0.250000  0.877823  0.103050  1
  Br  Br11  1  0.750000  0.125191  0.898092  1
  Br  Br12  1  0.250000  0.341892  0.139406  1
  Br  Br13  1  0.750000  0.654770  0.860229  1
