# generated using pymatgen
data_Zr5Mn2Cr(Co4P3)4
_symmetry_space_group_name_H-M   'P 1'
_cell_length_a   11.88323745
_cell_length_b   11.89351919
_cell_length_c   3.61675400
_cell_angle_alpha   90.00000000
_cell_angle_beta   90.00000000
_cell_angle_gamma   120.02861422
_symmetry_Int_Tables_number   1
_chemical_formula_structural   Zr5Mn2Cr(Co4P3)4
_chemical_formula_sum   'Zr5 Mn2 Cr1 Co16 P12'
_cell_volume   442.55725032
_cell_formula_units_Z   1
loop_
 _symmetry_equiv_pos_site_id
 _symmetry_equiv_pos_as_xyz
  1  'x, y, z'
loop_
 _atom_site_type_symbol
 _atom_site_label
 _atom_site_symmetry_multiplicity
 _atom_site_fract_x
 _atom_site_fract_y
 _atom_site_fract_z
 _atom_site_occupancy
  Zr  Zr0  1  0.667965  0.333338  0.000000  1
  Zr  Zr1  1  0.332035  0.665374  0.000000  1
  Zr  Zr2  1  0.816448  0.816723  0.500000  1
  Zr  Zr3  1  0.183552  0.000274  0.500000  1
  Zr  Zr4  1  0.000000  0.182402  0.500000  1
  Mn  Mn5  1  0.448120  0.447383  0.000000  1
  Mn  Mn6  1  0.551880  0.999263  0.000000  1
  Cr  Cr7  1  0.000000  0.552632  0.000000  1
  Co  Co8  1  0.197236  0.376655  0.000000  1
  Co  Co9  1  0.176640  0.802082  0.000000  1
  Co  Co10  1  0.823360  0.625442  0.000000  1
  Co  Co11  1  0.802764  0.179420  0.000000  1
  Co  Co12  1  0.376071  0.197274  0.000000  1
  Co  Co13  1  0.126449  0.482245  0.500000  1
  Co  Co14  1  0.353650  0.870116  0.500000  1
  Co  Co15  1  0.517310  0.644820  0.500000  1
  Co  Co16  1  0.646350  0.516466  0.500000  1
  Co  Co17  1  0.873551  0.355796  0.500000  1
  Co  Co18  1  0.482690  0.127512  0.500000  1
  Co  Co19  1  0.000000  0.000578  0.000000  1
  Co  Co20  1  0.716052  0.000378  0.500000  1
  Co  Co21  1  0.000000  0.717728  0.500000  1
  Co  Co22  1  0.623929  0.821203  0.000000  1
  Co  Co23  1  0.283948  0.284326  0.500000  1
  P  P24  1  0.640427  0.640133  0.000000  1
  P  P25  1  0.359573  0.999707  0.000000  1
  P  P26  1  0.000000  0.359558  0.000000  1
  P  P27  1  0.482844  0.316028  0.500000  1
  P  P28  1  0.683600  0.166293  0.500000  1
  P  P29  1  0.835498  0.518088  0.500000  1
  P  P30  1  0.517156  0.833183  0.500000  1
  P  P31  1  0.164502  0.682590  0.500000  1
  P  P32  1  0.822469  0.000278  0.000000  1
  P  P33  1  0.000000  0.824212  0.000000  1
  P  P34  1  0.316400  0.482693  0.500000  1
  P  P35  1  0.177531  0.177809  0.000000  1
