# generated using pymatgen
data_Mn2Be8AlMo
_symmetry_space_group_name_H-M   'P 1'
_cell_length_a   4.29087400
_cell_length_b   4.29087323
_cell_length_c   7.02152000
_cell_angle_alpha   90.00000000
_cell_angle_beta   90.00000000
_cell_angle_gamma   120.00000593
_symmetry_Int_Tables_number   1
_chemical_formula_structural   Mn2Be8AlMo
_chemical_formula_sum   'Mn2 Be8 Al1 Mo1'
_cell_volume   111.95749912
_cell_formula_units_Z   1
loop_
 _symmetry_equiv_pos_site_id
 _symmetry_equiv_pos_as_xyz
  1  'x, y, z'
loop_
 _atom_site_type_symbol
 _atom_site_label
 _atom_site_symmetry_multiplicity
 _atom_site_fract_x
 _atom_site_fract_y
 _atom_site_fract_z
 _atom_site_occupancy
  Mn  Mn0  1  0.666667  0.333333  0.928666  1
  Mn  Mn1  1  0.333333  0.666667  0.450167  1
  Be  Be2  1  0.000000  0.000000  0.999533  1
  Be  Be3  1  0.000000  0.000000  0.490976  1
  Be  Be4  1  0.829640  0.659277  0.245765  1
  Be  Be5  1  0.168406  0.831594  0.754730  1
  Be  Be6  1  0.663189  0.831594  0.754730  1
  Be  Be7  1  0.340723  0.170360  0.245765  1
  Be  Be8  1  0.829640  0.170360  0.245765  1
  Be  Be9  1  0.168406  0.336811  0.754730  1
  Al  Al10  1  0.333333  0.666667  0.064324  1
  Mo  Mo11  1  0.666667  0.333333  0.564846  1
