# generated using pymatgen
data_Tm3Lu9Co5Pb
_symmetry_space_group_name_H-M   'P 1'
_cell_length_a   8.12983820
_cell_length_b   8.12742580
_cell_length_c   8.12983787
_cell_angle_alpha   110.98436439
_cell_angle_beta   111.00137701
_cell_angle_gamma   106.48037277
_symmetry_Int_Tables_number   1
_chemical_formula_structural   Tm3Lu9Co5Pb
_chemical_formula_sum   'Tm3 Lu9 Co5 Pb1'
_cell_volume   412.61774671
_cell_formula_units_Z   1
loop_
 _symmetry_equiv_pos_site_id
 _symmetry_equiv_pos_as_xyz
  1  'x, y, z'
loop_
 _atom_site_type_symbol
 _atom_site_label
 _atom_site_symmetry_multiplicity
 _atom_site_fract_x
 _atom_site_fract_y
 _atom_site_fract_z
 _atom_site_occupancy
  Tm  Tm0  1  0.787016  0.592062  0.805045  1
  Tm  Tm1  1  0.213004  0.018371  0.805368  1
  Tm  Tm2  1  0.787168  0.982246  0.195078  1
  Lu  Lu3  1  0.285812  0.184306  0.469781  1
  Lu  Lu4  1  0.713616  0.815459  0.529387  1
  Lu  Lu5  1  0.286072  0.815459  0.101842  1
  Lu  Lu6  1  0.714526  0.184306  0.898495  1
  Lu  Lu7  1  0.618671  0.312753  0.306371  1
  Lu  Lu8  1  0.380816  0.687014  0.693093  1
  Lu  Lu9  1  0.006382  0.312753  0.694082  1
  Lu  Lu10  1  0.993921  0.687014  0.306199  1
  Lu  Lu11  1  0.212623  0.407768  0.195146  1
  Co  Co12  1  0.000357  0.375485  0.375128  1
  Co  Co13  1  0.999830  0.624333  0.624503  1
  Co  Co14  1  0.387116  0.886696  0.499579  1
  Co  Co15  1  0.612727  0.112896  0.500169  1
  Co  Co16  1  0.000492  0.001067  0.000576  1
  Pb  Pb17  1  0.499853  0.500011  0.000158  1
