# generated using pymatgen
data_Yb3Ga3SbRuO12
_symmetry_space_group_name_H-M   'P 1'
_cell_length_a   10.82076093
_cell_length_b   10.82075980
_cell_length_c   10.82076100
_cell_angle_alpha   109.47122662
_cell_angle_beta   109.47122451
_cell_angle_gamma   109.47121623
_symmetry_Int_Tables_number   1
_chemical_formula_structural   Yb3Ga3SbRuO12
_chemical_formula_sum   'Yb12 Ga12 Sb4 Ru4 O48'
_cell_volume   975.32968770
_cell_formula_units_Z   4
loop_
 _symmetry_equiv_pos_site_id
 _symmetry_equiv_pos_as_xyz
  1  'x, y, z'
loop_
 _atom_site_type_symbol
 _atom_site_label
 _atom_site_symmetry_multiplicity
 _atom_site_fract_x
 _atom_site_fract_y
 _atom_site_fract_z
 _atom_site_occupancy
  Yb  Yb0  1  0.250000  0.378796  0.128796  1
  Yb  Yb1  1  0.371204  0.750000  0.121203  1
  Yb  Yb2  1  0.378796  0.128796  0.250000  1
  Yb  Yb3  1  0.878795  0.628796  0.250000  1
  Yb  Yb4  1  0.128796  0.250000  0.378796  1
  Yb  Yb5  1  0.750000  0.121203  0.371204  1
  Yb  Yb6  1  0.250000  0.878795  0.628796  1
  Yb  Yb7  1  0.871204  0.750000  0.621204  1
  Yb  Yb8  1  0.121203  0.371204  0.750000  1
  Yb  Yb9  1  0.621204  0.871204  0.750000  1
  Yb  Yb10  1  0.628796  0.250000  0.878795  1
  Yb  Yb11  1  0.750000  0.621204  0.871204  1
  Ga  Ga12  1  0.750000  0.875838  0.125838  1
  Ga  Ga13  1  0.874162  0.250001  0.124162  1
  Ga  Ga14  1  0.624162  0.374162  0.250000  1
  Ga  Ga15  1  0.124162  0.874162  0.250001  1
  Ga  Ga16  1  0.625838  0.750000  0.375838  1
  Ga  Ga17  1  0.250000  0.624162  0.374162  1
  Ga  Ga18  1  0.750000  0.375838  0.625838  1
  Ga  Ga19  1  0.374162  0.250000  0.624162  1
  Ga  Ga20  1  0.875838  0.125838  0.750000  1
  Ga  Ga21  1  0.375838  0.625838  0.750000  1
  Ga  Ga22  1  0.250001  0.124162  0.874162  1
  Ga  Ga23  1  0.125838  0.750000  0.875838  1
  Sb  Sb24  1  0.000000  0.000000  0.000000  1
  Sb  Sb25  1  0.500000  0.500000  0.000000  1
  Sb  Sb26  1  0.500000  0.000000  0.500000  1
  Sb  Sb27  1  0.000000  0.500000  0.500000  1
  Ru  Ru28  1  0.499999  0.000000  0.000000  1
  Ru  Ru29  1  0.000000  0.499999  0.000000  1
  Ru  Ru30  1  0.000000  0.000000  0.499999  1
  Ru  Ru31  1  0.499999  0.499999  0.499999  1
  O  O32  1  0.320282  0.906096  0.025617  1
  O  O33  1  0.201890  0.122374  0.025358  1
  O  O34  1  0.701891  0.676533  0.079516  1
  O  O35  1  0.880479  0.406096  0.085814  1
  O  O36  1  0.974383  0.679718  0.093904  1
  O  O37  1  0.622374  0.420484  0.097016  1
  O  O38  1  0.593904  0.914186  0.119521  1
  O  O39  1  0.025358  0.201890  0.122374  1
  O  O40  1  0.474641  0.597015  0.176533  1
  O  O41  1  0.205335  0.585814  0.179718  1
  O  O42  1  0.122374  0.025358  0.201890  1
  O  O43  1  0.585814  0.179718  0.205335  1
  O  O44  1  0.474383  0.380479  0.294665  1
  O  O45  1  0.323467  0.920483  0.298109  1
  O  O46  1  0.906096  0.025617  0.320282  1
  O  O47  1  0.920483  0.298109  0.323467  1
  O  O48  1  0.294665  0.474383  0.380479  1
  O  O49  1  0.579516  0.902984  0.377625  1
  O  O50  1  0.823466  0.525358  0.402983  1
  O  O51  1  0.085814  0.880479  0.406096  1
  O  O52  1  0.820282  0.794665  0.414186  1
  O  O53  1  0.097016  0.622374  0.420484  1
  O  O54  1  0.597015  0.176533  0.474641  1
  O  O55  1  0.380479  0.294665  0.474383  1
  O  O56  1  0.619521  0.705335  0.525617  1
  O  O57  1  0.402983  0.823466  0.525358  1
  O  O58  1  0.902984  0.377625  0.579516  1
  O  O59  1  0.179718  0.205335  0.585814  1
  O  O60  1  0.914186  0.119521  0.593904  1
  O  O61  1  0.176533  0.474641  0.597015  1
  O  O62  1  0.420484  0.097016  0.622374  1
  O  O63  1  0.705335  0.525617  0.619521  1
  O  O64  1  0.079516  0.701891  0.676533  1
  O  O65  1  0.093904  0.974383  0.679718  1
  O  O66  1  0.676533  0.079516  0.701891  1
  O  O67  1  0.525617  0.619521  0.705335  1
  O  O68  1  0.414186  0.820282  0.794665  1
  O  O69  1  0.877625  0.974641  0.798108  1
  O  O70  1  0.794665  0.414186  0.820282  1
  O  O71  1  0.525358  0.402983  0.823466  1
  O  O72  1  0.974641  0.798108  0.877625  1
  O  O73  1  0.406096  0.085814  0.880479  1
  O  O74  1  0.377625  0.579516  0.902984  1
  O  O75  1  0.025617  0.320282  0.906096  1
  O  O76  1  0.119521  0.593904  0.914186  1
  O  O77  1  0.298109  0.323467  0.920483  1
  O  O78  1  0.679718  0.093904  0.974383  1
  O  O79  1  0.798108  0.877625  0.974641  1
