# generated using pymatgen
data_Pr4Ge2Pd25Au3
_symmetry_space_group_name_H-M   'P 1'
_cell_length_a   9.11613220
_cell_length_b   9.11613220
_cell_length_c   7.20180181
_cell_angle_alpha   90.03758451
_cell_angle_beta   90.03758451
_cell_angle_gamma   90.29753089
_symmetry_Int_Tables_number   1
_chemical_formula_structural   Pr4Ge2Pd25Au3
_chemical_formula_sum   'Pr4 Ge2 Pd25 Au3'
_cell_volume   598.48924628
_cell_formula_units_Z   1
loop_
 _symmetry_equiv_pos_site_id
 _symmetry_equiv_pos_as_xyz
  1  'x, y, z'
loop_
 _atom_site_type_symbol
 _atom_site_label
 _atom_site_symmetry_multiplicity
 _atom_site_fract_x
 _atom_site_fract_y
 _atom_site_fract_z
 _atom_site_occupancy
  Pr  Pr0  1  0.502616  0.002616  0.933013  1
  Pr  Pr1  1  0.997384  0.497384  0.066987  1
  Pr  Pr2  1  0.999563  0.000437  0.500000  1
  Pr  Pr3  1  0.500437  0.499563  0.500000  1
  Ge  Ge4  1  0.500708  0.000708  0.449294  1
  Ge  Ge5  1  0.999292  0.499292  0.550706  1
  Pd  Pd6  1  0.331981  0.831981  0.619057  1
  Pd  Pd7  1  0.332278  0.168213  0.618606  1
  Pd  Pd8  1  0.668213  0.832278  0.618606  1
  Pd  Pd9  1  0.669368  0.169368  0.620946  1
  Pd  Pd10  1  0.168019  0.668019  0.380943  1
  Pd  Pd11  1  0.167722  0.331787  0.381394  1
  Pd  Pd12  1  0.831787  0.667722  0.381394  1
  Pd  Pd13  1  0.830632  0.330632  0.379054  1
  Pd  Pd14  1  0.499910  0.767143  0.255983  1
  Pd  Pd15  1  0.501803  0.232587  0.254437  1
  Pd  Pd16  1  0.267143  0.999910  0.255983  1
  Pd  Pd17  1  0.732587  0.001803  0.254437  1
  Pd  Pd18  1  0.000090  0.732857  0.744017  1
  Pd  Pd19  1  0.998197  0.267413  0.745563  1
  Pd  Pd20  1  0.232857  0.500090  0.744017  1
  Pd  Pd21  1  0.767413  0.498197  0.745563  1
  Pd  Pd22  1  0.501947  0.349204  0.856066  1
  Pd  Pd23  1  0.499730  0.649587  0.854403  1
  Pd  Pd24  1  0.849204  0.001947  0.856066  1
  Pd  Pd25  1  0.149587  0.999730  0.854403  1
  Pd  Pd26  1  0.998053  0.150796  0.143934  1
  Pd  Pd27  1  0.000270  0.850413  0.145597  1
  Pd  Pd28  1  0.650796  0.498053  0.143934  1
  Pd  Pd29  1  0.350413  0.500270  0.145597  1
  Pd  Pd30  1  0.750000  0.250000  0.000000  1
  Au  Au31  1  0.250000  0.750000  0.000000  1
  Au  Au32  1  0.250000  0.250000  0.000000  1
  Au  Au33  1  0.750000  0.750000  0.000000  1
