# generated using pymatgen
data_RbCeMnF7
_symmetry_space_group_name_H-M   'P 1'
_cell_length_a   6.72879319
_cell_length_b   6.72879271
_cell_length_c   8.61858200
_cell_angle_alpha   90.00000000
_cell_angle_beta   90.00000000
_cell_angle_gamma   117.46211425
_symmetry_Int_Tables_number   1
_chemical_formula_structural   RbCeMnF7
_chemical_formula_sum   'Rb2 Ce2 Mn2 F14'
_cell_volume   346.24893158
_cell_formula_units_Z   2
loop_
 _symmetry_equiv_pos_site_id
 _symmetry_equiv_pos_as_xyz
  1  'x, y, z'
loop_
 _atom_site_type_symbol
 _atom_site_label
 _atom_site_symmetry_multiplicity
 _atom_site_fract_x
 _atom_site_fract_y
 _atom_site_fract_z
 _atom_site_occupancy
  Rb  Rb0  1  0.500000  0.500000  0.500000  1
  Rb  Rb1  1  0.500000  0.500000  0.000000  1
  Ce  Ce2  1  0.809503  0.190497  0.250000  1
  Ce  Ce3  1  0.190497  0.809503  0.750000  1
  Mn  Mn4  1  0.189938  0.810062  0.250000  1
  Mn  Mn5  1  0.810062  0.189938  0.750000  1
  F  F6  1  0.832997  0.544235  0.750000  1
  F  F7  1  0.167003  0.455765  0.250000  1
  F  F8  1  0.161798  0.457602  0.750000  1
  F  F9  1  0.799673  0.200327  0.506075  1
  F  F10  1  0.455765  0.167003  0.750000  1
  F  F11  1  0.799673  0.200327  0.993925  1
  F  F12  1  0.200327  0.799673  0.006075  1
  F  F13  1  0.838202  0.542398  0.250000  1
  F  F14  1  0.544235  0.832997  0.250000  1
  F  F15  1  0.000967  0.999033  0.250000  1
  F  F16  1  0.999033  0.000967  0.750000  1
  F  F17  1  0.200327  0.799673  0.493925  1
  F  F18  1  0.542398  0.838202  0.750000  1
  F  F19  1  0.457602  0.161798  0.250000  1
