# generated using pymatgen
data_LaHo4ThRh18
_symmetry_space_group_name_H-M   'P 1'
_cell_length_a   5.29423718
_cell_length_b   5.29584449
_cell_length_c   17.53340800
_cell_angle_alpha   90.00000000
_cell_angle_beta   90.00000000
_cell_angle_gamma   120.02021116
_symmetry_Int_Tables_number   1
_chemical_formula_structural   LaHo4ThRh18
_chemical_formula_sum   'La1 Ho4 Th1 Rh18'
_cell_volume   425.64457603
_cell_formula_units_Z   1
loop_
 _symmetry_equiv_pos_site_id
 _symmetry_equiv_pos_as_xyz
  1  'x, y, z'
loop_
 _atom_site_type_symbol
 _atom_site_label
 _atom_site_symmetry_multiplicity
 _atom_site_fract_x
 _atom_site_fract_y
 _atom_site_fract_z
 _atom_site_occupancy
  La  La0  1  0.666674  0.333340  0.250000  1
  Ho  Ho1  1  0.333339  0.666670  0.540520  1
  Ho  Ho2  1  0.666668  0.333333  0.041133  1
  Ho  Ho3  1  0.666668  0.333333  0.458867  1
  Ho  Ho4  1  0.333339  0.666670  0.959480  1
  Th  Th5  1  0.333325  0.666663  0.750000  1
  Rh  Rh6  1  0.167387  0.334744  0.123966  1
  Rh  Rh7  1  0.832639  0.665299  0.624506  1
  Rh  Rh8  1  0.665256  0.832622  0.123976  1
  Rh  Rh9  1  0.167382  0.832638  0.123965  1
  Rh  Rh10  1  0.832640  0.167343  0.624502  1
  Rh  Rh11  1  0.334687  0.167345  0.624505  1
  Rh  Rh12  1  0.832639  0.665299  0.875494  1
  Rh  Rh13  1  0.832640  0.167343  0.875498  1
  Rh  Rh14  1  0.334687  0.167345  0.875495  1
  Rh  Rh15  1  0.665256  0.832622  0.376024  1
  Rh  Rh16  1  0.167382  0.832638  0.376035  1
  Rh  Rh17  1  0.167387  0.334744  0.376034  1
  Rh  Rh18  1  0.999946  0.999989  0.250000  1
  Rh  Rh19  1  0.000009  0.999992  0.750000  1
  Rh  Rh20  1  0.333361  0.666681  0.250000  1
  Rh  Rh21  1  0.666699  0.333355  0.750000  1
  Rh  Rh22  1  0.999995  0.999997  0.999784  1
  Rh  Rh23  1  0.999995  0.999997  0.500216  1
