# generated using pymatgen
data_Yb6Pa2TlPt8Pb3
_symmetry_space_group_name_H-M   'P 1'
_cell_length_a   7.87373148
_cell_length_b   7.86173067
_cell_length_c   7.37931900
_cell_angle_alpha   90.00000000
_cell_angle_beta   90.00000000
_cell_angle_gamma   93.01380662
_symmetry_Int_Tables_number   1
_chemical_formula_structural   Yb6Pa2TlPt8Pb3
_chemical_formula_sum   'Yb6 Pa2 Tl1 Pt8 Pb3'
_cell_volume   456.15659173
_cell_formula_units_Z   1
loop_
 _symmetry_equiv_pos_site_id
 _symmetry_equiv_pos_as_xyz
  1  'x, y, z'
loop_
 _atom_site_type_symbol
 _atom_site_label
 _atom_site_symmetry_multiplicity
 _atom_site_fract_x
 _atom_site_fract_y
 _atom_site_fract_z
 _atom_site_occupancy
  Yb  Yb0  1  0.662908  0.666100  0.999696  1
  Yb  Yb1  1  0.831090  0.166085  0.501017  1
  Yb  Yb2  1  0.337092  0.333900  0.999696  1
  Yb  Yb3  1  0.168910  0.833915  0.501017  1
  Yb  Yb4  1  0.829391  0.167335  0.999390  1
  Yb  Yb5  1  0.170609  0.832665  0.999390  1
  Pa  Pa6  1  0.327541  0.324030  0.500152  1
  Pa  Pa7  1  0.672459  0.675970  0.500152  1
  Tl  Tl8  1  0.500000  0.000000  0.755821  1
  Pt  Pt9  1  0.868596  0.866438  0.740415  1
  Pt  Pt10  1  0.131404  0.133562  0.740415  1
  Pt  Pt11  1  0.623547  0.374734  0.728755  1
  Pt  Pt12  1  0.624277  0.376413  0.272124  1
  Pt  Pt13  1  0.375723  0.623587  0.272124  1
  Pt  Pt14  1  0.130646  0.132370  0.259415  1
  Pt  Pt15  1  0.869354  0.867630  0.259415  1
  Pt  Pt16  1  0.376453  0.625266  0.728755  1
  Pb  Pb17  1  0.500000  0.000000  0.243127  1
  Pb  Pb18  1  0.000000  0.500000  0.756771  1
  Pb  Pb19  1  0.000000  0.500000  0.242350  1
