# generated using pymatgen
data_Nd2Ho(AlI)2
_symmetry_space_group_name_H-M   'P 1'
_cell_length_a   9.81762758
_cell_length_b   9.81762836
_cell_length_c   12.00413314
_cell_angle_alpha   59.74695235
_cell_angle_beta   59.74695052
_cell_angle_gamma   25.16853613
_symmetry_Int_Tables_number   1
_chemical_formula_structural   Nd2Ho(AlI)2
_chemical_formula_sum   'Nd4 Ho2 Al4 I4'
_cell_volume   421.43049696
_cell_formula_units_Z   2
loop_
 _symmetry_equiv_pos_site_id
 _symmetry_equiv_pos_as_xyz
  1  'x, y, z'
loop_
 _atom_site_type_symbol
 _atom_site_label
 _atom_site_symmetry_multiplicity
 _atom_site_fract_x
 _atom_site_fract_y
 _atom_site_fract_z
 _atom_site_occupancy
  Nd  Nd0  1  0.755000  0.755000  0.800523  1
  Nd  Nd1  1  0.245000  0.245000  0.199477  1
  Nd  Nd2  1  0.534686  0.534686  0.311625  1
  Nd  Nd3  1  0.465314  0.465314  0.688375  1
  Ho  Ho4  1  0.830569  0.830569  0.391721  1
  Ho  Ho5  1  0.169431  0.169431  0.608279  1
  Al  Al6  1  0.925885  0.925885  0.529554  1
  Al  Al7  1  0.074115  0.074115  0.470446  1
  Al  Al8  1  0.335703  0.335703  0.580987  1
  Al  Al9  1  0.664297  0.664297  0.419013  1
  I  I10  1  0.421269  0.421269  0.176849  1
  I  I11  1  0.578731  0.578731  0.823151  1
  I  I12  1  0.860102  0.860102  0.942389  1
  I  I13  1  0.139898  0.139898  0.057611  1
