# generated using pymatgen
data_Li3Ta3Ir5Ru
_symmetry_space_group_name_H-M   'P 1'
_cell_length_a   4.35734900
_cell_length_b   6.15110100
_cell_length_c   13.05470000
_cell_angle_alpha   90.00000000
_cell_angle_beta   89.99920613
_cell_angle_gamma   89.99991398
_symmetry_Int_Tables_number   1
_chemical_formula_structural   Li3Ta3Ir5Ru
_chemical_formula_sum   'Li6 Ta6 Ir10 Ru2'
_cell_volume   349.89851568
_cell_formula_units_Z   2
loop_
 _symmetry_equiv_pos_site_id
 _symmetry_equiv_pos_as_xyz
  1  'x, y, z'
loop_
 _atom_site_type_symbol
 _atom_site_label
 _atom_site_symmetry_multiplicity
 _atom_site_fract_x
 _atom_site_fract_y
 _atom_site_fract_z
 _atom_site_occupancy
  Li  Li0  1  0.000003  0.499980  0.999599  1
  Li  Li1  1  0.499780  0.999998  0.166362  1
  Li  Li2  1  0.999785  0.500003  0.333379  1
  Li  Li3  1  0.499989  0.999997  0.500283  1
  Li  Li4  1  0.000198  0.499983  0.667041  1
  Li  Li5  1  0.500217  0.000035  0.833376  1
  Ta  Ta6  1  0.000008  0.000000  0.995516  1
  Ta  Ta7  1  0.499824  0.500004  0.166249  1
  Ta  Ta8  1  0.999823  0.999999  0.333335  1
  Ta  Ta9  1  0.499999  0.500002  0.500413  1
  Ta  Ta10  1  0.000179  0.999998  0.671155  1
  Ta  Ta11  1  0.500170  0.499999  0.833349  1
  Ir  Ir12  1  0.500010  0.249722  0.000228  1
  Ir  Ir13  1  0.500010  0.750278  0.000225  1
  Ir  Ir14  1  0.999828  0.249681  0.166657  1
  Ir  Ir15  1  0.999827  0.750319  0.166656  1
  Ir  Ir16  1  0.499821  0.249440  0.333319  1
  Ir  Ir17  1  0.499823  0.750559  0.333319  1
  Ir  Ir18  1  0.999997  0.249675  0.500018  1
  Ir  Ir19  1  0.999996  0.750325  0.500019  1
  Ir  Ir20  1  0.500176  0.249736  0.666456  1
  Ir  Ir21  1  0.500177  0.750263  0.666459  1
  Ru  Ru22  1  0.000184  0.251288  0.833292  1
  Ru  Ru23  1  0.000180  0.748714  0.833293  1
