# generated using pymatgen
data_CeTmFeCo16
_symmetry_space_group_name_H-M   'P 1'
_cell_length_a   6.26410671
_cell_length_b   6.26410643
_cell_length_c   6.26410756
_cell_angle_alpha   83.02348822
_cell_angle_beta   83.02349338
_cell_angle_gamma   83.02349364
_symmetry_Int_Tables_number   1
_chemical_formula_structural   CeTmFeCo16
_chemical_formula_sum   'Ce1 Tm1 Fe1 Co16'
_cell_volume   240.74665685
_cell_formula_units_Z   1
loop_
 _symmetry_equiv_pos_site_id
 _symmetry_equiv_pos_as_xyz
  1  'x, y, z'
loop_
 _atom_site_type_symbol
 _atom_site_label
 _atom_site_symmetry_multiplicity
 _atom_site_fract_x
 _atom_site_fract_y
 _atom_site_fract_z
 _atom_site_occupancy
  Ce  Ce0  1  0.651763  0.651763  0.651763  1
  Tm  Tm1  1  0.343930  0.343930  0.343930  1
  Fe  Fe2  1  0.096437  0.096437  0.096437  1
  Co  Co3  1  0.348844  0.847385  0.348844  1
  Co  Co4  1  0.348844  0.348844  0.847385  1
  Co  Co5  1  0.847385  0.348844  0.348844  1
  Co  Co6  1  0.653361  0.143819  0.653361  1
  Co  Co7  1  0.653361  0.653361  0.143819  1
  Co  Co8  1  0.143819  0.653361  0.653361  1
  Co  Co9  1  0.712708  0.289342  0.999673  1
  Co  Co10  1  0.999673  0.712708  0.289342  1
  Co  Co11  1  0.289342  0.999673  0.712708  1
  Co  Co12  1  0.999673  0.289342  0.712708  1
  Co  Co13  1  0.712708  0.999673  0.289342  1
  Co  Co14  1  0.289342  0.712708  0.999673  1
  Co  Co15  1  0.003614  0.003614  0.500398  1
  Co  Co16  1  0.500398  0.003614  0.003614  1
  Co  Co17  1  0.003614  0.500398  0.003614  1
  Co  Co18  1  0.901184  0.901184  0.901184  1
