# generated using pymatgen
data_Al8CuRu4Rh3
_symmetry_space_group_name_H-M   'P 1'
_cell_length_a   6.02617200
_cell_length_b   4.23579700
_cell_length_c   8.46290700
_cell_angle_alpha   90.00000000
_cell_angle_beta   89.99994440
_cell_angle_gamma   90.00000000
_symmetry_Int_Tables_number   1
_chemical_formula_structural   Al8CuRu4Rh3
_chemical_formula_sum   'Al8 Cu1 Ru4 Rh3'
_cell_volume   216.02112826
_cell_formula_units_Z   1
loop_
 _symmetry_equiv_pos_site_id
 _symmetry_equiv_pos_as_xyz
  1  'x, y, z'
loop_
 _atom_site_type_symbol
 _atom_site_label
 _atom_site_symmetry_multiplicity
 _atom_site_fract_x
 _atom_site_fract_y
 _atom_site_fract_z
 _atom_site_occupancy
  Al  Al0  1  0.507947  0.750000  0.124994  1
  Al  Al1  1  0.992051  0.750000  0.124994  1
  Al  Al2  1  0.502232  0.250000  0.377639  1
  Al  Al3  1  0.997768  0.250000  0.377642  1
  Al  Al4  1  0.999761  0.750000  0.624995  1
  Al  Al5  1  0.500235  0.750000  0.624996  1
  Al  Al6  1  0.997768  0.250000  0.872370  1
  Al  Al7  1  0.502230  0.250000  0.872374  1
  Cu  Cu8  1  0.249997  0.250000  0.125005  1
  Ru  Ru9  1  0.750004  0.250000  0.125007  1
  Ru  Ru10  1  0.250001  0.750000  0.366128  1
  Ru  Ru11  1  0.749998  0.250000  0.625005  1
  Ru  Ru12  1  0.249998  0.750000  0.883856  1
  Rh  Rh13  1  0.750006  0.750000  0.373547  1
  Rh  Rh14  1  0.250003  0.250000  0.625003  1
  Rh  Rh15  1  0.749998  0.750000  0.876447  1
