# generated using pymatgen
data_Ac2BeSi3
_symmetry_space_group_name_H-M   'P 1'
_cell_length_a   8.10653100
_cell_length_b   8.10652921
_cell_length_c   4.74320600
_cell_angle_alpha   90.00000000
_cell_angle_beta   90.00000000
_cell_angle_gamma   120.00000324
_symmetry_Int_Tables_number   1
_chemical_formula_structural   Ac2BeSi3
_chemical_formula_sum   'Ac4 Be2 Si6'
_cell_volume   269.94333171
_cell_formula_units_Z   2
loop_
 _symmetry_equiv_pos_site_id
 _symmetry_equiv_pos_as_xyz
  1  'x, y, z'
loop_
 _atom_site_type_symbol
 _atom_site_label
 _atom_site_symmetry_multiplicity
 _atom_site_fract_x
 _atom_site_fract_y
 _atom_site_fract_z
 _atom_site_occupancy
  Ac  Ac0  1  0.000000  0.000000  0.500000  1
  Ac  Ac1  1  0.000000  0.500000  0.500000  1
  Ac  Ac2  1  0.500000  0.500000  0.500000  1
  Ac  Ac3  1  0.500000  0.000000  0.500000  1
  Be  Be4  1  0.333333  0.666667  0.000000  1
  Be  Be5  1  0.666667  0.333333  0.000000  1
  Si  Si6  1  0.171254  0.342508  0.000000  1
  Si  Si7  1  0.657492  0.828746  0.000000  1
  Si  Si8  1  0.342508  0.171254  0.000000  1
  Si  Si9  1  0.171254  0.828746  0.000000  1
  Si  Si10  1  0.828746  0.657492  0.000000  1
  Si  Si11  1  0.828746  0.171254  0.000000  1
