# generated using pymatgen
data_Ti12TcP8W
_symmetry_space_group_name_H-M   'P 1'
_cell_length_a   7.43587262
_cell_length_b   7.43587420
_cell_length_c   13.49853795
_cell_angle_alpha   76.05001281
_cell_angle_beta   76.05001011
_cell_angle_gamma   26.49005376
_symmetry_Int_Tables_number   1
_chemical_formula_structural   Ti12TcP8W
_chemical_formula_sum   'Ti12 Tc1 P8 W1'
_cell_volume   322.53865365
_cell_formula_units_Z   1
loop_
 _symmetry_equiv_pos_site_id
 _symmetry_equiv_pos_as_xyz
  1  'x, y, z'
loop_
 _atom_site_type_symbol
 _atom_site_label
 _atom_site_symmetry_multiplicity
 _atom_site_fract_x
 _atom_site_fract_y
 _atom_site_fract_z
 _atom_site_occupancy
  Ti  Ti0  1  0.430992  0.430992  0.167951  1
  Ti  Ti1  1  0.569008  0.569008  0.832049  1
  Ti  Ti2  1  0.195856  0.195856  0.692616  1
  Ti  Ti3  1  0.804144  0.804144  0.307384  1
  Ti  Ti4  1  0.207504  0.207504  0.204710  1
  Ti  Ti5  1  0.792496  0.792496  0.795290  1
  Ti  Ti6  1  0.341397  0.341397  0.967675  1
  Ti  Ti7  1  0.658603  0.658603  0.032325  1
  Ti  Ti8  1  0.003425  0.003425  0.338912  1
  Ti  Ti9  1  0.996575  0.996575  0.661088  1
  Ti  Ti10  1  0.175547  0.175547  0.459051  1
  Ti  Ti11  1  0.824453  0.824453  0.540949  1
  Tc  Tc12  1  0.000000  0.000000  0.000000  1
  P  P13  1  0.177191  0.177191  0.890935  1
  P  P14  1  0.822809  0.822809  0.109065  1
  P  P15  1  0.371611  0.371611  0.395643  1
  P  P16  1  0.628389  0.628389  0.604357  1
  P  P17  1  0.368934  0.368934  0.660650  1
  P  P18  1  0.631066  0.631066  0.339350  1
  P  P19  1  0.061130  0.061130  0.150865  1
  P  P20  1  0.938870  0.938870  0.849135  1
  W  W21  1  0.500000  0.500000  0.500000  1
