# generated using pymatgen
data_Yb7Zr(Si4Mo3)4
_symmetry_space_group_name_H-M   'P 1'
_cell_length_a   6.71305622
_cell_length_b   6.90321341
_cell_length_c   12.99711529
_cell_angle_alpha   89.80340267
_cell_angle_beta   89.99949897
_cell_angle_gamma   89.88590103
_symmetry_Int_Tables_number   1
_chemical_formula_structural   Yb7Zr(Si4Mo3)4
_chemical_formula_sum   'Yb7 Zr1 Si16 Mo12'
_cell_volume   602.30315465
_cell_formula_units_Z   1
loop_
 _symmetry_equiv_pos_site_id
 _symmetry_equiv_pos_as_xyz
  1  'x, y, z'
loop_
 _atom_site_type_symbol
 _atom_site_label
 _atom_site_symmetry_multiplicity
 _atom_site_fract_x
 _atom_site_fract_y
 _atom_site_fract_z
 _atom_site_occupancy
  Yb  Yb0  1  0.497627  0.335090  0.089514  1
  Yb  Yb1  1  0.997978  0.165491  0.409904  1
  Yb  Yb2  1  0.501729  0.665877  0.590821  1
  Yb  Yb3  1  0.001085  0.831372  0.908703  1
  Yb  Yb4  1  0.500423  0.667028  0.909946  1
  Yb  Yb5  1  0.001855  0.833039  0.590735  1
  Yb  Yb6  1  0.498094  0.334245  0.409189  1
  Zr  Zr7  1  0.000979  0.173277  0.097507  1
  Si  Si8  1  0.658119  0.043007  0.545469  1
  Si  Si9  1  0.158090  0.454138  0.956860  1
  Si  Si10  1  0.334480  0.960528  0.045484  1
  Si  Si11  1  0.841503  0.543944  0.454055  1
  Si  Si12  1  0.342350  0.956407  0.453680  1
  Si  Si13  1  0.842003  0.540148  0.045329  1
  Si  Si14  1  0.662063  0.042062  0.956374  1
  Si  Si15  1  0.158246  0.457088  0.545382  1
  Si  Si16  1  0.534763  0.373440  0.750905  1
  Si  Si17  1  0.034784  0.124493  0.749486  1
  Si  Si18  1  0.465311  0.631278  0.248310  1
  Si  Si19  1  0.965761  0.872917  0.248253  1
  Si  Si20  1  0.800016  0.631242  0.750510  1
  Si  Si21  1  0.300713  0.866813  0.750373  1
  Si  Si22  1  0.199142  0.366510  0.249988  1
  Si  Si23  1  0.698636  0.134775  0.250011  1
  Mo  Mo24  1  0.834480  0.331754  0.628152  1
  Mo  Mo25  1  0.333329  0.167309  0.873604  1
  Mo  Mo26  1  0.166901  0.665198  0.125105  1
  Mo  Mo27  1  0.667172  0.832853  0.371336  1
  Mo  Mo28  1  0.165832  0.667299  0.370196  1
  Mo  Mo29  1  0.669707  0.837417  0.125521  1
  Mo  Mo30  1  0.836932  0.328039  0.874831  1
  Mo  Mo31  1  0.335016  0.167579  0.627815  1
  Mo  Mo32  1  0.661203  0.007887  0.751146  1
  Mo  Mo33  1  0.160856  0.489899  0.750886  1
  Mo  Mo34  1  0.335176  0.997032  0.247526  1
  Mo  Mo35  1  0.837643  0.503521  0.247094  1
