# generated using pymatgen
data_PrLu(CuP)3
_symmetry_space_group_name_H-M   'P 1'
_cell_length_a   3.93303700
_cell_length_b   10.72333200
_cell_length_c   12.89308600
_cell_angle_alpha   90.00000000
_cell_angle_beta   90.00000000
_cell_angle_gamma   90.00000000
_symmetry_Int_Tables_number   1
_chemical_formula_structural   PrLu(CuP)3
_chemical_formula_sum   'Pr4 Lu4 Cu12 P12'
_cell_volume   543.76927384
_cell_formula_units_Z   4
loop_
 _symmetry_equiv_pos_site_id
 _symmetry_equiv_pos_as_xyz
  1  'x, y, z'
loop_
 _atom_site_type_symbol
 _atom_site_label
 _atom_site_symmetry_multiplicity
 _atom_site_fract_x
 _atom_site_fract_y
 _atom_site_fract_z
 _atom_site_occupancy
  Pr  Pr0  1  0.250000  0.930809  0.793221  1
  Pr  Pr1  1  0.750000  0.430809  0.706779  1
  Pr  Pr2  1  0.250000  0.569191  0.293221  1
  Pr  Pr3  1  0.750000  0.069191  0.206779  1
  Lu  Lu4  1  0.250000  0.843733  0.502706  1
  Lu  Lu5  1  0.750000  0.343733  0.997294  1
  Lu  Lu6  1  0.250000  0.656267  0.002706  1
  Lu  Lu7  1  0.750000  0.156267  0.497294  1
  Cu  Cu8  1  0.250000  0.399708  0.510873  1
  Cu  Cu9  1  0.750000  0.899708  0.989127  1
  Cu  Cu10  1  0.250000  0.100292  0.010873  1
  Cu  Cu11  1  0.750000  0.600292  0.489127  1
  Cu  Cu12  1  0.250000  0.272691  0.331752  1
  Cu  Cu13  1  0.750000  0.772691  0.168248  1
  Cu  Cu14  1  0.250000  0.227309  0.831752  1
  Cu  Cu15  1  0.750000  0.727309  0.668248  1
  Cu  Cu16  1  0.250000  0.860510  0.283001  1
  Cu  Cu17  1  0.750000  0.360510  0.216999  1
  Cu  Cu18  1  0.250000  0.639490  0.783001  1
  Cu  Cu19  1  0.750000  0.139490  0.716999  1
  P  P20  1  0.250000  0.234094  0.640701  1
  P  P21  1  0.750000  0.734094  0.859299  1
  P  P22  1  0.250000  0.265906  0.140701  1
  P  P23  1  0.750000  0.765906  0.359299  1
  P  P24  1  0.250000  0.608849  0.598145  1
  P  P25  1  0.750000  0.108849  0.901855  1
  P  P26  1  0.250000  0.891151  0.098145  1
  P  P27  1  0.750000  0.391151  0.401855  1
  P  P28  1  0.250000  0.058642  0.376002  1
  P  P29  1  0.750000  0.558642  0.123998  1
  P  P30  1  0.250000  0.441358  0.876002  1
  P  P31  1  0.750000  0.941358  0.623998  1
