# generated using pymatgen
data_Ac6Hg7Ir
_symmetry_space_group_name_H-M   'P 1'
_cell_length_a   8.80124162
_cell_length_b   8.80124147
_cell_length_c   8.80124142
_cell_angle_alpha   113.03041692
_cell_angle_beta   113.03042140
_cell_angle_gamma   113.03042619
_symmetry_Int_Tables_number   1
_chemical_formula_structural   Ac6Hg7Ir
_chemical_formula_sum   'Ac6 Hg7 Ir1'
_cell_volume   442.40237931
_cell_formula_units_Z   1
loop_
 _symmetry_equiv_pos_site_id
 _symmetry_equiv_pos_as_xyz
  1  'x, y, z'
loop_
 _atom_site_type_symbol
 _atom_site_label
 _atom_site_symmetry_multiplicity
 _atom_site_fract_x
 _atom_site_fract_y
 _atom_site_fract_z
 _atom_site_occupancy
  Ac  Ac0  1  0.990637  0.632857  0.749894  1
  Ac  Ac1  1  0.749894  0.990637  0.632857  1
  Ac  Ac2  1  0.632857  0.749894  0.990637  1
  Ac  Ac3  1  0.009363  0.367143  0.250106  1
  Ac  Ac4  1  0.250106  0.009363  0.367143  1
  Ac  Ac5  1  0.367143  0.250106  0.009363  1
  Hg  Hg6  1  0.500000  0.500000  0.500000  1
  Hg  Hg7  1  0.891477  0.731271  0.398995  1
  Hg  Hg8  1  0.398995  0.891477  0.731271  1
  Hg  Hg9  1  0.731271  0.398995  0.891477  1
  Hg  Hg10  1  0.108523  0.268729  0.601005  1
  Hg  Hg11  1  0.601005  0.108523  0.268729  1
  Hg  Hg12  1  0.268729  0.601005  0.108523  1
  Ir  Ir13  1  0.000000  0.000000  0.000000  1
