# generated using pymatgen
data_Li12Ca6Pb4N
_symmetry_space_group_name_H-M   'P 1'
_cell_length_a   8.81543034
_cell_length_b   8.81543028
_cell_length_c   8.81542900
_cell_angle_alpha   109.47122918
_cell_angle_beta   109.47122904
_cell_angle_gamma   109.47121561
_symmetry_Int_Tables_number   1
_chemical_formula_structural   Li12Ca6Pb4N
_chemical_formula_sum   'Li12 Ca6 Pb4 N1'
_cell_volume   527.36163300
_cell_formula_units_Z   1
loop_
 _symmetry_equiv_pos_site_id
 _symmetry_equiv_pos_as_xyz
  1  'x, y, z'
loop_
 _atom_site_type_symbol
 _atom_site_label
 _atom_site_symmetry_multiplicity
 _atom_site_fract_x
 _atom_site_fract_y
 _atom_site_fract_z
 _atom_site_occupancy
  Li  Li0  1  0.679943  0.339971  0.339971  1
  Li  Li1  1  0.339971  0.000000  0.660029  1
  Li  Li2  1  0.339971  0.679943  0.339971  1
  Li  Li3  1  0.339971  0.339971  0.679943  1
  Li  Li4  1  0.339971  0.660029  0.000000  1
  Li  Li5  1  0.000000  0.339971  0.660029  1
  Li  Li6  1  0.000000  0.660029  0.339971  1
  Li  Li7  1  0.660029  0.660029  0.320057  1
  Li  Li8  1  0.660029  0.000000  0.339971  1
  Li  Li9  1  0.660029  0.339971  0.000000  1
  Li  Li10  1  0.660029  0.320057  0.660029  1
  Li  Li11  1  0.320057  0.660029  0.660029  1
  Ca  Ca12  1  0.000000  0.240651  0.240651  1
  Ca  Ca13  1  0.240651  0.000000  0.240651  1
  Ca  Ca14  1  0.759349  0.000000  0.759349  1
  Ca  Ca15  1  0.759349  0.759349  0.000000  1
  Ca  Ca16  1  0.240651  0.240651  0.000000  1
  Ca  Ca17  1  0.000000  0.759349  0.759349  1
  Pb  Pb18  1  0.500000  0.500000  0.500000  1
  Pb  Pb19  1  0.500000  0.000000  0.000000  1
  Pb  Pb20  1  0.000000  0.500000  0.000000  1
  Pb  Pb21  1  0.000000  0.000000  0.500000  1
  N  N22  1  0.000000  0.000000  0.000000  1
