# generated using pymatgen
data_Pr3Hg5Rh
_symmetry_space_group_name_H-M   'P 1'
_cell_length_a   8.26138800
_cell_length_b   8.26138897
_cell_length_c   3.91094700
_cell_angle_alpha   90.00000000
_cell_angle_beta   90.00000000
_cell_angle_gamma   119.99999611
_symmetry_Int_Tables_number   1
_chemical_formula_structural   Pr3Hg5Rh
_chemical_formula_sum   'Pr3 Hg5 Rh1'
_cell_volume   231.16318484
_cell_formula_units_Z   1
loop_
 _symmetry_equiv_pos_site_id
 _symmetry_equiv_pos_as_xyz
  1  'x, y, z'
loop_
 _atom_site_type_symbol
 _atom_site_label
 _atom_site_symmetry_multiplicity
 _atom_site_fract_x
 _atom_site_fract_y
 _atom_site_fract_z
 _atom_site_occupancy
  Pr  Pr0  1  0.418917  0.387248  0.500000  1
  Pr  Pr1  1  0.612752  0.031670  0.500000  1
  Pr  Pr2  1  0.968330  0.581083  0.500000  1
  Hg  Hg3  1  0.719817  0.717203  0.000000  1
  Hg  Hg4  1  0.282797  0.002614  0.000000  1
  Hg  Hg5  1  0.997386  0.280183  0.000000  1
  Hg  Hg6  1  0.333333  0.666667  0.000000  1
  Hg  Hg7  1  0.000000  0.000000  0.500000  1
  Rh  Rh8  1  0.666667  0.333333  0.000000  1
