# generated using pymatgen
data_CoH8
_symmetry_space_group_name_H-M   'P 1'
_cell_length_a   2.57161618
_cell_length_b   2.57102850
_cell_length_c   12.02504736
_cell_angle_alpha   97.11056095
_cell_angle_beta   81.46386060
_cell_angle_gamma   89.98662977
_symmetry_Int_Tables_number   1
_chemical_formula_structural   CoH8
_chemical_formula_sum   'Co1 H8'
_cell_volume   78.00653212
_cell_formula_units_Z   1
loop_
 _symmetry_equiv_pos_site_id
 _symmetry_equiv_pos_as_xyz
  1  'x, y, z'
loop_
 _atom_site_type_symbol
 _atom_site_label
 _atom_site_symmetry_multiplicity
 _atom_site_fract_x
 _atom_site_fract_y
 _atom_site_fract_z
 _atom_site_occupancy
  Co  Co0  1  0.731412  0.878844  0.579177  1
  H  H1  1  0.289890  0.817739  0.494152  1
  H  H2  1  0.831329  0.307708  0.212489  1
  H  H3  1  0.793080  0.330956  0.494075  1
  H  H4  1  0.950229  0.520681  0.248016  1
  H  H5  1  0.476833  0.976770  0.879946  1
  H  H6  1  0.642814  0.796969  0.905063  1
  H  H7  1  0.671180  0.425623  0.664306  1
  H  H8  1  0.172620  0.941749  0.664222  1
