# generated using pymatgen
data_Pa3Ga4S
_symmetry_space_group_name_H-M   'P 1'
_cell_length_a   7.72603430
_cell_length_b   7.72603363
_cell_length_c   7.72603367
_cell_angle_alpha   119.69778469
_cell_angle_beta   119.69778614
_cell_angle_gamma   90.52425620
_symmetry_Int_Tables_number   1
_chemical_formula_structural   Pa3Ga4S
_chemical_formula_sum   'Pa6 Ga8 S2'
_cell_volume   327.57779396
_cell_formula_units_Z   2
loop_
 _symmetry_equiv_pos_site_id
 _symmetry_equiv_pos_as_xyz
  1  'x, y, z'
loop_
 _atom_site_type_symbol
 _atom_site_label
 _atom_site_symmetry_multiplicity
 _atom_site_fract_x
 _atom_site_fract_y
 _atom_site_fract_z
 _atom_site_occupancy
  Pa  Pa0  1  0.838413  0.661587  0.500000  1
  Pa  Pa1  1  0.661587  0.161587  0.823173  1
  Pa  Pa2  1  0.338413  0.838413  0.176827  1
  Pa  Pa3  1  0.161587  0.338413  0.500000  1
  Pa  Pa4  1  0.250000  0.250000  0.000000  1
  Pa  Pa5  1  0.750000  0.750000  0.000000  1
  Ga  Ga6  1  0.169832  0.953958  0.500000  1
  Ga  Ga7  1  0.453958  0.669832  0.500000  1
  Ga  Ga8  1  0.546042  0.330168  0.500000  1
  Ga  Ga9  1  0.669832  0.169832  0.215873  1
  Ga  Ga10  1  0.830168  0.046042  0.500000  1
  Ga  Ga11  1  0.046042  0.546042  0.215873  1
  Ga  Ga12  1  0.330168  0.830168  0.784127  1
  Ga  Ga13  1  0.953958  0.453958  0.784127  1
  S  S14  1  0.000000  0.000000  0.000000  1
  S  S15  1  0.500000  0.500000  0.000000  1
