# generated using pymatgen
data_Ta3Ti9(CrP4)2
_symmetry_space_group_name_H-M   'P 1'
_cell_length_a   7.41444651
_cell_length_b   7.41444530
_cell_length_c   13.52110026
_cell_angle_alpha   76.74419003
_cell_angle_beta   76.74419153
_cell_angle_gamma   26.25131503
_symmetry_Int_Tables_number   1
_chemical_formula_structural   Ta3Ti9(CrP4)2
_chemical_formula_sum   'Ta3 Ti9 Cr2 P8'
_cell_volume   319.52951061
_cell_formula_units_Z   1
loop_
 _symmetry_equiv_pos_site_id
 _symmetry_equiv_pos_as_xyz
  1  'x, y, z'
loop_
 _atom_site_type_symbol
 _atom_site_label
 _atom_site_symmetry_multiplicity
 _atom_site_fract_x
 _atom_site_fract_y
 _atom_site_fract_z
 _atom_site_occupancy
  Ta  Ta0  1  0.500000  0.500000  0.500000  1
  Ta  Ta1  1  0.425257  0.425257  0.178937  1
  Ta  Ta2  1  0.574743  0.574743  0.821063  1
  Ti  Ti3  1  0.000000  0.000000  0.000000  1
  Ti  Ti4  1  0.209454  0.209454  0.210770  1
  Ti  Ti5  1  0.790546  0.790546  0.789230  1
  Ti  Ti6  1  0.339077  0.339077  0.969720  1
  Ti  Ti7  1  0.660923  0.660923  0.030280  1
  Ti  Ti8  1  0.002687  0.002687  0.335131  1
  Ti  Ti9  1  0.997313  0.997313  0.664869  1
  Ti  Ti10  1  0.179238  0.179238  0.462945  1
  Ti  Ti11  1  0.820762  0.820762  0.537055  1
  Cr  Cr12  1  0.198766  0.198766  0.689411  1
  Cr  Cr13  1  0.801234  0.801234  0.310589  1
  P  P14  1  0.179328  0.179328  0.889276  1
  P  P15  1  0.820672  0.820672  0.110724  1
  P  P16  1  0.369759  0.369759  0.391002  1
  P  P17  1  0.630241  0.630241  0.608998  1
  P  P18  1  0.366483  0.366483  0.658652  1
  P  P19  1  0.633517  0.633517  0.341348  1
  P  P20  1  0.063840  0.063840  0.151661  1
  P  P21  1  0.936160  0.936160  0.848339  1
