# generated using pymatgen
data_CaNd4PPb3
_symmetry_space_group_name_H-M   'P 1'
_cell_length_a   9.42838600
_cell_length_b   9.42838395
_cell_length_c   6.99389500
_cell_angle_alpha   90.00000000
_cell_angle_beta   90.00000000
_cell_angle_gamma   120.00000018
_symmetry_Int_Tables_number   1
_chemical_formula_structural   CaNd4PPb3
_chemical_formula_sum   'Ca2 Nd8 P2 Pb6'
_cell_volume   538.42392906
_cell_formula_units_Z   2
loop_
 _symmetry_equiv_pos_site_id
 _symmetry_equiv_pos_as_xyz
  1  'x, y, z'
loop_
 _atom_site_type_symbol
 _atom_site_label
 _atom_site_symmetry_multiplicity
 _atom_site_fract_x
 _atom_site_fract_y
 _atom_site_fract_z
 _atom_site_occupancy
  Ca  Ca0  1  0.666667  0.333333  0.500000  1
  Ca  Ca1  1  0.333333  0.666667  0.500000  1
  Nd  Nd2  1  0.761607  0.761607  0.251524  1
  Nd  Nd3  1  0.238393  0.000000  0.251524  1
  Nd  Nd4  1  0.000000  0.238393  0.251524  1
  Nd  Nd5  1  0.238393  0.238393  0.748476  1
  Nd  Nd6  1  0.761607  0.000000  0.748476  1
  Nd  Nd7  1  0.000000  0.761607  0.748476  1
  Nd  Nd8  1  0.333333  0.666667  0.000000  1
  Nd  Nd9  1  0.666667  0.333333  0.000000  1
  P  P10  1  0.000000  0.000000  0.500000  1
  P  P11  1  0.000000  0.000000  0.000000  1
  Pb  Pb12  1  0.403047  0.403047  0.249511  1
  Pb  Pb13  1  0.596953  0.000000  0.249511  1
  Pb  Pb14  1  0.000000  0.596953  0.249511  1
  Pb  Pb15  1  0.596953  0.596953  0.750489  1
  Pb  Pb16  1  0.403047  0.000000  0.750489  1
  Pb  Pb17  1  0.000000  0.403047  0.750489  1
