# generated using pymatgen
data_DyY9Ir3Os
_symmetry_space_group_name_H-M   'P 1'
_cell_length_a   6.49524560
_cell_length_b   7.28363719
_cell_length_c   8.55860005
_cell_angle_alpha   96.61003658
_cell_angle_beta   112.57555265
_cell_angle_gamma   89.99843896
_symmetry_Int_Tables_number   1
_chemical_formula_structural   DyY9Ir3Os
_chemical_formula_sum   'Dy1 Y9 Ir3 Os1'
_cell_volume   370.95714579
_cell_formula_units_Z   1
loop_
 _symmetry_equiv_pos_site_id
 _symmetry_equiv_pos_as_xyz
  1  'x, y, z'
loop_
 _atom_site_type_symbol
 _atom_site_label
 _atom_site_symmetry_multiplicity
 _atom_site_fract_x
 _atom_site_fract_y
 _atom_site_fract_z
 _atom_site_occupancy
  Dy  Dy0  1  0.572883  0.748740  0.999446  1
  Y  Y1  1  0.790148  0.084684  0.814915  1
  Y  Y2  1  0.972668  0.416363  0.180119  1
  Y  Y3  1  0.208493  0.915931  0.183746  1
  Y  Y4  1  0.023564  0.582930  0.814950  1
  Y  Y5  1  0.213942  0.184462  0.561425  1
  Y  Y6  1  0.649521  0.316646  0.441022  1
  Y  Y7  1  0.788742  0.816596  0.438877  1
  Y  Y8  1  0.350933  0.682692  0.562306  1
  Y  Y9  1  0.427143  0.250290  0.999690  1
  Ir  Ir10  1  0.824696  0.073330  0.221501  1
  Ir  Ir11  1  0.395820  0.575684  0.220381  1
  Ir  Ir12  1  0.174677  0.925225  0.778622  1
  Os  Os13  1  0.606768  0.426428  0.782998  1
