# generated using pymatgen
data_Ti4Mo2C5
_symmetry_space_group_name_H-M   'P 1'
_cell_length_a   5.33351221
_cell_length_b   5.33351287
_cell_length_c   5.30431731
_cell_angle_alpha   80.47706134
_cell_angle_beta   80.47704985
_cell_angle_gamma   120.27921503
_symmetry_Int_Tables_number   1
_chemical_formula_structural   Ti4Mo2C5
_chemical_formula_sum   'Ti4 Mo2 C5'
_cell_volume   122.89990339
_cell_formula_units_Z   1
loop_
 _symmetry_equiv_pos_site_id
 _symmetry_equiv_pos_as_xyz
  1  'x, y, z'
loop_
 _atom_site_type_symbol
 _atom_site_label
 _atom_site_symmetry_multiplicity
 _atom_site_fract_x
 _atom_site_fract_y
 _atom_site_fract_z
 _atom_site_occupancy
  Ti  Ti0  1  0.734544  0.738829  0.734746  1
  Ti  Ti1  1  0.261171  0.265456  0.265254  1
  Ti  Ti2  1  0.084860  0.440753  0.745948  1
  Ti  Ti3  1  0.559247  0.915140  0.254052  1
  Mo  Mo4  1  0.910585  0.553536  0.255246  1
  Mo  Mo5  1  0.446464  0.089415  0.744754  1
  C  C6  1  0.497413  0.502587  0.500000  1
  C  C7  1  0.666007  0.333993  0.000000  1
  C  C8  1  0.335229  0.664771  0.000000  1
  C  C9  1  0.837906  0.162094  0.500000  1
  C  C10  1  0.166575  0.833425  0.500000  1
