# generated using pymatgen
data_Nb6Al4ZnNiC2
_symmetry_space_group_name_H-M   'P 1'
_cell_length_a   8.32784108
_cell_length_b   8.32582954
_cell_length_c   8.32817912
_cell_angle_alpha   60.00920807
_cell_angle_beta   60.01916430
_cell_angle_gamma   60.00816932
_symmetry_Int_Tables_number   1
_chemical_formula_structural   Nb6Al4ZnNiC2
_chemical_formula_sum   'Nb12 Al8 Zn2 Ni2 C4'
_cell_volume   408.42743240
_cell_formula_units_Z   2
loop_
 _symmetry_equiv_pos_site_id
 _symmetry_equiv_pos_as_xyz
  1  'x, y, z'
loop_
 _atom_site_type_symbol
 _atom_site_label
 _atom_site_symmetry_multiplicity
 _atom_site_fract_x
 _atom_site_fract_y
 _atom_site_fract_z
 _atom_site_occupancy
  Nb  Nb0  1  0.815016  0.816275  0.185839  1
  Nb  Nb1  1  0.185749  0.182856  0.815070  1
  Nb  Nb2  1  0.814654  0.185401  0.814648  1
  Nb  Nb3  1  0.182887  0.817120  0.182900  1
  Nb  Nb4  1  0.185840  0.816276  0.815015  1
  Nb  Nb5  1  0.815068  0.182859  0.185750  1
  Nb  Nb6  1  0.434984  0.433725  0.064161  1
  Nb  Nb7  1  0.064251  0.067144  0.434930  1
  Nb  Nb8  1  0.435346  0.064599  0.435352  1
  Nb  Nb9  1  0.067113  0.432880  0.067100  1
  Nb  Nb10  1  0.064160  0.433724  0.434985  1
  Nb  Nb11  1  0.434932  0.067141  0.064250  1
  Al  Al12  1  0.750826  0.422380  0.404401  1
  Al  Al13  1  0.410272  0.752474  0.410280  1
  Al  Al14  1  0.404384  0.422382  0.750844  1
  Al  Al15  1  0.410268  0.426950  0.410277  1
  Al  Al16  1  0.499174  0.827620  0.845599  1
  Al  Al17  1  0.839728  0.497526  0.839720  1
  Al  Al18  1  0.845616  0.827618  0.499156  1
  Al  Al19  1  0.839732  0.823050  0.839723  1
  Zn  Zn20  1  0.625000  0.125000  0.625000  1
  Zn  Zn21  1  0.625000  0.625000  0.625000  1
  Ni  Ni22  1  0.125000  0.625000  0.625000  1
  Ni  Ni23  1  0.625000  0.625000  0.125000  1
  C  C24  1  0.625000  0.125000  0.125000  1
  C  C25  1  0.125000  0.625000  0.125000  1
  C  C26  1  0.125000  0.125000  0.625000  1
  C  C27  1  0.125000  0.125000  0.125000  1
