# generated using pymatgen
data_Sm3GdBe4(SiO7)2
_symmetry_space_group_name_H-M   'P 1'
_cell_length_a   7.44065955
_cell_length_b   7.44065955
_cell_length_c   4.85742720
_cell_angle_alpha   90.02300573
_cell_angle_beta   89.97699427
_cell_angle_gamma   89.89039533
_symmetry_Int_Tables_number   1
_chemical_formula_structural   Sm3GdBe4(SiO7)2
_chemical_formula_sum   'Sm3 Gd1 Be4 Si2 O14'
_cell_volume   268.92322023
_cell_formula_units_Z   1
loop_
 _symmetry_equiv_pos_site_id
 _symmetry_equiv_pos_as_xyz
  1  'x, y, z'
loop_
 _atom_site_type_symbol
 _atom_site_label
 _atom_site_symmetry_multiplicity
 _atom_site_fract_x
 _atom_site_fract_y
 _atom_site_fract_z
 _atom_site_occupancy
  Sm  Sm0  1  0.159364  0.340636  0.506857  1
  Sm  Sm1  1  0.659986  0.159758  0.493734  1
  Sm  Sm2  1  0.340242  0.840014  0.493734  1
  Gd  Gd3  1  0.840271  0.659729  0.506685  1
  Be  Be4  1  0.134940  0.636208  0.038104  1
  Be  Be5  1  0.636617  0.863383  0.962024  1
  Be  Be6  1  0.364258  0.135742  0.962432  1
  Be  Be7  1  0.863792  0.365060  0.038104  1
  Si  Si8  1  0.500310  0.500074  0.999600  1
  Si  Si9  1  0.999926  0.999690  0.999600  1
  O  O10  1  0.920706  0.163844  0.193287  1
  O  O11  1  0.836723  0.920211  0.804752  1
  O  O12  1  0.163596  0.079038  0.805722  1
  O  O13  1  0.079308  0.836565  0.194326  1
  O  O14  1  0.420962  0.336404  0.805722  1
  O  O15  1  0.579789  0.663277  0.804752  1
  O  O16  1  0.663435  0.420692  0.194326  1
  O  O17  1  0.336156  0.579294  0.193287  1
  O  O18  1  0.642858  0.857142  0.289446  1
  O  O19  1  0.139582  0.641112  0.710858  1
  O  O20  1  0.858888  0.360418  0.710858  1
  O  O21  1  0.359241  0.140759  0.289176  1
  O  O22  1  0.500316  0.999684  0.826047  1
  O  O23  1  0.998735  0.501265  0.176564  1
