# generated using pymatgen
data_CsBi2F11
_symmetry_space_group_name_H-M   'P 1'
_cell_length_a   8.32434202
_cell_length_b   10.28603571
_cell_length_c   15.38804900
_cell_angle_alpha   90.00000000
_cell_angle_beta   90.00000000
_cell_angle_gamma   112.93546534
_symmetry_Int_Tables_number   1
_chemical_formula_structural   CsBi2F11
_chemical_formula_sum   'Cs4 Bi8 F44'
_cell_volume   1213.43047862
_cell_formula_units_Z   4
loop_
 _symmetry_equiv_pos_site_id
 _symmetry_equiv_pos_as_xyz
  1  'x, y, z'
loop_
 _atom_site_type_symbol
 _atom_site_label
 _atom_site_symmetry_multiplicity
 _atom_site_fract_x
 _atom_site_fract_y
 _atom_site_fract_z
 _atom_site_occupancy
  Cs  Cs0  1  0.979347  0.725522  0.373426  1
  Cs  Cs1  1  0.020653  0.274478  0.626574  1
  Cs  Cs2  1  0.479347  0.225522  0.126574  1
  Cs  Cs3  1  0.520653  0.774478  0.873426  1
  Bi  Bi4  1  0.023531  0.756894  0.050169  1
  Bi  Bi5  1  0.976469  0.243106  0.949831  1
  Bi  Bi6  1  0.523531  0.256894  0.449831  1
  Bi  Bi7  1  0.412210  0.690291  0.194652  1
  Bi  Bi8  1  0.587790  0.309709  0.805348  1
  Bi  Bi9  1  0.087790  0.809709  0.694652  1
  Bi  Bi10  1  0.912210  0.190291  0.305348  1
  Bi  Bi11  1  0.476469  0.743106  0.550169  1
  F  F12  1  0.111359  0.997860  0.641925  1
  F  F13  1  0.927649  0.348098  0.051404  1
  F  F14  1  0.616149  0.659749  0.477220  1
  F  F15  1  0.636401  0.717827  0.258227  1
  F  F16  1  0.363599  0.282173  0.741773  1
  F  F17  1  0.164914  0.654425  0.127328  1
  F  F18  1  0.136401  0.217827  0.241773  1
  F  F19  1  0.755364  0.090704  0.204161  1
  F  F20  1  0.863599  0.782173  0.758227  1
  F  F21  1  0.383851  0.340251  0.522780  1
  F  F22  1  0.244636  0.909296  0.795839  1
  F  F23  1  0.487853  0.645813  0.663881  1
  F  F24  1  0.427649  0.848098  0.448596  1
  F  F25  1  0.611359  0.497860  0.858075  1
  F  F26  1  0.891102  0.371234  0.264489  1
  F  F27  1  0.608898  0.128766  0.764489  1
  F  F28  1  0.572351  0.151902  0.551404  1
  F  F29  1  0.261562  0.914716  0.028382  1
  F  F30  1  0.968545  0.713320  0.583197  1
  F  F31  1  0.744636  0.409296  0.704161  1
  F  F32  1  0.306155  0.088848  0.413840  1
  F  F33  1  0.738438  0.085284  0.971618  1
  F  F34  1  0.987853  0.145813  0.836119  1
  F  F35  1  0.388641  0.502140  0.141925  1
  F  F36  1  0.255364  0.590704  0.295839  1
  F  F37  1  0.664914  0.154425  0.372672  1
  F  F38  1  0.193845  0.411152  0.913840  1
  F  F39  1  0.116149  0.159749  0.022780  1
  F  F40  1  0.888641  0.002140  0.358075  1
  F  F41  1  0.031455  0.286680  0.416803  1
  F  F42  1  0.806155  0.588848  0.086160  1
  F  F43  1  0.391102  0.871234  0.235511  1
  F  F44  1  0.072351  0.651902  0.948596  1
  F  F45  1  0.335086  0.845575  0.627328  1
  F  F46  1  0.108898  0.628766  0.735511  1
  F  F47  1  0.238438  0.585284  0.528382  1
  F  F48  1  0.693845  0.911152  0.586160  1
  F  F49  1  0.761562  0.414716  0.471618  1
  F  F50  1  0.883851  0.840251  0.977220  1
  F  F51  1  0.512147  0.354187  0.336119  1
  F  F52  1  0.012147  0.854187  0.163881  1
  F  F53  1  0.531455  0.786680  0.083197  1
  F  F54  1  0.835086  0.345575  0.872672  1
  F  F55  1  0.468545  0.213320  0.916803  1
