# generated using pymatgen
data_Dy3Lu9IrOs3
_symmetry_space_group_name_H-M   'P 1'
_cell_length_a   7.34187184
_cell_length_b   8.84488100
_cell_length_c   6.23793804
_cell_angle_alpha   90.00000000
_cell_angle_beta   89.90460326
_cell_angle_gamma   90.00000000
_symmetry_Int_Tables_number   1
_chemical_formula_structural   Dy3Lu9IrOs3
_chemical_formula_sum   'Dy3 Lu9 Ir1 Os3'
_cell_volume   405.07855122
_cell_formula_units_Z   1
loop_
 _symmetry_equiv_pos_site_id
 _symmetry_equiv_pos_as_xyz
  1  'x, y, z'
loop_
 _atom_site_type_symbol
 _atom_site_label
 _atom_site_symmetry_multiplicity
 _atom_site_fract_x
 _atom_site_fract_y
 _atom_site_fract_z
 _atom_site_occupancy
  Dy  Dy0  1  0.537717  0.250000  0.873129  1
  Dy  Dy1  1  0.039028  0.250000  0.626892  1
  Dy  Dy2  1  0.461381  0.750000  0.127197  1
  Lu  Lu3  1  0.674597  0.061566  0.336024  1
  Lu  Lu4  1  0.174810  0.438922  0.166534  1
  Lu  Lu5  1  0.324911  0.563265  0.664439  1
  Lu  Lu6  1  0.825110  0.934926  0.831465  1
  Lu  Lu7  1  0.324911  0.936735  0.664439  1
  Lu  Lu8  1  0.825110  0.565074  0.831465  1
  Lu  Lu9  1  0.674597  0.438434  0.336024  1
  Lu  Lu10  1  0.174810  0.061078  0.166534  1
  Lu  Lu11  1  0.961225  0.750000  0.372513  1
  Ir  Ir12  1  0.883835  0.250000  0.044550  1
  Os  Os13  1  0.383061  0.250000  0.456047  1
  Os  Os14  1  0.115412  0.750000  0.961212  1
  Os  Os15  1  0.619486  0.750000  0.541536  1
