# generated using pymatgen
data_Ti8CoTc3Ru4
_symmetry_space_group_name_H-M   'P 1'
_cell_length_a   6.16780100
_cell_length_b   6.16778400
_cell_length_c   6.16017700
_cell_angle_alpha   90.00016731
_cell_angle_beta   90.00033451
_cell_angle_gamma   89.99979563
_symmetry_Int_Tables_number   1
_chemical_formula_structural   Ti8CoTc3Ru4
_chemical_formula_sum   'Ti8 Co1 Tc3 Ru4'
_cell_volume   234.34338560
_cell_formula_units_Z   1
loop_
 _symmetry_equiv_pos_site_id
 _symmetry_equiv_pos_as_xyz
  1  'x, y, z'
loop_
 _atom_site_type_symbol
 _atom_site_label
 _atom_site_symmetry_multiplicity
 _atom_site_fract_x
 _atom_site_fract_y
 _atom_site_fract_z
 _atom_site_occupancy
  Ti  Ti0  1  0.499705  0.999707  0.250353  1
  Ti  Ti1  1  0.499705  0.500291  0.250355  1
  Ti  Ti2  1  0.000292  0.999710  0.250353  1
  Ti  Ti3  1  0.000291  0.500294  0.250353  1
  Ti  Ti4  1  0.000293  0.999706  0.749647  1
  Ti  Ti5  1  0.000293  0.500289  0.749647  1
  Ti  Ti6  1  0.499710  0.999709  0.749648  1
  Ti  Ti7  1  0.499710  0.500293  0.749647  1
  Co  Co8  1  0.750002  0.250000  0.999999  1
  Tc  Tc9  1  0.250001  0.750001  0.000002  1
  Tc  Tc10  1  0.749999  0.250002  0.499997  1
  Tc  Tc11  1  0.250001  0.750000  0.500003  1
  Ru  Ru12  1  0.250000  0.250001  0.000000  1
  Ru  Ru13  1  0.749999  0.750001  0.000000  1
  Ru  Ru14  1  0.750001  0.750002  0.499999  1
  Ru  Ru15  1  0.249999  0.250000  0.500002  1
