# generated using pymatgen
data_Hf3ZrGeAs7
_symmetry_space_group_name_H-M   'P 1'
_cell_length_a   3.68828700
_cell_length_b   6.75614307
_cell_length_c   9.07832600
_cell_angle_alpha   89.69128968
_cell_angle_beta   90.00000000
_cell_angle_gamma   90.00000000
_symmetry_Int_Tables_number   1
_chemical_formula_structural   Hf3ZrGeAs7
_chemical_formula_sum   'Hf3 Zr1 Ge1 As7'
_cell_volume   226.21584202
_cell_formula_units_Z   1
loop_
 _symmetry_equiv_pos_site_id
 _symmetry_equiv_pos_as_xyz
  1  'x, y, z'
loop_
 _atom_site_type_symbol
 _atom_site_label
 _atom_site_symmetry_multiplicity
 _atom_site_fract_x
 _atom_site_fract_y
 _atom_site_fract_z
 _atom_site_occupancy
  Hf  Hf0  1  0.000000  0.272750  0.839767  1
  Hf  Hf1  1  0.500000  0.228816  0.334522  1
  Hf  Hf2  1  0.500000  0.730868  0.164920  1
  Zr  Zr3  1  0.000000  0.769357  0.659796  1
  Ge  Ge4  1  0.000000  0.370808  0.543032  1
  As  As5  1  0.000000  0.420108  0.147238  1
  As  As6  1  0.000000  0.919904  0.349988  1
  As  As7  1  0.500000  0.583791  0.854222  1
  As  As8  1  0.500000  0.091750  0.647350  1
  As  As9  1  0.000000  0.877826  0.957725  1
  As  As10  1  0.500000  0.611720  0.458767  1
  As  As11  1  0.500000  0.122297  0.042671  1
