# generated using pymatgen
data_Er2Tm6Sc12Si15Hg
_symmetry_space_group_name_H-M   'P 1'
_cell_length_a   7.08974533
_cell_length_b   7.35866641
_cell_length_c   14.00961938
_cell_angle_alpha   89.96033992
_cell_angle_beta   89.55601591
_cell_angle_gamma   90.14829939
_symmetry_Int_Tables_number   1
_chemical_formula_structural   Er2Tm6Sc12Si15Hg
_chemical_formula_sum   'Er2 Tm6 Sc12 Si15 Hg1'
_cell_volume   730.87226745
_cell_formula_units_Z   1
loop_
 _symmetry_equiv_pos_site_id
 _symmetry_equiv_pos_as_xyz
  1  'x, y, z'
loop_
 _atom_site_type_symbol
 _atom_site_label
 _atom_site_symmetry_multiplicity
 _atom_site_fract_x
 _atom_site_fract_y
 _atom_site_fract_z
 _atom_site_occupancy
  Er  Er0  1  0.012394  0.176319  0.097078  1
  Er  Er1  1  0.987341  0.824356  0.904648  1
  Tm  Tm2  1  0.487265  0.677574  0.904065  1
  Tm  Tm3  1  0.988265  0.830314  0.597945  1
  Tm  Tm4  1  0.512165  0.322882  0.096533  1
  Tm  Tm5  1  0.007976  0.172090  0.398562  1
  Tm  Tm6  1  0.511361  0.321775  0.399346  1
  Tm  Tm7  1  0.496171  0.681946  0.599665  1
  Sc  Sc8  1  0.162236  0.502317  0.753994  1
  Sc  Sc9  1  0.837335  0.497633  0.250247  1
  Sc  Sc10  1  0.337792  0.002055  0.248948  1
  Sc  Sc11  1  0.664427  0.995415  0.751416  1
  Sc  Sc12  1  0.340968  0.168139  0.628724  1
  Sc  Sc13  1  0.664938  0.824731  0.372812  1
  Sc  Sc14  1  0.166973  0.678016  0.370753  1
  Sc  Sc15  1  0.669800  0.823736  0.124577  1
  Sc  Sc16  1  0.825571  0.324922  0.626074  1
  Sc  Sc17  1  0.328854  0.175039  0.876126  1
  Sc  Sc18  1  0.829821  0.322788  0.876253  1
  Sc  Sc19  1  0.169281  0.676891  0.125058  1
  Si  Si20  1  0.034601  0.118318  0.751391  1
  Si  Si21  1  0.965472  0.885994  0.248059  1
  Si  Si22  1  0.466901  0.613326  0.247976  1
  Si  Si23  1  0.533003  0.387819  0.751977  1
  Si  Si24  1  0.284406  0.870119  0.751545  1
  Si  Si25  1  0.713211  0.129997  0.248046  1
  Si  Si26  1  0.213793  0.369381  0.248173  1
  Si  Si27  1  0.787918  0.629827  0.752504  1
  Si  Si28  1  0.831227  0.537562  0.459023  1
  Si  Si29  1  0.337927  0.963500  0.459707  1
  Si  Si30  1  0.842172  0.534909  0.038933  1
  Si  Si31  1  0.660863  0.036497  0.537531  1
  Si  Si32  1  0.157867  0.464346  0.962330  1
  Si  Si33  1  0.656942  0.034443  0.960829  1
  Si  Si34  1  0.342513  0.965460  0.039928  1
  Hg  Hg35  1  0.170251  0.459565  0.539223  1
