# generated using pymatgen
data_Dy3Ho5Re3B24Ru
_symmetry_space_group_name_H-M   'P 1'
_cell_length_a   3.67148100
_cell_length_b   9.15307359
_cell_length_c   11.53794900
_cell_angle_alpha   90.10255222
_cell_angle_beta   90.00000000
_cell_angle_gamma   90.00000000
_symmetry_Int_Tables_number   1
_chemical_formula_structural   Dy3Ho5Re3B24Ru
_chemical_formula_sum   'Dy3 Ho5 Re3 B24 Ru1'
_cell_volume   387.73602903
_cell_formula_units_Z   1
loop_
 _symmetry_equiv_pos_site_id
 _symmetry_equiv_pos_as_xyz
  1  'x, y, z'
loop_
 _atom_site_type_symbol
 _atom_site_label
 _atom_site_symmetry_multiplicity
 _atom_site_fract_x
 _atom_site_fract_y
 _atom_site_fract_z
 _atom_site_occupancy
  Dy  Dy0  1  0.000000  0.322179  0.414258  1
  Dy  Dy1  1  0.000000  0.677236  0.587541  1
  Dy  Dy2  1  0.000000  0.824714  0.084237  1
  Ho  Ho3  1  0.000000  0.176439  0.913652  1
  Ho  Ho4  1  0.000000  0.941987  0.369679  1
  Ho  Ho5  1  0.000000  0.056372  0.629422  1
  Ho  Ho6  1  0.000000  0.443161  0.130393  1
  Ho  Ho7  1  0.000000  0.556809  0.870892  1
  Re  Re8  1  0.000000  0.361821  0.678438  1
  Re  Re9  1  0.000000  0.138515  0.179538  1
  Re  Re10  1  0.000000  0.861680  0.820839  1
  B  B11  1  0.500000  0.554169  0.432568  1
  B  B12  1  0.500000  0.446769  0.566901  1
  B  B13  1  0.500000  0.053399  0.066779  1
  B  B14  1  0.500000  0.946882  0.932898  1
  B  B15  1  0.500000  0.748612  0.418399  1
  B  B16  1  0.500000  0.250490  0.581251  1
  B  B17  1  0.500000  0.249513  0.081241  1
  B  B18  1  0.500000  0.751081  0.918666  1
  B  B19  1  0.500000  0.790890  0.265606  1
  B  B20  1  0.500000  0.207826  0.734301  1
  B  B21  1  0.500000  0.291870  0.234841  1
  B  B22  1  0.500000  0.707865  0.765870  1
  B  B23  1  0.500000  0.631467  0.185918  1
  B  B24  1  0.500000  0.369226  0.814118  1
  B  B25  1  0.500000  0.131068  0.314770  1
  B  B26  1  0.500000  0.868804  0.685694  1
  B  B27  1  0.500000  0.982645  0.211944  1
  B  B28  1  0.500000  0.017605  0.787734  1
  B  B29  1  0.500000  0.483726  0.288142  1
  B  B30  1  0.500000  0.517876  0.712110  1
  B  B31  1  0.500000  0.601697  0.028761  1
  B  B32  1  0.500000  0.398637  0.972172  1
  B  B33  1  0.500000  0.100547  0.471497  1
  B  B34  1  0.500000  0.897859  0.528086  1
  Ru  Ru35  1  0.000000  0.638568  0.320850  1
