# generated using pymatgen
data_Dy3Y3Sc2O12
_symmetry_space_group_name_H-M   'P 1'
_cell_length_a   6.61087211
_cell_length_b   6.61087206
_cell_length_c   6.61087207
_cell_angle_alpha   92.00305513
_cell_angle_beta   92.00304593
_cell_angle_gamma   92.00304895
_symmetry_Int_Tables_number   1
_chemical_formula_structural   Dy3Y3Sc2O12
_chemical_formula_sum   'Dy3 Y3 Sc2 O12'
_cell_volume   288.37680418
_cell_formula_units_Z   1
loop_
 _symmetry_equiv_pos_site_id
 _symmetry_equiv_pos_as_xyz
  1  'x, y, z'
loop_
 _atom_site_type_symbol
 _atom_site_label
 _atom_site_symmetry_multiplicity
 _atom_site_fract_x
 _atom_site_fract_y
 _atom_site_fract_z
 _atom_site_occupancy
  Dy  Dy0  1  0.252917  0.068273  0.560624  1
  Dy  Dy1  1  0.068273  0.560624  0.252917  1
  Dy  Dy2  1  0.560624  0.252917  0.068273  1
  Y  Y3  1  0.747077  0.931840  0.439274  1
  Y  Y4  1  0.931840  0.439274  0.747077  1
  Y  Y5  1  0.439274  0.747077  0.931840  1
  Sc  Sc6  1  0.499981  0.499981  0.499981  1
  Sc  Sc7  1  0.999941  0.999941  0.999941  1
  O  O8  1  0.592796  0.462805  0.806252  1
  O  O9  1  0.462805  0.806252  0.592796  1
  O  O10  1  0.806252  0.592796  0.462805  1
  O  O11  1  0.406836  0.536408  0.194044  1
  O  O12  1  0.536408  0.194044  0.406836  1
  O  O13  1  0.194044  0.406836  0.536408  1
  O  O14  1  0.069614  0.914032  0.306245  1
  O  O15  1  0.914032  0.306245  0.069614  1
  O  O16  1  0.694113  0.931200  0.085728  1
  O  O17  1  0.085728  0.694113  0.931200  1
  O  O18  1  0.931200  0.085728  0.694113  1
  O  O19  1  0.306245  0.069614  0.914032  1
