# generated using pymatgen
data_Sm4HoPb3Br
_symmetry_space_group_name_H-M   'P 1'
_cell_length_a   9.43911200
_cell_length_b   9.43911269
_cell_length_c   6.77469400
_cell_angle_alpha   90.00000000
_cell_angle_beta   90.00000000
_cell_angle_gamma   120.00000459
_symmetry_Int_Tables_number   1
_chemical_formula_structural   Sm4HoPb3Br
_chemical_formula_sum   'Sm8 Ho2 Pb6 Br2'
_cell_volume   522.73623502
_cell_formula_units_Z   2
loop_
 _symmetry_equiv_pos_site_id
 _symmetry_equiv_pos_as_xyz
  1  'x, y, z'
loop_
 _atom_site_type_symbol
 _atom_site_label
 _atom_site_symmetry_multiplicity
 _atom_site_fract_x
 _atom_site_fract_y
 _atom_site_fract_z
 _atom_site_occupancy
  Sm  Sm0  1  0.733126  0.999631  0.750000  1
  Sm  Sm1  1  0.000369  0.266874  0.250000  1
  Sm  Sm2  1  0.733126  0.733495  0.250000  1
  Sm  Sm3  1  0.666667  0.333333  0.500000  1
  Sm  Sm4  1  0.666667  0.333333  0.000000  1
  Sm  Sm5  1  0.266505  0.999631  0.250000  1
  Sm  Sm6  1  0.266505  0.266874  0.750000  1
  Sm  Sm7  1  0.000369  0.733495  0.750000  1
  Ho  Ho8  1  0.333333  0.666667  0.500000  1
  Ho  Ho9  1  0.333333  0.666667  0.000000  1
  Pb  Pb10  1  0.386914  0.996862  0.750000  1
  Pb  Pb11  1  0.609948  0.996862  0.250000  1
  Pb  Pb12  1  0.003138  0.613086  0.250000  1
  Pb  Pb13  1  0.609948  0.613086  0.750000  1
  Pb  Pb14  1  0.003138  0.390052  0.750000  1
  Pb  Pb15  1  0.386914  0.390052  0.250000  1
  Br  Br16  1  0.000000  0.000000  0.500000  1
  Br  Br17  1  0.000000  0.000000  0.000000  1
