# generated using pymatgen
data_Ce5CrB6Ru
_symmetry_space_group_name_H-M   'P 1'
_cell_length_a   5.40829439
_cell_length_b   5.40829573
_cell_length_c   8.35895590
_cell_angle_alpha   71.12508669
_cell_angle_beta   71.12510405
_cell_angle_gamma   59.99999106
_symmetry_Int_Tables_number   1
_chemical_formula_structural   Ce5CrB6Ru
_chemical_formula_sum   'Ce5 Cr1 B6 Ru1'
_cell_volume   196.41244338
_cell_formula_units_Z   1
loop_
 _symmetry_equiv_pos_site_id
 _symmetry_equiv_pos_as_xyz
  1  'x, y, z'
loop_
 _atom_site_type_symbol
 _atom_site_label
 _atom_site_symmetry_multiplicity
 _atom_site_fract_x
 _atom_site_fract_y
 _atom_site_fract_z
 _atom_site_occupancy
  Ce  Ce0  1  0.990318  0.990318  0.029047  1
  Ce  Ce1  1  0.745677  0.745677  0.762968  1
  Ce  Ce2  1  0.254182  0.254182  0.237454  1
  Ce  Ce3  1  0.587577  0.587577  0.237270  1
  Ce  Ce4  1  0.412791  0.412791  0.761629  1
  Cr  Cr5  1  0.891422  0.891422  0.325735  1
  B  B6  1  0.503848  0.168959  0.495213  1
  B  B7  1  0.831980  0.503848  0.495213  1
  B  B8  1  0.168959  0.831980  0.495213  1
  B  B9  1  0.168959  0.503848  0.495213  1
  B  B10  1  0.831980  0.168959  0.495213  1
  B  B11  1  0.503848  0.831980  0.495213  1
  Ru  Ru12  1  0.108460  0.108460  0.674621  1
