# generated using pymatgen
data_Tc3Se2Br5
_symmetry_space_group_name_H-M   'P 1'
_cell_length_a   9.85642580
_cell_length_b   9.91397174
_cell_length_c   13.55393885
_cell_angle_alpha   82.80296947
_cell_angle_beta   84.64137803
_cell_angle_gamma   83.65781987
_symmetry_Int_Tables_number   1
_chemical_formula_structural   Tc3Se2Br5
_chemical_formula_sum   'Tc12 Se8 Br20'
_cell_volume   1301.70737389
_cell_formula_units_Z   4
loop_
 _symmetry_equiv_pos_site_id
 _symmetry_equiv_pos_as_xyz
  1  'x, y, z'
loop_
 _atom_site_type_symbol
 _atom_site_label
 _atom_site_symmetry_multiplicity
 _atom_site_fract_x
 _atom_site_fract_y
 _atom_site_fract_z
 _atom_site_occupancy
  Tc  Tc0  1  0.074198  0.054966  0.108898  1
  Tc  Tc1  1  0.029065  0.818385  0.055992  1
  Tc  Tc2  1  0.175484  0.981845  0.934044  1
  Tc  Tc3  1  0.328594  0.598855  0.497132  1
  Tc  Tc4  1  0.416629  0.336955  0.506244  1
  Tc  Tc5  1  0.486509  0.491624  0.639891  1
  Tc  Tc6  1  0.512451  0.507422  0.360618  1
  Tc  Tc7  1  0.582202  0.662095  0.494249  1
  Tc  Tc8  1  0.670409  0.400201  0.503444  1
  Tc  Tc9  1  0.823995  0.018573  0.063807  1
  Tc  Tc10  1  0.973548  0.181430  0.940697  1
  Tc  Tc11  1  0.930140  0.945345  0.889909  1
  Se  Se12  1  0.071717  0.102532  0.780053  1
  Se  Se13  1  0.125628  0.758571  0.889612  1
  Se  Se14  1  0.273655  0.447744  0.372349  1
  Se  Se15  1  0.258495  0.864384  0.095594  1
  Se  Se16  1  0.404445  0.738110  0.622263  1
  Se  Se17  1  0.594530  0.260905  0.378390  1
  Se  Se18  1  0.741960  0.136713  0.904682  1
  Se  Se19  1  0.725196  0.551531  0.628174  1
  Br  Br20  1  0.066528  0.573432  0.131585  1
  Br  Br21  1  0.172649  0.126743  0.255030  1
  Br  Br22  1  0.096139  0.733314  0.493130  1
  Br  Br23  1  0.232040  0.433213  0.640758  1
  Br  Br24  1  0.218171  0.217190  0.991438  1
  Br  Br25  1  0.304685  0.120018  0.517897  1
  Br  Br26  1  0.419818  0.768403  0.354460  1
  Br  Br27  1  0.586508  0.041990  0.149603  1
  Br  Br28  1  0.467388  0.478134  0.827407  1
  Br  Br29  1  0.531317  0.521069  0.172898  1
  Br  Br30  1  0.412230  0.957738  0.843865  1
  Br  Br31  1  0.579071  0.230552  0.645927  1
  Br  Br32  1  0.693672  0.879410  0.482222  1
  Br  Br33  1  0.779006  0.786333  0.015014  1
  Br  Br34  1  0.767089  0.565784  0.359484  1
  Br  Br35  1  0.866994  0.249516  0.115896  1
  Br  Br36  1  0.903073  0.266073  0.507436  1
  Br  Br37  1  0.837498  0.870974  0.741001  1
  Br  Br38  1  0.927361  0.898170  0.229433  1
  Br  Br39  1  0.939912  0.423763  0.859476  1
