# generated using pymatgen
data_LiDy4Y12Cd3Pt4
_symmetry_space_group_name_H-M   'P 1'
_cell_length_a   9.71130887
_cell_length_b   9.71130911
_cell_length_c   9.71130982
_cell_angle_alpha   59.93811121
_cell_angle_beta   59.93811373
_cell_angle_gamma   59.93810529
_symmetry_Int_Tables_number   1
_chemical_formula_structural   LiDy4Y12Cd3Pt4
_chemical_formula_sum   'Li1 Dy4 Y12 Cd3 Pt4'
_cell_volume   646.70808413
_cell_formula_units_Z   1
loop_
 _symmetry_equiv_pos_site_id
 _symmetry_equiv_pos_as_xyz
  1  'x, y, z'
loop_
 _atom_site_type_symbol
 _atom_site_label
 _atom_site_symmetry_multiplicity
 _atom_site_fract_x
 _atom_site_fract_y
 _atom_site_fract_z
 _atom_site_occupancy
  Li  Li0  1  0.571434  0.571434  0.571434  1
  Dy  Dy1  1  0.351006  0.351006  0.351006  1
  Dy  Dy2  1  0.352222  0.352222  0.944613  1
  Dy  Dy3  1  0.352222  0.944613  0.352222  1
  Dy  Dy4  1  0.944613  0.352222  0.352222  1
  Y  Y5  1  0.809656  0.192232  0.192232  1
  Y  Y6  1  0.188388  0.812229  0.812229  1
  Y  Y7  1  0.192232  0.809656  0.192232  1
  Y  Y8  1  0.812229  0.188388  0.812229  1
  Y  Y9  1  0.192232  0.192232  0.809656  1
  Y  Y10  1  0.812229  0.812229  0.188388  1
  Y  Y11  1  0.937018  0.564526  0.564526  1
  Y  Y12  1  0.563225  0.936656  0.936656  1
  Y  Y13  1  0.564526  0.937018  0.564526  1
  Y  Y14  1  0.936656  0.563225  0.936656  1
  Y  Y15  1  0.564526  0.564526  0.937018  1
  Y  Y16  1  0.936656  0.936656  0.563225  1
  Cd  Cd17  1  0.582159  0.582159  0.253839  1
  Cd  Cd18  1  0.582159  0.253839  0.582159  1
  Cd  Cd19  1  0.253839  0.582159  0.582159  1
  Pt  Pt20  1  0.144574  0.144574  0.144574  1
  Pt  Pt21  1  0.143323  0.143323  0.569553  1
  Pt  Pt22  1  0.143323  0.569553  0.143323  1
  Pt  Pt23  1  0.569553  0.143323  0.143323  1
