# generated using pymatgen
data_CsNd2SmCBr6
_symmetry_space_group_name_H-M   'P 1'
_cell_length_a   9.06164894
_cell_length_b   9.09295912
_cell_length_c   9.69522272
_cell_angle_alpha   70.44976140
_cell_angle_beta   85.22156133
_cell_angle_gamma   89.27381770
_symmetry_Int_Tables_number   1
_chemical_formula_structural   CsNd2SmCBr6
_chemical_formula_sum   'Cs2 Nd4 Sm2 C2 Br12'
_cell_volume   750.08891471
_cell_formula_units_Z   2
loop_
 _symmetry_equiv_pos_site_id
 _symmetry_equiv_pos_as_xyz
  1  'x, y, z'
loop_
 _atom_site_type_symbol
 _atom_site_label
 _atom_site_symmetry_multiplicity
 _atom_site_fract_x
 _atom_site_fract_y
 _atom_site_fract_z
 _atom_site_occupancy
  Cs  Cs0  1  0.469099  0.359288  0.331506  1
  Cs  Cs1  1  0.530902  0.640712  0.668494  1
  Nd  Nd2  1  0.915068  0.738416  0.004673  1
  Nd  Nd3  1  0.084932  0.261584  0.995326  1
  Nd  Nd4  1  0.737504  0.086572  0.001127  1
  Nd  Nd5  1  0.262495  0.913428  0.998874  1
  Sm  Sm6  1  0.975129  0.883893  0.325069  1
  Sm  Sm7  1  0.024870  0.116107  0.674932  1
  C  C8  1  0.005803  0.026908  0.922734  1
  C  C9  1  0.994196  0.973092  0.077266  1
  Br  Br10  1  0.078255  0.192251  0.328729  1
  Br  Br11  1  0.921745  0.807749  0.671271  1
  Br  Br12  1  0.208564  0.590495  0.000885  1
  Br  Br13  1  0.791437  0.409505  0.999115  1
  Br  Br14  1  0.405648  0.204577  0.002405  1
  Br  Br15  1  0.594351  0.795424  0.997594  1
  Br  Br16  1  0.670071  0.998045  0.328629  1
  Br  Br17  1  0.329929  0.001955  0.671371  1
  Br  Br18  1  0.280239  0.772426  0.324915  1
  Br  Br19  1  0.719761  0.227574  0.675085  1
  Br  Br20  1  0.850069  0.589686  0.329355  1
  Br  Br21  1  0.149930  0.410314  0.670645  1
