# generated using pymatgen
data_Ba4DyY(GaO5)2
_symmetry_space_group_name_H-M   'P 1'
_cell_length_a   6.14449800
_cell_length_b   7.86994132
_cell_length_c   12.76163108
_cell_angle_alpha   91.82885462
_cell_angle_beta   90.00000000
_cell_angle_gamma   90.00000000
_symmetry_Int_Tables_number   1
_chemical_formula_structural   Ba4DyY(GaO5)2
_chemical_formula_sum   'Ba8 Dy2 Y2 Ga4 O20'
_cell_volume   616.79778827
_cell_formula_units_Z   2
loop_
 _symmetry_equiv_pos_site_id
 _symmetry_equiv_pos_as_xyz
  1  'x, y, z'
loop_
 _atom_site_type_symbol
 _atom_site_label
 _atom_site_symmetry_multiplicity
 _atom_site_fract_x
 _atom_site_fract_y
 _atom_site_fract_z
 _atom_site_occupancy
  Ba  Ba0  1  0.762309  0.482479  0.347030  1
  Ba  Ba1  1  0.737691  0.982479  0.847030  1
  Ba  Ba2  1  0.237979  0.517418  0.653163  1
  Ba  Ba3  1  0.262021  0.017418  0.153163  1
  Ba  Ba4  1  0.756919  0.993463  0.380142  1
  Ba  Ba5  1  0.743081  0.493463  0.880142  1
  Ba  Ba6  1  0.243428  0.006767  0.619862  1
  Ba  Ba7  1  0.256572  0.506767  0.119862  1
  Dy  Dy8  1  0.749715  0.266726  0.628351  1
  Dy  Dy9  1  0.750285  0.766726  0.128351  1
  Y  Y10  1  0.250469  0.733139  0.371762  1
  Y  Y11  1  0.249531  0.233139  0.871762  1
  Ga  Ga12  1  0.735029  0.742535  0.582106  1
  Ga  Ga13  1  0.764971  0.242535  0.082106  1
  Ga  Ga14  1  0.265070  0.257552  0.417977  1
  Ga  Ga15  1  0.234930  0.757552  0.917977  1
  O  O16  1  0.761552  0.970863  0.630097  1
  O  O17  1  0.738448  0.470863  0.130097  1
  O  O18  1  0.238229  0.029805  0.369589  1
  O  O19  1  0.261771  0.529805  0.869589  1
  O  O20  1  0.730507  0.066667  0.175252  1
  O  O21  1  0.769493  0.566667  0.675252  1
  O  O22  1  0.269669  0.932630  0.824386  1
  O  O23  1  0.230331  0.432630  0.324386  1
  O  O24  1  0.543495  0.745247  0.271757  1
  O  O25  1  0.956505  0.245247  0.771757  1
  O  O26  1  0.456965  0.254494  0.728136  1
  O  O27  1  0.043035  0.754494  0.228136  1
  O  O28  1  0.550425  0.222309  0.976480  1
  O  O29  1  0.949575  0.722309  0.476480  1
  O  O30  1  0.449808  0.777770  0.023544  1
  O  O31  1  0.050192  0.277770  0.523544  1
  O  O32  1  0.043300  0.229848  0.020760  1
  O  O33  1  0.456700  0.729848  0.520760  1
  O  O34  1  0.956753  0.770290  0.979605  1
  O  O35  1  0.543247  0.270290  0.479605  1
