# generated using pymatgen
data_PrTcMo5S8
_symmetry_space_group_name_H-M   'P 1'
_cell_length_a   6.56254672
_cell_length_b   6.54188404
_cell_length_c   6.54547572
_cell_angle_alpha   89.24652822
_cell_angle_beta   89.30323470
_cell_angle_gamma   88.74483582
_symmetry_Int_Tables_number   1
_chemical_formula_structural   PrTcMo5S8
_chemical_formula_sum   'Pr1 Tc1 Mo5 S8'
_cell_volume   280.89503552
_cell_formula_units_Z   1
loop_
 _symmetry_equiv_pos_site_id
 _symmetry_equiv_pos_as_xyz
  1  'x, y, z'
loop_
 _atom_site_type_symbol
 _atom_site_label
 _atom_site_symmetry_multiplicity
 _atom_site_fract_x
 _atom_site_fract_y
 _atom_site_fract_z
 _atom_site_occupancy
  Pr  Pr0  1  0.003532  0.999257  0.000041  1
  Tc  Tc1  1  0.771609  0.579697  0.437728  1
  Mo  Mo2  1  0.435783  0.771833  0.580599  1
  Mo  Mo3  1  0.579871  0.438328  0.772388  1
  Mo  Mo4  1  0.227142  0.419372  0.562556  1
  Mo  Mo5  1  0.562798  0.227936  0.420560  1
  Mo  Mo6  1  0.418644  0.562280  0.228697  1
  S  S7  1  0.756972  0.755509  0.751981  1
  S  S8  1  0.244125  0.243362  0.242495  1
  S  S9  1  0.252820  0.626259  0.873846  1
  S  S10  1  0.873882  0.257129  0.624183  1
  S  S11  1  0.628205  0.870200  0.255487  1
  S  S12  1  0.747546  0.374526  0.129514  1
  S  S13  1  0.123315  0.748235  0.373005  1
  S  S14  1  0.373756  0.126078  0.746918  1
