# generated using pymatgen
data_Ac17Er3(In3Pb)4
_symmetry_space_group_name_H-M   'P 1'
_cell_length_a   8.46328900
_cell_length_b   9.09698192
_cell_length_c   17.06318208
_cell_angle_alpha   90.07881579
_cell_angle_beta   89.95994479
_cell_angle_gamma   89.88984578
_symmetry_Int_Tables_number   1
_chemical_formula_structural   Ac17Er3(In3Pb)4
_chemical_formula_sum   'Ac17 Er3 In12 Pb4'
_cell_volume   1313.69699759
_cell_formula_units_Z   1
loop_
 _symmetry_equiv_pos_site_id
 _symmetry_equiv_pos_as_xyz
  1  'x, y, z'
loop_
 _atom_site_type_symbol
 _atom_site_label
 _atom_site_symmetry_multiplicity
 _atom_site_fract_x
 _atom_site_fract_y
 _atom_site_fract_z
 _atom_site_occupancy
  Ac  Ac0  1  0.328309  0.830935  0.877747  1
  Ac  Ac1  1  0.831424  0.672234  0.622634  1
  Ac  Ac2  1  0.670716  0.168818  0.372545  1
  Ac  Ac3  1  0.170375  0.330639  0.128843  1
  Ac  Ac4  1  0.662157  0.169026  0.128086  1
  Ac  Ac5  1  0.161695  0.329651  0.370388  1
  Ac  Ac6  1  0.336621  0.832004  0.623090  1
  Ac  Ac7  1  0.838700  0.673374  0.876553  1
  Ac  Ac8  1  0.494358  0.313822  0.909441  1
  Ac  Ac9  1  0.989561  0.186342  0.590764  1
  Ac  Ac10  1  0.507097  0.688269  0.405179  1
  Ac  Ac11  1  0.006563  0.810739  0.096752  1
  Ac  Ac12  1  0.501405  0.686672  0.096605  1
  Ac  Ac13  1  0.001343  0.812263  0.403026  1
  Ac  Ac14  1  0.499852  0.315626  0.591203  1
  Ac  Ac15  1  0.996545  0.182659  0.907852  1
  Ac  Ac16  1  0.172816  0.470712  0.749153  1
  Er  Er17  1  0.673339  0.018486  0.749094  1
  Er  Er18  1  0.826062  0.523859  0.250166  1
  Er  Er19  1  0.327005  0.975155  0.250003  1
  In  In20  1  0.324905  0.028657  0.046873  1
  In  In21  1  0.826413  0.470400  0.454253  1
  In  In22  1  0.673277  0.972698  0.543114  1
  In  In23  1  0.171607  0.529296  0.960758  1
  In  In24  1  0.539217  0.606919  0.752382  1
  In  In25  1  0.027794  0.914103  0.746761  1
  In  In26  1  0.474537  0.413243  0.253710  1
  In  In27  1  0.972449  0.085804  0.246714  1
  In  In28  1  0.302787  0.123840  0.750435  1
  In  In29  1  0.775404  0.359710  0.750483  1
  In  In30  1  0.707993  0.858763  0.250189  1
  In  In31  1  0.209796  0.640925  0.250657  1
  Pb  Pb32  1  0.670669  0.970869  0.958569  1
  Pb  Pb33  1  0.171434  0.533092  0.536644  1
  Pb  Pb34  1  0.327935  0.031204  0.454598  1
  Pb  Pb35  1  0.827843  0.469192  0.044738  1
