# generated using pymatgen
data_Pr4NdPaS10
_symmetry_space_group_name_H-M   'P 1'
_cell_length_a   7.55948200
_cell_length_b   8.06600100
_cell_length_c   11.95544100
_cell_angle_alpha   90.00000000
_cell_angle_beta   90.00000000
_cell_angle_gamma   90.00000000
_symmetry_Int_Tables_number   1
_chemical_formula_structural   Pr4NdPaS10
_chemical_formula_sum   'Pr8 Nd2 Pa2 S20'
_cell_volume   728.98049682
_cell_formula_units_Z   2
loop_
 _symmetry_equiv_pos_site_id
 _symmetry_equiv_pos_as_xyz
  1  'x, y, z'
loop_
 _atom_site_type_symbol
 _atom_site_label
 _atom_site_symmetry_multiplicity
 _atom_site_fract_x
 _atom_site_fract_y
 _atom_site_fract_z
 _atom_site_occupancy
  Pr  Pr0  1  0.527398  0.502335  0.323261  1
  Pr  Pr1  1  0.972602  0.997665  0.823261  1
  Pr  Pr2  1  0.476523  0.998087  0.677302  1
  Pr  Pr3  1  0.023477  0.501913  0.177302  1
  Pr  Pr4  1  0.476523  0.501913  0.677302  1
  Pr  Pr5  1  0.023477  0.998087  0.177302  1
  Pr  Pr6  1  0.527398  0.997665  0.323261  1
  Pr  Pr7  1  0.972602  0.502335  0.823261  1
  Nd  Nd8  1  0.077955  0.750000  0.491549  1
  Nd  Nd9  1  0.422045  0.750000  0.991549  1
  Pa  Pa10  1  0.938480  0.250000  0.505073  1
  Pa  Pa11  1  0.561520  0.250000  0.005073  1
  S  S12  1  0.835650  0.969572  0.595950  1
  S  S13  1  0.664350  0.530428  0.095950  1
  S  S14  1  0.166465  0.447978  0.403505  1
  S  S15  1  0.333535  0.052022  0.903505  1
  S  S16  1  0.166465  0.052022  0.403505  1
  S  S17  1  0.333535  0.447978  0.903505  1
  S  S18  1  0.835650  0.530428  0.595950  1
  S  S19  1  0.664350  0.969572  0.095950  1
  S  S20  1  0.825993  0.750000  0.309734  1
  S  S21  1  0.674007  0.750000  0.809734  1
  S  S22  1  0.166201  0.250000  0.683017  1
  S  S23  1  0.333799  0.250000  0.183017  1
  S  S24  1  0.462408  0.750000  0.499640  1
  S  S25  1  0.037592  0.750000  0.999640  1
  S  S26  1  0.552088  0.250000  0.501329  1
  S  S27  1  0.947912  0.250000  0.001329  1
  S  S28  1  0.198014  0.750000  0.719566  1
  S  S29  1  0.301986  0.750000  0.219566  1
  S  S30  1  0.809071  0.250000  0.290055  1
  S  S31  1  0.690929  0.250000  0.790055  1
