# generated using pymatgen
data_YEr3Si4RuRh
_symmetry_space_group_name_H-M   'P 1'
_cell_length_a   5.66356982
_cell_length_b   5.66357047
_cell_length_c   10.03815427
_cell_angle_alpha   63.38548589
_cell_angle_beta   63.38548022
_cell_angle_gamma   43.52069157
_symmetry_Int_Tables_number   1
_chemical_formula_structural   YEr3Si4RuRh
_chemical_formula_sum   'Y1 Er3 Si4 Ru1 Rh1'
_cell_volume   194.22422365
_cell_formula_units_Z   1
loop_
 _symmetry_equiv_pos_site_id
 _symmetry_equiv_pos_as_xyz
  1  'x, y, z'
loop_
 _atom_site_type_symbol
 _atom_site_label
 _atom_site_symmetry_multiplicity
 _atom_site_fract_x
 _atom_site_fract_y
 _atom_site_fract_z
 _atom_site_occupancy
  Y  Y0  1  0.813532  0.813532  0.108664  1
  Er  Er1  1  0.002091  0.002091  0.325006  1
  Er  Er2  1  0.185011  0.185011  0.891166  1
  Er  Er3  1  0.998369  0.998369  0.675199  1
  Si  Si4  1  0.356274  0.356274  0.566033  1
  Si  Si5  1  0.492159  0.492159  0.876519  1
  Si  Si6  1  0.640358  0.640358  0.437522  1
  Si  Si7  1  0.511649  0.511649  0.120768  1
  Ru  Ru8  1  0.727604  0.727604  0.624627  1
  Rh  Rh9  1  0.272951  0.272951  0.374493  1
