# generated using pymatgen
data_Pr2Dy3YIrI10
_symmetry_space_group_name_H-M   'P 1'
_cell_length_a   7.83113866
_cell_length_b   9.87137477
_cell_length_c   9.91112901
_cell_angle_alpha   106.90978312
_cell_angle_beta   96.34236659
_cell_angle_gamma   105.06756662
_symmetry_Int_Tables_number   1
_chemical_formula_structural   Pr2Dy3YIrI10
_chemical_formula_sum   'Pr2 Dy3 Y1 Ir1 I10'
_cell_volume   693.33597032
_cell_formula_units_Z   1
loop_
 _symmetry_equiv_pos_site_id
 _symmetry_equiv_pos_as_xyz
  1  'x, y, z'
loop_
 _atom_site_type_symbol
 _atom_site_label
 _atom_site_symmetry_multiplicity
 _atom_site_fract_x
 _atom_site_fract_y
 _atom_site_fract_z
 _atom_site_occupancy
  Pr  Pr0  1  0.117328  0.043882  0.761087  1
  Pr  Pr1  1  0.882790  0.956241  0.238987  1
  Dy  Dy2  1  0.970284  0.286094  0.086235  1
  Dy  Dy3  1  0.029678  0.713870  0.913838  1
  Dy  Dy4  1  0.347674  0.125281  0.164856  1
  Y  Y5  1  0.651430  0.874489  0.834832  1
  Ir  Ir6  1  0.000541  0.000215  0.000264  1
  I  I7  1  0.347970  0.447259  0.269971  1
  I  I8  1  0.652130  0.552593  0.730008  1
  I  I9  1  0.267766  0.090085  0.457139  1
  I  I10  1  0.732335  0.909954  0.542770  1
  I  I11  1  0.083498  0.378814  0.825506  1
  I  I12  1  0.916463  0.621187  0.174480  1
  I  I13  1  0.447849  0.817245  0.087767  1
  I  I14  1  0.552225  0.182837  0.912340  1
  I  I15  1  0.774973  0.261548  0.342021  1
  I  I16  1  0.225065  0.738406  0.657899  1
