# generated using pymatgen
data_Nd2Dy6Cu3Si12Rh
_symmetry_space_group_name_H-M   'P 1'
_cell_length_a   8.05715500
_cell_length_b   8.05845301
_cell_length_c   8.21690800
_cell_angle_alpha   90.00183916
_cell_angle_beta   89.99770442
_cell_angle_gamma   119.99699976
_symmetry_Int_Tables_number   1
_chemical_formula_structural   Nd2Dy6Cu3Si12Rh
_chemical_formula_sum   'Nd2 Dy6 Cu3 Si12 Rh1'
_cell_volume   462.04638969
_cell_formula_units_Z   1
loop_
 _symmetry_equiv_pos_site_id
 _symmetry_equiv_pos_as_xyz
  1  'x, y, z'
loop_
 _atom_site_type_symbol
 _atom_site_label
 _atom_site_symmetry_multiplicity
 _atom_site_fract_x
 _atom_site_fract_y
 _atom_site_fract_z
 _atom_site_occupancy
  Nd  Nd0  1  0.999979  0.000009  0.249967  1
  Nd  Nd1  1  0.999981  0.000011  0.749988  1
  Dy  Dy2  1  0.999051  0.499562  0.251866  1
  Dy  Dy3  1  0.500479  0.499577  0.251884  1
  Dy  Dy4  1  0.500953  0.001924  0.748099  1
  Dy  Dy5  1  0.500451  0.000921  0.251896  1
  Dy  Dy6  1  0.500979  0.499075  0.748114  1
  Dy  Dy7  1  0.998056  0.499064  0.748130  1
  Cu  Cu8  1  0.333523  0.666457  0.998522  1
  Cu  Cu9  1  0.333475  0.667077  0.500956  1
  Cu  Cu10  1  0.666837  0.333148  0.001223  1
  Si  Si11  1  0.170034  0.340155  0.000078  1
  Si  Si12  1  0.660049  0.830070  0.000076  1
  Si  Si13  1  0.168853  0.337707  0.500094  1
  Si  Si14  1  0.339752  0.169924  0.999905  1
  Si  Si15  1  0.170039  0.829968  0.000077  1
  Si  Si16  1  0.661879  0.830961  0.500098  1
  Si  Si17  1  0.829945  0.659861  0.999905  1
  Si  Si18  1  0.337332  0.168636  0.499782  1
  Si  Si19  1  0.169022  0.831024  0.500094  1
  Si  Si20  1  0.831402  0.662765  0.499779  1
  Si  Si21  1  0.830009  0.170120  0.999902  1
  Si  Si22  1  0.831302  0.168676  0.499780  1
  Rh  Rh23  1  0.666620  0.333305  0.499780  1
