# generated using pymatgen
data_Y3ErInPbAu4
_symmetry_space_group_name_H-M   'P 1'
_cell_length_a   8.10127529
_cell_length_b   8.10182028
_cell_length_c   3.68468900
_cell_angle_alpha   90.00000000
_cell_angle_beta   90.00000000
_cell_angle_gamma   90.32350415
_symmetry_Int_Tables_number   1
_chemical_formula_structural   Y3ErInPbAu4
_chemical_formula_sum   'Y3 Er1 In1 Pb1 Au4'
_cell_volume   241.84098917
_cell_formula_units_Z   1
loop_
 _symmetry_equiv_pos_site_id
 _symmetry_equiv_pos_as_xyz
  1  'x, y, z'
loop_
 _atom_site_type_symbol
 _atom_site_label
 _atom_site_symmetry_multiplicity
 _atom_site_fract_x
 _atom_site_fract_y
 _atom_site_fract_z
 _atom_site_occupancy
  Y  Y0  1  0.327550  0.834646  0.500000  1
  Y  Y1  1  0.165545  0.327530  0.500000  1
  Y  Y2  1  0.834457  0.672548  0.500000  1
  Er  Er3  1  0.672284  0.164835  0.500000  1
  In  In4  1  0.999789  0.000055  0.000000  1
  Pb  Pb5  1  0.500088  0.499822  0.000000  1
  Au  Au6  1  0.123638  0.630337  0.000000  1
  Au  Au7  1  0.874986  0.368298  0.000000  1
  Au  Au8  1  0.630948  0.877700  0.000000  1
  Au  Au9  1  0.370715  0.124229  0.000000  1
