# generated using pymatgen
data_Tb3PaAl18PtRh5
_symmetry_space_group_name_H-M   'P 1'
_cell_length_a   7.60270705
_cell_length_b   7.59381435
_cell_length_c   9.43939709
_cell_angle_alpha   89.99707977
_cell_angle_beta   89.98785152
_cell_angle_gamma   119.52301233
_symmetry_Int_Tables_number   1
_chemical_formula_structural   Tb3PaAl18PtRh5
_chemical_formula_sum   'Tb3 Pa1 Al18 Pt1 Rh5'
_cell_volume   474.20978673
_cell_formula_units_Z   1
loop_
 _symmetry_equiv_pos_site_id
 _symmetry_equiv_pos_as_xyz
  1  'x, y, z'
loop_
 _atom_site_type_symbol
 _atom_site_label
 _atom_site_symmetry_multiplicity
 _atom_site_fract_x
 _atom_site_fract_y
 _atom_site_fract_z
 _atom_site_occupancy
  Tb  Tb0  1  0.005635  0.328589  0.749973  1
  Tb  Tb1  1  0.672109  0.994331  0.249997  1
  Tb  Tb2  1  0.329296  0.005305  0.749864  1
  Pa  Pa3  1  0.996455  0.672558  0.250840  1
  Al  Al4  1  0.131872  0.129755  0.250065  1
  Al  Al5  1  0.873136  0.874020  0.749807  1
  Al  Al6  1  0.003498  0.333429  0.075841  1
  Al  Al7  1  0.002439  0.667668  0.921603  1
  Al  Al8  1  0.999308  0.664128  0.577908  1
  Al  Al9  1  0.338485  0.002824  0.425091  1
  Al  Al10  1  0.000486  0.333213  0.425150  1
  Al  Al11  1  0.664851  0.000113  0.576042  1
  Al  Al12  1  0.664860  0.996745  0.923059  1
  Al  Al13  1  0.334685  0.999689  0.075775  1
  Al  Al14  1  0.332288  0.332326  0.552806  1
  Al  Al15  1  0.664287  0.666289  0.450759  1
  Al  Al16  1  0.663952  0.668965  0.050632  1
  Al  Al17  1  0.329560  0.332795  0.946092  1
  Al  Al18  1  0.339416  0.548294  0.250104  1
  Al  Al19  1  0.658481  0.450036  0.746945  1
  Al  Al20  1  0.547357  0.343390  0.252767  1
  Al  Al21  1  0.449269  0.659552  0.749763  1
  Pt  Pt22  1  0.673385  0.328669  0.001473  1
  Rh  Rh23  1  0.326553  0.671899  0.001906  1
  Rh  Rh24  1  0.326439  0.671906  0.497906  1
  Rh  Rh25  1  0.673523  0.329281  0.498074  1
  Rh  Rh26  1  0.999106  0.997266  0.002749  1
  Rh  Rh27  1  0.999267  0.996969  0.497009  1
