# generated using pymatgen
data_Hf18TiGa2Re7
_symmetry_space_group_name_H-M   'P 1'
_cell_length_a   8.61799900
_cell_length_b   8.61799783
_cell_length_c   8.66710600
_cell_angle_alpha   90.00000000
_cell_angle_beta   90.00000000
_cell_angle_gamma   120.00000066
_symmetry_Int_Tables_number   1
_chemical_formula_structural   Hf18TiGa2Re7
_chemical_formula_sum   'Hf18 Ti1 Ga2 Re7'
_cell_volume   557.46493692
_cell_formula_units_Z   1
loop_
 _symmetry_equiv_pos_site_id
 _symmetry_equiv_pos_as_xyz
  1  'x, y, z'
loop_
 _atom_site_type_symbol
 _atom_site_label
 _atom_site_symmetry_multiplicity
 _atom_site_fract_x
 _atom_site_fract_y
 _atom_site_fract_z
 _atom_site_occupancy
  Hf  Hf0  1  0.195392  0.804608  0.453813  1
  Hf  Hf1  1  0.195392  0.390784  0.453813  1
  Hf  Hf2  1  0.609216  0.804608  0.453813  1
  Hf  Hf3  1  0.804608  0.195392  0.546187  1
  Hf  Hf4  1  0.804608  0.609216  0.546187  1
  Hf  Hf5  1  0.390784  0.195392  0.546187  1
  Hf  Hf6  1  0.806059  0.193941  0.953018  1
  Hf  Hf7  1  0.806059  0.612118  0.953018  1
  Hf  Hf8  1  0.387882  0.193941  0.953018  1
  Hf  Hf9  1  0.193941  0.806059  0.046982  1
  Hf  Hf10  1  0.193941  0.387882  0.046982  1
  Hf  Hf11  1  0.612118  0.806059  0.046982  1
  Hf  Hf12  1  0.540385  0.459615  0.249228  1
  Hf  Hf13  1  0.540385  0.080768  0.249228  1
  Hf  Hf14  1  0.919232  0.459615  0.249228  1
  Hf  Hf15  1  0.459615  0.540385  0.750772  1
  Hf  Hf16  1  0.459615  0.919232  0.750772  1
  Hf  Hf17  1  0.080768  0.540385  0.750772  1
  Ti  Ti18  1  0.000000  0.000000  0.500000  1
  Ga  Ga19  1  0.333333  0.666667  0.248696  1
  Ga  Ga20  1  0.666667  0.333333  0.751304  1
  Re  Re21  1  0.889770  0.110230  0.252005  1
  Re  Re22  1  0.889770  0.779541  0.252005  1
  Re  Re23  1  0.220459  0.110230  0.252005  1
  Re  Re24  1  0.110230  0.889770  0.747995  1
  Re  Re25  1  0.110230  0.220459  0.747995  1
  Re  Re26  1  0.779541  0.889770  0.747995  1
  Re  Re27  1  0.000000  0.000000  0.000000  1
