# generated using pymatgen
data_Hf8Nb12GaSi15
_symmetry_space_group_name_H-M   'P 1'
_cell_length_a   6.68299219
_cell_length_b   6.86428803
_cell_length_c   13.11570400
_cell_angle_alpha   90.00000000
_cell_angle_beta   90.00000000
_cell_angle_gamma   90.01858004
_symmetry_Int_Tables_number   1
_chemical_formula_structural   Hf8Nb12GaSi15
_chemical_formula_sum   'Hf8 Nb12 Ga1 Si15'
_cell_volume   601.66955401
_cell_formula_units_Z   1
loop_
 _symmetry_equiv_pos_site_id
 _symmetry_equiv_pos_as_xyz
  1  'x, y, z'
loop_
 _atom_site_type_symbol
 _atom_site_label
 _atom_site_symmetry_multiplicity
 _atom_site_fract_x
 _atom_site_fract_y
 _atom_site_fract_z
 _atom_site_occupancy
  Hf  Hf0  1  0.497068  0.674357  0.593979  1
  Hf  Hf1  1  0.995884  0.825833  0.907062  1
  Hf  Hf2  1  0.500399  0.325957  0.092410  1
  Hf  Hf3  1  0.006372  0.170976  0.408936  1
  Hf  Hf4  1  0.500399  0.325957  0.407590  1
  Hf  Hf5  1  0.006372  0.170976  0.091064  1
  Hf  Hf6  1  0.497068  0.674357  0.906021  1
  Hf  Hf7  1  0.995884  0.825833  0.592938  1
  Nb  Nb8  1  0.663053  0.170206  0.623630  1
  Nb  Nb9  1  0.163299  0.328672  0.876590  1
  Nb  Nb10  1  0.336372  0.829974  0.123587  1
  Nb  Nb11  1  0.837468  0.674901  0.377371  1
  Nb  Nb12  1  0.336372  0.829974  0.376413  1
  Nb  Nb13  1  0.837468  0.674901  0.122629  1
  Nb  Nb14  1  0.663053  0.170206  0.876370  1
  Nb  Nb15  1  0.163299  0.328672  0.623410  1
  Nb  Nb16  1  0.836305  0.497693  0.750000  1
  Nb  Nb17  1  0.337582  0.003369  0.750000  1
  Nb  Nb18  1  0.167529  0.506777  0.250000  1
  Nb  Nb19  1  0.659633  0.990752  0.250000  1
  Ga  Ga20  1  0.798271  0.354794  0.250000  1
  Si  Si21  1  0.671472  0.964778  0.461536  1
  Si  Si22  1  0.171194  0.536363  0.038723  1
  Si  Si23  1  0.327940  0.036230  0.960944  1
  Si  Si24  1  0.827245  0.463482  0.538200  1
  Si  Si25  1  0.327940  0.036230  0.539056  1
  Si  Si26  1  0.827245  0.463482  0.961800  1
  Si  Si27  1  0.671472  0.964778  0.038464  1
  Si  Si28  1  0.171194  0.536363  0.461277  1
  Si  Si29  1  0.460963  0.388336  0.750000  1
  Si  Si30  1  0.960717  0.113562  0.750000  1
  Si  Si31  1  0.540905  0.612040  0.250000  1
  Si  Si32  1  0.038355  0.888110  0.250000  1
  Si  Si33  1  0.704209  0.861069  0.750000  1
  Si  Si34  1  0.203443  0.639620  0.750000  1
  Si  Si35  1  0.296558  0.140416  0.250000  1
