# generated using pymatgen
data_LaPrTh5Te12
_symmetry_space_group_name_H-M   'P 1'
_cell_length_a   12.64901200
_cell_length_b   12.62602194
_cell_length_c   4.36954100
_cell_angle_alpha   90.00000000
_cell_angle_beta   90.00000000
_cell_angle_gamma   119.71566330
_symmetry_Int_Tables_number   1
_chemical_formula_structural   LaPrTh5Te12
_chemical_formula_sum   'La1 Pr1 Th5 Te12'
_cell_volume   606.07560454
_cell_formula_units_Z   1
loop_
 _symmetry_equiv_pos_site_id
 _symmetry_equiv_pos_as_xyz
  1  'x, y, z'
loop_
 _atom_site_type_symbol
 _atom_site_label
 _atom_site_symmetry_multiplicity
 _atom_site_fract_x
 _atom_site_fract_y
 _atom_site_fract_z
 _atom_site_occupancy
  La  La0  1  0.725591  0.159676  0.000000  1
  Pr  Pr1  1  0.844231  0.565411  0.000000  1
  Th  Th2  1  0.431785  0.276108  0.000000  1
  Th  Th3  1  0.552233  0.712100  0.500000  1
  Th  Th4  1  0.289188  0.841389  0.500000  1
  Th  Th5  1  0.157804  0.448244  0.500000  1
  Th  Th6  1  0.994258  0.994387  0.000000  1
  Te  Te7  1  0.742023  0.747800  0.000000  1
  Te  Te8  1  0.246512  0.993686  0.000000  1
  Te  Te9  1  0.010695  0.254258  0.000000  1
  Te  Te10  1  0.490043  0.863774  0.000000  1
  Te  Te11  1  0.137655  0.628849  0.000000  1
  Te  Te12  1  0.373059  0.509305  0.000000  1
  Te  Te13  1  0.867174  0.388651  0.500000  1
  Te  Te14  1  0.215264  0.212369  0.500000  1
  Te  Te15  1  0.000324  0.792485  0.500000  1
  Te  Te16  1  0.793707  0.999432  0.500000  1
  Te  Te17  1  0.519077  0.137871  0.500000  1
  Te  Te18  1  0.609379  0.474203  0.500000  1
