# generated using pymatgen
data_CaTh(PO4)2
_symmetry_space_group_name_H-M   'P 1'
_cell_length_a   6.99195636
_cell_length_b   6.42823880
_cell_length_c   8.17847452
_cell_angle_alpha   53.44106163
_cell_angle_beta   89.95516897
_cell_angle_gamma   88.58202451
_symmetry_Int_Tables_number   1
_chemical_formula_structural   CaTh(PO4)2
_chemical_formula_sum   'Ca2 Th2 P4 O16'
_cell_volume   295.12920111
_cell_formula_units_Z   2
loop_
 _symmetry_equiv_pos_site_id
 _symmetry_equiv_pos_as_xyz
  1  'x, y, z'
loop_
 _atom_site_type_symbol
 _atom_site_label
 _atom_site_symmetry_multiplicity
 _atom_site_fract_x
 _atom_site_fract_y
 _atom_site_fract_z
 _atom_site_occupancy
  Ca  Ca0  1  0.850018  0.203577  0.211533  1
  Ca  Ca1  1  0.149982  0.796423  0.788467  1
  Th  Th2  1  0.330258  0.838777  0.275956  1
  Th  Th3  1  0.669742  0.161223  0.724044  1
  P  P4  1  0.832041  0.693721  0.198483  1
  P  P5  1  0.167959  0.306279  0.801517  1
  P  P6  1  0.340095  0.314553  0.303113  1
  P  P7  1  0.659905  0.685447  0.696887  1
  O  O8  1  0.797003  0.413426  0.383740  1
  O  O9  1  0.202997  0.586574  0.616260  1
  O  O10  1  0.277048  0.597180  0.131118  1
  O  O11  1  0.722952  0.402820  0.868882  1
  O  O12  1  0.987477  0.818626  0.246707  1
  O  O13  1  0.012523  0.181374  0.753293  1
  O  O14  1  0.497111  0.200161  0.241101  1
  O  O15  1  0.502889  0.799839  0.758899  1
  O  O16  1  0.648445  0.876016  0.125141  1
  O  O17  1  0.351555  0.123984  0.874859  1
  O  O18  1  0.177708  0.115763  0.385973  1
  O  O19  1  0.822292  0.884237  0.614027  1
  O  O20  1  0.878443  0.686600  0.017240  1
  O  O21  1  0.121557  0.313400  0.982760  1
  O  O22  1  0.410782  0.344453  0.469129  1
  O  O23  1  0.589218  0.655547  0.530871  1
