# generated using pymatgen
data_Ho4NbFeOs6
_symmetry_space_group_name_H-M   'P 1'
_cell_length_a   5.26746411
_cell_length_b   5.26746281
_cell_length_c   8.90572300
_cell_angle_alpha   90.00000000
_cell_angle_beta   90.00000000
_cell_angle_gamma   117.63080245
_symmetry_Int_Tables_number   1
_chemical_formula_structural   Ho4NbFeOs6
_chemical_formula_sum   'Ho4 Nb1 Fe1 Os6'
_cell_volume   218.91907583
_cell_formula_units_Z   1
loop_
 _symmetry_equiv_pos_site_id
 _symmetry_equiv_pos_as_xyz
  1  'x, y, z'
loop_
 _atom_site_type_symbol
 _atom_site_label
 _atom_site_symmetry_multiplicity
 _atom_site_fract_x
 _atom_site_fract_y
 _atom_site_fract_z
 _atom_site_occupancy
  Ho  Ho0  1  0.328191  0.671809  0.441609  1
  Ho  Ho1  1  0.667457  0.332543  0.568603  1
  Ho  Ho2  1  0.667457  0.332543  0.931397  1
  Ho  Ho3  1  0.328191  0.671809  0.058391  1
  Nb  Nb4  1  0.837487  0.162513  0.250000  1
  Fe  Fe5  1  0.168255  0.831745  0.750000  1
  Os  Os6  1  0.999172  0.000828  0.507887  1
  Os  Os7  1  0.999172  0.000828  0.992113  1
  Os  Os8  1  0.823481  0.653743  0.250000  1
  Os  Os9  1  0.346257  0.176519  0.250000  1
  Os  Os10  1  0.179195  0.344314  0.750000  1
  Os  Os11  1  0.655686  0.820805  0.750000  1
