# generated using pymatgen
data_Eu3WO7
_symmetry_space_group_name_H-M   'P 1'
_cell_length_a   6.67251530
_cell_length_b   6.67251571
_cell_length_c   7.69254600
_cell_angle_alpha   90.00000000
_cell_angle_beta   90.00000000
_cell_angle_gamma   110.90114018
_symmetry_Int_Tables_number   1
_chemical_formula_structural   Eu3WO7
_chemical_formula_sum   'Eu6 W2 O14'
_cell_volume   319.95428282
_cell_formula_units_Z   2
loop_
 _symmetry_equiv_pos_site_id
 _symmetry_equiv_pos_as_xyz
  1  'x, y, z'
loop_
 _atom_site_type_symbol
 _atom_site_label
 _atom_site_symmetry_multiplicity
 _atom_site_fract_x
 _atom_site_fract_y
 _atom_site_fract_z
 _atom_site_occupancy
  Eu  Eu0  1  0.054120  0.520459  0.250000  1
  Eu  Eu1  1  0.945880  0.479541  0.750000  1
  Eu  Eu2  1  0.520459  0.054120  0.250000  1
  Eu  Eu3  1  0.479541  0.945880  0.750000  1
  Eu  Eu4  1  0.000000  0.000000  0.000000  1
  Eu  Eu5  1  0.000000  0.000000  0.500000  1
  W  W6  1  0.500000  0.500000  0.000000  1
  W  W7  1  0.500000  0.500000  0.500000  1
  O  O8  1  0.440462  0.440462  0.250000  1
  O  O9  1  0.559538  0.559538  0.750000  1
  O  O10  1  0.888596  0.156002  0.250000  1
  O  O11  1  0.111404  0.843998  0.750000  1
  O  O12  1  0.156002  0.888596  0.250000  1
  O  O13  1  0.843998  0.111404  0.750000  1
  O  O14  1  0.803508  0.557009  0.032347  1
  O  O15  1  0.196492  0.442991  0.967653  1
  O  O16  1  0.196492  0.442991  0.532347  1
  O  O17  1  0.557009  0.803508  0.467653  1
  O  O18  1  0.803508  0.557009  0.467653  1
  O  O19  1  0.442991  0.196492  0.532347  1
  O  O20  1  0.442991  0.196492  0.967653  1
  O  O21  1  0.557009  0.803508  0.032347  1
