# generated using pymatgen
data_Ta6Re5Os
_symmetry_space_group_name_H-M   'P 1'
_cell_length_a   13.61493900
_cell_length_b   3.21348200
_cell_length_c   4.52442600
_cell_angle_alpha   90.00000000
_cell_angle_beta   90.00111723
_cell_angle_gamma   90.00000000
_symmetry_Int_Tables_number   1
_chemical_formula_structural   Ta6Re5Os
_chemical_formula_sum   'Ta6 Re5 Os1'
_cell_volume   197.94979720
_cell_formula_units_Z   1
loop_
 _symmetry_equiv_pos_site_id
 _symmetry_equiv_pos_as_xyz
  1  'x, y, z'
loop_
 _atom_site_type_symbol
 _atom_site_label
 _atom_site_symmetry_multiplicity
 _atom_site_fract_x
 _atom_site_fract_y
 _atom_site_fract_z
 _atom_site_occupancy
  Ta  Ta0  1  0.583360  0.499999  0.250573  1
  Ta  Ta1  1  0.916575  0.499999  0.250170  1
  Ta  Ta2  1  0.250369  0.499999  0.250076  1
  Ta  Ta3  1  0.748492  0.499999  0.749474  1
  Ta  Ta4  1  0.084761  0.499999  0.749664  1
  Ta  Ta5  1  0.416523  0.499999  0.750052  1
  Re  Re6  1  0.751546  0.000000  0.249612  1
  Re  Re7  1  0.081862  0.000000  0.249578  1
  Re  Re8  1  0.416822  0.000000  0.250007  1
  Re  Re9  1  0.584049  0.000000  0.750557  1
  Re  Re10  1  0.248982  0.000000  0.750082  1
  Os  Os11  1  0.916659  0.000000  0.750157  1
