# generated using pymatgen
data_Er7Tm3IrOs3
_symmetry_space_group_name_H-M   'P 1'
_cell_length_a   6.33408581
_cell_length_b   7.30866702
_cell_length_c   8.30806722
_cell_angle_alpha   96.78455452
_cell_angle_beta   112.31850905
_cell_angle_gamma   90.02363443
_symmetry_Int_Tables_number   1
_chemical_formula_structural   Er7Tm3IrOs3
_chemical_formula_sum   'Er7 Tm3 Ir1 Os3'
_cell_volume   352.87810545
_cell_formula_units_Z   1
loop_
 _symmetry_equiv_pos_site_id
 _symmetry_equiv_pos_as_xyz
  1  'x, y, z'
loop_
 _atom_site_type_symbol
 _atom_site_label
 _atom_site_symmetry_multiplicity
 _atom_site_fract_x
 _atom_site_fract_y
 _atom_site_fract_z
 _atom_site_occupancy
  Er  Er0  1  0.969993  0.915699  0.179565  1
  Er  Er1  1  0.789970  0.582030  0.818259  1
  Er  Er2  1  0.025717  0.083475  0.815187  1
  Er  Er3  1  0.208760  0.418960  0.179997  1
  Er  Er4  1  0.649755  0.817135  0.439442  1
  Er  Er5  1  0.210074  0.681810  0.561863  1
  Er  Er6  1  0.350874  0.181570  0.563075  1
  Tm  Tm7  1  0.792993  0.319532  0.439147  1
  Tm  Tm8  1  0.422561  0.748859  0.999358  1
  Tm  Tm9  1  0.577946  0.250611  0.999598  1
  Ir  Ir10  1  0.395005  0.076817  0.220869  1
  Os  Os11  1  0.822971  0.575710  0.217907  1
  Os  Os12  1  0.607389  0.924429  0.782459  1
  Os  Os13  1  0.175995  0.423363  0.783274  1
