# generated using pymatgen
data_Eu2Si2TcPd3
_symmetry_space_group_name_H-M   'P 1'
_cell_length_a   4.20004827
_cell_length_b   4.24956400
_cell_length_c   9.31928602
_cell_angle_alpha   90.00000000
_cell_angle_beta   103.02296551
_cell_angle_gamma   90.00000000
_symmetry_Int_Tables_number   1
_chemical_formula_structural   Eu2Si2TcPd3
_chemical_formula_sum   'Eu2 Si2 Tc1 Pd3'
_cell_volume   162.05595870
_cell_formula_units_Z   1
loop_
 _symmetry_equiv_pos_site_id
 _symmetry_equiv_pos_as_xyz
  1  'x, y, z'
loop_
 _atom_site_type_symbol
 _atom_site_label
 _atom_site_symmetry_multiplicity
 _atom_site_fract_x
 _atom_site_fract_y
 _atom_site_fract_z
 _atom_site_occupancy
  Eu  Eu0  1  0.601082  0.250000  0.202164  1
  Eu  Eu1  1  0.398840  0.750000  0.797682  1
  Si  Si2  1  0.818332  0.250000  0.636663  1
  Si  Si3  1  0.181458  0.750000  0.362916  1
  Tc  Tc4  1  0.749933  0.750000  0.499867  1
  Pd  Pd5  1  0.951704  0.250000  0.903409  1
  Pd  Pd6  1  0.048545  0.750000  0.097092  1
  Pd  Pd7  1  0.250104  0.250000  0.500208  1
