# generated using pymatgen
data_Li8La7DySn8
_symmetry_space_group_name_H-M   'P 1'
_cell_length_a   9.64911300
_cell_length_b   9.64911240
_cell_length_c   7.87003700
_cell_angle_alpha   90.00000000
_cell_angle_beta   90.00000000
_cell_angle_gamma   120.00000549
_symmetry_Int_Tables_number   1
_chemical_formula_structural   Li8La7DySn8
_chemical_formula_sum   'Li8 La7 Dy1 Sn8'
_cell_volume   634.57380361
_cell_formula_units_Z   1
loop_
 _symmetry_equiv_pos_site_id
 _symmetry_equiv_pos_as_xyz
  1  'x, y, z'
loop_
 _atom_site_type_symbol
 _atom_site_label
 _atom_site_symmetry_multiplicity
 _atom_site_fract_x
 _atom_site_fract_y
 _atom_site_fract_z
 _atom_site_occupancy
  Li  Li0  1  0.166326  0.833674  0.191133  1
  Li  Li1  1  0.330879  0.165440  0.687257  1
  Li  Li2  1  0.834560  0.669121  0.687257  1
  Li  Li3  1  0.166326  0.332649  0.191133  1
  Li  Li4  1  0.667351  0.833674  0.191133  1
  Li  Li5  1  0.834560  0.165440  0.687257  1
  Li  Li6  1  0.333333  0.666667  0.815813  1
  Li  Li7  1  0.666667  0.333333  0.318902  1
  La  La8  1  0.512490  0.487510  0.990052  1
  La  La9  1  0.025198  0.512599  0.489954  1
  La  La10  1  0.487401  0.974802  0.489954  1
  La  La11  1  0.512490  0.024979  0.990052  1
  La  La12  1  0.975021  0.487510  0.990052  1
  La  La13  1  0.487401  0.512599  0.489954  1
  La  La14  1  0.000000  0.000000  0.986029  1
  Dy  Dy15  1  0.000000  0.000000  0.484441  1
  Sn  Sn16  1  0.165342  0.834658  0.760034  1
  Sn  Sn17  1  0.328295  0.164147  0.266866  1
  Sn  Sn18  1  0.835853  0.671705  0.266866  1
  Sn  Sn19  1  0.165342  0.330682  0.760034  1
  Sn  Sn20  1  0.669318  0.834658  0.760034  1
  Sn  Sn21  1  0.835853  0.164147  0.266866  1
  Sn  Sn22  1  0.333333  0.666667  0.213013  1
  Sn  Sn23  1  0.666667  0.333333  0.715915  1
