# generated using pymatgen
data_Y4Er2InTcNi
_symmetry_space_group_name_H-M   'P 1'
_cell_length_a   8.46595189
_cell_length_b   8.46595213
_cell_length_c   8.46595100
_cell_angle_alpha   112.84525708
_cell_angle_beta   110.87198300
_cell_angle_gamma   104.80175087
_symmetry_Int_Tables_number   1
_chemical_formula_structural   Y4Er2InTcNi
_chemical_formula_sum   'Y8 Er4 In2 Tc2 Ni2'
_cell_volume   464.64286615
_cell_formula_units_Z   2
loop_
 _symmetry_equiv_pos_site_id
 _symmetry_equiv_pos_as_xyz
  1  'x, y, z'
loop_
 _atom_site_type_symbol
 _atom_site_label
 _atom_site_symmetry_multiplicity
 _atom_site_fract_x
 _atom_site_fract_y
 _atom_site_fract_z
 _atom_site_occupancy
  Y  Y0  1  0.439745  0.242731  0.197029  1
  Y  Y1  1  0.560255  0.757269  0.802971  1
  Y  Y2  1  0.045702  0.242731  0.802983  1
  Y  Y3  1  0.954298  0.757269  0.197017  1
  Y  Y4  1  0.184146  0.283632  0.467798  1
  Y  Y5  1  0.815854  0.716368  0.532202  1
  Y  Y6  1  0.184166  0.716368  0.900514  1
  Y  Y7  1  0.815834  0.283632  0.099486  1
  Er  Er8  1  0.331669  0.651001  0.319332  1
  Er  Er9  1  0.668331  0.348999  0.680668  1
  Er  Er10  1  0.331652  0.012296  0.680645  1
  Er  Er11  1  0.668348  0.987704  0.319355  1
  In  In12  1  0.500000  0.500000  0.000000  1
  In  In13  1  0.000000  0.000000  0.000000  1
  Tc  Tc14  1  0.326756  0.000000  0.326756  1
  Tc  Tc15  1  0.673244  0.000000  0.673244  1
  Ni  Ni16  1  0.116999  0.616743  0.499744  1
  Ni  Ni17  1  0.883001  0.383257  0.500256  1
