# generated using pymatgen
data_Cs2UIr3S8
_symmetry_space_group_name_H-M   'P 1'
_cell_length_a   6.15180600
_cell_length_b   7.18185600
_cell_length_c   16.94580400
_cell_angle_alpha   90.00000000
_cell_angle_beta   90.00000000
_cell_angle_gamma   90.00000000
_symmetry_Int_Tables_number   1
_chemical_formula_structural   Cs2UIr3S8
_chemical_formula_sum   'Cs4 U2 Ir6 S16'
_cell_volume   748.68908781
_cell_formula_units_Z   2
loop_
 _symmetry_equiv_pos_site_id
 _symmetry_equiv_pos_as_xyz
  1  'x, y, z'
loop_
 _atom_site_type_symbol
 _atom_site_label
 _atom_site_symmetry_multiplicity
 _atom_site_fract_x
 _atom_site_fract_y
 _atom_site_fract_z
 _atom_site_occupancy
  Cs  Cs0  1  0.339407  0.000000  0.000000  1
  Cs  Cs1  1  0.599826  0.500000  0.500000  1
  Cs  Cs2  1  0.028034  0.000000  0.500000  1
  Cs  Cs3  1  0.943122  0.500000  0.000000  1
  U  U4  1  0.006522  0.000000  0.249156  1
  U  U5  1  0.006522  0.000000  0.750844  1
  Ir  Ir6  1  0.001762  0.500000  0.248865  1
  Ir  Ir7  1  0.001762  0.500000  0.751135  1
  Ir  Ir8  1  0.502837  0.248528  0.249924  1
  Ir  Ir9  1  0.502837  0.751472  0.750076  1
  Ir  Ir10  1  0.502837  0.751472  0.249924  1
  Ir  Ir11  1  0.502837  0.248528  0.750076  1
  S  S12  1  0.821349  0.274541  0.331620  1
  S  S13  1  0.821349  0.725459  0.668380  1
  S  S14  1  0.187452  0.724875  0.167180  1
  S  S15  1  0.187452  0.275125  0.832820  1
  S  S16  1  0.187452  0.275125  0.167180  1
  S  S17  1  0.187452  0.724875  0.832820  1
  S  S18  1  0.821349  0.725459  0.331620  1
  S  S19  1  0.821349  0.274541  0.668380  1
  S  S20  1  0.645387  0.000000  0.166214  1
  S  S21  1  0.645387  0.000000  0.833786  1
  S  S22  1  0.335815  0.500000  0.319618  1
  S  S23  1  0.335815  0.500000  0.680382  1
  S  S24  1  0.368239  0.000000  0.334545  1
  S  S25  1  0.368239  0.000000  0.665455  1
  S  S26  1  0.663805  0.500000  0.179166  1
  S  S27  1  0.663805  0.500000  0.820834  1
