# generated using pymatgen
data_CeCoSb12Os2Ru
_symmetry_space_group_name_H-M   'P 1'
_cell_length_a   8.09426655
_cell_length_b   8.08224166
_cell_length_c   8.14223984
_cell_angle_alpha   109.61179002
_cell_angle_beta   109.59531730
_cell_angle_gamma   109.30730281
_symmetry_Int_Tables_number   1
_chemical_formula_structural   CeCoSb12Os2Ru
_chemical_formula_sum   'Ce1 Co1 Sb12 Os2 Ru1'
_cell_volume   409.53145322
_cell_formula_units_Z   1
loop_
 _symmetry_equiv_pos_site_id
 _symmetry_equiv_pos_as_xyz
  1  'x, y, z'
loop_
 _atom_site_type_symbol
 _atom_site_label
 _atom_site_symmetry_multiplicity
 _atom_site_fract_x
 _atom_site_fract_y
 _atom_site_fract_z
 _atom_site_occupancy
  Ce  Ce0  1  0.000000  0.000000  0.000000  1
  Co  Co1  1  0.000000  0.000000  0.500000  1
  Sb  Sb2  1  0.332290  0.177370  0.836691  1
  Sb  Sb3  1  0.667709  0.822630  0.163309  1
  Sb  Sb4  1  0.659676  0.503213  0.842372  1
  Sb  Sb5  1  0.340324  0.496787  0.157628  1
  Sb  Sb6  1  0.178046  0.845867  0.341602  1
  Sb  Sb7  1  0.821954  0.154133  0.658399  1
  Sb  Sb8  1  0.503667  0.843784  0.662371  1
  Sb  Sb9  1  0.496333  0.156216  0.337630  1
  Sb  Sb10  1  0.842129  0.338638  0.181217  1
  Sb  Sb11  1  0.157871  0.661361  0.818783  1
  Sb  Sb12  1  0.845895  0.667757  0.504025  1
  Sb  Sb13  1  0.154105  0.332243  0.495975  1
  Os  Os14  1  0.000000  0.500000  0.000000  1
  Os  Os15  1  0.500000  0.500000  0.500000  1
  Ru  Ru16  1  0.500000  0.000000  0.000000  1
