# generated using pymatgen
data_LiZn21NiRh3
_symmetry_space_group_name_H-M   'P 1'
_cell_length_a   7.83010848
_cell_length_b   7.90436332
_cell_length_c   7.90436408
_cell_angle_alpha   109.68958355
_cell_angle_beta   109.13565261
_cell_angle_gamma   109.13565937
_symmetry_Int_Tables_number   1
_chemical_formula_structural   LiZn21NiRh3
_chemical_formula_sum   'Li1 Zn21 Ni1 Rh3'
_cell_volume   378.68032613
_cell_formula_units_Z   1
loop_
 _symmetry_equiv_pos_site_id
 _symmetry_equiv_pos_as_xyz
  1  'x, y, z'
loop_
 _atom_site_type_symbol
 _atom_site_label
 _atom_site_symmetry_multiplicity
 _atom_site_fract_x
 _atom_site_fract_y
 _atom_site_fract_z
 _atom_site_occupancy
  Li  Li0  1  0.215426  0.000069  0.000069  1
  Zn  Zn1  1  0.008043  0.212541  0.003809  1
  Zn  Zn2  1  0.008043  0.003809  0.212541  1
  Zn  Zn3  1  0.803454  0.798770  0.798770  1
  Zn  Zn4  1  0.000665  0.646545  0.646545  1
  Zn  Zn5  1  0.355244  0.002707  0.350202  1
  Zn  Zn6  1  0.355244  0.350202  0.002707  1
  Zn  Zn7  1  0.000768  0.354841  0.354841  1
  Zn  Zn8  1  0.641142  0.996148  0.642274  1
  Zn  Zn9  1  0.641142  0.642274  0.996148  1
  Zn  Zn10  1  0.347419  0.735367  0.997942  1
  Zn  Zn11  1  0.609945  0.266927  0.266927  1
  Zn  Zn12  1  0.347419  0.997942  0.735367  1
  Zn  Zn13  1  0.733033  0.347138  0.998731  1
  Zn  Zn14  1  0.996315  0.348405  0.732986  1
  Zn  Zn15  1  0.265901  0.612741  0.268790  1
  Zn  Zn16  1  0.265901  0.268790  0.612741  1
  Zn  Zn17  1  0.996315  0.732986  0.348405  1
  Zn  Zn18  1  0.733033  0.998731  0.347138  1
  Zn  Zn19  1  0.644051  0.645888  0.390369  1
  Zn  Zn20  1  0.391670  0.646755  0.646755  1
  Zn  Zn21  1  0.644051  0.390369  0.645888  1
  Ni  Ni22  1  0.345680  0.348071  0.348071  1
  Rh  Rh23  1  0.652074  0.000733  0.000733  1
  Rh  Rh24  1  0.999009  0.649843  0.001406  1
  Rh  Rh25  1  0.999009  0.001406  0.649843  1
