# generated using pymatgen
data_Tb(BH4)3
_symmetry_space_group_name_H-M   'P 1'
_cell_length_a   7.81593500
_cell_length_b   7.81593575
_cell_length_c   7.81593500
_cell_angle_alpha   120.00000104
_cell_angle_beta   90.00000000
_cell_angle_gamma   120.00000104
_symmetry_Int_Tables_number   1
_chemical_formula_structural   Tb(BH4)3
_chemical_formula_sum   'Tb2 B6 H24'
_cell_volume   337.61975270
_cell_formula_units_Z   2
loop_
 _symmetry_equiv_pos_site_id
 _symmetry_equiv_pos_as_xyz
  1  'x, y, z'
loop_
 _atom_site_type_symbol
 _atom_site_label
 _atom_site_symmetry_multiplicity
 _atom_site_fract_x
 _atom_site_fract_y
 _atom_site_fract_z
 _atom_site_occupancy
  Tb  Tb0  1  0.000000  0.000000  0.000000  1
  Tb  Tb1  1  0.500000  0.000000  0.500000  1
  B  B2  1  0.250000  0.000000  0.250000  1
  B  B3  1  0.750001  0.000000  0.250000  1
  B  B4  1  0.250000  0.500000  0.250000  1
  B  B5  1  0.750000  0.000000  0.750000  1
  B  B6  1  0.250000  0.000000  0.750001  1
  B  B7  1  0.750001  0.500000  0.750001  1
  H  H8  1  0.282268  0.000000  0.095946  1
  H  H9  1  0.095946  0.378214  0.095946  1
  H  H10  1  0.717733  0.813680  0.095946  1
  H  H11  1  0.595947  0.000000  0.217733  1
  H  H12  1  0.404054  0.621787  0.217733  1
  H  H13  1  0.217733  0.813680  0.217733  1
  H  H14  1  0.095946  0.000000  0.282268  1
  H  H15  1  0.904054  0.186321  0.282268  1
  H  H16  1  0.282268  0.378214  0.282268  1
  H  H17  1  0.782267  0.000000  0.404053  1
  H  H18  1  0.404054  0.186321  0.404054  1
  H  H19  1  0.217733  0.621787  0.404054  1
  H  H20  1  0.217733  0.000000  0.595947  1
  H  H21  1  0.782268  0.378214  0.595947  1
  H  H22  1  0.595947  0.813680  0.595947  1
  H  H23  1  0.904053  0.000000  0.717732  1
  H  H24  1  0.717733  0.621787  0.717733  1
  H  H25  1  0.095946  0.813680  0.717733  1
  H  H26  1  0.404053  0.000000  0.782267  1
  H  H27  1  0.782267  0.186321  0.782267  1
  H  H28  1  0.595947  0.378214  0.782268  1
  H  H29  1  0.717732  0.000000  0.904053  1
  H  H30  1  0.904053  0.621787  0.904053  1
  H  H31  1  0.282268  0.186321  0.904054  1
