# generated using pymatgen
data_Pr4CrCo19As12
_symmetry_space_group_name_H-M   'P 1'
_cell_length_a   3.85470500
_cell_length_b   10.82221046
_cell_length_c   12.31135106
_cell_angle_alpha   89.83317260
_cell_angle_beta   90.00000000
_cell_angle_gamma   90.00000000
_symmetry_Int_Tables_number   1
_chemical_formula_structural   Pr4CrCo19As12
_chemical_formula_sum   'Pr4 Cr1 Co19 As12'
_cell_volume   513.58342237
_cell_formula_units_Z   1
loop_
 _symmetry_equiv_pos_site_id
 _symmetry_equiv_pos_as_xyz
  1  'x, y, z'
loop_
 _atom_site_type_symbol
 _atom_site_label
 _atom_site_symmetry_multiplicity
 _atom_site_fract_x
 _atom_site_fract_y
 _atom_site_fract_z
 _atom_site_occupancy
  Pr  Pr0  1  0.250000  0.582549  0.699899  1
  Pr  Pr1  1  0.250000  0.918884  0.201900  1
  Pr  Pr2  1  0.750000  0.418079  0.299081  1
  Pr  Pr3  1  0.750000  0.083934  0.797221  1
  Cr  Cr4  1  0.250000  0.701820  0.989462  1
  Co  Co5  1  0.250000  0.791295  0.489993  1
  Co  Co6  1  0.750000  0.295596  0.009711  1
  Co  Co7  1  0.750000  0.208549  0.509472  1
  Co  Co8  1  0.250000  0.404729  0.490103  1
  Co  Co9  1  0.250000  0.094536  0.990184  1
  Co  Co10  1  0.750000  0.594404  0.510880  1
  Co  Co11  1  0.750000  0.904433  0.009795  1
  Co  Co12  1  0.250000  0.216165  0.176244  1
  Co  Co13  1  0.250000  0.283822  0.675984  1
  Co  Co14  1  0.750000  0.783696  0.824283  1
  Co  Co15  1  0.750000  0.715972  0.325567  1
  Co  Co16  1  0.250000  0.884297  0.695231  1
  Co  Co17  1  0.250000  0.616222  0.196883  1
  Co  Co18  1  0.750000  0.115895  0.304595  1
  Co  Co19  1  0.750000  0.383152  0.803764  1
  Co  Co20  1  0.250000  0.467751  0.933341  1
  Co  Co21  1  0.250000  0.029040  0.433243  1
  Co  Co22  1  0.750000  0.530719  0.065979  1
  Co  Co23  1  0.750000  0.971460  0.566954  1
  As  As24  1  0.250000  0.415992  0.112843  1
  As  As25  1  0.250000  0.084833  0.611320  1
  As  As26  1  0.750000  0.582318  0.885455  1
  As  As27  1  0.750000  0.915604  0.388845  1
  As  As28  1  0.250000  0.272504  0.868923  1
  As  As29  1  0.250000  0.225578  0.369897  1
  As  As30  1  0.750000  0.726590  0.133720  1
  As  As31  1  0.750000  0.774924  0.629945  1
  As  As32  1  0.250000  0.603418  0.394224  1
  As  As33  1  0.250000  0.900286  0.890762  1
  As  As34  1  0.750000  0.395125  0.607025  1
  As  As35  1  0.750000  0.105832  0.107274  1
