# generated using pymatgen
data_Rb8V4PdPtSe16
_symmetry_space_group_name_H-M   'P 1'
_cell_length_a   13.56222321
_cell_length_b   7.56922372
_cell_length_c   9.84828929
_cell_angle_alpha   84.50903968
_cell_angle_beta   90.00409170
_cell_angle_gamma   90.12572538
_symmetry_Int_Tables_number   1
_chemical_formula_structural   Rb8V4PdPtSe16
_chemical_formula_sum   'Rb8 V4 Pd1 Pt1 Se16'
_cell_volume   1006.33956316
_cell_formula_units_Z   1
loop_
 _symmetry_equiv_pos_site_id
 _symmetry_equiv_pos_as_xyz
  1  'x, y, z'
loop_
 _atom_site_type_symbol
 _atom_site_label
 _atom_site_symmetry_multiplicity
 _atom_site_fract_x
 _atom_site_fract_y
 _atom_site_fract_z
 _atom_site_occupancy
  Rb  Rb0  1  0.132991  0.820189  0.675918  1
  Rb  Rb1  1  0.633343  0.179311  0.823992  1
  Rb  Rb2  1  0.867009  0.179811  0.324082  1
  Rb  Rb3  1  0.366657  0.820689  0.176008  1
  Rb  Rb4  1  0.351716  0.273949  0.540984  1
  Rb  Rb5  1  0.851640  0.725881  0.958983  1
  Rb  Rb6  1  0.648284  0.726051  0.459016  1
  Rb  Rb7  1  0.148360  0.274119  0.041017  1
  V  V8  1  0.425339  0.750017  0.766980  1
  V  V9  1  0.925311  0.250906  0.732408  1
  V  V10  1  0.574661  0.249983  0.233020  1
  V  V11  1  0.074689  0.749094  0.267592  1
  Pd  Pd12  1  0.500000  0.500000  0.000000  1
  Pt  Pt13  1  0.000000  0.500000  0.500000  1
  Se  Se14  1  0.090725  0.302961  0.675135  1
  Se  Se15  1  0.590515  0.697702  0.824095  1
  Se  Se16  1  0.909275  0.697039  0.324865  1
  Se  Se17  1  0.409485  0.302298  0.175905  1
  Se  Se18  1  0.398132  0.756453  0.540097  1
  Se  Se19  1  0.898219  0.243308  0.959312  1
  Se  Se20  1  0.601868  0.243547  0.459903  1
  Se  Se21  1  0.101781  0.756692  0.040688  1
  Se  Se22  1  0.160542  0.513991  0.378288  1
  Se  Se23  1  0.660657  0.485238  0.121907  1
  Se  Se24  1  0.839458  0.486009  0.621712  1
  Se  Se25  1  0.339343  0.514762  0.878093  1
  Se  Se26  1  0.371463  0.008144  0.839566  1
  Se  Se27  1  0.871256  0.992026  0.660740  1
  Se  Se28  1  0.628537  0.991856  0.160434  1
  Se  Se29  1  0.128744  0.007974  0.339260  1
