# generated using pymatgen
data_PrEr3(Rh2O7)2
_symmetry_space_group_name_H-M   'P 1'
_cell_length_a   7.21279382
_cell_length_b   7.21279304
_cell_length_c   7.27201509
_cell_angle_alpha   60.26902214
_cell_angle_beta   60.26902660
_cell_angle_gamma   59.99999686
_symmetry_Int_Tables_number   1
_chemical_formula_structural   PrEr3(Rh2O7)2
_chemical_formula_sum   'Pr1 Er3 Rh4 O14'
_cell_volume   268.59678333
_cell_formula_units_Z   1
loop_
 _symmetry_equiv_pos_site_id
 _symmetry_equiv_pos_as_xyz
  1  'x, y, z'
loop_
 _atom_site_type_symbol
 _atom_site_label
 _atom_site_symmetry_multiplicity
 _atom_site_fract_x
 _atom_site_fract_y
 _atom_site_fract_z
 _atom_site_occupancy
  Pr  Pr0  1  0.125000  0.125000  0.625000  1
  Er  Er1  1  0.125000  0.125000  0.125000  1
  Er  Er2  1  0.125000  0.625000  0.125000  1
  Er  Er3  1  0.625000  0.125000  0.125000  1
  Rh  Rh4  1  0.625000  0.625000  0.625000  1
  Rh  Rh5  1  0.625000  0.625000  0.125000  1
  Rh  Rh6  1  0.125000  0.625000  0.625000  1
  Rh  Rh7  1  0.625000  0.125000  0.625000  1
  O  O8  1  0.254828  0.254828  0.235515  1
  O  O9  1  0.288928  0.711775  0.287522  1
  O  O10  1  0.960644  0.960644  0.528971  1
  O  O11  1  0.549741  0.960644  0.528971  1
  O  O12  1  0.711775  0.711775  0.287522  1
  O  O13  1  0.960644  0.549741  0.528971  1
  O  O14  1  0.700259  0.289356  0.721029  1
  O  O15  1  0.289356  0.289356  0.721029  1
  O  O16  1  0.711775  0.288928  0.287522  1
  O  O17  1  0.289356  0.700259  0.721029  1
  O  O18  1  0.961072  0.538225  0.962478  1
  O  O19  1  0.538225  0.538225  0.962478  1
  O  O20  1  0.995172  0.995172  0.014485  1
  O  O21  1  0.538225  0.961072  0.962478  1
