# generated using pymatgen
data_Th7U(Si3Rh)4
_symmetry_space_group_name_H-M   'P 1'
_cell_length_a   8.23253731
_cell_length_b   8.22868189
_cell_length_c   8.40429500
_cell_angle_alpha   90.00000000
_cell_angle_beta   90.00000000
_cell_angle_gamma   119.96504649
_symmetry_Int_Tables_number   1
_chemical_formula_structural   Th7U(Si3Rh)4
_chemical_formula_sum   'Th7 U1 Si12 Rh4'
_cell_volume   493.22917577
_cell_formula_units_Z   1
loop_
 _symmetry_equiv_pos_site_id
 _symmetry_equiv_pos_as_xyz
  1  'x, y, z'
loop_
 _atom_site_type_symbol
 _atom_site_label
 _atom_site_symmetry_multiplicity
 _atom_site_fract_x
 _atom_site_fract_y
 _atom_site_fract_z
 _atom_site_occupancy
  Th  Th0  1  0.000027  0.000013  0.250000  1
  Th  Th1  1  0.000029  0.000012  0.750000  1
  Th  Th2  1  0.500261  0.499768  0.250000  1
  Th  Th3  1  0.500262  0.000492  0.250000  1
  Th  Th4  1  0.999568  0.499778  0.250000  1
  Th  Th5  1  0.499539  0.500257  0.750000  1
  Th  Th6  1  0.499541  0.999289  0.750000  1
  U  U7  1  0.000473  0.500237  0.750000  1
  Si  Si8  1  0.165271  0.831884  0.502698  1
  Si  Si9  1  0.165327  0.333517  0.502608  1
  Si  Si10  1  0.668060  0.834047  0.498073  1
  Si  Si11  1  0.834691  0.168137  0.503441  1
  Si  Si12  1  0.834637  0.666427  0.503353  1
  Si  Si13  1  0.332092  0.166030  0.498766  1
  Si  Si14  1  0.834691  0.168137  0.996559  1
  Si  Si15  1  0.834637  0.666427  0.996647  1
  Si  Si16  1  0.332092  0.166030  0.001234  1
  Si  Si17  1  0.165271  0.831884  0.997302  1
  Si  Si18  1  0.165327  0.333517  0.997392  1
  Si  Si19  1  0.668060  0.834047  0.001927  1
  Rh  Rh20  1  0.332805  0.666391  0.505339  1
  Rh  Rh21  1  0.667264  0.333644  0.506971  1
  Rh  Rh22  1  0.667264  0.333644  0.993029  1
  Rh  Rh23  1  0.332805  0.666391  0.994661  1
