# generated using pymatgen
data_AlSb(SeO3)4
_symmetry_space_group_name_H-M   'P 1'
_cell_length_a   8.13167300
_cell_length_b   8.07266579
_cell_length_c   8.10537101
_cell_angle_alpha   89.51060900
_cell_angle_beta   90.00000000
_cell_angle_gamma   90.00000000
_symmetry_Int_Tables_number   1
_chemical_formula_structural   AlSb(SeO3)4
_chemical_formula_sum   'Al2 Sb2 Se8 O24'
_cell_volume   532.05182193
_cell_formula_units_Z   2
loop_
 _symmetry_equiv_pos_site_id
 _symmetry_equiv_pos_as_xyz
  1  'x, y, z'
loop_
 _atom_site_type_symbol
 _atom_site_label
 _atom_site_symmetry_multiplicity
 _atom_site_fract_x
 _atom_site_fract_y
 _atom_site_fract_z
 _atom_site_occupancy
  Al  Al0  1  0.000000  0.500000  0.000000  1
  Al  Al1  1  0.500000  0.500000  0.500000  1
  Sb  Sb2  1  0.000000  0.000000  0.500000  1
  Sb  Sb3  1  0.500000  0.000000  0.000000  1
  Se  Se4  1  0.320970  0.659887  0.179590  1
  Se  Se5  1  0.820970  0.340113  0.320410  1
  Se  Se6  1  0.664627  0.817064  0.663783  1
  Se  Se7  1  0.164627  0.182936  0.836217  1
  Se  Se8  1  0.679030  0.340113  0.820410  1
  Se  Se9  1  0.179030  0.659887  0.679590  1
  Se  Se10  1  0.335373  0.182936  0.336217  1
  Se  Se11  1  0.835373  0.817064  0.163783  1
  O  O12  1  0.230516  0.529984  0.042615  1
  O  O13  1  0.730516  0.470016  0.457385  1
  O  O14  1  0.755795  0.966396  0.529866  1
  O  O15  1  0.255795  0.033604  0.970134  1
  O  O16  1  0.525786  0.959243  0.755053  1
  O  O17  1  0.458775  0.528180  0.269968  1
  O  O18  1  0.958775  0.471820  0.230032  1
  O  O19  1  0.025786  0.040757  0.744947  1
  O  O20  1  0.965787  0.242378  0.462305  1
  O  O21  1  0.534457  0.734681  0.525036  1
  O  O22  1  0.465787  0.757622  0.037695  1
  O  O23  1  0.034457  0.265319  0.974964  1
  O  O24  1  0.769484  0.470016  0.957385  1
  O  O25  1  0.269484  0.529984  0.542615  1
  O  O26  1  0.244205  0.033604  0.470134  1
  O  O27  1  0.744205  0.966396  0.029866  1
  O  O28  1  0.474214  0.040757  0.244947  1
  O  O29  1  0.541225  0.471820  0.730032  1
  O  O30  1  0.041225  0.528180  0.769968  1
  O  O31  1  0.974214  0.959243  0.255053  1
  O  O32  1  0.034213  0.757622  0.537695  1
  O  O33  1  0.465543  0.265319  0.474964  1
  O  O34  1  0.534213  0.242378  0.962305  1
  O  O35  1  0.965543  0.734681  0.025036  1
