# generated using pymatgen
data_Ho12TcOs3
_symmetry_space_group_name_H-M   'P 1'
_cell_length_a   6.29289013
_cell_length_b   7.39883532
_cell_length_c   9.03134800
_cell_angle_alpha   90.00000000
_cell_angle_beta   90.00000000
_cell_angle_gamma   90.06851863
_symmetry_Int_Tables_number   1
_chemical_formula_structural   Ho12TcOs3
_chemical_formula_sum   'Ho12 Tc1 Os3'
_cell_volume   420.49978365
_cell_formula_units_Z   1
loop_
 _symmetry_equiv_pos_site_id
 _symmetry_equiv_pos_as_xyz
  1  'x, y, z'
loop_
 _atom_site_type_symbol
 _atom_site_label
 _atom_site_symmetry_multiplicity
 _atom_site_fract_x
 _atom_site_fract_y
 _atom_site_fract_z
 _atom_site_occupancy
  Ho  Ho0  1  0.334740  0.675078  0.062630  1
  Ho  Ho1  1  0.166298  0.175598  0.437148  1
  Ho  Ho2  1  0.667349  0.324180  0.562516  1
  Ho  Ho3  1  0.833861  0.824755  0.936965  1
  Ho  Ho4  1  0.667349  0.324180  0.937484  1
  Ho  Ho5  1  0.833861  0.824755  0.563035  1
  Ho  Ho6  1  0.334740  0.675078  0.437370  1
  Ho  Ho7  1  0.166298  0.175598  0.062852  1
  Ho  Ho8  1  0.870814  0.540341  0.250000  1
  Ho  Ho9  1  0.627233  0.040531  0.250000  1
  Ho  Ho10  1  0.130722  0.459000  0.750000  1
  Ho  Ho11  1  0.368926  0.959806  0.750000  1
  Tc  Tc12  1  0.037441  0.883560  0.250000  1
  Os  Os13  1  0.461219  0.382937  0.250000  1
  Os  Os14  1  0.960355  0.117844  0.750000  1
  Os  Os15  1  0.538793  0.616756  0.750000  1
