# generated using pymatgen
data_Tb12TlCo2CuNi2
_symmetry_space_group_name_H-M   'P 1'
_cell_length_a   8.37365497
_cell_length_b   8.37365726
_cell_length_c   8.37365605
_cell_angle_alpha   111.57303862
_cell_angle_beta   109.46029192
_cell_angle_gamma   107.40712533
_symmetry_Int_Tables_number   1
_chemical_formula_structural   Tb12TlCo2CuNi2
_chemical_formula_sum   'Tb12 Tl1 Co2 Cu1 Ni2'
_cell_volume   451.38691434
_cell_formula_units_Z   1
loop_
 _symmetry_equiv_pos_site_id
 _symmetry_equiv_pos_as_xyz
  1  'x, y, z'
loop_
 _atom_site_type_symbol
 _atom_site_label
 _atom_site_symmetry_multiplicity
 _atom_site_fract_x
 _atom_site_fract_y
 _atom_site_fract_z
 _atom_site_occupancy
  Tb  Tb0  1  0.417862  0.224121  0.193742  1
  Tb  Tb1  1  0.582138  0.775879  0.806258  1
  Tb  Tb2  1  0.030378  0.224121  0.806258  1
  Tb  Tb3  1  0.969622  0.775879  0.193742  1
  Tb  Tb4  1  0.180137  0.287529  0.467666  1
  Tb  Tb5  1  0.819863  0.712471  0.532334  1
  Tb  Tb6  1  0.180137  0.712471  0.892608  1
  Tb  Tb7  1  0.819863  0.287529  0.107392  1
  Tb  Tb8  1  0.318987  0.629476  0.310489  1
  Tb  Tb9  1  0.681013  0.370524  0.689511  1
  Tb  Tb10  1  0.318987  0.008498  0.689511  1
  Tb  Tb11  1  0.681013  0.991502  0.310489  1
  Tl  Tl12  1  0.500000  0.500000  0.000000  1
  Co  Co13  1  0.114486  0.614486  0.500000  1
  Co  Co14  1  0.885514  0.385514  0.500000  1
  Cu  Cu15  1  0.000000  0.000000  0.000000  1
  Ni  Ni16  1  0.354801  0.000000  0.354801  1
  Ni  Ni17  1  0.645199  0.000000  0.645199  1
