# generated using pymatgen
data_Tb3Y12Pa(CdIr)4
_symmetry_space_group_name_H-M   'P 1'
_cell_length_a   9.71911495
_cell_length_b   9.71948895
_cell_length_c   9.71991055
_cell_angle_alpha   59.61283060
_cell_angle_beta   59.61160013
_cell_angle_gamma   59.60799087
_symmetry_Int_Tables_number   1
_chemical_formula_structural   Tb3Y12Pa(CdIr)4
_chemical_formula_sum   'Tb3 Y12 Pa1 Cd4 Ir4'
_cell_volume   643.51526911
_cell_formula_units_Z   1
loop_
 _symmetry_equiv_pos_site_id
 _symmetry_equiv_pos_as_xyz
  1  'x, y, z'
loop_
 _atom_site_type_symbol
 _atom_site_label
 _atom_site_symmetry_multiplicity
 _atom_site_fract_x
 _atom_site_fract_y
 _atom_site_fract_z
 _atom_site_occupancy
  Tb  Tb0  1  0.350337  0.350347  0.948942  1
  Tb  Tb1  1  0.350310  0.948970  0.350331  1
  Tb  Tb2  1  0.948985  0.350305  0.350312  1
  Y  Y3  1  0.811007  0.190143  0.190174  1
  Y  Y4  1  0.189654  0.810994  0.810999  1
  Y  Y5  1  0.190144  0.811004  0.190180  1
  Y  Y6  1  0.810994  0.189667  0.810990  1
  Y  Y7  1  0.190167  0.190180  0.811005  1
  Y  Y8  1  0.810981  0.810979  0.189700  1
  Y  Y9  1  0.940930  0.562576  0.562561  1
  Y  Y10  1  0.561833  0.938174  0.938173  1
  Y  Y11  1  0.562579  0.940951  0.562551  1
  Y  Y12  1  0.938170  0.561822  0.938182  1
  Y  Y13  1  0.562572  0.562559  0.940968  1
  Y  Y14  1  0.938166  0.938178  0.561819  1
  Pa  Pa15  1  0.342553  0.342548  0.342531  1
  Cd  Cd16  1  0.579451  0.579459  0.579473  1
  Cd  Cd17  1  0.578715  0.578708  0.256053  1
  Cd  Cd18  1  0.578711  0.256061  0.578708  1
  Cd  Cd19  1  0.256076  0.578703  0.578704  1
  Ir  Ir20  1  0.142781  0.142780  0.142773  1
  Ir  Ir21  1  0.147995  0.147992  0.568924  1
  Ir  Ir22  1  0.147987  0.568915  0.147974  1
  Ir  Ir23  1  0.568902  0.147987  0.147972  1
