# generated using pymatgen
data_Ce3Tm(B4W)4
_symmetry_space_group_name_H-M   'P 1'
_cell_length_a   3.67509100
_cell_length_b   6.05666866
_cell_length_c   11.71373502
_cell_angle_alpha   89.89444372
_cell_angle_beta   90.00000000
_cell_angle_gamma   90.00000000
_symmetry_Int_Tables_number   1
_chemical_formula_structural   Ce3Tm(B4W)4
_chemical_formula_sum   'Ce3 Tm1 B16 W4'
_cell_volume   260.73334196
_cell_formula_units_Z   1
loop_
 _symmetry_equiv_pos_site_id
 _symmetry_equiv_pos_as_xyz
  1  'x, y, z'
loop_
 _atom_site_type_symbol
 _atom_site_label
 _atom_site_symmetry_multiplicity
 _atom_site_fract_x
 _atom_site_fract_y
 _atom_site_fract_z
 _atom_site_occupancy
  Ce  Ce0  1  0.000000  0.625268  0.349271  1
  Ce  Ce1  1  0.000000  0.374500  0.651510  1
  Ce  Ce2  1  0.000000  0.125062  0.150079  1
  Tm  Tm3  1  0.000000  0.874716  0.850033  1
  B  B4  1  0.500000  0.786820  0.184660  1
  B  B5  1  0.500000  0.212302  0.814621  1
  B  B6  1  0.500000  0.285784  0.314206  1
  B  B7  1  0.500000  0.713789  0.686976  1
  B  B8  1  0.500000  0.865408  0.031127  1
  B  B9  1  0.500000  0.134791  0.966988  1
  B  B10  1  0.500000  0.364302  0.468418  1
  B  B11  1  0.500000  0.635600  0.532753  1
  B  B12  1  0.500000  0.885801  0.453831  1
  B  B13  1  0.500000  0.113277  0.547828  1
  B  B14  1  0.500000  0.386862  0.045552  1
  B  B15  1  0.500000  0.616544  0.951792  1
  B  B16  1  0.500000  0.974446  0.308117  1
  B  B17  1  0.500000  0.024472  0.693645  1
  B  B18  1  0.500000  0.474869  0.191167  1
  B  B19  1  0.500000  0.524496  0.807834  1
  W  W20  1  0.000000  0.631181  0.084525  1
  W  W21  1  0.000000  0.370446  0.914057  1
  W  W22  1  0.000000  0.130877  0.414617  1
  W  W23  1  0.000000  0.868387  0.586394  1
