# generated using pymatgen
data_ZnGa(FeRh2)2
_symmetry_space_group_name_H-M   'P 1'
_cell_length_a   7.40874081
_cell_length_b   7.40874085
_cell_length_c   7.40874273
_cell_angle_alpha   33.50131271
_cell_angle_beta   33.50131373
_cell_angle_gamma   33.50132424
_symmetry_Int_Tables_number   1
_chemical_formula_structural   ZnGa(FeRh2)2
_chemical_formula_sum   'Zn1 Ga1 Fe2 Rh4'
_cell_volume   110.34316762
_cell_formula_units_Z   1
loop_
 _symmetry_equiv_pos_site_id
 _symmetry_equiv_pos_as_xyz
  1  'x, y, z'
loop_
 _atom_site_type_symbol
 _atom_site_label
 _atom_site_symmetry_multiplicity
 _atom_site_fract_x
 _atom_site_fract_y
 _atom_site_fract_z
 _atom_site_occupancy
  Zn  Zn0  1  0.500000  0.500000  0.500000  1
  Ga  Ga1  1  0.000000  0.000000  0.000000  1
  Fe  Fe2  1  0.248514  0.248514  0.248514  1
  Fe  Fe3  1  0.751486  0.751486  0.751486  1
  Rh  Rh4  1  0.374004  0.374004  0.374004  1
  Rh  Rh5  1  0.875839  0.875839  0.875839  1
  Rh  Rh6  1  0.625996  0.625996  0.625996  1
  Rh  Rh7  1  0.124161  0.124161  0.124161  1
