# generated using pymatgen
data_ErTmCo2(SnH)2
_symmetry_space_group_name_H-M   'P 1'
_cell_length_a   4.25330100
_cell_length_b   7.04978600
_cell_length_c   8.09856901
_cell_angle_alpha   90.00426700
_cell_angle_beta   90.00000000
_cell_angle_gamma   90.00000000
_symmetry_Int_Tables_number   1
_chemical_formula_structural   ErTmCo2(SnH)2
_chemical_formula_sum   'Er2 Tm2 Co4 Sn4 H4'
_cell_volume   242.83447226
_cell_formula_units_Z   2
loop_
 _symmetry_equiv_pos_site_id
 _symmetry_equiv_pos_as_xyz
  1  'x, y, z'
loop_
 _atom_site_type_symbol
 _atom_site_label
 _atom_site_symmetry_multiplicity
 _atom_site_fract_x
 _atom_site_fract_y
 _atom_site_fract_z
 _atom_site_occupancy
  Er  Er0  1  0.250000  0.486359  0.184756  1
  Er  Er1  1  0.750000  0.513641  0.815244  1
  Tm  Tm2  1  0.750000  0.013474  0.683948  1
  Tm  Tm3  1  0.250000  0.986526  0.316052  1
  Co  Co4  1  0.750000  0.772463  0.103576  1
  Co  Co5  1  0.250000  0.227537  0.896424  1
  Co  Co6  1  0.250000  0.728780  0.602823  1
  Co  Co7  1  0.750000  0.271220  0.397177  1
  Sn  Sn8  1  0.750000  0.654250  0.425821  1
  Sn  Sn9  1  0.250000  0.345750  0.574179  1
  Sn  Sn10  1  0.250000  0.846392  0.926818  1
  Sn  Sn11  1  0.750000  0.153608  0.073182  1
  H  H12  1  0.250000  0.449813  0.918076  1
  H  H13  1  0.750000  0.550187  0.081924  1
  H  H14  1  0.750000  0.048989  0.418470  1
  H  H15  1  0.250000  0.951011  0.581530  1
