# generated using pymatgen
data_SrSmPt10
_symmetry_space_group_name_H-M   'P 1'
_cell_length_a   4.41591500
_cell_length_b   5.46700900
_cell_length_c   9.43232200
_cell_angle_alpha   89.99998952
_cell_angle_beta   90.00000000
_cell_angle_gamma   90.00000000
_symmetry_Int_Tables_number   1
_chemical_formula_structural   SrSmPt10
_chemical_formula_sum   'Sr1 Sm1 Pt10'
_cell_volume   227.71367503
_cell_formula_units_Z   1
loop_
 _symmetry_equiv_pos_site_id
 _symmetry_equiv_pos_as_xyz
  1  'x, y, z'
loop_
 _atom_site_type_symbol
 _atom_site_label
 _atom_site_symmetry_multiplicity
 _atom_site_fract_x
 _atom_site_fract_y
 _atom_site_fract_z
 _atom_site_occupancy
  Sr  Sr0  1  0.000000  0.499979  0.500000  1
  Sm  Sm1  1  0.000000  0.999978  0.000000  1
  Pt  Pt2  1  0.000000  0.999981  0.328630  1
  Pt  Pt3  1  0.000000  0.499984  0.836879  1
  Pt  Pt4  1  0.000000  0.499984  0.163121  1
  Pt  Pt5  1  0.000000  0.999981  0.671370  1
  Pt  Pt6  1  0.500000  0.999985  0.500000  1
  Pt  Pt7  1  0.500000  0.499987  0.000000  1
  Pt  Pt8  1  0.500000  0.247038  0.245738  1
  Pt  Pt9  1  0.500000  0.752933  0.754263  1
  Pt  Pt10  1  0.500000  0.752933  0.245737  1
  Pt  Pt11  1  0.500000  0.247038  0.754262  1
