# generated using pymatgen
data_Yb7Pr11(SmSn8)2
_symmetry_space_group_name_H-M   'P 1'
_cell_length_a   8.05714019
_cell_length_b   8.50749543
_cell_length_c   16.08084226
_cell_angle_alpha   90.05119719
_cell_angle_beta   89.97139706
_cell_angle_gamma   90.00977113
_symmetry_Int_Tables_number   1
_chemical_formula_structural   Yb7Pr11(SmSn8)2
_chemical_formula_sum   'Yb7 Pr11 Sm2 Sn16'
_cell_volume   1102.27816029
_cell_formula_units_Z   1
loop_
 _symmetry_equiv_pos_site_id
 _symmetry_equiv_pos_as_xyz
  1  'x, y, z'
loop_
 _atom_site_type_symbol
 _atom_site_label
 _atom_site_symmetry_multiplicity
 _atom_site_fract_x
 _atom_site_fract_y
 _atom_site_fract_z
 _atom_site_occupancy
  Yb  Yb0  1  0.669329  0.171663  0.376003  1
  Yb  Yb1  1  0.170435  0.328964  0.123764  1
  Yb  Yb2  1  0.668393  0.171414  0.123768  1
  Yb  Yb3  1  0.160200  0.498112  0.751124  1
  Yb  Yb4  1  0.660070  0.001525  0.749846  1
  Yb  Yb5  1  0.839514  0.497976  0.248607  1
  Yb  Yb6  1  0.340802  0.001320  0.248192  1
  Pr  Pr7  1  0.166797  0.325058  0.374271  1
  Pr  Pr8  1  0.331832  0.828039  0.624455  1
  Pr  Pr9  1  0.831690  0.672068  0.876422  1
  Pr  Pr10  1  0.490982  0.314746  0.904798  1
  Pr  Pr11  1  0.989425  0.184639  0.596653  1
  Pr  Pr12  1  0.511334  0.685312  0.402955  1
  Pr  Pr13  1  0.009718  0.815054  0.097064  1
  Pr  Pr14  1  0.510435  0.684941  0.096091  1
  Pr  Pr15  1  0.008090  0.816391  0.403108  1
  Pr  Pr16  1  0.490704  0.316301  0.596001  1
  Pr  Pr17  1  0.990598  0.184397  0.904464  1
  Sm  Sm18  1  0.329922  0.829249  0.876656  1
  Sm  Sm19  1  0.830174  0.671881  0.624573  1
  Sn  Sn20  1  0.328246  0.036633  0.039443  1
  Sn  Sn21  1  0.826493  0.464494  0.461241  1
  Sn  Sn22  1  0.673160  0.964036  0.538349  1
  Sn  Sn23  1  0.172855  0.535527  0.961716  1
  Sn  Sn24  1  0.668131  0.964802  0.961877  1
  Sn  Sn25  1  0.168668  0.536582  0.538090  1
  Sn  Sn26  1  0.329728  0.036443  0.460763  1
  Sn  Sn27  1  0.830795  0.461804  0.040210  1
  Sn  Sn28  1  0.528431  0.605572  0.750244  1
  Sn  Sn29  1  0.028239  0.895351  0.751173  1
  Sn  Sn30  1  0.469999  0.396388  0.249227  1
  Sn  Sn31  1  0.967632  0.104052  0.248917  1
  Sn  Sn32  1  0.290613  0.141861  0.750219  1
  Sn  Sn33  1  0.789166  0.358347  0.750083  1
  Sn  Sn34  1  0.713034  0.859054  0.249381  1
  Sn  Sn35  1  0.214365  0.640002  0.250255  1
