# generated using pymatgen
data_Ta5Mn4Nb7(Ga2C)4
_symmetry_space_group_name_H-M   'P 1'
_cell_length_a   8.26290323
_cell_length_b   8.26419263
_cell_length_c   8.27189718
_cell_angle_alpha   59.98410621
_cell_angle_beta   59.96608778
_cell_angle_gamma   59.97183068
_symmetry_Int_Tables_number   1
_chemical_formula_structural   Ta5Mn4Nb7(Ga2C)4
_chemical_formula_sum   'Ta5 Mn4 Nb7 Ga8 C4'
_cell_volume   399.17851575
_cell_formula_units_Z   1
loop_
 _symmetry_equiv_pos_site_id
 _symmetry_equiv_pos_as_xyz
  1  'x, y, z'
loop_
 _atom_site_type_symbol
 _atom_site_label
 _atom_site_symmetry_multiplicity
 _atom_site_fract_x
 _atom_site_fract_y
 _atom_site_fract_z
 _atom_site_occupancy
  Ta  Ta0  1  0.944336  0.556004  0.555885  1
  Ta  Ta1  1  0.556196  0.943760  0.944190  1
  Ta  Ta2  1  0.943664  0.943159  0.556767  1
  Ta  Ta3  1  0.695074  0.305170  0.695003  1
  Ta  Ta4  1  0.943276  0.556981  0.943214  1
  Mn  Mn5  1  0.125886  0.124351  0.125079  1
  Mn  Mn6  1  0.625665  0.124821  0.120870  1
  Mn  Mn7  1  0.122913  0.625043  0.126720  1
  Mn  Mn8  1  0.119664  0.127668  0.625195  1
  Nb  Nb9  1  0.556949  0.943086  0.556893  1
  Nb  Nb10  1  0.306184  0.693894  0.694398  1
  Nb  Nb11  1  0.694126  0.306030  0.306005  1
  Nb  Nb12  1  0.305203  0.694842  0.304941  1
  Nb  Nb13  1  0.695365  0.694856  0.305094  1
  Nb  Nb14  1  0.305867  0.305598  0.694442  1
  Nb  Nb15  1  0.555724  0.555873  0.944439  1
  Ga  Ga16  1  0.915497  0.912975  0.913757  1
  Ga  Ga17  1  0.992168  0.335956  0.334722  1
  Ga  Ga18  1  0.335894  0.992366  0.336969  1
  Ga  Ga19  1  0.334651  0.336819  0.992527  1
  Ga  Ga20  1  0.914416  0.257938  0.914781  1
  Ga  Ga21  1  0.913235  0.915241  0.257730  1
  Ga  Ga22  1  0.257390  0.914512  0.912731  1
  Ga  Ga23  1  0.336711  0.334416  0.336097  1
  C  C24  1  0.627708  0.622442  0.625145  1
  C  C25  1  0.122698  0.625785  0.625871  1
  C  C26  1  0.627096  0.124048  0.627085  1
  C  C27  1  0.626447  0.626366  0.123449  1
