# generated using pymatgen
data_Eu4YSn3
_symmetry_space_group_name_H-M   'P 1'
_cell_length_a   9.52033394
_cell_length_b   9.52033196
_cell_length_c   9.52033500
_cell_angle_alpha   96.91738911
_cell_angle_beta   96.91778171
_cell_angle_gamma   139.38642784
_symmetry_Int_Tables_number   1
_chemical_formula_structural   Eu4YSn3
_chemical_formula_sum   'Eu8 Y2 Sn6'
_cell_volume   526.79200219
_cell_formula_units_Z   2
loop_
 _symmetry_equiv_pos_site_id
 _symmetry_equiv_pos_as_xyz
  1  'x, y, z'
loop_
 _atom_site_type_symbol
 _atom_site_label
 _atom_site_symmetry_multiplicity
 _atom_site_fract_x
 _atom_site_fract_y
 _atom_site_fract_z
 _atom_site_occupancy
  Eu  Eu0  1  0.086556  0.215133  0.301598  1
  Eu  Eu1  1  0.913444  0.784867  0.698402  1
  Eu  Eu2  1  0.785150  0.086207  0.871402  1
  Eu  Eu3  1  0.413629  0.714321  0.128438  1
  Eu  Eu4  1  0.214850  0.913793  0.128598  1
  Eu  Eu5  1  0.586371  0.285679  0.871562  1
  Eu  Eu6  1  0.714357  0.586281  0.300743  1
  Eu  Eu7  1  0.285643  0.413719  0.699257  1
  Y  Y8  1  0.250448  0.750221  0.500237  1
  Y  Y9  1  0.749552  0.249779  0.499763  1
  Sn  Sn10  1  0.150639  0.650444  0.800752  1
  Sn  Sn11  1  0.849361  0.349556  0.199248  1
  Sn  Sn12  1  0.349311  0.150834  0.500170  1
  Sn  Sn13  1  0.650689  0.849166  0.499830  1
  Sn  Sn14  1  0.250796  0.250428  0.000050  1
  Sn  Sn15  1  0.749204  0.749572  0.999950  1
