# generated using pymatgen
data_K2Ba2IrO6
_symmetry_space_group_name_H-M   'P 1'
_cell_length_a   7.26683400
_cell_length_b   7.26683309
_cell_length_c   7.32364770
_cell_angle_alpha   91.23807150
_cell_angle_beta   91.23796782
_cell_angle_gamma   88.98434342
_symmetry_Int_Tables_number   1
_chemical_formula_structural   K2Ba2IrO6
_chemical_formula_sum   'K4 Ba4 Ir2 O12'
_cell_volume   386.50074664
_cell_formula_units_Z   2
loop_
 _symmetry_equiv_pos_site_id
 _symmetry_equiv_pos_as_xyz
  1  'x, y, z'
loop_
 _atom_site_type_symbol
 _atom_site_label
 _atom_site_symmetry_multiplicity
 _atom_site_fract_x
 _atom_site_fract_y
 _atom_site_fract_z
 _atom_site_occupancy
  K  K0  1  0.742220  0.257775  0.999996  1
  K  K1  1  0.252253  0.747745  0.500000  1
  K  K2  1  0.748194  0.609445  0.361892  1
  K  K3  1  0.390556  0.251806  0.638110  1
  Ba  Ba4  1  0.108697  0.891305  0.999999  1
  Ba  Ba5  1  0.610876  0.746589  0.858865  1
  Ba  Ba6  1  0.887135  0.112864  0.500001  1
  Ba  Ba7  1  0.253411  0.389124  0.141134  1
  Ir  Ir8  1  0.499315  0.996140  0.251920  1
  Ir  Ir9  1  0.003861  0.500686  0.748080  1
  O  O10  1  0.569384  0.250729  0.308830  1
  O  O11  1  0.436641  0.065797  0.995936  1
  O  O12  1  0.756503  0.940385  0.175734  1
  O  O13  1  0.260900  0.575629  0.814831  1
  O  O14  1  0.943472  0.763207  0.685545  1
  O  O15  1  0.071517  0.439192  0.494648  1
  O  O16  1  0.424373  0.739100  0.185168  1
  O  O17  1  0.560807  0.928483  0.505352  1
  O  O18  1  0.236794  0.056529  0.314455  1
  O  O19  1  0.749272  0.430616  0.691170  1
  O  O20  1  0.059616  0.243497  0.824267  1
  O  O21  1  0.934204  0.563359  0.004065  1
