# generated using pymatgen
data_Pr18Sm2Si15Cl
_symmetry_space_group_name_H-M   'P 1'
_cell_length_a   7.96369529
_cell_length_b   7.89252302
_cell_length_c   15.30387240
_cell_angle_alpha   89.53598219
_cell_angle_beta   89.16140625
_cell_angle_gamma   90.77373839
_symmetry_Int_Tables_number   1
_chemical_formula_structural   Pr18Sm2Si15Cl
_chemical_formula_sum   'Pr18 Sm2 Si15 Cl1'
_cell_volume   961.68037926
_cell_formula_units_Z   1
loop_
 _symmetry_equiv_pos_site_id
 _symmetry_equiv_pos_as_xyz
  1  'x, y, z'
loop_
 _atom_site_type_symbol
 _atom_site_label
 _atom_site_symmetry_multiplicity
 _atom_site_fract_x
 _atom_site_fract_y
 _atom_site_fract_z
 _atom_site_occupancy
  Pr  Pr0  1  0.796419  0.189468  0.752953  1
  Pr  Pr1  1  0.687812  0.687510  0.497742  1
  Pr  Pr2  1  0.381761  0.003127  0.441983  1
  Pr  Pr3  1  0.499980  0.861196  0.700804  1
  Pr  Pr4  1  0.510736  0.121957  0.196944  1
  Pr  Pr5  1  0.874007  0.483830  0.300017  1
  Pr  Pr6  1  0.123371  0.518272  0.801865  1
  Pr  Pr7  1  0.634108  0.986797  0.952539  1
  Pr  Pr8  1  0.996149  0.382586  0.546554  1
  Pr  Pr9  1  0.994447  0.623775  0.052418  1
  Pr  Pr10  1  0.141766  0.990574  0.873528  1
  Pr  Pr11  1  0.518318  0.630711  0.125182  1
  Pr  Pr12  1  0.474672  0.362220  0.631299  1
  Pr  Pr13  1  0.636056  0.520369  0.876368  1
  Pr  Pr14  1  0.366466  0.477243  0.375834  1
  Pr  Pr15  1  0.871197  0.019083  0.377104  1
  Pr  Pr16  1  0.984486  0.126218  0.123621  1
  Pr  Pr17  1  0.018991  0.873780  0.621715  1
  Sm  Sm18  1  0.312018  0.310575  0.998968  1
  Sm  Sm19  1  0.186365  0.807085  0.249448  1
  Si  Si20  1  0.333701  0.697891  0.948947  1
  Si  Si21  1  0.660731  0.303371  0.453871  1
  Si  Si22  1  0.701733  0.335573  0.050910  1
  Si  Si23  1  0.303089  0.665399  0.551679  1
  Si  Si24  1  0.805746  0.830679  0.203153  1
  Si  Si25  1  0.168402  0.191933  0.296202  1
  Si  Si26  1  0.845350  0.804354  0.797672  1
  Si  Si27  1  0.288825  0.923183  0.058733  1
  Si  Si28  1  0.574418  0.784464  0.308179  1
  Si  Si29  1  0.449718  0.208157  0.824629  1
  Si  Si30  1  0.791058  0.578815  0.687743  1
  Si  Si31  1  0.212160  0.424136  0.189864  1
  Si  Si32  1  0.704637  0.074129  0.561153  1
  Si  Si33  1  0.929872  0.291730  0.940500  1
  Si  Si34  1  0.077205  0.711938  0.440195  1
  Cl  Cl35  1  0.144228  0.197873  0.689687  1
