# generated using pymatgen
data_Tb3ErTm4(CdPt)2
_symmetry_space_group_name_H-M   'P 1'
_cell_length_a   9.61661973
_cell_length_b   9.61661950
_cell_length_c   9.59939400
_cell_angle_alpha   60.05923549
_cell_angle_beta   60.05923626
_cell_angle_gamma   60.14885893
_symmetry_Int_Tables_number   1
_chemical_formula_structural   Tb3ErTm4(CdPt)2
_chemical_formula_sum   'Tb6 Er2 Tm8 Cd4 Pt4'
_cell_volume   628.99767144
_cell_formula_units_Z   2
loop_
 _symmetry_equiv_pos_site_id
 _symmetry_equiv_pos_as_xyz
  1  'x, y, z'
loop_
 _atom_site_type_symbol
 _atom_site_label
 _atom_site_symmetry_multiplicity
 _atom_site_fract_x
 _atom_site_fract_y
 _atom_site_fract_z
 _atom_site_occupancy
  Tb  Tb0  1  0.936993  0.563175  0.563439  1
  Tb  Tb1  1  0.563175  0.936993  0.936393  1
  Tb  Tb2  1  0.563175  0.936993  0.563439  1
  Tb  Tb3  1  0.936993  0.563175  0.936393  1
  Tb  Tb4  1  0.564586  0.564586  0.935414  1
  Tb  Tb5  1  0.938117  0.938117  0.561883  1
  Er  Er6  1  0.351753  0.351753  0.350467  1
  Er  Er7  1  0.351753  0.351753  0.946028  1
  Tm  Tm8  1  0.353963  0.941761  0.352139  1
  Tm  Tm9  1  0.941761  0.353963  0.352139  1
  Tm  Tm10  1  0.811864  0.188319  0.188865  1
  Tm  Tm11  1  0.188319  0.811864  0.810952  1
  Tm  Tm12  1  0.188319  0.811864  0.188865  1
  Tm  Tm13  1  0.811864  0.188319  0.810952  1
  Tm  Tm14  1  0.188915  0.188915  0.811085  1
  Tm  Tm15  1  0.811777  0.811777  0.188223  1
  Cd  Cd16  1  0.580980  0.580980  0.581329  1
  Cd  Cd17  1  0.580980  0.580980  0.256711  1
  Cd  Cd18  1  0.581136  0.255781  0.581541  1
  Cd  Cd19  1  0.255781  0.581136  0.581541  1
  Pt  Pt20  1  0.142531  0.142531  0.145486  1
  Pt  Pt21  1  0.142531  0.142531  0.569455  1
  Pt  Pt22  1  0.141122  0.571615  0.143633  1
  Pt  Pt23  1  0.571615  0.141122  0.143633  1
