# generated using pymatgen
data_LiLu3Ag2Sn3
_symmetry_space_group_name_H-M   'P 1'
_cell_length_a   7.25939852
_cell_length_b   7.25939857
_cell_length_c   4.49230300
_cell_angle_alpha   90.00000000
_cell_angle_beta   90.00000000
_cell_angle_gamma   120.04350613
_symmetry_Int_Tables_number   1
_chemical_formula_structural   LiLu3Ag2Sn3
_chemical_formula_sum   'Li1 Lu3 Ag2 Sn3'
_cell_volume   204.93228987
_cell_formula_units_Z   1
loop_
 _symmetry_equiv_pos_site_id
 _symmetry_equiv_pos_as_xyz
  1  'x, y, z'
loop_
 _atom_site_type_symbol
 _atom_site_label
 _atom_site_symmetry_multiplicity
 _atom_site_fract_x
 _atom_site_fract_y
 _atom_site_fract_z
 _atom_site_occupancy
  Li  Li0  1  0.231185  0.231185  0.500000  1
  Lu  Lu1  1  0.997549  0.435263  0.000000  1
  Lu  Lu2  1  0.574076  0.574076  0.000000  1
  Lu  Lu3  1  0.435263  0.997549  0.000000  1
  Ag  Ag4  1  0.757646  0.001626  0.500000  1
  Ag  Ag5  1  0.001626  0.757646  0.500000  1
  Sn  Sn6  1  0.332669  0.657374  0.500000  1
  Sn  Sn7  1  0.012612  0.012612  0.000000  1
  Sn  Sn8  1  0.657374  0.332669  0.500000  1
