# generated using pymatgen
data_LuInTeO6
_symmetry_space_group_name_H-M   'P 1'
_cell_length_a   9.02681700
_cell_length_b   9.02681789
_cell_length_c   5.01837500
_cell_angle_alpha   90.00000000
_cell_angle_beta   90.00000000
_cell_angle_gamma   120.00000773
_symmetry_Int_Tables_number   1
_chemical_formula_structural   LuInTeO6
_chemical_formula_sum   'Lu3 In3 Te3 O18'
_cell_volume   354.13025162
_cell_formula_units_Z   3
loop_
 _symmetry_equiv_pos_site_id
 _symmetry_equiv_pos_as_xyz
  1  'x, y, z'
loop_
 _atom_site_type_symbol
 _atom_site_label
 _atom_site_symmetry_multiplicity
 _atom_site_fract_x
 _atom_site_fract_y
 _atom_site_fract_z
 _atom_site_occupancy
  Lu  Lu0  1  0.625802  0.000000  0.000000  1
  Lu  Lu1  1  0.000000  0.625802  0.000000  1
  Lu  Lu2  1  0.374198  0.374198  0.000000  1
  In  In3  1  0.291187  0.000000  0.500000  1
  In  In4  1  0.000000  0.291187  0.500000  1
  In  In5  1  0.708813  0.708813  0.500000  1
  Te  Te6  1  0.000000  0.000000  0.000000  1
  Te  Te7  1  0.333333  0.666667  0.505983  1
  Te  Te8  1  0.666667  0.333333  0.494017  1
  O  O9  1  0.087659  0.880742  0.786011  1
  O  O10  1  0.119258  0.206917  0.786011  1
  O  O11  1  0.793083  0.912341  0.786011  1
  O  O12  1  0.206917  0.119258  0.213989  1
  O  O13  1  0.912341  0.793083  0.213989  1
  O  O14  1  0.880742  0.087659  0.213989  1
  O  O15  1  0.458915  0.588666  0.726661  1
  O  O16  1  0.411334  0.870248  0.726661  1
  O  O17  1  0.129752  0.541085  0.726661  1
  O  O18  1  0.870248  0.411334  0.273339  1
  O  O19  1  0.541085  0.129752  0.273339  1
  O  O20  1  0.588666  0.458915  0.273339  1
  O  O21  1  0.221364  0.761208  0.286194  1
  O  O22  1  0.238792  0.460155  0.286194  1
  O  O23  1  0.539845  0.778636  0.286194  1
  O  O24  1  0.460155  0.238792  0.713806  1
  O  O25  1  0.778636  0.539845  0.713806  1
  O  O26  1  0.761208  0.221364  0.713806  1
