# generated using pymatgen
data_PrErPa2(Al3Rh)6
_symmetry_space_group_name_H-M   'P 1'
_cell_length_a   7.61077320
_cell_length_b   7.61120952
_cell_length_c   9.41146600
_cell_angle_alpha   90.00000000
_cell_angle_beta   90.00000000
_cell_angle_gamma   119.56062636
_symmetry_Int_Tables_number   1
_chemical_formula_structural   PrErPa2(Al3Rh)6
_chemical_formula_sum   'Pr1 Er1 Pa2 Al18 Rh6'
_cell_volume   474.21599139
_cell_formula_units_Z   1
loop_
 _symmetry_equiv_pos_site_id
 _symmetry_equiv_pos_as_xyz
  1  'x, y, z'
loop_
 _atom_site_type_symbol
 _atom_site_label
 _atom_site_symmetry_multiplicity
 _atom_site_fract_x
 _atom_site_fract_y
 _atom_site_fract_z
 _atom_site_occupancy
  Pr  Pr0  1  0.669776  0.993435  0.750000  1
  Er  Er1  1  0.328800  0.005967  0.250000  1
  Pa  Pa2  1  0.997320  0.671306  0.750000  1
  Pa  Pa3  1  0.002011  0.328101  0.250000  1
  Al  Al4  1  0.133096  0.127281  0.750000  1
  Al  Al5  1  0.870787  0.873148  0.250000  1
  Al  Al6  1  0.002783  0.334431  0.574916  1
  Al  Al7  1  0.000621  0.668044  0.421803  1
  Al  Al8  1  0.000621  0.668044  0.078197  1
  Al  Al9  1  0.335778  0.003117  0.928131  1
  Al  Al10  1  0.002783  0.334431  0.925084  1
  Al  Al11  1  0.660738  0.996908  0.078656  1
  Al  Al12  1  0.660738  0.996908  0.421344  1
  Al  Al13  1  0.335778  0.003117  0.571869  1
  Al  Al14  1  0.334568  0.332906  0.054572  1
  Al  Al15  1  0.665609  0.665179  0.952321  1
  Al  Al16  1  0.665609  0.665179  0.547679  1
  Al  Al17  1  0.334568  0.332906  0.445428  1
  Al  Al18  1  0.337912  0.545888  0.750000  1
  Al  Al19  1  0.659756  0.450451  0.250000  1
  Al  Al20  1  0.550461  0.345063  0.750000  1
  Al  Al21  1  0.448030  0.656777  0.250000  1
  Rh  Rh22  1  0.675100  0.329734  0.497940  1
  Rh  Rh23  1  0.324328  0.670332  0.499187  1
  Rh  Rh24  1  0.324328  0.670332  0.000813  1
  Rh  Rh25  1  0.675100  0.329734  0.002060  1
  Rh  Rh26  1  0.001500  0.000642  0.497835  1
  Rh  Rh27  1  0.001500  0.000642  0.002165  1
