# generated using pymatgen
data_Dy4ZrSc3Pt4
_symmetry_space_group_name_H-M   'P 1'
_cell_length_a   4.67612600
_cell_length_b   7.01437917
_cell_length_c   8.34760961
_cell_angle_alpha   90.56291849
_cell_angle_beta   90.00000000
_cell_angle_gamma   90.00000000
_symmetry_Int_Tables_number   1
_chemical_formula_structural   Dy4ZrSc3Pt4
_chemical_formula_sum   'Dy4 Zr1 Sc3 Pt4'
_cell_volume   273.78938940
_cell_formula_units_Z   1
loop_
 _symmetry_equiv_pos_site_id
 _symmetry_equiv_pos_as_xyz
  1  'x, y, z'
loop_
 _atom_site_type_symbol
 _atom_site_label
 _atom_site_symmetry_multiplicity
 _atom_site_fract_x
 _atom_site_fract_y
 _atom_site_fract_z
 _atom_site_occupancy
  Dy  Dy0  1  0.250000  0.016325  0.677486  1
  Dy  Dy1  1  0.250000  0.517251  0.824133  1
  Dy  Dy2  1  0.750000  0.981648  0.321863  1
  Dy  Dy3  1  0.750000  0.481934  0.174506  1
  Zr  Zr4  1  0.750000  0.358767  0.574580  1
  Sc  Sc5  1  0.250000  0.142590  0.074510  1
  Sc  Sc6  1  0.250000  0.642423  0.423601  1
  Sc  Sc7  1  0.750000  0.859067  0.927052  1
  Pt  Pt8  1  0.250000  0.259469  0.407223  1
  Pt  Pt9  1  0.250000  0.756564  0.099165  1
  Pt  Pt10  1  0.750000  0.741578  0.596059  1
  Pt  Pt11  1  0.750000  0.242384  0.899821  1
