# generated using pymatgen
data_Ba2Fe2NiN3
_symmetry_space_group_name_H-M   'P 1'
_cell_length_a   6.76510331
_cell_length_b   6.76510287
_cell_length_c   6.63603292
_cell_angle_alpha   88.16965498
_cell_angle_beta   88.16965506
_cell_angle_gamma   118.19357457
_symmetry_Int_Tables_number   1
_chemical_formula_structural   Ba2Fe2NiN3
_chemical_formula_sum   'Ba4 Fe4 Ni2 N6'
_cell_volume   267.15757130
_cell_formula_units_Z   2
loop_
 _symmetry_equiv_pos_site_id
 _symmetry_equiv_pos_as_xyz
  1  'x, y, z'
loop_
 _atom_site_type_symbol
 _atom_site_label
 _atom_site_symmetry_multiplicity
 _atom_site_fract_x
 _atom_site_fract_y
 _atom_site_fract_z
 _atom_site_occupancy
  Ba  Ba0  1  0.834082  0.672983  0.901766  1
  Ba  Ba1  1  0.327017  0.165918  0.598234  1
  Ba  Ba2  1  0.165918  0.327017  0.098234  1
  Ba  Ba3  1  0.672983  0.834082  0.401766  1
  Fe  Fe4  1  0.553751  0.149015  0.108821  1
  Fe  Fe5  1  0.446249  0.850985  0.891179  1
  Fe  Fe6  1  0.850985  0.446249  0.391179  1
  Fe  Fe7  1  0.149015  0.553751  0.608821  1
  Ni  Ni8  1  0.805336  0.194664  0.750000  1
  Ni  Ni9  1  0.194664  0.805336  0.250000  1
  N  N10  1  0.387184  0.612816  0.750000  1
  N  N11  1  0.612816  0.387184  0.250000  1
  N  N12  1  0.024543  0.720071  0.493624  1
  N  N13  1  0.720071  0.024543  0.993624  1
  N  N14  1  0.975457  0.279929  0.506376  1
  N  N15  1  0.279929  0.975457  0.006376  1
