# generated using pymatgen
data_Y7Ho9MgCo4Ag3
_symmetry_space_group_name_H-M   'P 1'
_cell_length_a   9.44767897
_cell_length_b   9.44320678
_cell_length_c   9.42936900
_cell_angle_alpha   60.04846568
_cell_angle_beta   60.06409264
_cell_angle_gamma   60.14055480
_symmetry_Int_Tables_number   1
_chemical_formula_structural   Y7Ho9MgCo4Ag3
_chemical_formula_sum   'Y7 Ho9 Mg1 Co4 Ag3'
_cell_volume   595.99298353
_cell_formula_units_Z   1
loop_
 _symmetry_equiv_pos_site_id
 _symmetry_equiv_pos_as_xyz
  1  'x, y, z'
loop_
 _atom_site_type_symbol
 _atom_site_label
 _atom_site_symmetry_multiplicity
 _atom_site_fract_x
 _atom_site_fract_y
 _atom_site_fract_z
 _atom_site_occupancy
  Y  Y0  1  0.808747  0.811656  0.189798  1
  Y  Y1  1  0.936891  0.561169  0.562813  1
  Y  Y2  1  0.561765  0.937707  0.937405  1
  Y  Y3  1  0.561765  0.937707  0.563123  1
  Y  Y4  1  0.936891  0.561169  0.939128  1
  Y  Y5  1  0.561001  0.561782  0.938608  1
  Y  Y6  1  0.937293  0.938837  0.561935  1
  Ho  Ho7  1  0.345453  0.345131  0.344798  1
  Ho  Ho8  1  0.345453  0.345131  0.964618  1
  Ho  Ho9  1  0.345324  0.965825  0.344425  1
  Ho  Ho10  1  0.953263  0.349456  0.348640  1
  Ho  Ho11  1  0.808890  0.188736  0.189746  1
  Ho  Ho12  1  0.185169  0.813522  0.814503  1
  Ho  Ho13  1  0.185169  0.813522  0.186806  1
  Ho  Ho14  1  0.808890  0.188736  0.812628  1
  Ho  Ho15  1  0.184329  0.185434  0.815118  1
  Mg  Mg16  1  0.291605  0.569096  0.569649  1
  Co  Co17  1  0.137818  0.142938  0.142037  1
  Co  Co18  1  0.137818  0.142938  0.577208  1
  Co  Co19  1  0.141823  0.575640  0.141268  1
  Co  Co20  1  0.575131  0.144968  0.139950  1
  Ag  Ag21  1  0.583099  0.582746  0.581801  1
  Ag  Ag22  1  0.583099  0.582746  0.252354  1
  Ag  Ag23  1  0.583313  0.253405  0.581641  1
