# generated using pymatgen
data_Nb4Fe3CoSi7
_symmetry_space_group_name_H-M   'P 1'
_cell_length_a   9.26047642
_cell_length_b   9.26047681
_cell_length_c   9.25598550
_cell_angle_alpha   94.20517123
_cell_angle_beta   94.20516878
_cell_angle_gamma   148.58505853
_symmetry_Int_Tables_number   1
_chemical_formula_structural   Nb4Fe3CoSi7
_chemical_formula_sum   'Nb8 Fe6 Co2 Si14'
_cell_volume   398.26780775
_cell_formula_units_Z   2
loop_
 _symmetry_equiv_pos_site_id
 _symmetry_equiv_pos_as_xyz
  1  'x, y, z'
loop_
 _atom_site_type_symbol
 _atom_site_label
 _atom_site_symmetry_multiplicity
 _atom_site_fract_x
 _atom_site_fract_y
 _atom_site_fract_z
 _atom_site_occupancy
  Nb  Nb0  1  0.134862  0.134862  0.269723  1
  Nb  Nb1  1  0.865138  0.865138  0.730277  1
  Nb  Nb2  1  0.865376  0.134624  0.000000  1
  Nb  Nb3  1  0.134624  0.865376  0.000000  1
  Nb  Nb4  1  0.499276  0.691500  0.191127  1
  Nb  Nb5  1  0.500372  0.308148  0.808873  1
  Nb  Nb6  1  0.308500  0.500724  0.808873  1
  Nb  Nb7  1  0.691852  0.499628  0.191127  1
  Fe  Fe8  1  0.101073  0.898927  0.500000  1
  Fe  Fe9  1  0.398927  0.601073  0.500000  1
  Fe  Fe10  1  0.600202  0.399798  0.500000  1
  Fe  Fe11  1  0.899798  0.100202  0.500000  1
  Fe  Fe12  1  0.899487  0.399487  0.798973  1
  Fe  Fe13  1  0.600513  0.100513  0.201027  1
  Co  Co14  1  0.399162  0.899162  0.798324  1
  Co  Co15  1  0.100838  0.600838  0.201676  1
  Si  Si16  1  0.291450  0.291450  0.582900  1
  Si  Si17  1  0.708550  0.708550  0.417100  1
  Si  Si18  1  0.709161  0.290839  0.000000  1
  Si  Si19  1  0.290839  0.709161  0.000000  1
  Si  Si20  1  0.997189  0.295285  0.295722  1
  Si  Si21  1  0.999564  0.701467  0.704278  1
  Si  Si22  1  0.704715  0.002811  0.704278  1
  Si  Si23  1  0.298533  0.000436  0.295722  1
  Si  Si24  1  0.502522  0.908200  0.405939  1
  Si  Si25  1  0.502261  0.096583  0.594061  1
  Si  Si26  1  0.091800  0.497478  0.594061  1
  Si  Si27  1  0.903417  0.497739  0.405939  1
  Si  Si28  1  0.750920  0.750920  0.000000  1
  Si  Si29  1  0.249080  0.249080  0.000000  1
