# generated using pymatgen
data_ClO3F
_symmetry_space_group_name_H-M   'P 1'
_cell_length_a   4.48866431
_cell_length_b   5.17147746
_cell_length_c   8.07449379
_cell_angle_alpha   92.08751959
_cell_angle_beta   73.86192356
_cell_angle_gamma   115.72057271
_symmetry_Int_Tables_number   1
_chemical_formula_structural   ClO3F
_chemical_formula_sum   'Cl2 O6 F2'
_cell_volume   161.43909042
_cell_formula_units_Z   2
loop_
 _symmetry_equiv_pos_site_id
 _symmetry_equiv_pos_as_xyz
  1  'x, y, z'
loop_
 _atom_site_type_symbol
 _atom_site_label
 _atom_site_symmetry_multiplicity
 _atom_site_fract_x
 _atom_site_fract_y
 _atom_site_fract_z
 _atom_site_occupancy
  Cl  Cl0  1  0.477331  0.778011  0.244748  1
  Cl  Cl1  1  0.555934  0.278011  0.744748  1
  O  O2  1  0.822920  0.997008  0.204212  1
  O  O3  1  0.469876  0.497008  0.704212  1
  O  O4  1  0.340055  0.690151  0.102739  1
  O  O5  1  0.246390  0.797921  0.399915  1
  O  O6  1  0.651616  0.297921  0.899915  1
  O  O7  1  0.747356  0.190151  0.602739  1
  F  F8  1  0.521469  0.486908  0.298385  1
  F  F9  1  0.167054  0.986908  0.798385  1
