# generated using pymatgen
data_Ho16Sc4Ir11Au
_symmetry_space_group_name_H-M   'P 1'
_cell_length_a   10.80021065
_cell_length_b   10.80021065
_cell_length_c   6.24918028
_cell_angle_alpha   89.97611158
_cell_angle_beta   89.97611158
_cell_angle_gamma   89.76646863
_symmetry_Int_Tables_number   1
_chemical_formula_structural   Ho16Sc4Ir11Au
_chemical_formula_sum   'Ho16 Sc4 Ir11 Au1'
_cell_volume   728.92664165
_cell_formula_units_Z   1
loop_
 _symmetry_equiv_pos_site_id
 _symmetry_equiv_pos_as_xyz
  1  'x, y, z'
loop_
 _atom_site_type_symbol
 _atom_site_label
 _atom_site_symmetry_multiplicity
 _atom_site_fract_x
 _atom_site_fract_y
 _atom_site_fract_z
 _atom_site_occupancy
  Ho  Ho0  1  0.287417  0.085763  0.376763  1
  Ho  Ho1  1  0.289669  0.913591  0.876190  1
  Ho  Ho2  1  0.706784  0.082968  0.867278  1
  Ho  Ho3  1  0.708516  0.907526  0.379902  1
  Ho  Ho4  1  0.585682  0.787957  0.878528  1
  Ho  Ho5  1  0.579730  0.212850  0.378369  1
  Ho  Ho6  1  0.413007  0.788325  0.377117  1
  Ho  Ho7  1  0.412836  0.211496  0.878021  1
  Ho  Ho8  1  0.212043  0.414318  0.621472  1
  Ho  Ho9  1  0.211675  0.586993  0.122883  1
  Ho  Ho10  1  0.787150  0.420270  0.121631  1
  Ho  Ho11  1  0.788504  0.587164  0.621979  1
  Ho  Ho12  1  0.914237  0.712583  0.123237  1
  Ho  Ho13  1  0.917032  0.293216  0.632722  1
  Ho  Ho14  1  0.086409  0.710331  0.623810  1
  Ho  Ho15  1  0.092474  0.291484  0.120098  1
  Sc  Sc16  1  0.004524  0.995006  0.504262  1
  Sc  Sc17  1  0.004994  0.995476  0.995738  1
  Sc  Sc18  1  0.499303  0.500198  0.999353  1
  Sc  Sc19  1  0.499802  0.500697  0.500647  1
  Ir  Ir20  1  0.852344  0.853426  0.750077  1
  Ir  Ir21  1  0.146574  0.147656  0.749923  1
  Ir  Ir22  1  0.148365  0.851635  0.250000  1
  Ir  Ir23  1  0.648858  0.351142  0.750000  1
  Ir  Ir24  1  0.647865  0.648118  0.250243  1
  Ir  Ir25  1  0.351882  0.352135  0.249757  1
  Ir  Ir26  1  0.351877  0.648123  0.750000  1
  Ir  Ir27  1  0.500738  0.000080  0.123656  1
  Ir  Ir28  1  0.499965  0.000220  0.620275  1
  Ir  Ir29  1  0.999780  0.500035  0.879725  1
  Ir  Ir30  1  0.999920  0.499262  0.376344  1
  Au  Au31  1  0.850044  0.149956  0.250000  1
