# generated using pymatgen
data_HfPa5(AlIr)6
_symmetry_space_group_name_H-M   'P 1'
_cell_length_a   7.04032000
_cell_length_b   7.04047280
_cell_length_c   8.02710200
_cell_angle_alpha   90.00000000
_cell_angle_beta   90.00000000
_cell_angle_gamma   120.00859780
_symmetry_Int_Tables_number   1
_chemical_formula_structural   HfPa5(AlIr)6
_chemical_formula_sum   'Hf1 Pa5 Al6 Ir6'
_cell_volume   344.54504215
_cell_formula_units_Z   1
loop_
 _symmetry_equiv_pos_site_id
 _symmetry_equiv_pos_as_xyz
  1  'x, y, z'
loop_
 _atom_site_type_symbol
 _atom_site_label
 _atom_site_symmetry_multiplicity
 _atom_site_fract_x
 _atom_site_fract_y
 _atom_site_fract_z
 _atom_site_occupancy
  Hf  Hf0  1  0.401405  0.401316  0.750000  1
  Pa  Pa1  1  0.576621  0.995258  0.750000  1
  Pa  Pa2  1  0.995276  0.576677  0.750000  1
  Pa  Pa3  1  0.004261  0.585782  0.250000  1
  Pa  Pa4  1  0.585839  0.004300  0.250000  1
  Pa  Pa5  1  0.422514  0.422613  0.250000  1
  Al  Al6  1  0.757516  0.757467  0.992371  1
  Al  Al7  1  0.239165  0.005134  0.998809  1
  Al  Al8  1  0.005143  0.239284  0.998739  1
  Al  Al9  1  0.757516  0.757467  0.507629  1
  Al  Al10  1  0.239165  0.005134  0.501191  1
  Al  Al11  1  0.005143  0.239284  0.501261  1
  Ir  Ir12  1  0.004152  0.004148  0.750000  1
  Ir  Ir13  1  0.999915  0.000018  0.250000  1
  Ir  Ir14  1  0.669364  0.333721  0.996762  1
  Ir  Ir15  1  0.669364  0.333721  0.503238  1
  Ir  Ir16  1  0.333820  0.669339  0.503371  1
  Ir  Ir17  1  0.333820  0.669339  0.996630  1
