# generated using pymatgen
data_La2Mg(SiPd2)6
_symmetry_space_group_name_H-M   'P 1'
_cell_length_a   10.20666400
_cell_length_b   10.20666373
_cell_length_c   3.90960600
_cell_angle_alpha   90.00000000
_cell_angle_beta   90.00000000
_cell_angle_gamma   120.00000088
_symmetry_Int_Tables_number   1
_chemical_formula_structural   La2Mg(SiPd2)6
_chemical_formula_sum   'La2 Mg1 Si6 Pd12'
_cell_volume   352.72094165
_cell_formula_units_Z   1
loop_
 _symmetry_equiv_pos_site_id
 _symmetry_equiv_pos_as_xyz
  1  'x, y, z'
loop_
 _atom_site_type_symbol
 _atom_site_label
 _atom_site_symmetry_multiplicity
 _atom_site_fract_x
 _atom_site_fract_y
 _atom_site_fract_z
 _atom_site_occupancy
  La  La0  1  0.666667  0.333333  0.246377  1
  La  La1  1  0.000000  0.000000  0.752189  1
  Mg  Mg2  1  0.333333  0.666667  0.456242  1
  Si  Si3  1  0.733718  0.779731  0.254605  1
  Si  Si4  1  0.046012  0.266282  0.254605  1
  Si  Si5  1  0.220269  0.953988  0.254605  1
  Si  Si6  1  0.932224  0.554631  0.744485  1
  Si  Si7  1  0.622405  0.067776  0.744485  1
  Si  Si8  1  0.445369  0.377595  0.744485  1
  Pd  Pd9  1  0.774986  0.049064  0.251412  1
  Pd  Pd10  1  0.274077  0.225014  0.251412  1
  Pd  Pd11  1  0.950936  0.725923  0.251412  1
  Pd  Pd12  1  0.892093  0.282638  0.747672  1
  Pd  Pd13  1  0.390543  0.107907  0.747672  1
  Pd  Pd14  1  0.717362  0.609457  0.747672  1
  Pd  Pd15  1  0.490515  0.543118  0.242158  1
  Pd  Pd16  1  0.052603  0.509485  0.242158  1
  Pd  Pd17  1  0.456882  0.947397  0.242158  1
  Pd  Pd18  1  0.179945  0.786371  0.758570  1
  Pd  Pd19  1  0.606426  0.820055  0.758570  1
  Pd  Pd20  1  0.213629  0.393574  0.758570  1
