# generated using pymatgen
data_Pr3Cd3Ge2Pd
_symmetry_space_group_name_H-M   'P 1'
_cell_length_a   7.47682200
_cell_length_b   7.47682131
_cell_length_c   4.47229700
_cell_angle_alpha   90.00000000
_cell_angle_beta   90.00000000
_cell_angle_gamma   120.00000303
_symmetry_Int_Tables_number   1
_chemical_formula_structural   Pr3Cd3Ge2Pd
_chemical_formula_sum   'Pr3 Cd3 Ge2 Pd1'
_cell_volume   216.51864400
_cell_formula_units_Z   1
loop_
 _symmetry_equiv_pos_site_id
 _symmetry_equiv_pos_as_xyz
  1  'x, y, z'
loop_
 _atom_site_type_symbol
 _atom_site_label
 _atom_site_symmetry_multiplicity
 _atom_site_fract_x
 _atom_site_fract_y
 _atom_site_fract_z
 _atom_site_occupancy
  Pr  Pr0  1  0.409537  0.409537  0.500000  1
  Pr  Pr1  1  0.000000  0.590463  0.500000  1
  Pr  Pr2  1  0.590463  0.000000  0.500000  1
  Cd  Cd3  1  0.756634  0.756634  0.000000  1
  Cd  Cd4  1  0.243366  0.000000  0.000000  1
  Cd  Cd5  1  0.000000  0.243366  0.000000  1
  Ge  Ge6  1  0.666667  0.333333  0.000000  1
  Ge  Ge7  1  0.333333  0.666667  0.000000  1
  Pd  Pd8  1  0.000000  0.000000  0.500000  1
