# generated using pymatgen
data_Sc4U2(MnCo)3
_symmetry_space_group_name_H-M   'P 1'
_cell_length_a   5.18967473
_cell_length_b   4.80643134
_cell_length_c   8.59054173
_cell_angle_alpha   89.99999711
_cell_angle_beta   90.48523806
_cell_angle_gamma   117.58581689
_symmetry_Int_Tables_number   1
_chemical_formula_structural   Sc4U2(MnCo)3
_chemical_formula_sum   'Sc4 U2 Mn3 Co3'
_cell_volume   189.91238728
_cell_formula_units_Z   1
loop_
 _symmetry_equiv_pos_site_id
 _symmetry_equiv_pos_as_xyz
  1  'x, y, z'
loop_
 _atom_site_type_symbol
 _atom_site_label
 _atom_site_symmetry_multiplicity
 _atom_site_fract_x
 _atom_site_fract_y
 _atom_site_fract_z
 _atom_site_occupancy
  Sc  Sc0  1  0.331457  0.641178  0.059380  1
  Sc  Sc1  1  0.663882  0.304975  0.559657  1
  Sc  Sc2  1  0.668543  0.309720  0.940620  1
  Sc  Sc3  1  0.336118  0.641094  0.440343  1
  U  U4  1  0.872204  0.699353  0.256822  1
  U  U5  1  0.127796  0.827149  0.743178  1
  Mn  Mn6  1  0.000000  0.970850  0.500000  1
  Mn  Mn7  1  0.851455  0.230812  0.251378  1
  Mn  Mn8  1  0.148545  0.379357  0.748622  1
  Co  Co9  1  0.000000  0.979894  0.000000  1
  Co  Co10  1  0.652720  0.834170  0.752248  1
  Co  Co11  1  0.347280  0.181450  0.247752  1
