# generated using pymatgen
data_Sr4CoCu(ReN4)2
_symmetry_space_group_name_H-M   'P 1'
_cell_length_a   5.86655400
_cell_length_b   6.30761777
_cell_length_c   7.27452067
_cell_angle_alpha   69.37230523
_cell_angle_beta   90.00000000
_cell_angle_gamma   90.00000000
_symmetry_Int_Tables_number   1
_chemical_formula_structural   Sr4CoCu(ReN4)2
_chemical_formula_sum   'Sr4 Co1 Cu1 Re2 N8'
_cell_volume   251.92851795
_cell_formula_units_Z   1
loop_
 _symmetry_equiv_pos_site_id
 _symmetry_equiv_pos_as_xyz
  1  'x, y, z'
loop_
 _atom_site_type_symbol
 _atom_site_label
 _atom_site_symmetry_multiplicity
 _atom_site_fract_x
 _atom_site_fract_y
 _atom_site_fract_z
 _atom_site_occupancy
  Sr  Sr0  1  0.250000  0.266113  0.056280  1
  Sr  Sr1  1  0.750000  0.733388  0.940264  1
  Sr  Sr2  1  0.750000  0.829515  0.408366  1
  Sr  Sr3  1  0.250000  0.178557  0.583608  1
  Co  Co4  1  0.750000  0.349265  0.383854  1
  Cu  Cu5  1  0.250000  0.663274  0.618864  1
  Re  Re6  1  0.250000  0.711399  0.206943  1
  Re  Re7  1  0.750000  0.290016  0.788761  1
  N  N8  1  0.501003  0.474431  0.754663  1
  N  N9  1  0.999718  0.520142  0.262349  1
  N  N10  1  0.500282  0.520142  0.262349  1
  N  N11  1  0.998997  0.474431  0.754663  1
  N  N12  1  0.750000  0.106023  0.624637  1
  N  N13  1  0.250000  0.899164  0.364142  1
  N  N14  1  0.750000  0.093016  0.040438  1
  N  N15  1  0.250000  0.891126  0.949819  1
