# generated using pymatgen
data_Th4ZrNbRh10
_symmetry_space_group_name_H-M   'P 1'
_cell_length_a   5.91226787
_cell_length_b   5.91226700
_cell_length_c   8.94051400
_cell_angle_alpha   90.00000000
_cell_angle_beta   90.00000000
_cell_angle_gamma   102.73100282
_symmetry_Int_Tables_number   1
_chemical_formula_structural   Th4ZrNbRh10
_chemical_formula_sum   'Th4 Zr1 Nb1 Rh10'
_cell_volume   304.83178949
_cell_formula_units_Z   1
loop_
 _symmetry_equiv_pos_site_id
 _symmetry_equiv_pos_as_xyz
  1  'x, y, z'
loop_
 _atom_site_type_symbol
 _atom_site_label
 _atom_site_symmetry_multiplicity
 _atom_site_fract_x
 _atom_site_fract_y
 _atom_site_fract_z
 _atom_site_occupancy
  Th  Th0  1  0.793175  0.211263  0.499361  1
  Th  Th1  1  0.211263  0.793175  0.000639  1
  Th  Th2  1  0.211263  0.793175  0.499361  1
  Th  Th3  1  0.793175  0.211263  0.000639  1
  Zr  Zr4  1  0.393235  0.393235  0.250000  1
  Nb  Nb5  1  0.598987  0.598987  0.750000  1
  Rh  Rh6  1  0.692647  0.692647  0.037827  1
  Rh  Rh7  1  0.692647  0.692647  0.462173  1
  Rh  Rh8  1  0.320502  0.320502  0.937634  1
  Rh  Rh9  1  0.320502  0.320502  0.562366  1
  Rh  Rh10  1  0.492311  0.001921  0.750000  1
  Rh  Rh11  1  0.511015  0.975270  0.250000  1
  Rh  Rh12  1  0.003615  0.003615  0.250000  1
  Rh  Rh13  1  0.988469  0.988469  0.750000  1
  Rh  Rh14  1  0.001921  0.492311  0.750000  1
  Rh  Rh15  1  0.975270  0.511015  0.250000  1
