# generated using pymatgen
data_Tb3Be2Rh5
_symmetry_space_group_name_H-M   'P 1'
_cell_length_a   9.85321200
_cell_length_b   9.85321200
_cell_length_c   3.38589500
_cell_angle_alpha   90.00000000
_cell_angle_beta   90.00000000
_cell_angle_gamma   90.00000000
_symmetry_Int_Tables_number   1
_chemical_formula_structural   Tb3Be2Rh5
_chemical_formula_sum   'Tb6 Be4 Rh10'
_cell_volume   328.72227982
_cell_formula_units_Z   2
loop_
 _symmetry_equiv_pos_site_id
 _symmetry_equiv_pos_as_xyz
  1  'x, y, z'
loop_
 _atom_site_type_symbol
 _atom_site_label
 _atom_site_symmetry_multiplicity
 _atom_site_fract_x
 _atom_site_fract_y
 _atom_site_fract_z
 _atom_site_occupancy
  Tb  Tb0  1  0.825988  0.325988  0.000000  1
  Tb  Tb1  1  0.325988  0.174012  0.000000  1
  Tb  Tb2  1  0.674012  0.825988  0.000000  1
  Tb  Tb3  1  0.174012  0.674012  0.000000  1
  Tb  Tb4  1  0.000000  0.000000  0.000000  1
  Tb  Tb5  1  0.500000  0.500000  0.000000  1
  Be  Be6  1  0.620888  0.120888  0.000000  1
  Be  Be7  1  0.120888  0.379112  0.000000  1
  Be  Be8  1  0.879112  0.620888  0.000000  1
  Be  Be9  1  0.379112  0.879112  0.000000  1
  Rh  Rh10  1  0.071421  0.222806  0.500000  1
  Rh  Rh11  1  0.222806  0.928579  0.500000  1
  Rh  Rh12  1  0.777194  0.071421  0.500000  1
  Rh  Rh13  1  0.928579  0.777194  0.500000  1
  Rh  Rh14  1  0.428579  0.722806  0.500000  1
  Rh  Rh15  1  0.571421  0.277194  0.500000  1
  Rh  Rh16  1  0.722806  0.571421  0.500000  1
  Rh  Rh17  1  0.277194  0.428579  0.500000  1
  Rh  Rh18  1  0.500000  0.000000  0.500000  1
  Rh  Rh19  1  0.000000  0.500000  0.500000  1
