# generated using pymatgen
data_Er6Al24ZnFe2Ru5
_symmetry_space_group_name_H-M   'P 1'
_cell_length_a   8.78578937
_cell_length_b   8.78578925
_cell_length_c   9.44142660
_cell_angle_alpha   89.89087167
_cell_angle_beta   90.10912897
_cell_angle_gamma   119.67059035
_symmetry_Int_Tables_number   1
_chemical_formula_structural   Er6Al24ZnFe2Ru5
_chemical_formula_sum   'Er6 Al24 Zn1 Fe2 Ru5'
_cell_volume   633.22899717
_cell_formula_units_Z   1
loop_
 _symmetry_equiv_pos_site_id
 _symmetry_equiv_pos_as_xyz
  1  'x, y, z'
loop_
 _atom_site_type_symbol
 _atom_site_label
 _atom_site_symmetry_multiplicity
 _atom_site_fract_x
 _atom_site_fract_y
 _atom_site_fract_z
 _atom_site_occupancy
  Er  Er0  1  0.192822  0.386500  0.247889  1
  Er  Er1  1  0.807178  0.613500  0.752111  1
  Er  Er2  1  0.613500  0.807178  0.247889  1
  Er  Er3  1  0.386500  0.192822  0.752111  1
  Er  Er4  1  0.194795  0.805205  0.253552  1
  Er  Er5  1  0.805205  0.194795  0.746448  1
  Al  Al6  1  0.328999  0.671001  0.020225  1
  Al  Al7  1  0.671001  0.328999  0.979775  1
  Al  Al8  1  0.666548  0.333452  0.516087  1
  Al  Al9  1  0.333452  0.666548  0.483913  1
  Al  Al10  1  0.159448  0.318017  0.575392  1
  Al  Al11  1  0.840552  0.681983  0.424608  1
  Al  Al12  1  0.681983  0.840552  0.575392  1
  Al  Al13  1  0.851848  0.685118  0.080059  1
  Al  Al14  1  0.318017  0.159448  0.424608  1
  Al  Al15  1  0.148152  0.314882  0.919941  1
  Al  Al16  1  0.159299  0.840701  0.577025  1
  Al  Al17  1  0.314882  0.148152  0.080059  1
  Al  Al18  1  0.840701  0.159299  0.422975  1
  Al  Al19  1  0.685118  0.851848  0.919941  1
  Al  Al20  1  0.840486  0.159514  0.076764  1
  Al  Al21  1  0.159514  0.840486  0.923236  1
  Al  Al22  1  0.561230  0.121244  0.248736  1
  Al  Al23  1  0.438770  0.878756  0.751264  1
  Al  Al24  1  0.878756  0.438770  0.248736  1
  Al  Al25  1  0.121244  0.561230  0.751264  1
  Al  Al26  1  0.563259  0.436741  0.254513  1
  Al  Al27  1  0.436741  0.563259  0.745487  1
  Al  Al28  1  0.999155  0.000845  0.250666  1
  Al  Al29  1  0.000845  0.999155  0.749334  1
  Zn  Zn30  1  0.500000  0.500000  0.000000  1
  Fe  Fe31  1  0.000000  0.000000  0.000000  1
  Fe  Fe32  1  0.000000  0.000000  0.500000  1
  Ru  Ru33  1  0.500000  0.000000  0.000000  1
  Ru  Ru34  1  0.000000  0.500000  0.000000  1
  Ru  Ru35  1  0.500000  0.000000  0.500000  1
  Ru  Ru36  1  0.000000  0.500000  0.500000  1
  Ru  Ru37  1  0.500000  0.500000  0.500000  1
