# generated using pymatgen
data_Sr(CdAu2)2
_symmetry_space_group_name_H-M   'P 1'
_cell_length_a   5.92236781
_cell_length_b   5.92236777
_cell_length_c   5.92236904
_cell_angle_alpha   103.32577241
_cell_angle_beta   103.32577558
_cell_angle_gamma   122.61729439
_symmetry_Int_Tables_number   1
_chemical_formula_structural   Sr(CdAu2)2
_chemical_formula_sum   'Sr1 Cd2 Au4'
_cell_volume   153.48133234
_cell_formula_units_Z   1
loop_
 _symmetry_equiv_pos_site_id
 _symmetry_equiv_pos_as_xyz
  1  'x, y, z'
loop_
 _atom_site_type_symbol
 _atom_site_label
 _atom_site_symmetry_multiplicity
 _atom_site_fract_x
 _atom_site_fract_y
 _atom_site_fract_z
 _atom_site_occupancy
  Sr  Sr0  1  0.000000  0.000000  0.000000  1
  Cd  Cd1  1  0.250000  0.750000  0.500000  1
  Cd  Cd2  1  0.750000  0.250000  0.500000  1
  Au  Au3  1  0.305943  0.305943  0.611886  1
  Au  Au4  1  0.694057  0.694057  0.388114  1
  Au  Au5  1  0.694057  0.305943  0.000000  1
  Au  Au6  1  0.305943  0.694057  0.000000  1
