# generated using pymatgen
data_Lu2CoTc3
_symmetry_space_group_name_H-M   'P 1'
_cell_length_a   5.19489200
_cell_length_b   5.19489198
_cell_length_c   8.82599400
_cell_angle_alpha   90.00000000
_cell_angle_beta   90.00000000
_cell_angle_gamma   119.99998737
_symmetry_Int_Tables_number   1
_chemical_formula_structural   Lu2CoTc3
_chemical_formula_sum   'Lu4 Co2 Tc6'
_cell_volume   206.27536286
_cell_formula_units_Z   2
loop_
 _symmetry_equiv_pos_site_id
 _symmetry_equiv_pos_as_xyz
  1  'x, y, z'
loop_
 _atom_site_type_symbol
 _atom_site_label
 _atom_site_symmetry_multiplicity
 _atom_site_fract_x
 _atom_site_fract_y
 _atom_site_fract_z
 _atom_site_occupancy
  Lu  Lu0  1  0.333333  0.666667  0.436567  1
  Lu  Lu1  1  0.666667  0.333333  0.563433  1
  Lu  Lu2  1  0.666667  0.333333  0.936567  1
  Lu  Lu3  1  0.333333  0.666667  0.063433  1
  Co  Co4  1  0.000000  0.000000  0.500000  1
  Co  Co5  1  0.000000  0.000000  0.000000  1
  Tc  Tc6  1  0.831660  0.168340  0.250000  1
  Tc  Tc7  1  0.831660  0.663319  0.250000  1
  Tc  Tc8  1  0.336681  0.168340  0.250000  1
  Tc  Tc9  1  0.168340  0.831660  0.750000  1
  Tc  Tc10  1  0.168340  0.336681  0.750000  1
  Tc  Tc11  1  0.663319  0.831660  0.750000  1
