# generated using pymatgen
data_K3AsSeO3
_symmetry_space_group_name_H-M   'P 1'
_cell_length_a   6.04129100
_cell_length_b   7.07216361
_cell_length_c   9.07522633
_cell_angle_alpha   104.90240888
_cell_angle_beta   90.00000000
_cell_angle_gamma   90.00000000
_symmetry_Int_Tables_number   1
_chemical_formula_structural   K3AsSeO3
_chemical_formula_sum   'K6 As2 Se2 O6'
_cell_volume   374.69753156
_cell_formula_units_Z   2
loop_
 _symmetry_equiv_pos_site_id
 _symmetry_equiv_pos_as_xyz
  1  'x, y, z'
loop_
 _atom_site_type_symbol
 _atom_site_label
 _atom_site_symmetry_multiplicity
 _atom_site_fract_x
 _atom_site_fract_y
 _atom_site_fract_z
 _atom_site_occupancy
  K  K0  1  0.250001  0.789034  0.980014  1
  K  K1  1  0.750001  0.742876  0.257420  1
  K  K2  1  0.750001  0.322266  0.467644  1
  K  K3  1  0.250001  0.677732  0.532366  1
  K  K4  1  0.250001  0.257122  0.742587  1
  K  K5  1  0.750001  0.210983  0.019975  1
  As  As6  1  0.250001  0.305072  0.211363  1
  As  As7  1  0.750001  0.694978  0.788675  1
  Se  Se8  1  0.250001  0.059753  0.348145  1
  Se  Se9  1  0.750001  0.940230  0.651847  1
  O  O10  1  0.250001  0.193145  0.018414  1
  O  O11  1  0.016365  0.445986  0.263089  1
  O  O12  1  0.483636  0.445986  0.263089  1
  O  O13  1  0.516363  0.553987  0.736900  1
  O  O14  1  0.983639  0.553987  0.736900  1
  O  O15  1  0.750001  0.806856  0.981578  1
