# generated using pymatgen
data_CeHo19Rh12
_symmetry_space_group_name_H-M   'P 1'
_cell_length_a   10.83359600
_cell_length_b   10.83359600
_cell_length_c   6.28501400
_cell_angle_alpha   90.00000000
_cell_angle_beta   90.00000000
_cell_angle_gamma   90.00000000
_symmetry_Int_Tables_number   1
_chemical_formula_structural   CeHo19Rh12
_chemical_formula_sum   'Ce1 Ho19 Rh12'
_cell_volume   737.65199554
_cell_formula_units_Z   1
loop_
 _symmetry_equiv_pos_site_id
 _symmetry_equiv_pos_as_xyz
  1  'x, y, z'
loop_
 _atom_site_type_symbol
 _atom_site_label
 _atom_site_symmetry_multiplicity
 _atom_site_fract_x
 _atom_site_fract_y
 _atom_site_fract_z
 _atom_site_occupancy
  Ce  Ce0  1  0.000000  0.000000  0.500000  1
  Ho  Ho1  1  0.291674  0.088510  0.375794  1
  Ho  Ho2  1  0.290578  0.910079  0.876850  1
  Ho  Ho3  1  0.709422  0.089921  0.876850  1
  Ho  Ho4  1  0.708326  0.911490  0.375794  1
  Ho  Ho5  1  0.589660  0.790754  0.876386  1
  Ho  Ho6  1  0.587560  0.209562  0.377592  1
  Ho  Ho7  1  0.412440  0.790438  0.377592  1
  Ho  Ho8  1  0.410340  0.209246  0.876386  1
  Ho  Ho9  1  0.209562  0.412440  0.622408  1
  Ho  Ho10  1  0.209246  0.589660  0.123614  1
  Ho  Ho11  1  0.790754  0.410340  0.123614  1
  Ho  Ho12  1  0.790438  0.587560  0.622408  1
  Ho  Ho13  1  0.910079  0.709422  0.123150  1
  Ho  Ho14  1  0.911490  0.291674  0.624206  1
  Ho  Ho15  1  0.088510  0.708326  0.624206  1
  Ho  Ho16  1  0.089921  0.290578  0.123150  1
  Ho  Ho17  1  0.000000  0.000000  0.000000  1
  Ho  Ho18  1  0.500000  0.500000  0.000000  1
  Ho  Ho19  1  0.500000  0.500000  0.500000  1
  Rh  Rh20  1  0.845610  0.154247  0.256117  1
  Rh  Rh21  1  0.845753  0.845610  0.743883  1
  Rh  Rh22  1  0.154247  0.154390  0.743883  1
  Rh  Rh23  1  0.154390  0.845753  0.256117  1
  Rh  Rh24  1  0.654548  0.345841  0.750347  1
  Rh  Rh25  1  0.654159  0.654548  0.249653  1
  Rh  Rh26  1  0.345841  0.345452  0.249653  1
  Rh  Rh27  1  0.345452  0.654159  0.750347  1
  Rh  Rh28  1  0.500000  0.000000  0.123848  1
  Rh  Rh29  1  0.500000  0.000000  0.626004  1
  Rh  Rh30  1  0.000000  0.500000  0.876152  1
  Rh  Rh31  1  0.000000  0.500000  0.373996  1
