# generated using pymatgen
data_Np4Sc4Cr3NiB24
_symmetry_space_group_name_H-M   'P 1'
_cell_length_a   3.46736000
_cell_length_b   8.94790307
_cell_length_c   11.30398559
_cell_angle_alpha   89.92226001
_cell_angle_beta   90.00000000
_cell_angle_gamma   90.00000000
_symmetry_Int_Tables_number   1
_chemical_formula_structural   Np4Sc4Cr3NiB24
_chemical_formula_sum   'Np4 Sc4 Cr3 Ni1 B24'
_cell_volume   350.71262586
_cell_formula_units_Z   1
loop_
 _symmetry_equiv_pos_site_id
 _symmetry_equiv_pos_as_xyz
  1  'x, y, z'
loop_
 _atom_site_type_symbol
 _atom_site_label
 _atom_site_symmetry_multiplicity
 _atom_site_fract_x
 _atom_site_fract_y
 _atom_site_fract_z
 _atom_site_occupancy
  Np  Np0  1  0.000000  0.821426  0.084518  1
  Np  Np1  1  0.000000  0.176939  0.912514  1
  Np  Np2  1  0.000000  0.323614  0.415451  1
  Np  Np3  1  0.000000  0.678393  0.585635  1
  Sc  Sc4  1  0.000000  0.444195  0.128691  1
  Sc  Sc5  1  0.000000  0.555158  0.872274  1
  Sc  Sc6  1  0.000000  0.944331  0.371881  1
  Sc  Sc7  1  0.000000  0.055057  0.627323  1
  Cr  Cr8  1  0.000000  0.859092  0.819725  1
  Cr  Cr9  1  0.000000  0.641194  0.319712  1
  Cr  Cr10  1  0.000000  0.359045  0.681022  1
  Ni  Ni11  1  0.000000  0.140563  0.181953  1
  B  B12  1  0.500000  0.054128  0.067187  1
  B  B13  1  0.500000  0.946008  0.932526  1
  B  B14  1  0.500000  0.554495  0.432910  1
  B  B15  1  0.500000  0.446714  0.567487  1
  B  B16  1  0.500000  0.253092  0.080899  1
  B  B17  1  0.500000  0.747435  0.918211  1
  B  B18  1  0.500000  0.752721  0.418567  1
  B  B19  1  0.500000  0.248225  0.581351  1
  B  B20  1  0.500000  0.294460  0.235453  1
  B  B21  1  0.500000  0.705464  0.764968  1
  B  B22  1  0.500000  0.795069  0.264307  1
  B  B23  1  0.500000  0.205320  0.734787  1
  B  B24  1  0.500000  0.131120  0.318392  1
  B  B25  1  0.500000  0.868971  0.682850  1
  B  B26  1  0.500000  0.630756  0.183165  1
  B  B27  1  0.500000  0.368908  0.816714  1
  B  B28  1  0.500000  0.482325  0.286530  1
  B  B29  1  0.500000  0.517908  0.713870  1
  B  B30  1  0.500000  0.982761  0.213568  1
  B  B31  1  0.500000  0.017004  0.785859  1
  B  B32  1  0.500000  0.101223  0.471750  1
  B  B33  1  0.500000  0.899532  0.526856  1
  B  B34  1  0.500000  0.599500  0.027613  1
  B  B35  1  0.500000  0.397852  0.973480  1
