# generated using pymatgen
data_Sc8Al14GaRh7
_symmetry_space_group_name_H-M   'P 1'
_cell_length_a   8.88027914
_cell_length_b   8.88027981
_cell_length_c   8.88027900
_cell_angle_alpha   120.13404515
_cell_angle_beta   119.95409850
_cell_angle_gamma   89.92375567
_symmetry_Int_Tables_number   1
_chemical_formula_structural   Sc8Al14GaRh7
_chemical_formula_sum   'Sc8 Al14 Ga1 Rh7'
_cell_volume   494.85015830
_cell_formula_units_Z   1
loop_
 _symmetry_equiv_pos_site_id
 _symmetry_equiv_pos_as_xyz
  1  'x, y, z'
loop_
 _atom_site_type_symbol
 _atom_site_label
 _atom_site_symmetry_multiplicity
 _atom_site_fract_x
 _atom_site_fract_y
 _atom_site_fract_z
 _atom_site_occupancy
  Sc  Sc0  1  0.793464  0.287461  0.070817  1
  Sc  Sc1  1  0.216646  0.287461  0.493999  1
  Sc  Sc2  1  0.205714  0.705714  0.500000  1
  Sc  Sc3  1  0.216646  0.722647  0.929183  1
  Sc  Sc4  1  0.793464  0.722647  0.506001  1
  Sc  Sc5  1  0.776178  0.276178  0.500000  1
  Sc  Sc6  1  0.379527  0.119628  0.740101  1
  Sc  Sc7  1  0.379527  0.639425  0.259899  1
  Al  Al8  1  0.161614  0.334886  0.173271  1
  Al  Al9  1  0.161614  0.988343  0.826729  1
  Al  Al10  1  0.155138  0.340576  0.814562  1
  Al  Al11  1  0.526014  0.340576  0.185438  1
  Al  Al12  1  0.839290  0.658597  0.819307  1
  Al  Al13  1  0.839290  0.019984  0.180693  1
  Al  Al14  1  0.836306  0.661433  0.174875  1
  Al  Al15  1  0.486558  0.661433  0.825125  1
  Al  Al16  1  0.379420  0.122306  0.257115  1
  Al  Al17  1  0.865191  0.122306  0.742885  1
  Al  Al18  1  0.621357  0.875161  0.253805  1
  Al  Al19  1  0.621357  0.367552  0.746195  1
  Al  Al20  1  0.621903  0.877617  0.744285  1
  Al  Al21  1  0.133331  0.877617  0.255715  1
  Ga  Ga22  1  0.991396  0.491396  0.500000  1
  Rh  Rh23  1  0.994770  0.998252  0.497869  1
  Rh  Rh24  1  0.500383  0.998252  0.003482  1
  Rh  Rh25  1  0.501446  0.501446  0.000000  1
  Rh  Rh26  1  0.500383  0.496902  0.502131  1
  Rh  Rh27  1  0.994770  0.496902  0.996518  1
  Rh  Rh28  1  0.000113  0.000113  0.000000  1
  Rh  Rh29  1  0.507189  0.007189  0.500000  1
