# generated using pymatgen
data_La8AlZn7(PtRh3)2
_symmetry_space_group_name_H-M   'P 1'
_cell_length_a   4.07273100
_cell_length_b   7.53859921
_cell_length_c   16.70227190
_cell_angle_alpha   89.66997494
_cell_angle_beta   90.00000000
_cell_angle_gamma   90.00000000
_symmetry_Int_Tables_number   1
_chemical_formula_structural   La8AlZn7(PtRh3)2
_chemical_formula_sum   'La8 Al1 Zn7 Pt2 Rh6'
_cell_volume   512.79611451
_cell_formula_units_Z   1
loop_
 _symmetry_equiv_pos_site_id
 _symmetry_equiv_pos_as_xyz
  1  'x, y, z'
loop_
 _atom_site_type_symbol
 _atom_site_label
 _atom_site_symmetry_multiplicity
 _atom_site_fract_x
 _atom_site_fract_y
 _atom_site_fract_z
 _atom_site_occupancy
  La  La0  1  0.750000  0.326789  0.443160  1
  La  La1  1  0.250000  0.048977  0.713872  1
  La  La2  1  0.250000  0.558094  0.784197  1
  La  La3  1  0.250000  0.674469  0.559485  1
  La  La4  1  0.750000  0.822562  0.057816  1
  La  La5  1  0.250000  0.171574  0.943113  1
  La  La6  1  0.750000  0.457315  0.216298  1
  La  La7  1  0.750000  0.940445  0.283798  1
  Al  Al8  1  0.250000  0.123592  0.149172  1
  Zn  Zn9  1  0.250000  0.996748  0.440988  1
  Zn  Zn10  1  0.750000  0.876137  0.850154  1
  Zn  Zn11  1  0.750000  0.000543  0.558674  1
  Zn  Zn12  1  0.250000  0.497183  0.059728  1
  Zn  Zn13  1  0.750000  0.378105  0.648820  1
  Zn  Zn14  1  0.750000  0.500431  0.941709  1
  Zn  Zn15  1  0.250000  0.624817  0.352223  1
  Pt  Pt16  1  0.750000  0.257546  0.814668  1
  Pt  Pt17  1  0.250000  0.238786  0.308470  1
  Rh  Rh18  1  0.250000  0.740309  0.933618  1
  Rh  Rh19  1  0.250000  0.241371  0.565258  1
  Rh  Rh20  1  0.250000  0.762486  0.181975  1
  Rh  Rh21  1  0.750000  0.754643  0.434919  1
  Rh  Rh22  1  0.750000  0.252687  0.072895  1
  Rh  Rh23  1  0.750000  0.754390  0.684987  1
