# generated using pymatgen
data_Gd3Ag2Hg3Rh
_symmetry_space_group_name_H-M   'P 1'
_cell_length_a   7.95096000
_cell_length_b   7.95096057
_cell_length_c   3.76348000
_cell_angle_alpha   90.00000000
_cell_angle_beta   90.00000000
_cell_angle_gamma   119.99999764
_symmetry_Int_Tables_number   1
_chemical_formula_structural   Gd3Ag2Hg3Rh
_chemical_formula_sum   'Gd3 Ag2 Hg3 Rh1'
_cell_volume   206.04373919
_cell_formula_units_Z   1
loop_
 _symmetry_equiv_pos_site_id
 _symmetry_equiv_pos_as_xyz
  1  'x, y, z'
loop_
 _atom_site_type_symbol
 _atom_site_label
 _atom_site_symmetry_multiplicity
 _atom_site_fract_x
 _atom_site_fract_y
 _atom_site_fract_z
 _atom_site_occupancy
  Gd  Gd0  1  0.386662  0.416000  0.500000  1
  Gd  Gd1  1  0.584000  0.970662  0.500000  1
  Gd  Gd2  1  0.029338  0.613338  0.500000  1
  Ag  Ag3  1  0.666667  0.333333  0.000000  1
  Ag  Ag4  1  0.000000  0.000000  0.500000  1
  Hg  Hg5  1  0.728496  0.722108  0.000000  1
  Hg  Hg6  1  0.277892  0.006389  0.000000  1
  Hg  Hg7  1  0.993611  0.271504  0.000000  1
  Rh  Rh8  1  0.333333  0.666667  0.000000  1
