# generated using pymatgen
data_Pa8Si13Ni3
_symmetry_space_group_name_H-M   'P 1'
_cell_length_a   7.98123300
_cell_length_b   7.98123266
_cell_length_c   7.95884200
_cell_angle_alpha   90.00000000
_cell_angle_beta   90.00000000
_cell_angle_gamma   119.99998899
_symmetry_Int_Tables_number   1
_chemical_formula_structural   Pa8Si13Ni3
_chemical_formula_sum   'Pa8 Si13 Ni3'
_cell_volume   439.05661357
_cell_formula_units_Z   1
loop_
 _symmetry_equiv_pos_site_id
 _symmetry_equiv_pos_as_xyz
  1  'x, y, z'
loop_
 _atom_site_type_symbol
 _atom_site_label
 _atom_site_symmetry_multiplicity
 _atom_site_fract_x
 _atom_site_fract_y
 _atom_site_fract_z
 _atom_site_occupancy
  Pa  Pa0  1  0.498890  0.997782  0.253896  1
  Pa  Pa1  1  0.498918  0.997833  0.746150  1
  Pa  Pa2  1  0.002218  0.501110  0.253896  1
  Pa  Pa3  1  0.002167  0.501082  0.746150  1
  Pa  Pa4  1  0.498890  0.501110  0.253896  1
  Pa  Pa5  1  0.498918  0.501082  0.746150  1
  Pa  Pa6  1  0.000000  0.000000  0.250047  1
  Pa  Pa7  1  0.000000  0.000000  0.749994  1
  Si  Si8  1  0.170391  0.340782  0.000019  1
  Si  Si9  1  0.829439  0.658880  0.000052  1
  Si  Si10  1  0.659218  0.829609  0.000019  1
  Si  Si11  1  0.828728  0.657455  0.500029  1
  Si  Si12  1  0.341120  0.170561  0.000052  1
  Si  Si13  1  0.165856  0.331711  0.499989  1
  Si  Si14  1  0.170391  0.829609  0.000019  1
  Si  Si15  1  0.342545  0.171272  0.500029  1
  Si  Si16  1  0.829439  0.170561  0.000052  1
  Si  Si17  1  0.668289  0.834144  0.499989  1
  Si  Si18  1  0.828728  0.171272  0.500029  1
  Si  Si19  1  0.165856  0.834144  0.499989  1
  Si  Si20  1  0.333333  0.666667  0.500100  1
  Ni  Ni21  1  0.333333  0.666667  0.999655  1
  Ni  Ni22  1  0.666667  0.333333  0.999825  1
  Ni  Ni23  1  0.666667  0.333333  0.499973  1
