# generated using pymatgen
data_Ho12TlCo4Pt
_symmetry_space_group_name_H-M   'P 1'
_cell_length_a   8.29074249
_cell_length_b   8.29074202
_cell_length_c   8.29074200
_cell_angle_alpha   111.01555921
_cell_angle_beta   110.49914992
_cell_angle_gamma   106.92891541
_symmetry_Int_Tables_number   1
_chemical_formula_structural   Ho12TlCo4Pt
_chemical_formula_sum   'Ho12 Tl1 Co4 Pt1'
_cell_volume   438.03711566
_cell_formula_units_Z   1
loop_
 _symmetry_equiv_pos_site_id
 _symmetry_equiv_pos_as_xyz
  1  'x, y, z'
loop_
 _atom_site_type_symbol
 _atom_site_label
 _atom_site_symmetry_multiplicity
 _atom_site_fract_x
 _atom_site_fract_y
 _atom_site_fract_z
 _atom_site_occupancy
  Ho  Ho0  1  0.315199  0.620162  0.304962  1
  Ho  Ho1  1  0.684801  0.379838  0.695038  1
  Ho  Ho2  1  0.315199  0.010236  0.695038  1
  Ho  Ho3  1  0.684801  0.989764  0.304962  1
  Ho  Ho4  1  0.185769  0.291347  0.477116  1
  Ho  Ho5  1  0.814231  0.708653  0.522884  1
  Ho  Ho6  1  0.185769  0.708653  0.894423  1
  Ho  Ho7  1  0.814231  0.291347  0.105577  1
  Ho  Ho8  1  0.413775  0.215322  0.198453  1
  Ho  Ho9  1  0.586225  0.784678  0.801547  1
  Ho  Ho10  1  0.016869  0.215322  0.801547  1
  Ho  Ho11  1  0.983131  0.784678  0.198453  1
  Tl  Tl12  1  0.500000  0.500000  0.000000  1
  Co  Co13  1  0.111938  0.611938  0.500000  1
  Co  Co14  1  0.888062  0.388062  0.500000  1
  Co  Co15  1  0.379560  0.000000  0.379560  1
  Co  Co16  1  0.620440  0.000000  0.620440  1
  Pt  Pt17  1  0.000000  0.000000  0.000000  1
