# generated using pymatgen
data_KTl(CrS)6
_symmetry_space_group_name_H-M   'P 1'
_cell_length_a   8.72530600
_cell_length_b   8.72530494
_cell_length_c   4.08583300
_cell_angle_alpha   90.00000000
_cell_angle_beta   90.00000000
_cell_angle_gamma   119.99999645
_symmetry_Int_Tables_number   1
_chemical_formula_structural   KTl(CrS)6
_chemical_formula_sum   'K1 Tl1 Cr6 S6'
_cell_volume   269.38446039
_cell_formula_units_Z   1
loop_
 _symmetry_equiv_pos_site_id
 _symmetry_equiv_pos_as_xyz
  1  'x, y, z'
loop_
 _atom_site_type_symbol
 _atom_site_label
 _atom_site_symmetry_multiplicity
 _atom_site_fract_x
 _atom_site_fract_y
 _atom_site_fract_z
 _atom_site_occupancy
  K  K0  1  0.000000  0.000000  0.500000  1
  Tl  Tl1  1  0.666667  0.333333  0.000000  1
  Cr  Cr2  1  0.502391  0.819498  0.500000  1
  Cr  Cr3  1  0.180502  0.682891  0.500000  1
  Cr  Cr4  1  0.317109  0.497609  0.500000  1
  Cr  Cr5  1  0.164119  0.513928  0.000000  1
  Cr  Cr6  1  0.486072  0.650191  0.000000  1
  Cr  Cr7  1  0.349809  0.835881  0.000000  1
  S  S8  1  0.624376  0.632159  0.500000  1
  S  S9  1  0.367841  0.992217  0.500000  1
  S  S10  1  0.007783  0.375624  0.500000  1
  S  S11  1  0.040782  0.699723  0.000000  1
  S  S12  1  0.300277  0.341060  0.000000  1
  S  S13  1  0.658940  0.959218  0.000000  1
