# generated using pymatgen
data_Er4Zr5ScSn8
_symmetry_space_group_name_H-M   'P 1'
_cell_length_a   7.70724633
_cell_length_b   7.81670873
_cell_length_c   14.68947900
_cell_angle_alpha   89.98912974
_cell_angle_beta   90.06076564
_cell_angle_gamma   89.91506521
_symmetry_Int_Tables_number   1
_chemical_formula_structural   Er4Zr5ScSn8
_chemical_formula_sum   'Er8 Zr10 Sc2 Sn16'
_cell_volume   884.97057882
_cell_formula_units_Z   2
loop_
 _symmetry_equiv_pos_site_id
 _symmetry_equiv_pos_as_xyz
  1  'x, y, z'
loop_
 _atom_site_type_symbol
 _atom_site_label
 _atom_site_symmetry_multiplicity
 _atom_site_fract_x
 _atom_site_fract_y
 _atom_site_fract_z
 _atom_site_occupancy
  Er  Er0  1  0.990918  0.177983  0.093396  1
  Er  Er1  1  0.009082  0.822017  0.906604  1
  Er  Er2  1  0.507655  0.680740  0.907509  1
  Er  Er3  1  0.008972  0.822358  0.592078  1
  Er  Er4  1  0.492345  0.319260  0.092491  1
  Er  Er5  1  0.991028  0.177642  0.407922  1
  Er  Er6  1  0.490953  0.320907  0.408114  1
  Er  Er7  1  0.509047  0.679093  0.591886  1
  Zr  Zr8  1  0.164029  0.491464  0.749255  1
  Zr  Zr9  1  0.835971  0.508536  0.250745  1
  Zr  Zr10  1  0.338535  0.990931  0.250015  1
  Zr  Zr11  1  0.661465  0.009069  0.749985  1
  Zr  Zr12  1  0.341324  0.162038  0.628700  1
  Zr  Zr13  1  0.658676  0.837962  0.371300  1
  Zr  Zr14  1  0.156819  0.663403  0.370710  1
  Zr  Zr15  1  0.657796  0.839847  0.127930  1
  Zr  Zr16  1  0.843181  0.336597  0.629290  1
  Zr  Zr17  1  0.342204  0.160153  0.872070  1
  Sc  Sc18  1  0.842737  0.341029  0.872291  1
  Sc  Sc19  1  0.157263  0.658971  0.127709  1
  Sn  Sn20  1  0.033761  0.115450  0.751486  1
  Sn  Sn21  1  0.966239  0.884550  0.248514  1
  Sn  Sn22  1  0.464925  0.614748  0.249767  1
  Sn  Sn23  1  0.535075  0.385252  0.750233  1
  Sn  Sn24  1  0.308993  0.843993  0.749120  1
  Sn  Sn25  1  0.691007  0.156007  0.250880  1
  Sn  Sn26  1  0.190501  0.343842  0.250618  1
  Sn  Sn27  1  0.809499  0.656158  0.749382  1
  Sn  Sn28  1  0.185962  0.461165  0.542025  1
  Sn  Sn29  1  0.814038  0.538835  0.457975  1
  Sn  Sn30  1  0.314603  0.960072  0.457738  1
  Sn  Sn31  1  0.813102  0.540425  0.043287  1
  Sn  Sn32  1  0.685397  0.039928  0.542262  1
  Sn  Sn33  1  0.186898  0.459575  0.956713  1
  Sn  Sn34  1  0.686493  0.040853  0.956667  1
  Sn  Sn35  1  0.313507  0.959147  0.043333  1
