# generated using pymatgen
data_LaNd7(ScSn3)2
_symmetry_space_group_name_H-M   'P 1'
_cell_length_a   9.29303528
_cell_length_b   9.29303610
_cell_length_c   9.22376576
_cell_angle_alpha   96.33635085
_cell_angle_beta   96.33065211
_cell_angle_gamma   141.35347542
_symmetry_Int_Tables_number   1
_chemical_formula_structural   LaNd7(ScSn3)2
_chemical_formula_sum   'La1 Nd7 Sc2 Sn6'
_cell_volume   469.00920759
_cell_formula_units_Z   1
loop_
 _symmetry_equiv_pos_site_id
 _symmetry_equiv_pos_as_xyz
  1  'x, y, z'
loop_
 _atom_site_type_symbol
 _atom_site_label
 _atom_site_symmetry_multiplicity
 _atom_site_fract_x
 _atom_site_fract_y
 _atom_site_fract_z
 _atom_site_occupancy
  La  La0  1  0.410587  0.275294  0.685881  1
  Nd  Nd1  1  0.913640  0.220406  0.134046  1
  Nd  Nd2  1  0.222845  0.088301  0.311146  1
  Nd  Nd3  1  0.778105  0.913425  0.691530  1
  Nd  Nd4  1  0.086935  0.779880  0.866815  1
  Nd  Nd5  1  0.720507  0.413291  0.133799  1
  Nd  Nd6  1  0.280066  0.586601  0.866667  1
  Nd  Nd7  1  0.587259  0.722920  0.310179  1
  Sc  Sc8  1  0.750459  0.250067  0.499536  1
  Sc  Sc9  1  0.249470  0.749078  0.499536  1
  Sn  Sn10  1  0.751437  0.751524  0.001855  1
  Sn  Sn11  1  0.250331  0.250417  0.001855  1
  Sn  Sn12  1  0.848139  0.649802  0.497941  1
  Sn  Sn13  1  0.652188  0.150374  0.802564  1
  Sn  Sn14  1  0.348682  0.848967  0.197648  1
  Sn  Sn15  1  0.149349  0.349653  0.499002  1
