# generated using pymatgen
data_ErTm7(B6Os)4
_symmetry_space_group_name_H-M   'P 1'
_cell_length_a   3.61710000
_cell_length_b   9.07638867
_cell_length_c   11.45066517
_cell_angle_alpha   90.00056282
_cell_angle_beta   90.00000000
_cell_angle_gamma   90.00000000
_symmetry_Int_Tables_number   1
_chemical_formula_structural   ErTm7(B6Os)4
_chemical_formula_sum   'Er1 Tm7 B24 Os4'
_cell_volume   375.92769018
_cell_formula_units_Z   1
loop_
 _symmetry_equiv_pos_site_id
 _symmetry_equiv_pos_as_xyz
  1  'x, y, z'
loop_
 _atom_site_type_symbol
 _atom_site_label
 _atom_site_symmetry_multiplicity
 _atom_site_fract_x
 _atom_site_fract_y
 _atom_site_fract_z
 _atom_site_occupancy
  Er  Er0  1  0.000000  0.321417  0.413897  1
  Tm  Tm1  1  0.000000  0.678624  0.585943  1
  Tm  Tm2  1  0.000000  0.821262  0.085841  1
  Tm  Tm3  1  0.000000  0.178687  0.914048  1
  Tm  Tm4  1  0.000000  0.943780  0.372872  1
  Tm  Tm5  1  0.000000  0.056174  0.627128  1
  Tm  Tm6  1  0.000000  0.443794  0.126972  1
  Tm  Tm7  1  0.000000  0.556200  0.873314  1
  B  B8  1  0.500000  0.554041  0.433641  1
  B  B9  1  0.500000  0.446479  0.566670  1
  B  B10  1  0.500000  0.053432  0.066068  1
  B  B11  1  0.500000  0.946294  0.933462  1
  B  B12  1  0.500000  0.748847  0.420227  1
  B  B13  1  0.500000  0.251354  0.580045  1
  B  B14  1  0.500000  0.248273  0.079532  1
  B  B15  1  0.500000  0.751550  0.920332  1
  B  B16  1  0.500000  0.791737  0.265830  1
  B  B17  1  0.500000  0.208490  0.734338  1
  B  B18  1  0.500000  0.291255  0.233758  1
  B  B19  1  0.500000  0.708459  0.765977  1
  B  B20  1  0.500000  0.631450  0.184801  1
  B  B21  1  0.500000  0.368826  0.815529  1
  B  B22  1  0.500000  0.130843  0.314915  1
  B  B23  1  0.500000  0.868749  0.684722  1
  B  B24  1  0.500000  0.981704  0.212674  1
  B  B25  1  0.500000  0.018035  0.786988  1
  B  B26  1  0.500000  0.482194  0.286805  1
  B  B27  1  0.500000  0.518142  0.713319  1
  B  B28  1  0.500000  0.606881  0.029715  1
  B  B29  1  0.500000  0.393270  0.970599  1
  B  B30  1  0.500000  0.105693  0.470697  1
  B  B31  1  0.500000  0.893975  0.529352  1
  Os  Os32  1  0.000000  0.637471  0.321258  1
  Os  Os33  1  0.000000  0.362950  0.679037  1
  Os  Os34  1  0.000000  0.136864  0.178449  1
  Os  Os35  1  0.000000  0.862803  0.821249  1
