# generated using pymatgen
data_Tb4Tm2InHg9
_symmetry_space_group_name_H-M   'P 1'
_cell_length_a   6.38313127
_cell_length_b   6.33513906
_cell_length_c   10.22769200
_cell_angle_alpha   90.00000000
_cell_angle_beta   90.00000000
_cell_angle_gamma   104.24007573
_symmetry_Int_Tables_number   1
_chemical_formula_structural   Tb4Tm2InHg9
_chemical_formula_sum   'Tb4 Tm2 In1 Hg9'
_cell_volume   400.87956865
_cell_formula_units_Z   1
loop_
 _symmetry_equiv_pos_site_id
 _symmetry_equiv_pos_as_xyz
  1  'x, y, z'
loop_
 _atom_site_type_symbol
 _atom_site_label
 _atom_site_symmetry_multiplicity
 _atom_site_fract_x
 _atom_site_fract_y
 _atom_site_fract_z
 _atom_site_occupancy
  Tb  Tb0  1  0.214629  0.791154  0.504186  1
  Tb  Tb1  1  0.214629  0.791154  0.995814  1
  Tb  Tb2  1  0.784090  0.209565  0.500135  1
  Tb  Tb3  1  0.784090  0.209565  0.999865  1
  Tm  Tm4  1  0.580346  0.583364  0.250000  1
  Tm  Tm5  1  0.418619  0.416837  0.750000  1
  In  In6  1  0.047212  0.482515  0.250000  1
  Hg  Hg7  1  0.976826  0.971194  0.250000  1
  Hg  Hg8  1  0.023362  0.024083  0.750000  1
  Hg  Hg9  1  0.297701  0.303000  0.032635  1
  Hg  Hg10  1  0.701171  0.698522  0.968166  1
  Hg  Hg11  1  0.297701  0.303000  0.467365  1
  Hg  Hg12  1  0.701171  0.698522  0.531834  1
  Hg  Hg13  1  0.479483  0.044787  0.250000  1
  Hg  Hg14  1  0.956317  0.515444  0.750000  1
  Hg  Hg15  1  0.522653  0.957295  0.750000  1
