# generated using pymatgen
data_Li(NbS2)6
_symmetry_space_group_name_H-M   'P 1'
_cell_length_a   5.82431045
_cell_length_b   5.82431174
_cell_length_c   13.54882966
_cell_angle_alpha   85.80102669
_cell_angle_beta   85.80102278
_cell_angle_gamma   120.00540304
_symmetry_Int_Tables_number   1
_chemical_formula_structural   Li(NbS2)6
_chemical_formula_sum   'Li1 Nb6 S12'
_cell_volume   393.72207305
_cell_formula_units_Z   1
loop_
 _symmetry_equiv_pos_site_id
 _symmetry_equiv_pos_as_xyz
  1  'x, y, z'
loop_
 _atom_site_type_symbol
 _atom_site_label
 _atom_site_symmetry_multiplicity
 _atom_site_fract_x
 _atom_site_fract_y
 _atom_site_fract_z
 _atom_site_occupancy
  Li  Li0  1  0.000000  0.000000  0.000000  1
  Nb  Nb1  1  0.084980  0.084980  0.745081  1
  Nb  Nb2  1  0.417900  0.751159  0.746313  1
  Nb  Nb3  1  0.751159  0.417900  0.746313  1
  Nb  Nb4  1  0.248841  0.582100  0.253687  1
  Nb  Nb5  1  0.582100  0.248841  0.253687  1
  Nb  Nb6  1  0.915020  0.915020  0.254919  1
  S  S7  1  0.287331  0.287331  0.136025  1
  S  S8  1  0.622987  0.955205  0.136032  1
  S  S9  1  0.955205  0.622987  0.136032  1
  S  S10  1  0.044795  0.377013  0.863968  1
  S  S11  1  0.377013  0.044795  0.863968  1
  S  S12  1  0.712669  0.712669  0.863975  1
  S  S13  1  0.209824  0.209824  0.369820  1
  S  S14  1  0.542097  0.875977  0.369792  1
  S  S15  1  0.875977  0.542097  0.369792  1
  S  S16  1  0.124023  0.457903  0.630208  1
  S  S17  1  0.457903  0.124023  0.630208  1
  S  S18  1  0.790176  0.790176  0.630180  1
