# generated using pymatgen
data_Dy3ErCo8(PRu)12
_symmetry_space_group_name_H-M   'P 1'
_cell_length_a   3.78797000
_cell_length_b   10.63107302
_cell_length_c   12.10206002
_cell_angle_alpha   90.00689115
_cell_angle_beta   90.00000000
_cell_angle_gamma   90.00000000
_symmetry_Int_Tables_number   1
_chemical_formula_structural   Dy3ErCo8(PRu)12
_chemical_formula_sum   'Dy3 Er1 Co8 P12 Ru12'
_cell_volume   487.35220048
_cell_formula_units_Z   1
loop_
 _symmetry_equiv_pos_site_id
 _symmetry_equiv_pos_as_xyz
  1  'x, y, z'
loop_
 _atom_site_type_symbol
 _atom_site_label
 _atom_site_symmetry_multiplicity
 _atom_site_fract_x
 _atom_site_fract_y
 _atom_site_fract_z
 _atom_site_occupancy
  Dy  Dy0  1  0.250000  0.584579  0.706687  1
  Dy  Dy1  1  0.250000  0.915441  0.206670  1
  Dy  Dy2  1  0.750000  0.415452  0.293298  1
  Er  Er3  1  0.750000  0.084523  0.793413  1
  Co  Co4  1  0.250000  0.888334  0.696171  1
  Co  Co5  1  0.250000  0.612077  0.195844  1
  Co  Co6  1  0.750000  0.112101  0.304151  1
  Co  Co7  1  0.750000  0.387778  0.804097  1
  Co  Co8  1  0.250000  0.462757  0.934985  1
  Co  Co9  1  0.250000  0.037154  0.435144  1
  Co  Co10  1  0.750000  0.537122  0.064983  1
  Co  Co11  1  0.750000  0.963007  0.565314  1
  P  P12  1  0.250000  0.425667  0.112628  1
  P  P13  1  0.250000  0.074269  0.613324  1
  P  P14  1  0.750000  0.574342  0.887319  1
  P  P15  1  0.750000  0.925705  0.387349  1
  P  P16  1  0.250000  0.271336  0.871529  1
  P  P17  1  0.250000  0.228126  0.371704  1
  P  P18  1  0.750000  0.728151  0.128224  1
  P  P19  1  0.750000  0.771840  0.628257  1
  P  P20  1  0.250000  0.601231  0.386846  1
  P  P21  1  0.250000  0.899217  0.886578  1
  P  P22  1  0.750000  0.398795  0.613134  1
  P  P23  1  0.750000  0.101319  0.113162  1
  Ru  Ru24  1  0.250000  0.706389  0.986299  1
  Ru  Ru25  1  0.250000  0.793706  0.486395  1
  Ru  Ru26  1  0.750000  0.293672  0.013608  1
  Ru  Ru27  1  0.750000  0.206346  0.513632  1
  Ru  Ru28  1  0.250000  0.405433  0.486233  1
  Ru  Ru29  1  0.250000  0.094534  0.985372  1
  Ru  Ru30  1  0.750000  0.594520  0.513837  1
  Ru  Ru31  1  0.750000  0.905597  0.013693  1
  Ru  Ru32  1  0.250000  0.223626  0.180311  1
  Ru  Ru33  1  0.250000  0.275616  0.680704  1
  Ru  Ru34  1  0.750000  0.776487  0.819552  1
  Ru  Ru35  1  0.750000  0.723749  0.319554  1
