# generated using pymatgen
data_CaLa8ErIr6
_symmetry_space_group_name_H-M   'P 1'
_cell_length_a   11.41150400
_cell_length_b   11.41150400
_cell_length_c   6.51851300
_cell_angle_alpha   90.00000000
_cell_angle_beta   90.00000000
_cell_angle_gamma   90.00000000
_symmetry_Int_Tables_number   1
_chemical_formula_structural   CaLa8ErIr6
_chemical_formula_sum   'Ca2 La16 Er2 Ir12'
_cell_volume   848.85656075
_cell_formula_units_Z   2
loop_
 _symmetry_equiv_pos_site_id
 _symmetry_equiv_pos_as_xyz
  1  'x, y, z'
loop_
 _atom_site_type_symbol
 _atom_site_label
 _atom_site_symmetry_multiplicity
 _atom_site_fract_x
 _atom_site_fract_y
 _atom_site_fract_z
 _atom_site_occupancy
  Ca  Ca0  1  0.000000  0.000000  0.500000  1
  Ca  Ca1  1  0.000000  0.000000  0.000000  1
  La  La2  1  0.287696  0.088625  0.389234  1
  La  La3  1  0.287696  0.911375  0.889234  1
  La  La4  1  0.712304  0.088625  0.889234  1
  La  La5  1  0.712304  0.911375  0.389234  1
  La  La6  1  0.588975  0.787804  0.887779  1
  La  La7  1  0.588975  0.212196  0.387779  1
  La  La8  1  0.411025  0.787804  0.387779  1
  La  La9  1  0.411025  0.212196  0.887779  1
  La  La10  1  0.212196  0.411025  0.612221  1
  La  La11  1  0.212196  0.588975  0.112221  1
  La  La12  1  0.787804  0.411025  0.112221  1
  La  La13  1  0.787804  0.588975  0.612221  1
  La  La14  1  0.911375  0.712304  0.110766  1
  La  La15  1  0.911375  0.287696  0.610766  1
  La  La16  1  0.088625  0.712304  0.610766  1
  La  La17  1  0.088625  0.287696  0.110766  1
  Er  Er18  1  0.500000  0.500000  0.000000  1
  Er  Er19  1  0.500000  0.500000  0.500000  1
  Ir  Ir20  1  0.843705  0.156295  0.250000  1
  Ir  Ir21  1  0.843705  0.843705  0.750000  1
  Ir  Ir22  1  0.156295  0.156295  0.750000  1
  Ir  Ir23  1  0.156295  0.843705  0.250000  1
  Ir  Ir24  1  0.647605  0.352395  0.750000  1
  Ir  Ir25  1  0.647605  0.647605  0.250000  1
  Ir  Ir26  1  0.352395  0.352395  0.250000  1
  Ir  Ir27  1  0.352395  0.647605  0.750000  1
  Ir  Ir28  1  0.500000  0.000000  0.116844  1
  Ir  Ir29  1  0.500000  0.000000  0.616844  1
  Ir  Ir30  1  0.000000  0.500000  0.883156  1
  Ir  Ir31  1  0.000000  0.500000  0.383156  1
