# generated using pymatgen
data_SmY(MgSn)2
_symmetry_space_group_name_H-M   'P 1'
_cell_length_a   4.41392060
_cell_length_b   4.41392144
_cell_length_c   8.55506800
_cell_angle_alpha   104.94971953
_cell_angle_beta   104.94970902
_cell_angle_gamma   89.99999491
_symmetry_Int_Tables_number   1
_chemical_formula_structural   SmY(MgSn)2
_chemical_formula_sum   'Sm1 Y1 Mg2 Sn2'
_cell_volume   155.18777895
_cell_formula_units_Z   1
loop_
 _symmetry_equiv_pos_site_id
 _symmetry_equiv_pos_as_xyz
  1  'x, y, z'
loop_
 _atom_site_type_symbol
 _atom_site_label
 _atom_site_symmetry_multiplicity
 _atom_site_fract_x
 _atom_site_fract_y
 _atom_site_fract_z
 _atom_site_occupancy
  Sm  Sm0  1  0.333330  0.333330  0.666659  1
  Y  Y1  1  0.666305  0.666305  0.332613  1
  Mg  Mg2  1  0.500172  0.000173  0.000346  1
  Mg  Mg3  1  0.000173  0.500172  0.000346  1
  Sn  Sn4  1  0.135319  0.135319  0.270637  1
  Sn  Sn5  1  0.864697  0.864697  0.729399  1
