# generated using pymatgen
data_Y5Er3Pd4
_symmetry_space_group_name_H-M   'P 1'
_cell_length_a   4.87563200
_cell_length_b   7.16817303
_cell_length_c   8.75016487
_cell_angle_alpha   89.78221672
_cell_angle_beta   90.00000000
_cell_angle_gamma   90.00000000
_symmetry_Int_Tables_number   1
_chemical_formula_structural   Y5Er3Pd4
_chemical_formula_sum   'Y5 Er3 Pd4'
_cell_volume   305.81057376
_cell_formula_units_Z   1
loop_
 _symmetry_equiv_pos_site_id
 _symmetry_equiv_pos_as_xyz
  1  'x, y, z'
loop_
 _atom_site_type_symbol
 _atom_site_label
 _atom_site_symmetry_multiplicity
 _atom_site_fract_x
 _atom_site_fract_y
 _atom_site_fract_z
 _atom_site_occupancy
  Y  Y0  1  0.750000  0.644757  0.419553  1
  Y  Y1  1  0.250000  0.986791  0.329080  1
  Y  Y2  1  0.250000  0.484646  0.169968  1
  Y  Y3  1  0.750000  0.015279  0.673188  1
  Y  Y4  1  0.750000  0.514944  0.828186  1
  Er  Er5  1  0.250000  0.856871  0.920601  1
  Er  Er6  1  0.250000  0.355848  0.580161  1
  Er  Er7  1  0.750000  0.143458  0.079638  1
  Pd  Pd8  1  0.250000  0.253351  0.905819  1
  Pd  Pd9  1  0.250000  0.754824  0.596927  1
  Pd  Pd10  1  0.750000  0.746798  0.090795  1
  Pd  Pd11  1  0.750000  0.242431  0.406084  1
