# generated using pymatgen
data_La3Yb(AlPt)4
_symmetry_space_group_name_H-M   'P 1'
_cell_length_a   4.51473600
_cell_length_b   7.15594589
_cell_length_c   7.94190329
_cell_angle_alpha   91.04979301
_cell_angle_beta   90.00000000
_cell_angle_gamma   90.00000000
_symmetry_Int_Tables_number   1
_chemical_formula_structural   La3Yb(AlPt)4
_chemical_formula_sum   'La3 Yb1 Al4 Pt4'
_cell_volume   256.53764294
_cell_formula_units_Z   1
loop_
 _symmetry_equiv_pos_site_id
 _symmetry_equiv_pos_as_xyz
  1  'x, y, z'
loop_
 _atom_site_type_symbol
 _atom_site_label
 _atom_site_symmetry_multiplicity
 _atom_site_fract_x
 _atom_site_fract_y
 _atom_site_fract_z
 _atom_site_occupancy
  La  La0  1  0.250000  0.035719  0.322216  1
  La  La1  1  0.250000  0.531169  0.170907  1
  La  La2  1  0.750000  0.964587  0.679488  1
  Yb  Yb3  1  0.750000  0.467363  0.820480  1
  Al  Al4  1  0.250000  0.142831  0.935202  1
  Al  Al5  1  0.250000  0.634789  0.566454  1
  Al  Al6  1  0.750000  0.858016  0.060499  1
  Al  Al7  1  0.750000  0.364543  0.443039  1
  Pt  Pt8  1  0.250000  0.283227  0.625708  1
  Pt  Pt9  1  0.250000  0.780456  0.881020  1
  Pt  Pt10  1  0.750000  0.718124  0.377137  1
  Pt  Pt11  1  0.750000  0.219176  0.117849  1
