# generated using pymatgen
data_CeTh(SBr)4
_symmetry_space_group_name_H-M   'P 1'
_cell_length_a   7.52832512
_cell_length_b   7.52832480
_cell_length_c   7.78790735
_cell_angle_alpha   79.37259239
_cell_angle_beta   79.37258922
_cell_angle_gamma   121.11414531
_symmetry_Int_Tables_number   1
_chemical_formula_structural   CeTh(SBr)4
_chemical_formula_sum   'Ce1 Th1 S4 Br4'
_cell_volume   350.28335144
_cell_formula_units_Z   1
loop_
 _symmetry_equiv_pos_site_id
 _symmetry_equiv_pos_as_xyz
  1  'x, y, z'
loop_
 _atom_site_type_symbol
 _atom_site_label
 _atom_site_symmetry_multiplicity
 _atom_site_fract_x
 _atom_site_fract_y
 _atom_site_fract_z
 _atom_site_occupancy
  Ce  Ce0  1  0.146592  0.853408  0.000000  1
  Th  Th1  1  0.851347  0.148653  0.000000  1
  S  S2  1  0.131219  0.128945  0.716224  1
  S  S3  1  0.871055  0.868781  0.283776  1
  S  S4  1  0.704236  0.701378  0.123598  1
  S  S5  1  0.298622  0.295764  0.876402  1
  Br  Br6  1  0.027461  0.429535  0.233449  1
  Br  Br7  1  0.425211  0.026208  0.234852  1
  Br  Br8  1  0.973792  0.574789  0.765148  1
  Br  Br9  1  0.570465  0.972539  0.766551  1
