# generated using pymatgen
data_YbEr3(Tm3Pt4)2
_symmetry_space_group_name_H-M   'P 1'
_cell_length_a   7.42338900
_cell_length_b   7.51619716
_cell_length_c   14.62239600
_cell_angle_alpha   90.07909601
_cell_angle_beta   90.00000000
_cell_angle_gamma   90.00000000
_symmetry_Int_Tables_number   1
_chemical_formula_structural   YbEr3(Tm3Pt4)2
_chemical_formula_sum   'Yb2 Er6 Tm12 Pt16'
_cell_volume   815.86538996
_cell_formula_units_Z   2
loop_
 _symmetry_equiv_pos_site_id
 _symmetry_equiv_pos_as_xyz
  1  'x, y, z'
loop_
 _atom_site_type_symbol
 _atom_site_label
 _atom_site_symmetry_multiplicity
 _atom_site_fract_x
 _atom_site_fract_y
 _atom_site_fract_z
 _atom_site_occupancy
  Yb  Yb0  1  0.498993  0.679371  0.593170  1
  Yb  Yb1  1  0.998993  0.820629  0.906830  1
  Er  Er2  1  0.498134  0.318486  0.092189  1
  Er  Er3  1  0.998134  0.181514  0.407811  1
  Er  Er4  1  0.498029  0.317588  0.406456  1
  Er  Er5  1  0.998029  0.182412  0.093544  1
  Er  Er6  1  0.500834  0.679908  0.906416  1
  Er  Er7  1  0.000834  0.820092  0.593584  1
  Tm  Tm8  1  0.654186  0.166114  0.622367  1
  Tm  Tm9  1  0.154186  0.333886  0.877633  1
  Tm  Tm10  1  0.344568  0.832568  0.122682  1
  Tm  Tm11  1  0.844568  0.667432  0.377318  1
  Tm  Tm12  1  0.345382  0.832795  0.378368  1
  Tm  Tm13  1  0.845382  0.667205  0.121632  1
  Tm  Tm14  1  0.655765  0.164600  0.877298  1
  Tm  Tm15  1  0.155765  0.335400  0.622702  1
  Tm  Tm16  1  0.817871  0.511138  0.749775  1
  Tm  Tm17  1  0.317871  0.988862  0.750225  1
  Tm  Tm18  1  0.181633  0.490070  0.249980  1
  Tm  Tm19  1  0.681633  0.009930  0.250020  1
  Pt  Pt20  1  0.686473  0.971388  0.456644  1
  Pt  Pt21  1  0.186473  0.528612  0.043356  1
  Pt  Pt22  1  0.322818  0.038526  0.958503  1
  Pt  Pt23  1  0.822818  0.461474  0.541497  1
  Pt  Pt24  1  0.312053  0.038080  0.541187  1
  Pt  Pt25  1  0.812053  0.461920  0.958813  1
  Pt  Pt26  1  0.679006  0.969610  0.045270  1
  Pt  Pt27  1  0.179006  0.530390  0.454730  1
  Pt  Pt28  1  0.454499  0.381273  0.752133  1
  Pt  Pt29  1  0.954499  0.118727  0.747867  1
  Pt  Pt30  1  0.547564  0.615536  0.250265  1
  Pt  Pt31  1  0.047564  0.884464  0.249735  1
  Pt  Pt32  1  0.684100  0.860740  0.751836  1
  Pt  Pt33  1  0.184100  0.639260  0.748164  1
  Pt  Pt34  1  0.318092  0.142413  0.249974  1
  Pt  Pt35  1  0.818092  0.357587  0.250026  1
