# generated using pymatgen
data_Dy9Y7(CdCo)4
_symmetry_space_group_name_H-M   'P 1'
_cell_length_a   9.54847209
_cell_length_b   9.54847257
_cell_length_c   9.55298100
_cell_angle_alpha   59.98438321
_cell_angle_beta   59.98438156
_cell_angle_gamma   60.09988161
_symmetry_Int_Tables_number   1
_chemical_formula_structural   Dy9Y7(CdCo)4
_chemical_formula_sum   'Dy9 Y7 Cd4 Co4'
_cell_volume   616.19156051
_cell_formula_units_Z   1
loop_
 _symmetry_equiv_pos_site_id
 _symmetry_equiv_pos_as_xyz
  1  'x, y, z'
loop_
 _atom_site_type_symbol
 _atom_site_label
 _atom_site_symmetry_multiplicity
 _atom_site_fract_x
 _atom_site_fract_y
 _atom_site_fract_z
 _atom_site_occupancy
  Dy  Dy0  1  0.595504  0.595504  0.595306  1
  Dy  Dy1  1  0.595504  0.595504  0.213684  1
  Dy  Dy2  1  0.597684  0.210928  0.595694  1
  Dy  Dy3  1  0.210928  0.597684  0.595694  1
  Dy  Dy4  1  0.060932  0.437800  0.438836  1
  Dy  Dy5  1  0.437800  0.060932  0.062433  1
  Dy  Dy6  1  0.437800  0.060932  0.438836  1
  Dy  Dy7  1  0.060932  0.437800  0.062433  1
  Dy  Dy8  1  0.438153  0.438153  0.061847  1
  Y  Y9  1  0.062058  0.062058  0.437942  1
  Y  Y10  1  0.189403  0.811476  0.811470  1
  Y  Y11  1  0.811476  0.189403  0.187650  1
  Y  Y12  1  0.811476  0.189403  0.811470  1
  Y  Y13  1  0.189403  0.811476  0.187650  1
  Y  Y14  1  0.810991  0.810991  0.189009  1
  Y  Y15  1  0.189437  0.189437  0.810563  1
  Cd  Cd16  1  0.830237  0.830237  0.830450  1
  Cd  Cd17  1  0.830237  0.830237  0.509074  1
  Cd  Cd18  1  0.830039  0.507657  0.831151  1
  Cd  Cd19  1  0.507657  0.830039  0.831151  1
  Co  Co20  1  0.390831  0.390831  0.391582  1
  Co  Co21  1  0.390831  0.390831  0.826757  1
  Co  Co22  1  0.393858  0.826827  0.389658  1
  Co  Co23  1  0.826827  0.393858  0.389658  1
