# generated using pymatgen
data_Cs2Cu3PtF12
_symmetry_space_group_name_H-M   'P 1'
_cell_length_a   8.02118002
_cell_length_b   8.02118021
_cell_length_c   8.02117934
_cell_angle_alpha   52.96194556
_cell_angle_beta   52.96194890
_cell_angle_gamma   52.96193852
_symmetry_Int_Tables_number   1
_chemical_formula_structural   Cs2Cu3PtF12
_chemical_formula_sum   'Cs2 Cu3 Pt1 F12'
_cell_volume   304.71558828
_cell_formula_units_Z   1
loop_
 _symmetry_equiv_pos_site_id
 _symmetry_equiv_pos_as_xyz
  1  'x, y, z'
loop_
 _atom_site_type_symbol
 _atom_site_label
 _atom_site_symmetry_multiplicity
 _atom_site_fract_x
 _atom_site_fract_y
 _atom_site_fract_z
 _atom_site_occupancy
  Cs  Cs0  1  0.887944  0.887944  0.887944  1
  Cs  Cs1  1  0.112056  0.112056  0.112056  1
  Cu  Cu2  1  0.500000  0.500000  0.000000  1
  Cu  Cu3  1  0.000000  0.500000  0.500000  1
  Cu  Cu4  1  0.500000  0.000000  0.500000  1
  Pt  Pt5  1  0.500000  0.500000  0.500000  1
  F  F6  1  0.817048  0.422818  0.817048  1
  F  F7  1  0.817048  0.817048  0.422818  1
  F  F8  1  0.422818  0.817048  0.817048  1
  F  F9  1  0.182952  0.577182  0.182952  1
  F  F10  1  0.182952  0.182952  0.577182  1
  F  F11  1  0.577182  0.182952  0.182952  1
  F  F12  1  0.419277  0.819797  0.419277  1
  F  F13  1  0.419277  0.419277  0.819797  1
  F  F14  1  0.819797  0.419277  0.419277  1
  F  F15  1  0.580723  0.180203  0.580723  1
  F  F16  1  0.580723  0.580723  0.180203  1
  F  F17  1  0.180203  0.580723  0.580723  1
