# generated using pymatgen
data_Rb16ZrSnSb8
_symmetry_space_group_name_H-M   'P 1'
_cell_length_a   12.09540438
_cell_length_b   12.09540438
_cell_length_c   12.09540500
_cell_angle_alpha   59.99999558
_cell_angle_beta   59.99999558
_cell_angle_gamma   59.99999863
_symmetry_Int_Tables_number   1
_chemical_formula_structural   Rb16ZrSnSb8
_chemical_formula_sum   'Rb16 Zr1 Sn1 Sb8'
_cell_volume   1251.25598746
_cell_formula_units_Z   1
loop_
 _symmetry_equiv_pos_site_id
 _symmetry_equiv_pos_as_xyz
  1  'x, y, z'
loop_
 _atom_site_type_symbol
 _atom_site_label
 _atom_site_symmetry_multiplicity
 _atom_site_fract_x
 _atom_site_fract_y
 _atom_site_fract_z
 _atom_site_occupancy
  Rb  Rb0  1  0.623625  0.129125  0.623625  1
  Rb  Rb1  1  0.623625  0.623625  0.129125  1
  Rb  Rb2  1  0.129125  0.623625  0.623625  1
  Rb  Rb3  1  0.623625  0.623625  0.623625  1
  Rb  Rb4  1  0.022416  0.022416  0.477584  1
  Rb  Rb5  1  0.776514  0.223486  0.223486  1
  Rb  Rb6  1  0.223486  0.776514  0.776514  1
  Rb  Rb7  1  0.776514  0.776514  0.223486  1
  Rb  Rb8  1  0.776514  0.223486  0.776514  1
  Rb  Rb9  1  0.223486  0.776514  0.223486  1
  Rb  Rb10  1  0.477584  0.022416  0.477584  1
  Rb  Rb11  1  0.477584  0.022416  0.022416  1
  Rb  Rb12  1  0.022416  0.477584  0.477584  1
  Rb  Rb13  1  0.022416  0.477584  0.022416  1
  Rb  Rb14  1  0.223486  0.223486  0.776514  1
  Rb  Rb15  1  0.477584  0.477584  0.022416  1
  Zr  Zr16  1  0.750000  0.750000  0.750000  1
  Sn  Sn17  1  0.500000  0.500000  0.500000  1
  Sb  Sb18  1  0.399211  0.802366  0.399211  1
  Sb  Sb19  1  0.848083  0.848083  0.455752  1
  Sb  Sb20  1  0.455752  0.848083  0.848083  1
  Sb  Sb21  1  0.848083  0.848083  0.848083  1
  Sb  Sb22  1  0.802366  0.399211  0.399211  1
  Sb  Sb23  1  0.399211  0.399211  0.399211  1
  Sb  Sb24  1  0.399211  0.399211  0.802366  1
  Sb  Sb25  1  0.848083  0.455752  0.848083  1
