# generated using pymatgen
data_Hf6Zn20Cu2SiRh
_symmetry_space_group_name_H-M   'P 1'
_cell_length_a   8.73507708
_cell_length_b   8.73507648
_cell_length_c   8.74976800
_cell_angle_alpha   59.94434760
_cell_angle_beta   59.94434990
_cell_angle_gamma   60.11130747
_symmetry_Int_Tables_number   1
_chemical_formula_structural   Hf6Zn20Cu2SiRh
_chemical_formula_sum   'Hf6 Zn20 Cu2 Si1 Rh1'
_cell_volume   472.07668157
_cell_formula_units_Z   1
loop_
 _symmetry_equiv_pos_site_id
 _symmetry_equiv_pos_as_xyz
  1  'x, y, z'
loop_
 _atom_site_type_symbol
 _atom_site_label
 _atom_site_symmetry_multiplicity
 _atom_site_fract_x
 _atom_site_fract_y
 _atom_site_fract_z
 _atom_site_occupancy
  Hf  Hf0  1  0.708746  0.291254  0.291254  1
  Hf  Hf1  1  0.291254  0.708746  0.708746  1
  Hf  Hf2  1  0.291254  0.708746  0.291254  1
  Hf  Hf3  1  0.708746  0.291254  0.708746  1
  Hf  Hf4  1  0.289108  0.289108  0.710892  1
  Hf  Hf5  1  0.710892  0.710892  0.289108  1
  Zn  Zn6  1  0.118657  0.118657  0.126581  1
  Zn  Zn7  1  0.881343  0.881343  0.873419  1
  Zn  Zn8  1  0.118657  0.118657  0.636105  1
  Zn  Zn9  1  0.126581  0.636105  0.118657  1
  Zn  Zn10  1  0.881343  0.881343  0.363895  1
  Zn  Zn11  1  0.873419  0.363895  0.881343  1
  Zn  Zn12  1  0.636105  0.126581  0.118657  1
  Zn  Zn13  1  0.363895  0.873419  0.881343  1
  Zn  Zn14  1  0.500000  0.000000  0.000000  1
  Zn  Zn15  1  0.000000  0.500000  0.500000  1
  Zn  Zn16  1  0.000000  0.500000  0.000000  1
  Zn  Zn17  1  0.500000  0.000000  0.500000  1
  Zn  Zn18  1  0.338747  0.338747  0.331603  1
  Zn  Zn19  1  0.661253  0.661253  0.668397  1
  Zn  Zn20  1  0.338747  0.338747  0.990903  1
  Zn  Zn21  1  0.331603  0.990903  0.338747  1
  Zn  Zn22  1  0.661253  0.661253  0.009097  1
  Zn  Zn23  1  0.668397  0.009097  0.661253  1
  Zn  Zn24  1  0.990903  0.331603  0.338747  1
  Zn  Zn25  1  0.009097  0.668397  0.661253  1
  Cu  Cu26  1  0.000000  0.000000  0.500000  1
  Cu  Cu27  1  0.500000  0.500000  0.000000  1
  Si  Si28  1  0.500000  0.500000  0.500000  1
  Rh  Rh29  1  0.000000  0.000000  0.000000  1
