# generated using pymatgen
data_Nd13Th3MgCd3Ir4
_symmetry_space_group_name_H-M   'P 1'
_cell_length_a   9.97437775
_cell_length_b   10.00586728
_cell_length_c   10.00586687
_cell_angle_alpha   60.15330492
_cell_angle_beta   60.04253789
_cell_angle_gamma   60.04254182
_symmetry_Int_Tables_number   1
_chemical_formula_structural   Nd13Th3MgCd3Ir4
_chemical_formula_sum   'Nd13 Th3 Mg1 Cd3 Ir4'
_cell_volume   707.39260816
_cell_formula_units_Z   1
loop_
 _symmetry_equiv_pos_site_id
 _symmetry_equiv_pos_as_xyz
  1  'x, y, z'
loop_
 _atom_site_type_symbol
 _atom_site_label
 _atom_site_symmetry_multiplicity
 _atom_site_fract_x
 _atom_site_fract_y
 _atom_site_fract_z
 _atom_site_occupancy
  Nd  Nd0  1  0.952301  0.349152  0.349152  1
  Nd  Nd1  1  0.809944  0.190811  0.190811  1
  Nd  Nd2  1  0.189932  0.810526  0.810526  1
  Nd  Nd3  1  0.190935  0.809361  0.190666  1
  Nd  Nd4  1  0.810725  0.188639  0.810252  1
  Nd  Nd5  1  0.190935  0.190666  0.809361  1
  Nd  Nd6  1  0.810725  0.810252  0.188639  1
  Nd  Nd7  1  0.942277  0.562754  0.562754  1
  Nd  Nd8  1  0.560233  0.938625  0.938625  1
  Nd  Nd9  1  0.561878  0.940695  0.562548  1
  Nd  Nd10  1  0.939475  0.560989  0.936827  1
  Nd  Nd11  1  0.561878  0.562548  0.940695  1
  Nd  Nd12  1  0.939475  0.936827  0.560989  1
  Th  Th13  1  0.344902  0.346328  0.346328  1
  Th  Th14  1  0.344756  0.347195  0.960803  1
  Th  Th15  1  0.344756  0.960803  0.347195  1
  Mg  Mg16  1  0.575029  0.577294  0.577294  1
  Cd  Cd17  1  0.579306  0.581159  0.258995  1
  Cd  Cd18  1  0.579306  0.258995  0.581159  1
  Cd  Cd19  1  0.257194  0.581038  0.581038  1
  Ir  Ir20  1  0.150691  0.141389  0.141389  1
  Ir  Ir21  1  0.150059  0.141683  0.566652  1
  Ir  Ir22  1  0.150059  0.566652  0.141683  1
  Ir  Ir23  1  0.563227  0.145615  0.145615  1
