# generated using pymatgen
data_LaTbMo3As7Rh9
_symmetry_space_group_name_H-M   'P 1'
_cell_length_a   4.04611700
_cell_length_b   9.90160235
_cell_length_c   9.90168701
_cell_angle_alpha   119.99944063
_cell_angle_beta   90.00118175
_cell_angle_gamma   89.99858516
_symmetry_Int_Tables_number   1
_chemical_formula_structural   LaTbMo3As7Rh9
_chemical_formula_sum   'La1 Tb1 Mo3 As7 Rh9'
_cell_volume   343.54702494
_cell_formula_units_Z   1
loop_
 _symmetry_equiv_pos_site_id
 _symmetry_equiv_pos_as_xyz
  1  'x, y, z'
loop_
 _atom_site_type_symbol
 _atom_site_label
 _atom_site_symmetry_multiplicity
 _atom_site_fract_x
 _atom_site_fract_y
 _atom_site_fract_z
 _atom_site_occupancy
  La  La0  1  0.261895  0.666690  0.333367  1
  Tb  Tb1  1  0.761888  0.333330  0.666659  1
  Mo  Mo2  1  0.761968  0.093475  0.876464  1
  Mo  Mo3  1  0.761955  0.123579  0.217048  1
  Mo  Mo4  1  0.761967  0.782967  0.906542  1
  As  As5  1  0.262165  0.000007  0.000004  1
  As  As6  1  0.761859  0.885580  0.596902  1
  As  As7  1  0.761836  0.403103  0.288673  1
  As  As8  1  0.761841  0.711319  0.114417  1
  As  As9  1  0.261822  0.117107  0.412477  1
  As  As10  1  0.261817  0.587515  0.704607  1
  As  As11  1  0.261820  0.295374  0.882900  1
  Rh  Rh12  1  0.261927  0.881705  0.158135  1
  Rh  Rh13  1  0.261927  0.841878  0.723565  1
  Rh  Rh14  1  0.261914  0.276419  0.118320  1
  Rh  Rh15  1  0.761903  0.612621  0.565908  1
  Rh  Rh16  1  0.761893  0.434066  0.046680  1
  Rh  Rh17  1  0.761880  0.953282  0.387370  1
  Rh  Rh18  1  0.261898  0.369321  0.436186  1
  Rh  Rh19  1  0.261911  0.563767  0.933110  1
  Rh  Rh20  1  0.261912  0.066891  0.630663  1
