# generated using pymatgen
data_Th4Ga4Ru3Rh
_symmetry_space_group_name_H-M   'P 1'
_cell_length_a   4.22424100
_cell_length_b   7.03122988
_cell_length_c   8.25392531
_cell_angle_alpha   89.91884286
_cell_angle_beta   90.00000000
_cell_angle_gamma   90.00000000
_symmetry_Int_Tables_number   1
_chemical_formula_structural   Th4Ga4Ru3Rh
_chemical_formula_sum   'Th4 Ga4 Ru3 Rh1'
_cell_volume   245.15462097
_cell_formula_units_Z   1
loop_
 _symmetry_equiv_pos_site_id
 _symmetry_equiv_pos_as_xyz
  1  'x, y, z'
loop_
 _atom_site_type_symbol
 _atom_site_label
 _atom_site_symmetry_multiplicity
 _atom_site_fract_x
 _atom_site_fract_y
 _atom_site_fract_z
 _atom_site_occupancy
  Th  Th0  1  0.250000  0.953669  0.315664  1
  Th  Th1  1  0.250000  0.459258  0.181121  1
  Th  Th2  1  0.750000  0.042160  0.687264  1
  Th  Th3  1  0.750000  0.543024  0.815337  1
  Ga  Ga4  1  0.250000  0.370244  0.560152  1
  Ga  Ga5  1  0.250000  0.868661  0.939388  1
  Ga  Ga6  1  0.750000  0.633036  0.439331  1
  Ga  Ga7  1  0.750000  0.131012  0.060898  1
  Ru  Ru8  1  0.250000  0.252776  0.875461  1
  Ru  Ru9  1  0.250000  0.752586  0.622580  1
  Ru  Ru10  1  0.750000  0.746473  0.125576  1
  Rh  Rh11  1  0.750000  0.247103  0.377227  1
