# generated using pymatgen
data_SrGd3(BeSi3)2
_symmetry_space_group_name_H-M   'P 1'
_cell_length_a   8.08083727
_cell_length_b   8.00535847
_cell_length_c   5.75268500
_cell_angle_alpha   69.74984067
_cell_angle_beta   68.34572132
_cell_angle_gamma   41.90445841
_symmetry_Int_Tables_number   1
_chemical_formula_structural   SrGd3(BeSi3)2
_chemical_formula_sum   'Sr1 Gd3 Be2 Si6'
_cell_volume   229.47193117
_cell_formula_units_Z   1
loop_
 _symmetry_equiv_pos_site_id
 _symmetry_equiv_pos_as_xyz
  1  'x, y, z'
loop_
 _atom_site_type_symbol
 _atom_site_label
 _atom_site_symmetry_multiplicity
 _atom_site_fract_x
 _atom_site_fract_y
 _atom_site_fract_z
 _atom_site_occupancy
  Sr  Sr0  1  0.244553  0.755447  0.244553  1
  Gd  Gd1  1  0.750440  0.749560  0.750440  1
  Gd  Gd2  1  0.755063  0.244937  0.755063  1
  Gd  Gd3  1  0.250440  0.249560  0.250440  1
  Be  Be4  1  0.667522  0.666193  0.333807  1
  Be  Be5  1  0.333807  0.332478  0.667522  1
  Si  Si6  1  0.825966  0.347850  0.173747  1
  Si  Si7  1  0.652150  0.174034  0.347564  1
  Si  Si8  1  0.173747  0.652436  0.825966  1
  Si  Si9  1  0.347564  0.826253  0.652150  1
  Si  Si10  1  0.173058  0.174309  0.825691  1
  Si  Si11  1  0.825691  0.826942  0.173058  1
