# generated using pymatgen
data_DyLu5Al17Si7Os8
_symmetry_space_group_name_H-M   'P 1'
_cell_length_a   8.66427667
_cell_length_b   8.65533927
_cell_length_c   9.43488700
_cell_angle_alpha   90.00000000
_cell_angle_beta   90.00000000
_cell_angle_gamma   120.07085719
_symmetry_Int_Tables_number   1
_chemical_formula_structural   DyLu5Al17Si7Os8
_chemical_formula_sum   'Dy1 Lu5 Al17 Si7 Os8'
_cell_volume   612.31262167
_cell_formula_units_Z   1
loop_
 _symmetry_equiv_pos_site_id
 _symmetry_equiv_pos_as_xyz
  1  'x, y, z'
loop_
 _atom_site_type_symbol
 _atom_site_label
 _atom_site_symmetry_multiplicity
 _atom_site_fract_x
 _atom_site_fract_y
 _atom_site_fract_z
 _atom_site_occupancy
  Dy  Dy0  1  0.803662  0.191084  0.750000  1
  Lu  Lu1  1  0.194518  0.392712  0.250000  1
  Lu  Lu2  1  0.804583  0.609572  0.750000  1
  Lu  Lu3  1  0.606624  0.805513  0.250000  1
  Lu  Lu4  1  0.392385  0.193319  0.750000  1
  Lu  Lu5  1  0.197559  0.803420  0.250000  1
  Al  Al6  1  0.164782  0.329544  0.578479  1
  Al  Al7  1  0.834337  0.671802  0.420299  1
  Al  Al8  1  0.671303  0.834576  0.578141  1
  Al  Al9  1  0.834337  0.671802  0.079701  1
  Al  Al10  1  0.329028  0.165899  0.421325  1
  Al  Al11  1  0.164782  0.329544  0.921521  1
  Al  Al12  1  0.163312  0.834691  0.577505  1
  Al  Al13  1  0.329028  0.165899  0.078675  1
  Al  Al14  1  0.835534  0.164161  0.419498  1
  Al  Al15  1  0.671303  0.834576  0.921859  1
  Al  Al16  1  0.835534  0.164161  0.080502  1
  Al  Al17  1  0.163312  0.834691  0.922495  1
  Al  Al18  1  0.125651  0.565833  0.750000  1
  Al  Al19  1  0.564078  0.435607  0.250000  1
  Al  Al20  1  0.439028  0.565609  0.750000  1
  Al  Al21  1  0.999518  0.999679  0.250000  1
  Al  Al22  1  0.002047  0.998479  0.750000  1
  Si  Si23  1  0.333280  0.665003  0.040307  1
  Si  Si24  1  0.666298  0.335816  0.959768  1
  Si  Si25  1  0.666298  0.335816  0.540232  1
  Si  Si26  1  0.333280  0.665003  0.459693  1
  Si  Si27  1  0.563424  0.123526  0.250000  1
  Si  Si28  1  0.435912  0.873472  0.750000  1
  Si  Si29  1  0.875338  0.436003  0.250000  1
  Os  Os30  1  0.500107  0.000581  0.001904  1
  Os  Os31  1  0.999028  0.500230  0.007342  1
  Os  Os32  1  0.500107  0.000581  0.498096  1
  Os  Os33  1  0.500546  0.500307  0.000604  1
  Os  Os34  1  0.999028  0.500230  0.492658  1
  Os  Os35  1  0.500546  0.500307  0.499396  1
  Os  Os36  1  0.000283  0.000474  0.000163  1
  Os  Os37  1  0.000283  0.000474  0.499837  1
