# generated using pymatgen
data_Ce5Tm5(Sn3C)2
_symmetry_space_group_name_H-M   'P 1'
_cell_length_a   9.03341622
_cell_length_b   9.05913434
_cell_length_c   6.48525000
_cell_angle_alpha   90.00000000
_cell_angle_beta   90.00000000
_cell_angle_gamma   120.09423247
_symmetry_Int_Tables_number   1
_chemical_formula_structural   Ce5Tm5(Sn3C)2
_chemical_formula_sum   'Ce5 Tm5 Sn6 C2'
_cell_volume   459.17994067
_cell_formula_units_Z   1
loop_
 _symmetry_equiv_pos_site_id
 _symmetry_equiv_pos_as_xyz
  1  'x, y, z'
loop_
 _atom_site_type_symbol
 _atom_site_label
 _atom_site_symmetry_multiplicity
 _atom_site_fract_x
 _atom_site_fract_y
 _atom_site_fract_z
 _atom_site_occupancy
  Ce  Ce0  1  0.782477  0.781718  0.250000  1
  Ce  Ce1  1  0.217523  0.999241  0.250000  1
  Ce  Ce2  1  0.000000  0.216642  0.250000  1
  Ce  Ce3  1  0.218317  0.217764  0.750000  1
  Ce  Ce4  1  0.781683  0.999447  0.750000  1
  Tm  Tm5  1  0.666288  0.333506  0.499992  1
  Tm  Tm6  1  0.333712  0.667218  0.499992  1
  Tm  Tm7  1  0.333712  0.667218  0.000008  1
  Tm  Tm8  1  0.666288  0.333506  0.000008  1
  Tm  Tm9  1  0.000000  0.784338  0.750000  1
  Sn  Sn10  1  0.407694  0.407674  0.250000  1
  Sn  Sn11  1  0.592306  0.999980  0.250000  1
  Sn  Sn12  1  0.000000  0.591358  0.250000  1
  Sn  Sn13  1  0.596781  0.593743  0.750000  1
  Sn  Sn14  1  0.403219  0.996962  0.750000  1
  Sn  Sn15  1  0.000000  0.409857  0.750000  1
  C  C16  1  0.000000  0.999914  0.501167  1
  C  C17  1  0.000000  0.999914  0.998833  1
