# generated using pymatgen
data_Zr6Ti2Al14BRh7
_symmetry_space_group_name_H-M   'P 1'
_cell_length_a   8.77758170
_cell_length_b   8.77758233
_cell_length_c   8.77758200
_cell_angle_alpha   120.14692795
_cell_angle_beta   119.85871974
_cell_angle_gamma   89.99528700
_symmetry_Int_Tables_number   1
_chemical_formula_structural   Zr6Ti2Al14BRh7
_chemical_formula_sum   'Zr6 Ti2 Al14 B1 Rh7'
_cell_volume   478.17594953
_cell_formula_units_Z   1
loop_
 _symmetry_equiv_pos_site_id
 _symmetry_equiv_pos_as_xyz
  1  'x, y, z'
loop_
 _atom_site_type_symbol
 _atom_site_label
 _atom_site_symmetry_multiplicity
 _atom_site_fract_x
 _atom_site_fract_y
 _atom_site_fract_z
 _atom_site_occupancy
  Zr  Zr0  1  0.810971  0.308545  0.114918  1
  Zr  Zr1  1  0.193627  0.308545  0.497575  1
  Zr  Zr2  1  0.190840  0.690840  0.500000  1
  Zr  Zr3  1  0.193627  0.696053  0.885082  1
  Zr  Zr4  1  0.810971  0.696053  0.502425  1
  Zr  Zr5  1  0.805195  0.305195  0.500000  1
  Ti  Ti6  1  0.379987  0.122078  0.742091  1
  Ti  Ti7  1  0.379987  0.637896  0.257909  1
  Al  Al8  1  0.164951  0.333346  0.168395  1
  Al  Al9  1  0.164951  0.996556  0.831605  1
  Al  Al10  1  0.161402  0.335543  0.825859  1
  Al  Al11  1  0.509683  0.335543  0.174141  1
  Al  Al12  1  0.834875  0.664757  0.829883  1
  Al  Al13  1  0.834875  0.004991  0.170117  1
  Al  Al14  1  0.834536  0.664747  0.169789  1
  Al  Al15  1  0.494957  0.664747  0.830211  1
  Al  Al16  1  0.381193  0.119388  0.261805  1
  Al  Al17  1  0.857584  0.119388  0.738195  1
  Al  Al18  1  0.619882  0.879938  0.260056  1
  Al  Al19  1  0.619882  0.359825  0.739944  1
  Al  Al20  1  0.619008  0.878983  0.740026  1
  Al  Al21  1  0.138956  0.878983  0.259974  1
  B  B22  1  0.996815  0.496815  0.500000  1
  Rh  Rh23  1  0.003661  0.001534  0.502391  1
  Rh  Rh24  1  0.499142  0.001534  0.997873  1
  Rh  Rh25  1  0.497844  0.497844  0.000000  1
  Rh  Rh26  1  0.499142  0.501269  0.497609  1
  Rh  Rh27  1  0.003661  0.501269  0.002127  1
  Rh  Rh28  1  0.000932  0.000932  0.000000  1
  Rh  Rh29  1  0.496862  0.996862  0.500000  1
