# generated using pymatgen
data_Ba6HoErGa4O15
_symmetry_space_group_name_H-M   'P 1'
_cell_length_a   6.03326000
_cell_length_b   8.03891463
_cell_length_c   18.65228523
_cell_angle_alpha   91.29274327
_cell_angle_beta   90.00000000
_cell_angle_gamma   90.00000000
_symmetry_Int_Tables_number   1
_chemical_formula_structural   Ba6HoErGa4O15
_chemical_formula_sum   'Ba12 Ho2 Er2 Ga8 O30'
_cell_volume   904.42165708
_cell_formula_units_Z   2
loop_
 _symmetry_equiv_pos_site_id
 _symmetry_equiv_pos_as_xyz
  1  'x, y, z'
loop_
 _atom_site_type_symbol
 _atom_site_label
 _atom_site_symmetry_multiplicity
 _atom_site_fract_x
 _atom_site_fract_y
 _atom_site_fract_z
 _atom_site_occupancy
  Ba  Ba0  1  0.748560  0.026315  0.089535  1
  Ba  Ba1  1  0.754718  0.499008  0.421519  1
  Ba  Ba2  1  0.245143  0.500698  0.578683  1
  Ba  Ba3  1  0.251233  0.973521  0.910314  1
  Ba  Ba4  1  0.328898  0.500000  0.250000  1
  Ba  Ba5  1  0.754718  0.500992  0.078481  1
  Ba  Ba6  1  0.723937  0.000000  0.750000  1
  Ba  Ba7  1  0.276185  0.000000  0.250000  1
  Ba  Ba8  1  0.245143  0.499302  0.921317  1
  Ba  Ba9  1  0.671265  0.500000  0.750000  1
  Ba  Ba10  1  0.251233  0.026479  0.589686  1
  Ba  Ba11  1  0.748560  0.973685  0.410465  1
  Ho  Ho12  1  0.747178  0.247191  0.910324  1
  Ho  Ho13  1  0.747178  0.752809  0.589676  1
  Er  Er14  1  0.252944  0.752567  0.089559  1
  Er  Er15  1  0.252944  0.247433  0.410441  1
  Ga  Ga16  1  0.252497  0.754277  0.442061  1
  Ga  Ga17  1  0.773250  0.769892  0.233047  1
  Ga  Ga18  1  0.773250  0.230108  0.266953  1
  Ga  Ga19  1  0.252497  0.245723  0.057939  1
  Ga  Ga20  1  0.747225  0.754325  0.942066  1
  Ga  Ga21  1  0.226996  0.229923  0.766928  1
  Ga  Ga22  1  0.226996  0.770077  0.733072  1
  Ga  Ga23  1  0.747225  0.245675  0.557934  1
  O  O24  1  0.244769  0.531160  0.409807  1
  O  O25  1  0.509691  0.766072  0.499224  1
  O  O26  1  0.958372  0.275610  0.811261  1
  O  O27  1  0.011383  0.234055  0.992345  1
  O  O28  1  0.801535  0.000000  0.250000  1
  O  O29  1  0.330342  0.687356  0.816849  1
  O  O30  1  0.042653  0.275745  0.311187  1
  O  O31  1  0.546440  0.751857  0.163069  1
  O  O32  1  0.546440  0.248143  0.336931  1
  O  O33  1  0.330342  0.312644  0.683151  1
  O  O34  1  0.489239  0.766034  0.999112  1
  O  O35  1  0.236173  0.954564  0.392369  1
  O  O36  1  0.958372  0.724390  0.688739  1
  O  O37  1  0.453468  0.751852  0.663343  1
  O  O38  1  0.669530  0.687883  0.317061  1
  O  O39  1  0.198771  0.000000  0.750000  1
  O  O40  1  0.763576  0.046079  0.607868  1
  O  O41  1  0.754936  0.468148  0.590466  1
  O  O42  1  0.989388  0.765882  0.007566  1
  O  O43  1  0.754936  0.531852  0.909534  1
  O  O44  1  0.236173  0.045436  0.107631  1
  O  O45  1  0.763576  0.953921  0.892132  1
  O  O46  1  0.509691  0.233928  0.000776  1
  O  O47  1  0.453468  0.248148  0.836657  1
  O  O48  1  0.011383  0.765945  0.507655  1
  O  O49  1  0.669530  0.312117  0.182939  1
  O  O50  1  0.042653  0.724255  0.188813  1
  O  O51  1  0.989388  0.234118  0.492434  1
  O  O52  1  0.244769  0.468840  0.090192  1
  O  O53  1  0.489239  0.233966  0.500888  1
