# generated using pymatgen
data_La5Pr3(CdTc)2
_symmetry_space_group_name_H-M   'P 1'
_cell_length_a   10.07536658
_cell_length_b   10.07536641
_cell_length_c   10.07536600
_cell_angle_alpha   59.99999477
_cell_angle_beta   59.99999534
_cell_angle_gamma   60.00000011
_symmetry_Int_Tables_number   1
_chemical_formula_structural   La5Pr3(CdTc)2
_chemical_formula_sum   'La10 Pr6 Cd4 Tc4'
_cell_volume   723.21513571
_cell_formula_units_Z   2
loop_
 _symmetry_equiv_pos_site_id
 _symmetry_equiv_pos_as_xyz
  1  'x, y, z'
loop_
 _atom_site_type_symbol
 _atom_site_label
 _atom_site_symmetry_multiplicity
 _atom_site_fract_x
 _atom_site_fract_y
 _atom_site_fract_z
 _atom_site_occupancy
  La  La0  1  0.344954  0.344954  0.344954  1
  La  La1  1  0.344954  0.344954  0.965139  1
  La  La2  1  0.344954  0.965139  0.344954  1
  La  La3  1  0.965139  0.344954  0.344954  1
  La  La4  1  0.811464  0.188536  0.188536  1
  La  La5  1  0.188536  0.811464  0.811464  1
  La  La6  1  0.188536  0.811464  0.188536  1
  La  La7  1  0.811464  0.188536  0.811464  1
  La  La8  1  0.188536  0.188536  0.811464  1
  La  La9  1  0.811464  0.811464  0.188536  1
  Pr  Pr10  1  0.939760  0.560240  0.560240  1
  Pr  Pr11  1  0.560240  0.939760  0.939760  1
  Pr  Pr12  1  0.560240  0.939760  0.560240  1
  Pr  Pr13  1  0.939760  0.560240  0.939760  1
  Pr  Pr14  1  0.560240  0.560240  0.939760  1
  Pr  Pr15  1  0.939760  0.939760  0.560240  1
  Cd  Cd16  1  0.578868  0.578868  0.578868  1
  Cd  Cd17  1  0.578868  0.578868  0.263396  1
  Cd  Cd18  1  0.578868  0.263396  0.578868  1
  Cd  Cd19  1  0.263396  0.578868  0.578868  1
  Tc  Tc20  1  0.132964  0.132964  0.132964  1
  Tc  Tc21  1  0.132964  0.132964  0.601110  1
  Tc  Tc22  1  0.132964  0.601110  0.132964  1
  Tc  Tc23  1  0.601110  0.132964  0.132964  1
