# generated using pymatgen
data_TiNb3AlGaC2
_symmetry_space_group_name_H-M   'P 1'
_cell_length_a   3.13235300
_cell_length_b   3.13235351
_cell_length_c   13.74780700
_cell_angle_alpha   90.00000000
_cell_angle_beta   90.00000000
_cell_angle_gamma   120.00002625
_symmetry_Int_Tables_number   1
_chemical_formula_structural   TiNb3AlGaC2
_chemical_formula_sum   'Ti1 Nb3 Al1 Ga1 C2'
_cell_volume   116.81682886
_cell_formula_units_Z   1
loop_
 _symmetry_equiv_pos_site_id
 _symmetry_equiv_pos_as_xyz
  1  'x, y, z'
loop_
 _atom_site_type_symbol
 _atom_site_label
 _atom_site_symmetry_multiplicity
 _atom_site_fract_x
 _atom_site_fract_y
 _atom_site_fract_z
 _atom_site_occupancy
  Ti  Ti0  1  0.333333  0.666667  0.412274  1
  Nb  Nb1  1  0.666667  0.333333  0.585626  1
  Nb  Nb2  1  0.666667  0.333333  0.913291  1
  Nb  Nb3  1  0.333333  0.666667  0.091272  1
  Al  Al4  1  0.333333  0.666667  0.749149  1
  Ga  Ga5  1  0.666667  0.333333  0.253286  1
  C  C6  1  0.000000  0.000000  0.492745  1
  C  C7  1  0.000000  0.000000  0.002358  1
