# generated using pymatgen
data_Ca19In6Hg2N7
_symmetry_space_group_name_H-M   'P 1'
_cell_length_a   10.40613142
_cell_length_b   10.43224606
_cell_length_c   10.43224694
_cell_angle_alpha   60.28232416
_cell_angle_beta   60.08277253
_cell_angle_gamma   60.08277426
_symmetry_Int_Tables_number   1
_chemical_formula_structural   Ca19In6Hg2N7
_chemical_formula_sum   'Ca19 In6 Hg2 N7'
_cell_volume   803.51245742
_cell_formula_units_Z   1
loop_
 _symmetry_equiv_pos_site_id
 _symmetry_equiv_pos_as_xyz
  1  'x, y, z'
loop_
 _atom_site_type_symbol
 _atom_site_label
 _atom_site_symmetry_multiplicity
 _atom_site_fract_x
 _atom_site_fract_y
 _atom_site_fract_z
 _atom_site_occupancy
  Ca  Ca0  1  0.171956  0.501254  0.825612  1
  Ca  Ca1  1  0.500000  0.826999  0.173001  1
  Ca  Ca2  1  0.828044  0.174388  0.498746  1
  Ca  Ca3  1  0.166187  0.834568  0.165432  1
  Ca  Ca4  1  0.827139  0.500321  0.172114  1
  Ca  Ca5  1  0.172861  0.827886  0.499679  1
  Ca  Ca6  1  0.165488  0.167650  0.832350  1
  Ca  Ca7  1  0.172675  0.500013  0.499987  1
  Ca  Ca8  1  0.833813  0.834568  0.165432  1
  Ca  Ca9  1  0.834512  0.167650  0.832350  1
  Ca  Ca10  1  0.499573  0.827886  0.499679  1
  Ca  Ca11  1  0.500000  0.500425  0.499575  1
  Ca  Ca12  1  0.500427  0.500321  0.172114  1
  Ca  Ca13  1  0.166039  0.835384  0.832538  1
  Ca  Ca14  1  0.500000  0.174370  0.825630  1
  Ca  Ca15  1  0.498822  0.174388  0.498746  1
  Ca  Ca16  1  0.827325  0.500013  0.499987  1
  Ca  Ca17  1  0.833961  0.167462  0.164616  1
  Ca  Ca18  1  0.501178  0.501254  0.825612  1
  In  In19  1  0.474208  0.175260  0.176102  1
  In  In20  1  0.175761  0.472167  0.176310  1
  In  In21  1  0.525792  0.823898  0.824740  1
  In  In22  1  0.174429  0.175260  0.176102  1
  In  In23  1  0.825571  0.823898  0.824740  1
  In  In24  1  0.824239  0.823690  0.527833  1
  Hg  Hg25  1  0.170989  0.170740  0.487281  1
  Hg  Hg26  1  0.829011  0.512719  0.829260  1
  N  N27  1  0.674906  0.327384  0.672616  1
  N  N28  1  0.674296  0.326826  0.324582  1
  N  N29  1  0.325704  0.675418  0.673174  1
  N  N30  1  0.325388  0.674544  0.325456  1
  N  N31  1  0.325094  0.327384  0.672616  1
  N  N32  1  0.674612  0.674544  0.325456  1
  N  N33  1  0.000000  0.999467  0.000533  1
