# generated using pymatgen
data_Nd8Dy12Si15Br
_symmetry_space_group_name_H-M   'P 1'
_cell_length_a   7.62742337
_cell_length_b   7.77165476
_cell_length_c   14.82360731
_cell_angle_alpha   89.68762303
_cell_angle_beta   86.74716491
_cell_angle_gamma   89.99577659
_symmetry_Int_Tables_number   1
_chemical_formula_structural   Nd8Dy12Si15Br
_chemical_formula_sum   'Nd8 Dy12 Si15 Br1'
_cell_volume   877.28058104
_cell_formula_units_Z   1
loop_
 _symmetry_equiv_pos_site_id
 _symmetry_equiv_pos_as_xyz
  1  'x, y, z'
loop_
 _atom_site_type_symbol
 _atom_site_label
 _atom_site_symmetry_multiplicity
 _atom_site_fract_x
 _atom_site_fract_y
 _atom_site_fract_z
 _atom_site_occupancy
  Nd  Nd0  1  0.003904  0.830673  0.102986  1
  Nd  Nd1  1  0.474876  0.681878  0.398937  1
  Nd  Nd2  1  0.491845  0.310900  0.898498  1
  Nd  Nd3  1  0.024866  0.179591  0.600821  1
  Nd  Nd4  1  0.004649  0.171630  0.900346  1
  Nd  Nd5  1  0.524663  0.316737  0.599931  1
  Nd  Nd6  1  0.489953  0.689573  0.102733  1
  Nd  Nd7  1  0.975187  0.817021  0.399466  1
  Dy  Dy8  1  0.665322  0.993838  0.247550  1
  Dy  Dy9  1  0.163760  0.507860  0.245395  1
  Dy  Dy10  1  0.837738  0.491619  0.744026  1
  Dy  Dy11  1  0.333007  0.007036  0.751428  1
  Dy  Dy12  1  0.644127  0.842267  0.876664  1
  Dy  Dy13  1  0.177784  0.675675  0.623202  1
  Dy  Dy14  1  0.852053  0.327924  0.123593  1
  Dy  Dy15  1  0.323138  0.177340  0.378169  1
  Dy  Dy16  1  0.352098  0.170490  0.121102  1
  Dy  Dy17  1  0.823990  0.322861  0.377475  1
  Dy  Dy18  1  0.161710  0.668468  0.880368  1
  Dy  Dy19  1  0.677758  0.821484  0.623027  1
  Si  Si20  1  0.780398  0.622576  0.250632  1
  Si  Si21  1  0.281136  0.878840  0.252179  1
  Si  Si22  1  0.717178  0.125137  0.749190  1
  Si  Si23  1  0.216145  0.374918  0.749978  1
  Si  Si24  1  0.041652  0.114703  0.252190  1
  Si  Si25  1  0.541636  0.388299  0.251266  1
  Si  Si26  1  0.462174  0.610395  0.751375  1
  Si  Si27  1  0.959115  0.881331  0.751339  1
  Si  Si28  1  0.359571  0.968789  0.541830  1
  Si  Si29  1  0.696719  0.038309  0.041584  1
  Si  Si30  1  0.143095  0.469557  0.459097  1
  Si  Si31  1  0.196744  0.465136  0.044225  1
  Si  Si32  1  0.643084  0.028701  0.458450  1
  Si  Si33  1  0.308054  0.963831  0.956279  1
  Si  Si34  1  0.859228  0.528037  0.541558  1
  Br  Br35  1  0.791644  0.536575  0.953111  1
