# generated using pymatgen
data_Sc2ZnPdPt4
_symmetry_space_group_name_H-M   'P 1'
_cell_length_a   5.62346300
_cell_length_b   5.62346295
_cell_length_c   4.12037400
_cell_angle_alpha   90.00000000
_cell_angle_beta   90.00000000
_cell_angle_gamma   94.31230098
_symmetry_Int_Tables_number   1
_chemical_formula_structural   Sc2ZnPdPt4
_chemical_formula_sum   'Sc2 Zn1 Pd1 Pt4'
_cell_volume   129.93109324
_cell_formula_units_Z   1
loop_
 _symmetry_equiv_pos_site_id
 _symmetry_equiv_pos_as_xyz
  1  'x, y, z'
loop_
 _atom_site_type_symbol
 _atom_site_label
 _atom_site_symmetry_multiplicity
 _atom_site_fract_x
 _atom_site_fract_y
 _atom_site_fract_z
 _atom_site_occupancy
  Sc  Sc0  1  0.270553  0.730167  0.500000  1
  Sc  Sc1  1  0.730167  0.270553  0.500000  1
  Zn  Zn2  1  0.999096  0.999096  0.000000  1
  Pd  Pd3  1  0.771345  0.771345  0.500000  1
  Pt  Pt4  1  0.500636  0.500636  0.000000  1
  Pt  Pt5  1  0.500246  0.000589  0.000000  1
  Pt  Pt6  1  0.000589  0.500246  0.000000  1
  Pt  Pt7  1  0.227369  0.227369  0.500000  1
