# generated using pymatgen
data_Y6Al24Os3Ru3Pt2
_symmetry_space_group_name_H-M   'P 1'
_cell_length_a   8.81965053
_cell_length_b   8.83141969
_cell_length_c   9.56596317
_cell_angle_alpha   90.16927044
_cell_angle_beta   90.13383816
_cell_angle_gamma   119.76156281
_symmetry_Int_Tables_number   1
_chemical_formula_structural   Y6Al24Os3Ru3Pt2
_chemical_formula_sum   'Y6 Al24 Os3 Ru3 Pt2'
_cell_volume   646.80538616
_cell_formula_units_Z   1
loop_
 _symmetry_equiv_pos_site_id
 _symmetry_equiv_pos_as_xyz
  1  'x, y, z'
loop_
 _atom_site_type_symbol
 _atom_site_label
 _atom_site_symmetry_multiplicity
 _atom_site_fract_x
 _atom_site_fract_y
 _atom_site_fract_z
 _atom_site_occupancy
  Y  Y0  1  0.194460  0.385695  0.250897  1
  Y  Y1  1  0.805540  0.614305  0.749103  1
  Y  Y2  1  0.613631  0.806519  0.250037  1
  Y  Y3  1  0.386369  0.193481  0.749963  1
  Y  Y4  1  0.193125  0.809115  0.250647  1
  Y  Y5  1  0.806875  0.190885  0.749353  1
  Al  Al6  1  0.329194  0.661443  0.023617  1
  Al  Al7  1  0.670806  0.338557  0.976383  1
  Al  Al8  1  0.662125  0.330328  0.523045  1
  Al  Al9  1  0.337875  0.669672  0.476955  1
  Al  Al10  1  0.168221  0.325528  0.578075  1
  Al  Al11  1  0.831779  0.674472  0.421925  1
  Al  Al12  1  0.673399  0.836066  0.577151  1
  Al  Al13  1  0.836429  0.673953  0.077503  1
  Al  Al14  1  0.326601  0.163934  0.422849  1
  Al  Al15  1  0.163571  0.326047  0.922497  1
  Al  Al16  1  0.167343  0.842510  0.578477  1
  Al  Al17  1  0.325986  0.168541  0.077680  1
  Al  Al18  1  0.832657  0.157490  0.421523  1
  Al  Al19  1  0.674014  0.831459  0.922320  1
  Al  Al20  1  0.842973  0.167791  0.078277  1
  Al  Al21  1  0.157027  0.832209  0.921723  1
  Al  Al22  1  0.561608  0.125724  0.252375  1
  Al  Al23  1  0.438392  0.874276  0.747625  1
  Al  Al24  1  0.876609  0.439701  0.246749  1
  Al  Al25  1  0.123391  0.560299  0.753251  1
  Al  Al26  1  0.562004  0.438463  0.249940  1
  Al  Al27  1  0.437996  0.561537  0.750060  1
  Al  Al28  1  0.999595  0.000623  0.250038  1
  Al  Al29  1  0.000405  0.999377  0.749962  1
  Os  Os30  1  0.500000  0.000000  0.500000  1
  Os  Os31  1  0.500000  0.500000  0.000000  1
  Os  Os32  1  0.500000  0.500000  0.500000  1
  Ru  Ru33  1  0.000000  0.500000  0.000000  1
  Ru  Ru34  1  0.000000  0.000000  0.000000  1
  Ru  Ru35  1  0.000000  0.000000  0.500000  1
  Pt  Pt36  1  0.500000  0.000000  0.000000  1
  Pt  Pt37  1  0.000000  0.500000  0.500000  1
