# generated using pymatgen
data_YHf3(Al3Co)6
_symmetry_space_group_name_H-M   'P 1'
_cell_length_a   7.30224233
_cell_length_b   7.29162672
_cell_length_c   9.08111500
_cell_angle_alpha   90.00000000
_cell_angle_beta   90.00000000
_cell_angle_gamma   119.41609239
_symmetry_Int_Tables_number   1
_chemical_formula_structural   YHf3(Al3Co)6
_chemical_formula_sum   'Y1 Hf3 Al18 Co6'
_cell_volume   421.18785738
_cell_formula_units_Z   1
loop_
 _symmetry_equiv_pos_site_id
 _symmetry_equiv_pos_as_xyz
  1  'x, y, z'
loop_
 _atom_site_type_symbol
 _atom_site_label
 _atom_site_symmetry_multiplicity
 _atom_site_fract_x
 _atom_site_fract_y
 _atom_site_fract_z
 _atom_site_occupancy
  Y  Y0  1  0.327795  0.007884  0.750000  1
  Hf  Hf1  1  0.992363  0.672353  0.250000  1
  Hf  Hf2  1  0.006256  0.327771  0.750000  1
  Hf  Hf3  1  0.673551  0.993028  0.250000  1
  Al  Al4  1  0.117398  0.118256  0.250000  1
  Al  Al5  1  0.875482  0.879878  0.750000  1
  Al  Al6  1  0.329744  0.332405  0.543911  1
  Al  Al7  1  0.670140  0.670105  0.050453  1
  Al  Al8  1  0.329744  0.332405  0.956089  1
  Al  Al9  1  0.670140  0.670105  0.449547  1
  Al  Al10  1  0.338753  0.560625  0.250000  1
  Al  Al11  1  0.666892  0.445826  0.750000  1
  Al  Al12  1  0.561947  0.339844  0.250000  1
  Al  Al13  1  0.439388  0.654787  0.750000  1
  Al  Al14  1  0.994243  0.335017  0.074794  1
  Al  Al15  1  0.002964  0.662243  0.570376  1
  Al  Al16  1  0.335462  0.994440  0.422380  1
  Al  Al17  1  0.667759  0.005411  0.929604  1
  Al  Al18  1  0.002964  0.662243  0.929624  1
  Al  Al19  1  0.994243  0.335017  0.425206  1
  Al  Al20  1  0.667759  0.005411  0.570396  1
  Al  Al21  1  0.335462  0.994440  0.077620  1
  Co  Co22  1  0.998010  0.998881  0.002153  1
  Co  Co23  1  0.998010  0.998881  0.497847  1
  Co  Co24  1  0.673444  0.329192  0.001886  1
  Co  Co25  1  0.328322  0.672181  0.497743  1
  Co  Co26  1  0.328322  0.672181  0.002257  1
  Co  Co27  1  0.673444  0.329192  0.498114  1
