# generated using pymatgen
data_Ho3Rh2Pb3
_symmetry_space_group_name_H-M   'P 1'
_cell_length_a   7.83954500
_cell_length_b   7.83954601
_cell_length_c   3.61083800
_cell_angle_alpha   90.00000000
_cell_angle_beta   90.00000000
_cell_angle_gamma   119.99999996
_symmetry_Int_Tables_number   1
_chemical_formula_structural   Ho3Rh2Pb3
_chemical_formula_sum   'Ho3 Rh2 Pb3'
_cell_volume   192.18540653
_cell_formula_units_Z   1
loop_
 _symmetry_equiv_pos_site_id
 _symmetry_equiv_pos_as_xyz
  1  'x, y, z'
loop_
 _atom_site_type_symbol
 _atom_site_label
 _atom_site_symmetry_multiplicity
 _atom_site_fract_x
 _atom_site_fract_y
 _atom_site_fract_z
 _atom_site_occupancy
  Ho  Ho0  1  0.584400  0.000000  0.500001  1
  Ho  Ho1  1  0.415601  0.415600  0.500001  1
  Ho  Ho2  1  0.000000  0.584400  0.500001  1
  Rh  Rh3  1  0.666667  0.333334  0.000000  1
  Rh  Rh4  1  0.333333  0.666666  0.000000  1
  Pb  Pb5  1  0.245503  0.000000  0.000000  1
  Pb  Pb6  1  0.000000  0.245503  0.000000  1
  Pb  Pb7  1  0.754497  0.754497  0.000000  1
