# generated using pymatgen
data_PrFe2CoB4Os
_symmetry_space_group_name_H-M   'P 1'
_cell_length_a   7.15380465
_cell_length_b   7.35312925
_cell_length_c   3.84885100
_cell_angle_alpha   90.00000000
_cell_angle_beta   90.00000000
_cell_angle_gamma   91.15418822
_symmetry_Int_Tables_number   1
_chemical_formula_structural   PrFe2CoB4Os
_chemical_formula_sum   'Pr2 Fe4 Co2 B8 Os2'
_cell_volume   202.41945505
_cell_formula_units_Z   2
loop_
 _symmetry_equiv_pos_site_id
 _symmetry_equiv_pos_as_xyz
  1  'x, y, z'
loop_
 _atom_site_type_symbol
 _atom_site_label
 _atom_site_symmetry_multiplicity
 _atom_site_fract_x
 _atom_site_fract_y
 _atom_site_fract_z
 _atom_site_occupancy
  Pr  Pr0  1  0.000000  0.000000  0.943758  1
  Pr  Pr1  1  0.500000  0.500000  0.424684  1
  Fe  Fe2  1  0.376603  0.110018  0.617082  1
  Fe  Fe3  1  0.623397  0.889982  0.617082  1
  Fe  Fe4  1  0.616823  0.123445  0.116044  1
  Fe  Fe5  1  0.383177  0.876555  0.116044  1
  Co  Co6  1  0.890876  0.342262  0.398590  1
  Co  Co7  1  0.109124  0.657738  0.398590  1
  B  B8  1  0.659860  0.817546  0.117978  1
  B  B9  1  0.340140  0.182454  0.117978  1
  B  B10  1  0.313409  0.834188  0.615785  1
  B  B11  1  0.686591  0.165812  0.615785  1
  B  B12  1  0.827383  0.729288  0.402476  1
  B  B13  1  0.172617  0.270712  0.402476  1
  B  B14  1  0.215376  0.668477  0.901756  1
  B  B15  1  0.784624  0.331523  0.901756  1
  Os  Os16  1  0.145575  0.389125  0.896066  1
  Os  Os17  1  0.854425  0.610875  0.896066  1
