# generated using pymatgen
data_ScZn3NiAu
_symmetry_space_group_name_H-M   'P 1'
_cell_length_a   4.99113180
_cell_length_b   4.99113172
_cell_length_c   4.99113149
_cell_angle_alpha   60.92499672
_cell_angle_beta   60.92499570
_cell_angle_gamma   60.92499824
_symmetry_Int_Tables_number   1
_chemical_formula_structural   ScZn3NiAu
_chemical_formula_sum   'Sc1 Zn3 Ni1 Au1'
_cell_volume   89.75162286
_cell_formula_units_Z   1
loop_
 _symmetry_equiv_pos_site_id
 _symmetry_equiv_pos_as_xyz
  1  'x, y, z'
loop_
 _atom_site_type_symbol
 _atom_site_label
 _atom_site_symmetry_multiplicity
 _atom_site_fract_x
 _atom_site_fract_y
 _atom_site_fract_z
 _atom_site_occupancy
  Sc  Sc0  1  0.997554  0.997554  0.997554  1
  Zn  Zn1  1  0.624035  0.624035  0.127467  1
  Zn  Zn2  1  0.624035  0.127467  0.624035  1
  Zn  Zn3  1  0.127467  0.624035  0.624035  1
  Ni  Ni4  1  0.626789  0.626789  0.626789  1
  Au  Au5  1  0.250119  0.250119  0.250119  1
