# generated using pymatgen
data_HoPa2Sb4Pt3
_symmetry_space_group_name_H-M   'P 1'
_cell_length_a   8.45314510
_cell_length_b   8.45314574
_cell_length_c   8.45314525
_cell_angle_alpha   109.66219929
_cell_angle_beta   109.66220005
_cell_angle_gamma   109.08993340
_symmetry_Int_Tables_number   1
_chemical_formula_structural   HoPa2Sb4Pt3
_chemical_formula_sum   'Ho2 Pa4 Sb8 Pt6'
_cell_volume   464.96333923
_cell_formula_units_Z   2
loop_
 _symmetry_equiv_pos_site_id
 _symmetry_equiv_pos_as_xyz
  1  'x, y, z'
loop_
 _atom_site_type_symbol
 _atom_site_label
 _atom_site_symmetry_multiplicity
 _atom_site_fract_x
 _atom_site_fract_y
 _atom_site_fract_z
 _atom_site_occupancy
  Ho  Ho0  1  0.125000  0.875000  0.250000  1
  Ho  Ho1  1  0.375000  0.625000  0.750000  1
  Pa  Pa2  1  0.875561  0.250000  0.125561  1
  Pa  Pa3  1  0.624439  0.750000  0.374439  1
  Pa  Pa4  1  0.250000  0.124439  0.874439  1
  Pa  Pa5  1  0.750000  0.375561  0.625561  1
  Sb  Sb6  1  0.676006  0.501052  0.998788  1
  Sb  Sb7  1  0.497736  0.998948  0.674954  1
  Sb  Sb8  1  0.002264  0.677218  0.501212  1
  Sb  Sb9  1  0.823994  0.822782  0.825046  1
  Sb  Sb10  1  0.498948  0.997736  0.174954  1
  Sb  Sb11  1  0.177218  0.502264  0.001212  1
  Sb  Sb12  1  0.001052  0.176006  0.498788  1
  Sb  Sb13  1  0.322782  0.323994  0.325046  1
  Pt  Pt14  1  0.376077  0.250000  0.626077  1
  Pt  Pt15  1  0.123923  0.750000  0.873923  1
  Pt  Pt16  1  0.250000  0.623923  0.373923  1
  Pt  Pt17  1  0.750000  0.876077  0.126077  1
  Pt  Pt18  1  0.625000  0.375000  0.250000  1
  Pt  Pt19  1  0.875000  0.125000  0.750000  1
