# generated using pymatgen
data_NdTm3IrRh3O14
_symmetry_space_group_name_H-M   'P 1'
_cell_length_a   7.27151185
_cell_length_b   7.18143711
_cell_length_c   7.18143600
_cell_angle_alpha   60.00000510
_cell_angle_beta   60.40893612
_cell_angle_gamma   60.40894043
_symmetry_Int_Tables_number   1
_chemical_formula_structural   NdTm3IrRh3O14
_chemical_formula_sum   'Nd1 Tm3 Ir1 Rh3 O14'
_cell_volume   266.80215609
_cell_formula_units_Z   1
loop_
 _symmetry_equiv_pos_site_id
 _symmetry_equiv_pos_as_xyz
  1  'x, y, z'
loop_
 _atom_site_type_symbol
 _atom_site_label
 _atom_site_symmetry_multiplicity
 _atom_site_fract_x
 _atom_site_fract_y
 _atom_site_fract_z
 _atom_site_occupancy
  Nd  Nd0  1  0.625000  0.125000  0.125000  1
  Tm  Tm1  1  0.125000  0.625000  0.125000  1
  Tm  Tm2  1  0.125000  0.125000  0.625000  1
  Tm  Tm3  1  0.125000  0.125000  0.125000  1
  Ir  Ir4  1  0.125000  0.625000  0.625000  1
  Rh  Rh5  1  0.625000  0.125000  0.625000  1
  Rh  Rh6  1  0.625000  0.625000  0.125000  1
  Rh  Rh7  1  0.625000  0.625000  0.625000  1
  O  O8  1  0.726786  0.700503  0.286355  1
  O  O9  1  0.286118  0.291252  0.711314  1
  O  O10  1  0.726786  0.286355  0.700503  1
  O  O11  1  0.286118  0.711314  0.291252  1
  O  O12  1  0.286118  0.711314  0.711314  1
  O  O13  1  0.726786  0.286355  0.286355  1
  O  O14  1  0.523214  0.549497  0.963645  1
  O  O15  1  0.963882  0.958748  0.538686  1
  O  O16  1  0.523214  0.963645  0.549497  1
  O  O17  1  0.963882  0.538686  0.958748  1
  O  O18  1  0.963882  0.538686  0.538686  1
  O  O19  1  0.523214  0.963645  0.963645  1
  O  O20  1  0.235629  0.254790  0.254790  1
  O  O21  1  0.014371  0.995210  0.995210  1
