# generated using pymatgen
data_Ce5Si3As9Rh19
_symmetry_space_group_name_H-M   'P 1'
_cell_length_a   13.14401900
_cell_length_b   13.14401880
_cell_length_c   3.99256400
_cell_angle_alpha   90.00000000
_cell_angle_beta   90.00000000
_cell_angle_gamma   119.99999295
_symmetry_Int_Tables_number   1
_chemical_formula_structural   Ce5Si3As9Rh19
_chemical_formula_sum   'Ce5 Si3 As9 Rh19'
_cell_volume   597.36379723
_cell_formula_units_Z   1
loop_
 _symmetry_equiv_pos_site_id
 _symmetry_equiv_pos_as_xyz
  1  'x, y, z'
loop_
 _atom_site_type_symbol
 _atom_site_label
 _atom_site_symmetry_multiplicity
 _atom_site_fract_x
 _atom_site_fract_y
 _atom_site_fract_z
 _atom_site_occupancy
  Ce  Ce0  1  0.996649  0.186873  0.500000  1
  Ce  Ce1  1  0.813127  0.809775  0.500000  1
  Ce  Ce2  1  0.190225  0.003351  0.500000  1
  Ce  Ce3  1  0.666667  0.333333  0.000000  1
  Ce  Ce4  1  0.333333  0.666667  0.000000  1
  Si  Si5  1  0.479930  0.319385  0.500000  1
  Si  Si6  1  0.680615  0.160545  0.500000  1
  Si  Si7  1  0.839455  0.520070  0.500000  1
  As  As8  1  0.816753  0.995527  0.000000  1
  As  As9  1  0.178773  0.183247  0.000000  1
  As  As10  1  0.004473  0.821227  0.000000  1
  As  As11  1  0.368105  0.001818  0.000000  1
  As  As12  1  0.514352  0.831678  0.500000  1
  As  As13  1  0.168322  0.682674  0.500000  1
  As  As14  1  0.317326  0.485648  0.500000  1
  As  As15  1  0.998182  0.366286  0.000000  1
  As  As16  1  0.633714  0.631895  0.000000  1
  Rh  Rh17  1  0.804460  0.179695  0.000000  1
  Rh  Rh18  1  0.375235  0.195540  0.000000  1
  Rh  Rh19  1  0.648076  0.508738  0.500000  1
  Rh  Rh20  1  0.860660  0.351924  0.500000  1
  Rh  Rh21  1  0.358267  0.878488  0.500000  1
  Rh  Rh22  1  0.520220  0.641733  0.500000  1
  Rh  Rh23  1  0.121512  0.479780  0.500000  1
  Rh  Rh24  1  0.820305  0.624765  0.000000  1
  Rh  Rh25  1  0.618829  0.818447  0.000000  1
  Rh  Rh26  1  0.181553  0.800382  0.000000  1
  Rh  Rh27  1  0.199618  0.381171  0.000000  1
  Rh  Rh28  1  0.000565  0.714805  0.500000  1
  Rh  Rh29  1  0.285195  0.285760  0.500000  1
  Rh  Rh30  1  0.714240  0.999435  0.500000  1
  Rh  Rh31  1  0.972615  0.537246  0.000000  1
  Rh  Rh32  1  0.462754  0.435369  0.000000  1
  Rh  Rh33  1  0.564631  0.027385  0.000000  1
  Rh  Rh34  1  0.000000  0.000000  0.000000  1
  Rh  Rh35  1  0.491262  0.139340  0.500000  1
