# generated using pymatgen
data_Ca20Tl2Ga9Bi
_symmetry_space_group_name_H-M   'P 1'
_cell_length_a   8.11304600
_cell_length_b   8.11304600
_cell_length_c   14.74266200
_cell_angle_alpha   90.00000000
_cell_angle_beta   90.00000000
_cell_angle_gamma   90.00000000
_symmetry_Int_Tables_number   1
_chemical_formula_structural   Ca20Tl2Ga9Bi
_chemical_formula_sum   'Ca20 Tl2 Ga9 Bi1'
_cell_volume   970.38435384
_cell_formula_units_Z   1
loop_
 _symmetry_equiv_pos_site_id
 _symmetry_equiv_pos_as_xyz
  1  'x, y, z'
loop_
 _atom_site_type_symbol
 _atom_site_label
 _atom_site_symmetry_multiplicity
 _atom_site_fract_x
 _atom_site_fract_y
 _atom_site_fract_z
 _atom_site_occupancy
  Ca  Ca0  1  0.680931  0.169955  0.107319  1
  Ca  Ca1  1  0.173884  0.676459  0.611388  1
  Ca  Ca2  1  0.319069  0.830045  0.107319  1
  Ca  Ca3  1  0.826116  0.323541  0.611388  1
  Ca  Ca4  1  0.830045  0.680931  0.107319  1
  Ca  Ca5  1  0.323541  0.173884  0.611388  1
  Ca  Ca6  1  0.169955  0.319069  0.107319  1
  Ca  Ca7  1  0.676459  0.826116  0.611388  1
  Ca  Ca8  1  0.830045  0.319069  0.892681  1
  Ca  Ca9  1  0.323541  0.826116  0.388612  1
  Ca  Ca10  1  0.169955  0.680931  0.892681  1
  Ca  Ca11  1  0.676459  0.173884  0.388612  1
  Ca  Ca12  1  0.680931  0.830045  0.892681  1
  Ca  Ca13  1  0.173884  0.323541  0.388612  1
  Ca  Ca14  1  0.319069  0.169955  0.892681  1
  Ca  Ca15  1  0.826116  0.676459  0.388612  1
  Ca  Ca16  1  0.500000  0.500000  0.755694  1
  Ca  Ca17  1  0.000000  0.000000  0.247755  1
  Ca  Ca18  1  0.000000  0.000000  0.752245  1
  Ca  Ca19  1  0.500000  0.500000  0.244306  1
  Tl  Tl20  1  0.500000  0.500000  0.000000  1
  Tl  Tl21  1  0.000000  0.000000  0.500000  1
  Ga  Ga22  1  0.611438  0.112860  0.750746  1
  Ga  Ga23  1  0.112860  0.611438  0.249254  1
  Ga  Ga24  1  0.887140  0.388562  0.249254  1
  Ga  Ga25  1  0.388562  0.887140  0.750746  1
  Ga  Ga26  1  0.887140  0.611438  0.750746  1
  Ga  Ga27  1  0.388562  0.112860  0.249254  1
  Ga  Ga28  1  0.112860  0.388562  0.750746  1
  Ga  Ga29  1  0.611438  0.887140  0.249254  1
  Ga  Ga30  1  0.000000  0.000000  0.000000  1
  Bi  Bi31  1  0.500000  0.500000  0.500000  1
