# generated using pymatgen
data_YTm3(InGa2)2
_symmetry_space_group_name_H-M   'P 1'
_cell_length_a   7.17264229
_cell_length_b   7.17264229
_cell_length_c   4.40358500
_cell_angle_alpha   90.00000000
_cell_angle_beta   90.00000000
_cell_angle_gamma   90.42484005
_symmetry_Int_Tables_number   1
_chemical_formula_structural   YTm3(InGa2)2
_chemical_formula_sum   'Y1 Tm3 In2 Ga4'
_cell_volume   226.54411782
_cell_formula_units_Z   1
loop_
 _symmetry_equiv_pos_site_id
 _symmetry_equiv_pos_as_xyz
  1  'x, y, z'
loop_
 _atom_site_type_symbol
 _atom_site_label
 _atom_site_symmetry_multiplicity
 _atom_site_fract_x
 _atom_site_fract_y
 _atom_site_fract_z
 _atom_site_occupancy
  Y  Y0  1  0.827415  0.672585  0.500000  1
  Tm  Tm1  1  0.671557  0.172302  0.500000  1
  Tm  Tm2  1  0.327698  0.828443  0.500000  1
  Tm  Tm3  1  0.173147  0.326853  0.500000  1
  In  In4  1  0.000420  0.000374  0.000000  1
  In  In5  1  0.499626  0.499580  0.000000  1
  Ga  Ga6  1  0.127740  0.625843  0.000000  1
  Ga  Ga7  1  0.874157  0.372260  0.000000  1
  Ga  Ga8  1  0.624828  0.875172  0.000000  1
  Ga  Ga9  1  0.373411  0.126589  0.000000  1
