# generated using pymatgen
data_SmTh3(InNi2)2
_symmetry_space_group_name_H-M   'P 1'
_cell_length_a   7.64835722
_cell_length_b   7.64835808
_cell_length_c   3.68996900
_cell_angle_alpha   90.00000000
_cell_angle_beta   90.00000000
_cell_angle_gamma   91.13647025
_symmetry_Int_Tables_number   1
_chemical_formula_structural   SmTh3(InNi2)2
_chemical_formula_sum   'Sm1 Th3 In2 Ni4'
_cell_volume   215.81103893
_cell_formula_units_Z   1
loop_
 _symmetry_equiv_pos_site_id
 _symmetry_equiv_pos_as_xyz
  1  'x, y, z'
loop_
 _atom_site_type_symbol
 _atom_site_label
 _atom_site_symmetry_multiplicity
 _atom_site_fract_x
 _atom_site_fract_y
 _atom_site_fract_z
 _atom_site_occupancy
  Sm  Sm0  1  0.826604  0.673396  0.500000  1
  Th  Th1  1  0.674093  0.171489  0.500000  1
  Th  Th2  1  0.328511  0.825907  0.500000  1
  Th  Th3  1  0.170666  0.329334  0.500000  1
  In  In4  1  0.503897  0.501614  0.000000  1
  In  In5  1  0.998386  0.996103  0.000000  1
  Ni  Ni6  1  0.134343  0.619605  0.000000  1
  Ni  Ni7  1  0.880395  0.365657  0.000000  1
  Ni  Ni8  1  0.613266  0.886734  0.000000  1
  Ni  Ni9  1  0.369838  0.130162  0.000000  1
