# generated using pymatgen
data_Tb15Ho4ErSn16
_symmetry_space_group_name_H-M   'P 1'
_cell_length_a   8.05285305
_cell_length_b   8.20489347
_cell_length_c   15.51956800
_cell_angle_alpha   90.00816627
_cell_angle_beta   90.00517094
_cell_angle_gamma   90.03448382
_symmetry_Int_Tables_number   1
_chemical_formula_structural   Tb15Ho4ErSn16
_chemical_formula_sum   'Tb15 Ho4 Er1 Sn16'
_cell_volume   1025.42113505
_cell_formula_units_Z   1
loop_
 _symmetry_equiv_pos_site_id
 _symmetry_equiv_pos_as_xyz
  1  'x, y, z'
loop_
 _atom_site_type_symbol
 _atom_site_label
 _atom_site_symmetry_multiplicity
 _atom_site_fract_x
 _atom_site_fract_y
 _atom_site_fract_z
 _atom_site_occupancy
  Tb  Tb0  1  0.867372  0.663920  0.621936  1
  Tb  Tb1  1  0.632393  0.163777  0.378254  1
  Tb  Tb2  1  0.132712  0.336006  0.121369  1
  Tb  Tb3  1  0.632487  0.163921  0.121784  1
  Tb  Tb4  1  0.132524  0.336060  0.378256  1
  Tb  Tb5  1  0.367522  0.836156  0.621844  1
  Tb  Tb6  1  0.867652  0.663805  0.878375  1
  Tb  Tb7  1  0.520025  0.319855  0.902351  1
  Tb  Tb8  1  0.020132  0.179921  0.597792  1
  Tb  Tb9  1  0.479935  0.680067  0.402341  1
  Tb  Tb10  1  0.979767  0.819935  0.097719  1
  Tb  Tb11  1  0.479832  0.680158  0.097371  1
  Tb  Tb12  1  0.979963  0.820059  0.402290  1
  Tb  Tb13  1  0.520019  0.320047  0.597844  1
  Tb  Tb14  1  0.020190  0.179844  0.902248  1
  Ho  Ho15  1  0.367345  0.836386  0.877958  1
  Ho  Ho16  1  0.198646  0.502601  0.750251  1
  Ho  Ho17  1  0.698319  0.997458  0.750154  1
  Ho  Ho18  1  0.801667  0.497667  0.249994  1
  Er  Er19  1  0.301499  0.002286  0.249840  1
  Sn  Sn20  1  0.292652  0.034118  0.041648  1
  Sn  Sn21  1  0.792581  0.465171  0.457679  1
  Sn  Sn22  1  0.707511  0.965077  0.542388  1
  Sn  Sn23  1  0.208357  0.536082  0.957448  1
  Sn  Sn24  1  0.706074  0.964742  0.957500  1
  Sn  Sn25  1  0.207348  0.534917  0.542399  1
  Sn  Sn26  1  0.292524  0.034866  0.457558  1
  Sn  Sn27  1  0.792501  0.465213  0.042379  1
  Sn  Sn28  1  0.564516  0.619228  0.750354  1
  Sn  Sn29  1  0.065428  0.881224  0.750439  1
  Sn  Sn30  1  0.435071  0.381316  0.249944  1
  Sn  Sn31  1  0.935362  0.118553  0.249966  1
  Sn  Sn32  1  0.328396  0.146479  0.750293  1
  Sn  Sn33  1  0.828250  0.353064  0.750055  1
  Sn  Sn34  1  0.671704  0.853067  0.249976  1
  Sn  Sn35  1  0.171727  0.646953  0.250002  1
