# generated using pymatgen
data_Sr4TmU7N16
_symmetry_space_group_name_H-M   'P 1'
_cell_length_a   10.14850904
_cell_length_b   3.52189800
_cell_length_c   11.89127636
_cell_angle_alpha   90.00000000
_cell_angle_beta   90.01918322
_cell_angle_gamma   90.00000000
_symmetry_Int_Tables_number   1
_chemical_formula_structural   Sr4TmU7N16
_chemical_formula_sum   'Sr4 Tm1 U7 N16'
_cell_volume   425.01813873
_cell_formula_units_Z   1
loop_
 _symmetry_equiv_pos_site_id
 _symmetry_equiv_pos_as_xyz
  1  'x, y, z'
loop_
 _atom_site_type_symbol
 _atom_site_label
 _atom_site_symmetry_multiplicity
 _atom_site_fract_x
 _atom_site_fract_y
 _atom_site_fract_z
 _atom_site_occupancy
  Sr  Sr0  1  0.754863  0.500001  0.142935  1
  Sr  Sr1  1  0.248086  0.500001  0.348579  1
  Sr  Sr2  1  0.751193  0.000000  0.648379  1
  Sr  Sr3  1  0.252720  0.000000  0.852998  1
  Tm  Tm4  1  0.082055  0.500001  0.110570  1
  U  U5  1  0.420247  0.000000  0.113253  1
  U  U6  1  0.923645  0.000000  0.387467  1
  U  U7  1  0.577507  0.500001  0.385198  1
  U  U8  1  0.422346  0.000000  0.613219  1
  U  U9  1  0.076482  0.500001  0.613507  1
  U  U10  1  0.575872  0.500001  0.889404  1
  U  U11  1  0.929095  0.000000  0.891707  1
  N  N12  1  0.605375  0.000000  0.010511  1
  N  N13  1  0.926425  0.000000  0.063451  1
  N  N14  1  0.225488  0.000000  0.170368  1
  N  N15  1  0.485639  0.500001  0.214924  1
  N  N16  1  0.978686  0.500001  0.289666  1
  N  N17  1  0.708078  0.000000  0.336951  1
  N  N18  1  0.443213  0.000000  0.424814  1
  N  N19  1  0.114950  0.000000  0.495930  1
  N  N20  1  0.886175  0.500001  0.508306  1
  N  N21  1  0.558267  0.500001  0.574770  1
  N  N22  1  0.290140  0.500001  0.666165  1
  N  N23  1  0.009861  0.000000  0.714037  1
  N  N24  1  0.516496  0.000000  0.786019  1
  N  N25  1  0.791059  0.500001  0.842963  1
  N  N26  1  0.059520  0.500001  0.915138  1
  N  N27  1  0.386530  0.500001  0.988781  1
