# generated using pymatgen
data_Zn2In9Ir4Au
_symmetry_space_group_name_H-M   'P 1'
_cell_length_a   6.91633630
_cell_length_b   7.06382657
_cell_length_c   7.29490300
_cell_angle_alpha   90.00000000
_cell_angle_beta   90.00000000
_cell_angle_gamma   91.19379681
_symmetry_Int_Tables_number   1
_chemical_formula_structural   Zn2In9Ir4Au
_chemical_formula_sum   'Zn2 In9 Ir4 Au1'
_cell_volume   356.32096512
_cell_formula_units_Z   1
loop_
 _symmetry_equiv_pos_site_id
 _symmetry_equiv_pos_as_xyz
  1  'x, y, z'
loop_
 _atom_site_type_symbol
 _atom_site_label
 _atom_site_symmetry_multiplicity
 _atom_site_fract_x
 _atom_site_fract_y
 _atom_site_fract_z
 _atom_site_occupancy
  Zn  Zn0  1  0.500000  0.000000  0.000000  1
  Zn  Zn1  1  0.000000  0.500000  0.500000  1
  In  In2  1  0.330267  0.346355  0.262391  1
  In  In3  1  0.154349  0.825267  0.773642  1
  In  In4  1  0.154349  0.825267  0.226358  1
  In  In5  1  0.845651  0.174733  0.226358  1
  In  In6  1  0.845651  0.174733  0.773642  1
  In  In7  1  0.669733  0.653645  0.262391  1
  In  In8  1  0.669733  0.653645  0.737609  1
  In  In9  1  0.330267  0.346355  0.737609  1
  In  In10  1  0.500000  0.000000  0.500000  1
  Ir  Ir11  1  0.168992  0.139533  0.000000  1
  Ir  Ir12  1  0.659357  0.348548  0.500000  1
  Ir  Ir13  1  0.340643  0.651452  0.500000  1
  Ir  Ir14  1  0.831008  0.860467  0.000000  1
  Au  Au15  1  0.000000  0.500000  0.000000  1
