# generated using pymatgen
data_Tm12TlInFe2Ir
_symmetry_space_group_name_H-M   'P 1'
_cell_length_a   8.28225431
_cell_length_b   8.28225471
_cell_length_c   8.28225554
_cell_angle_alpha   108.50830643
_cell_angle_beta   108.77712164
_cell_angle_gamma   111.14136152
_symmetry_Int_Tables_number   1
_chemical_formula_structural   Tm12TlInFe2Ir
_chemical_formula_sum   'Tm12 Tl1 In1 Fe2 Ir1'
_cell_volume   437.06275318
_cell_formula_units_Z   1
loop_
 _symmetry_equiv_pos_site_id
 _symmetry_equiv_pos_as_xyz
  1  'x, y, z'
loop_
 _atom_site_type_symbol
 _atom_site_label
 _atom_site_symmetry_multiplicity
 _atom_site_fract_x
 _atom_site_fract_y
 _atom_site_fract_z
 _atom_site_occupancy
  Tm  Tm0  1  0.193145  0.430588  0.237443  1
  Tm  Tm1  1  0.806855  0.569412  0.762557  1
  Tm  Tm2  1  0.193145  0.955702  0.762557  1
  Tm  Tm3  1  0.954968  0.193848  0.761119  1
  Tm  Tm4  1  0.806855  0.044298  0.237443  1
  Tm  Tm5  1  0.045032  0.806152  0.238881  1
  Tm  Tm6  1  0.432729  0.193848  0.238881  1
  Tm  Tm7  1  0.567271  0.806152  0.761119  1
  Tm  Tm8  1  0.307670  0.308728  0.616400  1
  Tm  Tm9  1  0.692330  0.691272  0.383600  1
  Tm  Tm10  1  0.692330  0.308728  0.001058  1
  Tm  Tm11  1  0.307670  0.691272  0.998942  1
  Tl  Tl12  1  0.500000  0.000000  0.500000  1
  In  In13  1  0.000000  0.500000  0.500000  1
  Fe  Fe14  1  0.386309  0.386309  0.000000  1
  Fe  Fe15  1  0.613691  0.613691  0.000000  1
  Ir  Ir16  1  0.000000  0.000000  0.000000  1
