# generated using pymatgen
data_Sr2Ca2LuPt4
_symmetry_space_group_name_H-M   'P 1'
_cell_length_a   7.65953900
_cell_length_b   7.79408300
_cell_length_c   14.78001600
_cell_angle_alpha   90.00000000
_cell_angle_beta   90.00000000
_cell_angle_gamma   90.00000000
_symmetry_Int_Tables_number   1
_chemical_formula_structural   Sr2Ca2LuPt4
_chemical_formula_sum   'Sr8 Ca8 Lu4 Pt16'
_cell_volume   882.35339761
_cell_formula_units_Z   4
loop_
 _symmetry_equiv_pos_site_id
 _symmetry_equiv_pos_as_xyz
  1  'x, y, z'
loop_
 _atom_site_type_symbol
 _atom_site_label
 _atom_site_symmetry_multiplicity
 _atom_site_fract_x
 _atom_site_fract_y
 _atom_site_fract_z
 _atom_site_occupancy
  Sr  Sr0  1  0.500197  0.326126  0.904558  1
  Sr  Sr1  1  0.000197  0.173874  0.595442  1
  Sr  Sr2  1  0.499803  0.673874  0.404558  1
  Sr  Sr3  1  0.999803  0.826126  0.095442  1
  Sr  Sr4  1  0.500243  0.675905  0.095769  1
  Sr  Sr5  1  0.000243  0.824095  0.404231  1
  Sr  Sr6  1  0.499757  0.324095  0.595769  1
  Sr  Sr7  1  0.999757  0.175905  0.904231  1
  Ca  Ca8  1  0.660757  0.168009  0.121237  1
  Ca  Ca9  1  0.160757  0.331991  0.378763  1
  Ca  Ca10  1  0.339243  0.831991  0.621238  1
  Ca  Ca11  1  0.839243  0.668009  0.878762  1
  Ca  Ca12  1  0.178436  0.494528  0.750281  1
  Ca  Ca13  1  0.678436  0.005472  0.749719  1
  Ca  Ca14  1  0.821564  0.505472  0.250281  1
  Ca  Ca15  1  0.321564  0.994528  0.249719  1
  Lu  Lu16  1  0.339033  0.833188  0.875702  1
  Lu  Lu17  1  0.839033  0.666812  0.624298  1
  Lu  Lu18  1  0.660967  0.166812  0.375703  1
  Lu  Lu19  1  0.160967  0.333188  0.124297  1
  Pt  Pt20  1  0.324396  0.046187  0.039005  1
  Pt  Pt21  1  0.824396  0.453813  0.460995  1
  Pt  Pt22  1  0.675604  0.953813  0.539005  1
  Pt  Pt23  1  0.175604  0.546187  0.960995  1
  Pt  Pt24  1  0.651315  0.958115  0.955128  1
  Pt  Pt25  1  0.151315  0.541885  0.544872  1
  Pt  Pt26  1  0.348685  0.041885  0.455128  1
  Pt  Pt27  1  0.848685  0.458115  0.044872  1
  Pt  Pt28  1  0.546946  0.634664  0.751551  1
  Pt  Pt29  1  0.046946  0.865336  0.748449  1
  Pt  Pt30  1  0.453054  0.365336  0.251551  1
  Pt  Pt31  1  0.953054  0.134664  0.248449  1
  Pt  Pt32  1  0.300484  0.119349  0.754640  1
  Pt  Pt33  1  0.800484  0.380651  0.745360  1
  Pt  Pt34  1  0.699516  0.880651  0.254640  1
  Pt  Pt35  1  0.199516  0.619349  0.245360  1
