# generated using pymatgen
data_Tm5Lu5Si5Sn
_symmetry_space_group_name_H-M   'P 1'
_cell_length_a   8.35569149
_cell_length_b   8.37365033
_cell_length_c   6.22592400
_cell_angle_alpha   90.00000000
_cell_angle_beta   90.00000000
_cell_angle_gamma   119.88966294
_symmetry_Int_Tables_number   1
_chemical_formula_structural   Tm5Lu5Si5Sn
_chemical_formula_sum   'Tm5 Lu5 Si5 Sn1'
_cell_volume   377.67083912
_cell_formula_units_Z   1
loop_
 _symmetry_equiv_pos_site_id
 _symmetry_equiv_pos_as_xyz
  1  'x, y, z'
loop_
 _atom_site_type_symbol
 _atom_site_label
 _atom_site_symmetry_multiplicity
 _atom_site_fract_x
 _atom_site_fract_y
 _atom_site_fract_z
 _atom_site_occupancy
  Tm  Tm0  1  0.765997  0.000108  0.750000  1
  Tm  Tm1  1  0.756844  0.757898  0.250000  1
  Tm  Tm2  1  0.999057  0.241925  0.250000  1
  Tm  Tm3  1  0.989570  0.750114  0.750000  1
  Tm  Tm4  1  0.240131  0.000122  0.250000  1
  Lu  Lu5  1  0.673386  0.341744  0.002982  1
  Lu  Lu6  1  0.331651  0.658100  0.497066  1
  Lu  Lu7  1  0.331651  0.658100  0.002934  1
  Lu  Lu8  1  0.673386  0.341744  0.497018  1
  Lu  Lu9  1  0.239497  0.250126  0.750000  1
  Si  Si10  1  0.394391  0.393289  0.250000  1
  Si  Si11  1  0.001124  0.606797  0.250000  1
  Si  Si12  1  0.999143  0.394783  0.750000  1
  Si  Si13  1  0.603653  0.604831  0.750000  1
  Si  Si14  1  0.605229  0.000024  0.250000  1
  Sn  Sn15  1  0.395291  0.000295  0.750000  1
