# generated using pymatgen
data_Ho11Sn(Hg2Pd)4
_symmetry_space_group_name_H-M   'P 1'
_cell_length_a   12.93512500
_cell_length_b   12.93512477
_cell_length_c   3.70677300
_cell_angle_alpha   90.00000000
_cell_angle_beta   90.00000000
_cell_angle_gamma   111.33553270
_symmetry_Int_Tables_number   1
_chemical_formula_structural   Ho11Sn(Hg2Pd)4
_chemical_formula_sum   'Ho11 Sn1 Hg8 Pd4'
_cell_volume   577.70236386
_cell_formula_units_Z   1
loop_
 _symmetry_equiv_pos_site_id
 _symmetry_equiv_pos_as_xyz
  1  'x, y, z'
loop_
 _atom_site_type_symbol
 _atom_site_label
 _atom_site_symmetry_multiplicity
 _atom_site_fract_x
 _atom_site_fract_y
 _atom_site_fract_z
 _atom_site_occupancy
  Ho  Ho0  1  0.414478  0.076298  0.000000  1
  Ho  Ho1  1  0.585522  0.923702  0.000000  1
  Ho  Ho2  1  0.076298  0.414478  0.000000  1
  Ho  Ho3  1  0.923702  0.585522  0.000000  1
  Ho  Ho4  1  0.166911  0.833089  0.000000  1
  Ho  Ho5  1  0.833089  0.166911  0.000000  1
  Ho  Ho6  1  0.370619  0.629381  0.000000  1
  Ho  Ho7  1  0.629381  0.370619  0.000000  1
  Ho  Ho8  1  0.299611  0.299611  0.000000  1
  Ho  Ho9  1  0.700389  0.700389  0.000000  1
  Ho  Ho10  1  0.000000  0.000000  0.000000  1
  Sn  Sn11  1  0.500000  0.500000  0.500000  1
  Hg  Hg12  1  0.369650  0.846550  0.500000  1
  Hg  Hg13  1  0.630350  0.153450  0.500000  1
  Hg  Hg14  1  0.846552  0.369650  0.500000  1
  Hg  Hg15  1  0.153448  0.630350  0.500000  1
  Hg  Hg16  1  0.214114  0.062983  0.500000  1
  Hg  Hg17  1  0.785886  0.937017  0.500000  1
  Hg  Hg18  1  0.062982  0.214113  0.500000  1
  Hg  Hg19  1  0.937018  0.785887  0.500000  1
  Pd  Pd20  1  0.448990  0.250527  0.500000  1
  Pd  Pd21  1  0.551010  0.749473  0.500000  1
  Pd  Pd22  1  0.250528  0.448990  0.500000  1
  Pd  Pd23  1  0.749472  0.551010  0.500000  1
