# generated using pymatgen
data_AcYb2Tm2(Ni2Sn5)2
_symmetry_space_group_name_H-M   'P 1'
_cell_length_a   13.98337577
_cell_length_b   13.98337577
_cell_length_c   4.48833000
_cell_angle_alpha   90.00000000
_cell_angle_beta   90.00000000
_cell_angle_gamma   90.32364753
_symmetry_Int_Tables_number   1
_chemical_formula_structural   AcYb2Tm2(Ni2Sn5)2
_chemical_formula_sum   'Ac2 Yb4 Tm4 Ni8 Sn20'
_cell_volume   877.61069832
_cell_formula_units_Z   2
loop_
 _symmetry_equiv_pos_site_id
 _symmetry_equiv_pos_as_xyz
  1  'x, y, z'
loop_
 _atom_site_type_symbol
 _atom_site_label
 _atom_site_symmetry_multiplicity
 _atom_site_fract_x
 _atom_site_fract_y
 _atom_site_fract_z
 _atom_site_occupancy
  Ac  Ac0  1  0.889859  0.610141  0.500000  1
  Ac  Ac1  1  0.110141  0.389859  0.500000  1
  Yb  Yb2  1  0.000000  0.000000  0.000000  1
  Yb  Yb3  1  0.500000  0.500000  0.000000  1
  Yb  Yb4  1  0.392907  0.892907  0.500000  1
  Yb  Yb5  1  0.607093  0.107093  0.500000  1
  Tm  Tm6  1  0.181753  0.681753  0.500000  1
  Tm  Tm7  1  0.818247  0.318247  0.500000  1
  Tm  Tm8  1  0.677957  0.822043  0.500000  1
  Tm  Tm9  1  0.322043  0.177957  0.500000  1
  Ni  Ni10  1  0.256008  0.536315  0.000000  1
  Ni  Ni11  1  0.743992  0.463685  0.000000  1
  Ni  Ni12  1  0.753922  0.964836  0.000000  1
  Ni  Ni13  1  0.246078  0.035164  0.000000  1
  Ni  Ni14  1  0.464836  0.253922  0.000000  1
  Ni  Ni15  1  0.535164  0.746078  0.000000  1
  Ni  Ni16  1  0.036315  0.756008  0.000000  1
  Ni  Ni17  1  0.963685  0.243992  0.000000  1
  Sn  Sn18  1  0.352258  0.701815  0.000000  1
  Sn  Sn19  1  0.647742  0.298185  0.000000  1
  Sn  Sn20  1  0.850883  0.803217  0.000000  1
  Sn  Sn21  1  0.149117  0.196783  0.000000  1
  Sn  Sn22  1  0.303217  0.350883  0.000000  1
  Sn  Sn23  1  0.696783  0.649117  0.000000  1
  Sn  Sn24  1  0.201815  0.852258  0.000000  1
  Sn  Sn25  1  0.798185  0.147742  0.000000  1
  Sn  Sn26  1  0.339899  0.515479  0.500000  1
  Sn  Sn27  1  0.660101  0.484521  0.500000  1
  Sn  Sn28  1  0.837413  0.986936  0.500000  1
  Sn  Sn29  1  0.162587  0.013064  0.500000  1
  Sn  Sn30  1  0.486936  0.337413  0.500000  1
  Sn  Sn31  1  0.513064  0.662587  0.500000  1
  Sn  Sn32  1  0.015479  0.839899  0.500000  1
  Sn  Sn33  1  0.984521  0.160101  0.500000  1
  Sn  Sn34  1  0.074356  0.574356  0.000000  1
  Sn  Sn35  1  0.925644  0.425644  0.000000  1
  Sn  Sn36  1  0.571154  0.928846  0.000000  1
  Sn  Sn37  1  0.428846  0.071154  0.000000  1
