# generated using pymatgen
data_SmPa3(InPt2)2
_symmetry_space_group_name_H-M   'P 1'
_cell_length_a   7.86452548
_cell_length_b   7.86452561
_cell_length_c   3.67954100
_cell_angle_alpha   90.00000000
_cell_angle_beta   90.00000000
_cell_angle_gamma   91.39811828
_symmetry_Int_Tables_number   1
_chemical_formula_structural   SmPa3(InPt2)2
_chemical_formula_sum   'Sm1 Pa3 In2 Pt4'
_cell_volume   227.51466159
_cell_formula_units_Z   1
loop_
 _symmetry_equiv_pos_site_id
 _symmetry_equiv_pos_as_xyz
  1  'x, y, z'
loop_
 _atom_site_type_symbol
 _atom_site_label
 _atom_site_symmetry_multiplicity
 _atom_site_fract_x
 _atom_site_fract_y
 _atom_site_fract_z
 _atom_site_occupancy
  Sm  Sm0  1  0.824637  0.675363  0.500000  1
  Pa  Pa1  1  0.673058  0.173266  0.500000  1
  Pa  Pa2  1  0.326734  0.826942  0.500000  1
  Pa  Pa3  1  0.170115  0.329885  0.500000  1
  In  In4  1  0.505419  0.501469  0.000000  1
  In  In5  1  0.998531  0.994581  0.000000  1
  Pt  Pt6  1  0.144422  0.622341  0.000000  1
  Pt  Pt7  1  0.877659  0.355578  0.000000  1
  Pt  Pt8  1  0.615692  0.884308  0.000000  1
  Pt  Pt9  1  0.363733  0.136267  0.000000  1
