# generated using pymatgen
data_YHo3Al18Pd5W
_symmetry_space_group_name_H-M   'P 1'
_cell_length_a   7.62901576
_cell_length_b   7.63090392
_cell_length_c   9.52700174
_cell_angle_alpha   89.62926364
_cell_angle_beta   89.60031667
_cell_angle_gamma   118.82771233
_symmetry_Int_Tables_number   1
_chemical_formula_structural   YHo3Al18Pd5W
_chemical_formula_sum   'Y1 Ho3 Al18 Pd5 W1'
_cell_volume   485.85132142
_cell_formula_units_Z   1
loop_
 _symmetry_equiv_pos_site_id
 _symmetry_equiv_pos_as_xyz
  1  'x, y, z'
loop_
 _atom_site_type_symbol
 _atom_site_label
 _atom_site_symmetry_multiplicity
 _atom_site_fract_x
 _atom_site_fract_y
 _atom_site_fract_z
 _atom_site_occupancy
  Y  Y0  1  0.995138  0.679209  0.246870  1
  Ho  Ho1  1  0.004887  0.320254  0.753473  1
  Ho  Ho2  1  0.679615  0.995140  0.246583  1
  Ho  Ho3  1  0.320323  0.004949  0.753451  1
  Al  Al4  1  0.135858  0.136096  0.249202  1
  Al  Al5  1  0.864166  0.864196  0.750673  1
  Al  Al6  1  0.002935  0.335648  0.076574  1
  Al  Al7  1  0.997104  0.664190  0.922855  1
  Al  Al8  1  0.998544  0.660541  0.578820  1
  Al  Al9  1  0.339693  0.001741  0.421778  1
  Al  Al10  1  0.001474  0.339013  0.421821  1
  Al  Al11  1  0.660589  0.998575  0.578492  1
  Al  Al12  1  0.664059  0.997099  0.923157  1
  Al  Al13  1  0.336152  0.003274  0.076540  1
  Al  Al14  1  0.333262  0.333257  0.554965  1
  Al  Al15  1  0.666444  0.666771  0.445386  1
  Al  Al16  1  0.666712  0.667007  0.052243  1
  Al  Al17  1  0.333157  0.333158  0.947419  1
  Al  Al18  1  0.342912  0.551634  0.250255  1
  Al  Al19  1  0.657321  0.448214  0.749730  1
  Al  Al20  1  0.551302  0.342234  0.250266  1
  Al  Al21  1  0.448237  0.657376  0.749716  1
  Pd  Pd22  1  0.672760  0.327305  0.000004  1
  Pd  Pd23  1  0.327271  0.672729  0.999983  1
  Pd  Pd24  1  0.327636  0.672361  0.499998  1
  Pd  Pd25  1  0.672393  0.327689  0.499978  1
  Pd  Pd26  1  0.999999  0.000046  0.500046  1
  W  W27  1  0.000057  0.000296  0.999724  1
