# generated using pymatgen
data_Sc6C2Cl7
_symmetry_space_group_name_H-M   'P 1'
_cell_length_a   3.49095866
_cell_length_b   9.58462102
_cell_length_c   9.94407863
_cell_angle_alpha   106.80992959
_cell_angle_beta   100.10947111
_cell_angle_gamma   100.49282720
_symmetry_Int_Tables_number   1
_chemical_formula_structural   Sc6C2Cl7
_chemical_formula_sum   'Sc6 C2 Cl7'
_cell_volume   303.83739106
_cell_formula_units_Z   1
loop_
 _symmetry_equiv_pos_site_id
 _symmetry_equiv_pos_as_xyz
  1  'x, y, z'
loop_
 _atom_site_type_symbol
 _atom_site_label
 _atom_site_symmetry_multiplicity
 _atom_site_fract_x
 _atom_site_fract_y
 _atom_site_fract_z
 _atom_site_occupancy
  Sc  Sc0  1  0.938954  0.706429  0.171479  1
  Sc  Sc1  1  0.679518  0.994516  0.364519  1
  Sc  Sc2  1  0.577576  0.706512  0.448641  1
  Sc  Sc3  1  0.422424  0.293489  0.551358  1
  Sc  Sc4  1  0.320482  0.005483  0.635480  1
  Sc  Sc5  1  0.061046  0.293572  0.828520  1
  C  C6  1  0.118018  0.837251  0.398786  1
  C  C7  1  0.881981  0.162749  0.601214  1
  Cl  Cl8  1  0.458548  0.841719  0.075377  1
  Cl  Cl9  1  0.340211  0.506614  0.173808  1
  Cl  Cl10  1  0.223032  0.162996  0.283068  1
  Cl  Cl11  1  0.999999  0.499999  0.500000  1
  Cl  Cl12  1  0.776969  0.837005  0.716933  1
  Cl  Cl13  1  0.659788  0.493385  0.826191  1
  Cl  Cl14  1  0.541452  0.158282  0.924623  1
