# generated using pymatgen
data_Yb8TmLu(AlSb3)4
_symmetry_space_group_name_H-M   'P 1'
_cell_length_a   4.37932300
_cell_length_b   7.51726539
_cell_length_c   22.72097421
_cell_angle_alpha   89.96277245
_cell_angle_beta   90.00000000
_cell_angle_gamma   90.00000000
_symmetry_Int_Tables_number   1
_chemical_formula_structural   Yb8TmLu(AlSb3)4
_chemical_formula_sum   'Yb8 Tm1 Lu1 Al4 Sb12'
_cell_volume   747.98642868
_cell_formula_units_Z   1
loop_
 _symmetry_equiv_pos_site_id
 _symmetry_equiv_pos_as_xyz
  1  'x, y, z'
loop_
 _atom_site_type_symbol
 _atom_site_label
 _atom_site_symmetry_multiplicity
 _atom_site_fract_x
 _atom_site_fract_y
 _atom_site_fract_z
 _atom_site_occupancy
  Yb  Yb0  1  0.000000  0.461979  0.914314  1
  Yb  Yb1  1  0.000000  0.279500  0.747102  1
  Yb  Yb2  1  0.000000  0.779743  0.753083  1
  Yb  Yb3  1  0.000000  0.538021  0.085686  1
  Yb  Yb4  1  0.000000  0.962240  0.585810  1
  Yb  Yb5  1  0.000000  0.720500  0.252898  1
  Yb  Yb6  1  0.000000  0.037760  0.414190  1
  Yb  Yb7  1  0.000000  0.220257  0.246917  1
  Tm  Tm8  1  0.000000  0.500000  0.500000  1
  Lu  Lu9  1  0.000000  0.000000  0.000000  1
  Al  Al10  1  0.500000  0.827178  0.880963  1
  Al  Al11  1  0.500000  0.172822  0.119037  1
  Al  Al12  1  0.500000  0.672362  0.381028  1
  Al  Al13  1  0.500000  0.327638  0.618972  1
  Sb  Sb14  1  0.500000  0.779981  0.496518  1
  Sb  Sb15  1  0.000000  0.460303  0.364747  1
  Sb  Sb16  1  0.000000  0.960624  0.134844  1
  Sb  Sb17  1  0.500000  0.526878  0.813076  1
  Sb  Sb18  1  0.500000  0.473122  0.186924  1
  Sb  Sb19  1  0.000000  0.039376  0.865156  1
  Sb  Sb20  1  0.000000  0.539697  0.635253  1
  Sb  Sb21  1  0.500000  0.973050  0.313069  1
  Sb  Sb22  1  0.500000  0.220019  0.503482  1
  Sb  Sb23  1  0.500000  0.026950  0.686931  1
  Sb  Sb24  1  0.500000  0.278361  0.003337  1
  Sb  Sb25  1  0.500000  0.721639  0.996663  1
