# generated using pymatgen
data_Ho3Tm9(Si3Rh)4
_symmetry_space_group_name_H-M   'P 1'
_cell_length_a   4.19268400
_cell_length_b   10.50497974
_cell_length_c   12.15062300
_cell_angle_alpha   90.09266612
_cell_angle_beta   90.00000000
_cell_angle_gamma   90.00000000
_symmetry_Int_Tables_number   1
_chemical_formula_structural   Ho3Tm9(Si3Rh)4
_chemical_formula_sum   'Ho3 Tm9 Si12 Rh4'
_cell_volume   535.16207427
_cell_formula_units_Z   1
loop_
 _symmetry_equiv_pos_site_id
 _symmetry_equiv_pos_as_xyz
  1  'x, y, z'
loop_
 _atom_site_type_symbol
 _atom_site_label
 _atom_site_symmetry_multiplicity
 _atom_site_fract_x
 _atom_site_fract_y
 _atom_site_fract_z
 _atom_site_occupancy
  Ho  Ho0  1  0.250000  0.840127  0.301460  1
  Ho  Ho1  1  0.750000  0.340620  0.198611  1
  Ho  Ho2  1  0.750000  0.159406  0.698554  1
  Tm  Tm3  1  0.250000  0.878700  0.020535  1
  Tm  Tm4  1  0.250000  0.620794  0.521587  1
  Tm  Tm5  1  0.750000  0.120341  0.979106  1
  Tm  Tm6  1  0.750000  0.379795  0.479298  1
  Tm  Tm7  1  0.250000  0.920524  0.603427  1
  Tm  Tm8  1  0.250000  0.579078  0.102796  1
  Tm  Tm9  1  0.750000  0.079510  0.396633  1
  Tm  Tm10  1  0.750000  0.420768  0.896407  1
  Tm  Tm11  1  0.250000  0.660302  0.800896  1
  Si  Si12  1  0.250000  0.013827  0.822886  1
  Si  Si13  1  0.250000  0.486320  0.322849  1
  Si  Si14  1  0.750000  0.985668  0.177036  1
  Si  Si15  1  0.750000  0.514986  0.677745  1
  Si  Si16  1  0.250000  0.247933  0.841369  1
  Si  Si17  1  0.250000  0.251803  0.341230  1
  Si  Si18  1  0.750000  0.751389  0.158129  1
  Si  Si19  1  0.750000  0.748243  0.659105  1
  Si  Si20  1  0.250000  0.198366  0.540893  1
  Si  Si21  1  0.250000  0.301789  0.040564  1
  Si  Si22  1  0.750000  0.801961  0.459530  1
  Si  Si23  1  0.750000  0.697225  0.957989  1
  Rh  Rh24  1  0.250000  0.392340  0.680858  1
  Rh  Rh25  1  0.250000  0.108941  0.179279  1
  Rh  Rh26  1  0.750000  0.609417  0.320565  1
  Rh  Rh27  1  0.750000  0.889835  0.820663  1
