# generated using pymatgen
data_Tb4Tm4Ga3Fe
_symmetry_space_group_name_H-M   'P 1'
_cell_length_a   9.89315200
_cell_length_b   9.89314981
_cell_length_c   7.02319400
_cell_angle_alpha   90.00000000
_cell_angle_beta   90.00000000
_cell_angle_gamma   120.00000065
_symmetry_Int_Tables_number   1
_chemical_formula_structural   Tb4Tm4Ga3Fe
_chemical_formula_sum   'Tb8 Tm8 Ga6 Fe2'
_cell_volume   595.29818847
_cell_formula_units_Z   2
loop_
 _symmetry_equiv_pos_site_id
 _symmetry_equiv_pos_as_xyz
  1  'x, y, z'
loop_
 _atom_site_type_symbol
 _atom_site_label
 _atom_site_symmetry_multiplicity
 _atom_site_fract_x
 _atom_site_fract_y
 _atom_site_fract_z
 _atom_site_occupancy
  Tb  Tb0  1  0.536200  0.072399  0.790819  1
  Tb  Tb1  1  0.927601  0.463800  0.790819  1
  Tb  Tb2  1  0.536200  0.463800  0.790819  1
  Tb  Tb3  1  0.463800  0.927601  0.290819  1
  Tb  Tb4  1  0.072399  0.536200  0.290819  1
  Tb  Tb5  1  0.463800  0.536200  0.290819  1
  Tb  Tb6  1  0.000000  0.000000  0.767810  1
  Tb  Tb7  1  0.000000  0.000000  0.267810  1
  Tm  Tm8  1  0.826104  0.652207  0.486588  1
  Tm  Tm9  1  0.347793  0.173896  0.486588  1
  Tm  Tm10  1  0.826104  0.173896  0.486588  1
  Tm  Tm11  1  0.173896  0.347793  0.986588  1
  Tm  Tm12  1  0.652207  0.826104  0.986588  1
  Tm  Tm13  1  0.173896  0.826104  0.986588  1
  Tm  Tm14  1  0.666667  0.333333  0.171660  1
  Tm  Tm15  1  0.333333  0.666667  0.671660  1
  Ga  Ga16  1  0.835677  0.671353  0.046292  1
  Ga  Ga17  1  0.328647  0.164323  0.046292  1
  Ga  Ga18  1  0.835677  0.164323  0.046292  1
  Ga  Ga19  1  0.164323  0.328647  0.546292  1
  Ga  Ga20  1  0.671353  0.835677  0.546292  1
  Ga  Ga21  1  0.164323  0.835677  0.546292  1
  Fe  Fe22  1  0.666667  0.333333  0.552471  1
  Fe  Fe23  1  0.333333  0.666667  0.052471  1
