# generated using pymatgen
data_TbTm13Lu6(CoSb2)4
_symmetry_space_group_name_H-M   'P 1'
_cell_length_a   7.72371729
_cell_length_b   8.72913525
_cell_length_c   12.03353535
_cell_angle_alpha   89.97279143
_cell_angle_beta   90.03071520
_cell_angle_gamma   90.00296833
_symmetry_Int_Tables_number   1
_chemical_formula_structural   TbTm13Lu6(CoSb2)4
_chemical_formula_sum   'Tb1 Tm13 Lu6 Co4 Sb8'
_cell_volume   811.31726406
_cell_formula_units_Z   1
loop_
 _symmetry_equiv_pos_site_id
 _symmetry_equiv_pos_as_xyz
  1  'x, y, z'
loop_
 _atom_site_type_symbol
 _atom_site_label
 _atom_site_symmetry_multiplicity
 _atom_site_fract_x
 _atom_site_fract_y
 _atom_site_fract_z
 _atom_site_occupancy
  Tb  Tb0  1  0.877228  0.749793  0.806820  1
  Tm  Tm1  1  0.155424  0.749847  0.203940  1
  Tm  Tm2  1  0.655419  0.250159  0.296156  1
  Tm  Tm3  1  0.844624  0.250053  0.795806  1
  Tm  Tm4  1  0.345353  0.749949  0.703830  1
  Tm  Tm5  1  0.447831  0.749882  0.997599  1
  Tm  Tm6  1  0.948323  0.250117  0.501884  1
  Tm  Tm7  1  0.550655  0.250208  0.002534  1
  Tm  Tm8  1  0.051678  0.749781  0.497856  1
  Tm  Tm9  1  0.621168  0.749926  0.309043  1
  Tm  Tm10  1  0.121412  0.250090  0.191489  1
  Tm  Tm11  1  0.379232  0.250192  0.690828  1
  Tm  Tm12  1  0.823704  0.964073  0.066153  1
  Tm  Tm13  1  0.323571  0.036902  0.434694  1
  Lu  Lu14  1  0.175961  0.461047  0.935533  1
  Lu  Lu15  1  0.675503  0.537073  0.564893  1
  Lu  Lu16  1  0.176202  0.038902  0.935484  1
  Lu  Lu17  1  0.675753  0.962995  0.564944  1
  Lu  Lu18  1  0.824721  0.535979  0.066064  1
  Lu  Lu19  1  0.324590  0.462997  0.434839  1
  Co  Co20  1  0.432852  0.749713  0.491006  1
  Co  Co21  1  0.932661  0.250298  0.009299  1
  Co  Co22  1  0.568050  0.250350  0.508732  1
  Co  Co23  1  0.068141  0.749668  0.991381  1
  Sb  Sb24  1  0.930640  0.991447  0.327954  1
  Sb  Sb25  1  0.430579  0.008262  0.172172  1
  Sb  Sb26  1  0.071165  0.490379  0.671436  1
  Sb  Sb27  1  0.567209  0.507204  0.828034  1
  Sb  Sb28  1  0.071245  0.009633  0.671454  1
  Sb  Sb29  1  0.567289  0.992794  0.828030  1
  Sb  Sb30  1  0.930933  0.508491  0.327951  1
  Sb  Sb31  1  0.430881  0.491796  0.172163  1
