# generated using pymatgen
data_Li2Tm16TlCdNi4
_symmetry_space_group_name_H-M   'P 1'
_cell_length_a   9.42715004
_cell_length_b   9.43554420
_cell_length_c   9.43554285
_cell_angle_alpha   60.41368712
_cell_angle_beta   59.99510382
_cell_angle_gamma   59.99511547
_symmetry_Int_Tables_number   1
_chemical_formula_structural   Li2Tm16TlCdNi4
_chemical_formula_sum   'Li2 Tm16 Tl1 Cd1 Ni4'
_cell_volume   595.25956260
_cell_formula_units_Z   1
loop_
 _symmetry_equiv_pos_site_id
 _symmetry_equiv_pos_as_xyz
  1  'x, y, z'
loop_
 _atom_site_type_symbol
 _atom_site_label
 _atom_site_symmetry_multiplicity
 _atom_site_fract_x
 _atom_site_fract_y
 _atom_site_fract_z
 _atom_site_occupancy
  Li  Li0  1  0.573080  0.575748  0.278275  1
  Li  Li1  1  0.573080  0.278275  0.575748  1
  Tm  Tm2  1  0.344491  0.346106  0.346106  1
  Tm  Tm3  1  0.346219  0.351377  0.956256  1
  Tm  Tm4  1  0.346219  0.956256  0.351377  1
  Tm  Tm5  1  0.960941  0.347142  0.347142  1
  Tm  Tm6  1  0.816834  0.183209  0.183209  1
  Tm  Tm7  1  0.189218  0.810278  0.810278  1
  Tm  Tm8  1  0.187042  0.811514  0.186760  1
  Tm  Tm9  1  0.812721  0.187055  0.811080  1
  Tm  Tm10  1  0.187042  0.186760  0.811514  1
  Tm  Tm11  1  0.812721  0.811080  0.187055  1
  Tm  Tm12  1  0.939241  0.563818  0.563818  1
  Tm  Tm13  1  0.562917  0.937007  0.937007  1
  Tm  Tm14  1  0.565216  0.935596  0.564070  1
  Tm  Tm15  1  0.937877  0.563680  0.934321  1
  Tm  Tm16  1  0.565216  0.564070  0.935596  1
  Tm  Tm17  1  0.937877  0.934321  0.563680  1
  Tl  Tl18  1  0.585383  0.579390  0.579390  1
  Cd  Cd19  1  0.256536  0.578642  0.578642  1
  Ni  Ni20  1  0.143779  0.142102  0.142102  1
  Ni  Ni21  1  0.141877  0.141325  0.573666  1
  Ni  Ni22  1  0.141877  0.573666  0.141325  1
  Ni  Ni23  1  0.572604  0.141588  0.141588  1
