# generated using pymatgen
data_LaNdCu9Ni
_symmetry_space_group_name_H-M   'P 1'
_cell_length_a   4.10080600
_cell_length_b   5.09324200
_cell_length_c   8.86166500
_cell_angle_alpha   90.00000000
_cell_angle_beta   90.00000000
_cell_angle_gamma   90.00000000
_symmetry_Int_Tables_number   1
_chemical_formula_structural   LaNdCu9Ni
_chemical_formula_sum   'La1 Nd1 Cu9 Ni1'
_cell_volume   185.08825640
_cell_formula_units_Z   1
loop_
 _symmetry_equiv_pos_site_id
 _symmetry_equiv_pos_as_xyz
  1  'x, y, z'
loop_
 _atom_site_type_symbol
 _atom_site_label
 _atom_site_symmetry_multiplicity
 _atom_site_fract_x
 _atom_site_fract_y
 _atom_site_fract_z
 _atom_site_occupancy
  La  La0  1  0.000000  0.000000  0.005321  1
  Nd  Nd1  1  0.000000  0.500000  0.495344  1
  Cu  Cu2  1  0.000000  0.000000  0.334599  1
  Cu  Cu3  1  0.000000  0.500000  0.831826  1
  Cu  Cu4  1  0.000000  0.000000  0.666003  1
  Cu  Cu5  1  0.500000  0.500000  0.001331  1
  Cu  Cu6  1  0.500000  0.000000  0.500201  1
  Cu  Cu7  1  0.500000  0.253732  0.251794  1
  Cu  Cu8  1  0.500000  0.748358  0.747784  1
  Cu  Cu9  1  0.500000  0.746268  0.251794  1
  Cu  Cu10  1  0.500000  0.251642  0.747784  1
  Ni  Ni11  1  0.000000  0.500000  0.166220  1
