# generated using pymatgen
data_Yb2Ni2Pd3O10
_symmetry_space_group_name_H-M   'P 1'
_cell_length_a   5.29951465
_cell_length_b   6.41470413
_cell_length_c   7.04519563
_cell_angle_alpha   106.41612337
_cell_angle_beta   96.96744875
_cell_angle_gamma   106.15671618
_symmetry_Int_Tables_number   1
_chemical_formula_structural   Yb2Ni2Pd3O10
_chemical_formula_sum   'Yb2 Ni2 Pd3 O10'
_cell_volume   215.40437201
_cell_formula_units_Z   1
loop_
 _symmetry_equiv_pos_site_id
 _symmetry_equiv_pos_as_xyz
  1  'x, y, z'
loop_
 _atom_site_type_symbol
 _atom_site_label
 _atom_site_symmetry_multiplicity
 _atom_site_fract_x
 _atom_site_fract_y
 _atom_site_fract_z
 _atom_site_occupancy
  Yb  Yb0  1  0.614809  0.228689  0.727664  1
  Yb  Yb1  1  0.372802  0.772042  0.273993  1
  Ni  Ni2  1  0.004494  0.508935  0.505144  1
  Ni  Ni3  1  0.194094  0.895237  0.887281  1
  Pd  Pd4  1  0.602325  0.704031  0.699099  1
  Pd  Pd5  1  0.399543  0.296262  0.300348  1
  Pd  Pd6  1  0.802662  0.095029  0.105879  1
  O  O7  1  0.678939  0.618726  0.416525  1
  O  O8  1  0.320338  0.384826  0.581507  1
  O  O9  1  0.689479  0.164490  0.384390  1
  O  O10  1  0.095031  0.410511  0.221037  1
  O  O11  1  0.314146  0.835208  0.607223  1
  O  O12  1  0.900446  0.582006  0.776466  1
  O  O13  1  0.112134  0.980922  0.182532  1
  O  O14  1  0.502458  0.214945  0.026169  1
  O  O15  1  0.882900  0.025049  0.825089  1
  O  O16  1  0.513401  0.783092  0.979654  1
