# generated using pymatgen
data_Dy3ZrZn2Ir3
_symmetry_space_group_name_H-M   'P 1'
_cell_length_a   7.15413422
_cell_length_b   7.03170245
_cell_length_c   4.17311500
_cell_angle_alpha   90.00000000
_cell_angle_beta   90.00000000
_cell_angle_gamma   119.43548416
_symmetry_Int_Tables_number   1
_chemical_formula_structural   Dy3ZrZn2Ir3
_chemical_formula_sum   'Dy3 Zr1 Zn2 Ir3'
_cell_volume   182.83149445
_cell_formula_units_Z   1
loop_
 _symmetry_equiv_pos_site_id
 _symmetry_equiv_pos_as_xyz
  1  'x, y, z'
loop_
 _atom_site_type_symbol
 _atom_site_label
 _atom_site_symmetry_multiplicity
 _atom_site_fract_x
 _atom_site_fract_y
 _atom_site_fract_z
 _atom_site_occupancy
  Dy  Dy0  1  0.570219  0.581625  0.000000  1
  Dy  Dy1  1  0.429781  0.011406  0.000000  1
  Dy  Dy2  1  0.000000  0.389806  0.000000  1
  Zr  Zr3  1  0.000000  0.758443  0.500000  1
  Zn  Zn4  1  0.244610  0.247601  0.500000  1
  Zn  Zn5  1  0.755390  0.002990  0.500000  1
  Ir  Ir6  1  0.000000  0.987740  0.000000  1
  Ir  Ir7  1  0.667957  0.344172  0.500000  1
  Ir  Ir8  1  0.332043  0.676216  0.500000  1
