# generated using pymatgen
data_Nd3YCo8(PRu)12
_symmetry_space_group_name_H-M   'P 1'
_cell_length_a   3.82040700
_cell_length_b   10.70369287
_cell_length_c   12.21473600
_cell_angle_alpha   89.95378372
_cell_angle_beta   90.00000000
_cell_angle_gamma   90.00000000
_symmetry_Int_Tables_number   1
_chemical_formula_structural   Nd3YCo8(PRu)12
_chemical_formula_sum   'Nd3 Y1 Co8 P12 Ru12'
_cell_volume   499.49047923
_cell_formula_units_Z   1
loop_
 _symmetry_equiv_pos_site_id
 _symmetry_equiv_pos_as_xyz
  1  'x, y, z'
loop_
 _atom_site_type_symbol
 _atom_site_label
 _atom_site_symmetry_multiplicity
 _atom_site_fract_x
 _atom_site_fract_y
 _atom_site_fract_z
 _atom_site_occupancy
  Nd  Nd0  1  0.250000  0.915517  0.206776  1
  Nd  Nd1  1  0.750000  0.415876  0.293379  1
  Nd  Nd2  1  0.750000  0.084299  0.793147  1
  Y  Y3  1  0.250000  0.584603  0.706505  1
  Co  Co4  1  0.250000  0.885831  0.694583  1
  Co  Co5  1  0.250000  0.613079  0.193482  1
  Co  Co6  1  0.750000  0.113063  0.306142  1
  Co  Co7  1  0.750000  0.388688  0.804061  1
  Co  Co8  1  0.250000  0.463845  0.933858  1
  Co  Co9  1  0.250000  0.036774  0.436131  1
  Co  Co10  1  0.750000  0.536983  0.062735  1
  Co  Co11  1  0.750000  0.962150  0.564956  1
  P  P12  1  0.250000  0.425511  0.109462  1
  P  P13  1  0.250000  0.074674  0.610773  1
  P  P14  1  0.750000  0.574113  0.886605  1
  P  P15  1  0.750000  0.925051  0.390028  1
  P  P16  1  0.250000  0.274670  0.871524  1
  P  P17  1  0.250000  0.225643  0.372092  1
  P  P18  1  0.750000  0.724849  0.128420  1
  P  P19  1  0.750000  0.772494  0.629604  1
  P  P20  1  0.250000  0.604400  0.389078  1
  P  P21  1  0.250000  0.895648  0.888735  1
  P  P22  1  0.750000  0.398230  0.612706  1
  P  P23  1  0.750000  0.104259  0.111060  1
  Ru  Ru24  1  0.250000  0.705381  0.985731  1
  Ru  Ru25  1  0.250000  0.794191  0.486542  1
  Ru  Ru26  1  0.750000  0.294992  0.013499  1
  Ru  Ru27  1  0.750000  0.206199  0.514728  1
  Ru  Ru28  1  0.250000  0.405768  0.488226  1
  Ru  Ru29  1  0.250000  0.095467  0.987369  1
  Ru  Ru30  1  0.750000  0.595675  0.515607  1
  Ru  Ru31  1  0.750000  0.904222  0.012161  1
  Ru  Ru32  1  0.250000  0.223037  0.179722  1
  Ru  Ru33  1  0.250000  0.278087  0.679875  1
  Ru  Ru34  1  0.750000  0.774835  0.819769  1
  Ru  Ru35  1  0.750000  0.721896  0.320931  1
