# generated using pymatgen
data_BaAc3Pd4
_symmetry_space_group_name_H-M   'P 1'
_cell_length_a   4.72608400
_cell_length_b   6.19559624
_cell_length_c   7.99583271
_cell_angle_alpha   91.08196687
_cell_angle_beta   90.00000000
_cell_angle_gamma   90.00000000
_symmetry_Int_Tables_number   1
_chemical_formula_structural   BaAc3Pd4
_chemical_formula_sum   'Ba1 Ac3 Pd4'
_cell_volume   234.08350064
_cell_formula_units_Z   1
loop_
 _symmetry_equiv_pos_site_id
 _symmetry_equiv_pos_as_xyz
  1  'x, y, z'
loop_
 _atom_site_type_symbol
 _atom_site_label
 _atom_site_symmetry_multiplicity
 _atom_site_fract_x
 _atom_site_fract_y
 _atom_site_fract_z
 _atom_site_occupancy
  Ba  Ba0  1  0.750000  0.860047  0.819256  1
  Ac  Ac1  1  0.250000  0.357968  0.682739  1
  Ac  Ac2  1  0.250000  0.140332  0.183875  1
  Ac  Ac3  1  0.750000  0.641449  0.317974  1
  Pd  Pd4  1  0.250000  0.850307  0.523885  1
  Pd  Pd5  1  0.250000  0.635121  0.060109  1
  Pd  Pd6  1  0.750000  0.156216  0.448013  1
  Pd  Pd7  1  0.750000  0.358558  0.964149  1
