# generated using pymatgen
data_Dy12Si8Ir7Rh5
_symmetry_space_group_name_H-M   'P 1'
_cell_length_a   5.52979514
_cell_length_b   7.55161817
_cell_length_c   14.84968105
_cell_angle_alpha   90.00215442
_cell_angle_beta   89.99118103
_cell_angle_gamma   90.02422163
_symmetry_Int_Tables_number   1
_chemical_formula_structural   Dy12Si8Ir7Rh5
_chemical_formula_sum   'Dy12 Si8 Ir7 Rh5'
_cell_volume   620.10630427
_cell_formula_units_Z   1
loop_
 _symmetry_equiv_pos_site_id
 _symmetry_equiv_pos_as_xyz
  1  'x, y, z'
loop_
 _atom_site_type_symbol
 _atom_site_label
 _atom_site_symmetry_multiplicity
 _atom_site_fract_x
 _atom_site_fract_y
 _atom_site_fract_z
 _atom_site_occupancy
  Dy  Dy0  1  0.899350  0.829767  0.749946  1
  Dy  Dy1  1  0.868407  0.524161  0.391570  1
  Dy  Dy2  1  0.368772  0.974780  0.608276  1
  Dy  Dy3  1  0.131616  0.473269  0.891433  1
  Dy  Dy4  1  0.631850  0.027328  0.109083  1
  Dy  Dy5  1  0.099881  0.170359  0.250013  1
  Dy  Dy6  1  0.132194  0.473855  0.608621  1
  Dy  Dy7  1  0.631268  0.027250  0.390691  1
  Dy  Dy8  1  0.399380  0.670747  0.249874  1
  Dy  Dy9  1  0.369455  0.976083  0.892113  1
  Dy  Dy10  1  0.600612  0.329102  0.750331  1
  Dy  Dy11  1  0.869654  0.523163  0.108558  1
  Si  Si12  1  0.621757  0.625534  0.896188  1
  Si  Si13  1  0.878099  0.125495  0.603103  1
  Si  Si14  1  0.121958  0.874160  0.103698  1
  Si  Si15  1  0.122377  0.874154  0.396277  1
  Si  Si16  1  0.622932  0.624824  0.603784  1
  Si  Si17  1  0.878169  0.124480  0.896624  1
  Si  Si18  1  0.377857  0.375236  0.103047  1
  Si  Si19  1  0.375383  0.376253  0.396945  1
  Ir  Ir20  1  0.600955  0.333113  0.960812  1
  Ir  Ir21  1  0.100125  0.166669  0.461077  1
  Ir  Ir22  1  0.100015  0.166581  0.039107  1
  Ir  Ir23  1  0.409581  0.680719  0.750007  1
  Ir  Ir24  1  0.587811  0.320680  0.250363  1
  Ir  Ir25  1  0.909413  0.818762  0.249967  1
  Ir  Ir26  1  0.090632  0.179752  0.749735  1
  Rh  Rh27  1  0.899208  0.832137  0.961640  1
  Rh  Rh28  1  0.899134  0.832347  0.538347  1
  Rh  Rh29  1  0.600536  0.332933  0.538517  1
  Rh  Rh30  1  0.401075  0.668224  0.461791  1
  Rh  Rh31  1  0.400543  0.668086  0.038462  1
