# generated using pymatgen
data_La3Eu(MoO4)6
_symmetry_space_group_name_H-M   'P 1'
_cell_length_a   7.71631906
_cell_length_b   7.71631986
_cell_length_c   11.01944521
_cell_angle_alpha   89.83975964
_cell_angle_beta   90.16024300
_cell_angle_gamma   89.89019090
_symmetry_Int_Tables_number   1
_chemical_formula_structural   La3Eu(MoO4)6
_chemical_formula_sum   'La3 Eu1 Mo6 O24'
_cell_volume   656.10889781
_cell_formula_units_Z   1
loop_
 _symmetry_equiv_pos_site_id
 _symmetry_equiv_pos_as_xyz
  1  'x, y, z'
loop_
 _atom_site_type_symbol
 _atom_site_label
 _atom_site_symmetry_multiplicity
 _atom_site_fract_x
 _atom_site_fract_y
 _atom_site_fract_z
 _atom_site_occupancy
  La  La0  1  0.191197  0.690704  0.738076  1
  La  La1  1  0.809296  0.308803  0.738076  1
  La  La2  1  0.687357  0.812643  0.259641  1
  Eu  Eu3  1  0.306592  0.193408  0.266632  1
  Mo  Mo4  1  0.209048  0.708774  0.353303  1
  Mo  Mo5  1  0.791226  0.290952  0.353303  1
  Mo  Mo6  1  0.708969  0.791031  0.645563  1
  Mo  Mo7  1  0.290080  0.209920  0.641501  1
  Mo  Mo8  1  0.006364  0.004520  0.002760  1
  Mo  Mo9  1  0.495480  0.493636  0.002760  1
  O  O10  1  0.998154  0.223229  0.297952  1
  O  O11  1  0.001704  0.768967  0.294335  1
  O  O12  1  0.225955  0.003914  0.699608  1
  O  O13  1  0.503705  0.726393  0.704451  1
  O  O14  1  0.773607  0.996295  0.704451  1
  O  O15  1  0.496086  0.274045  0.699608  1
  O  O16  1  0.276771  0.501846  0.297952  1
  O  O17  1  0.731033  0.498296  0.294335  1
  O  O18  1  0.186604  0.049964  0.100285  1
  O  O19  1  0.817634  0.959138  0.092312  1
  O  O20  1  0.055782  0.820291  0.909770  1
  O  O21  1  0.312484  0.535493  0.906036  1
  O  O22  1  0.964507  0.187516  0.906036  1
  O  O23  1  0.679709  0.444218  0.909770  1
  O  O24  1  0.450036  0.313396  0.100285  1
  O  O25  1  0.540862  0.682366  0.092312  1
  O  O26  1  0.626279  0.132655  0.308292  1
  O  O27  1  0.367345  0.873721  0.308292  1
  O  O28  1  0.128499  0.371501  0.685958  1
  O  O29  1  0.870511  0.629489  0.692112  1
  O  O30  1  0.197137  0.699245  0.515119  1
  O  O31  1  0.800755  0.302863  0.515119  1
  O  O32  1  0.696809  0.803191  0.484135  1
  O  O33  1  0.302422  0.197578  0.479860  1
