# generated using pymatgen
data_Nd4ReOs3I2
_symmetry_space_group_name_H-M   'P 1'
_cell_length_a   4.28734800
_cell_length_b   4.28734826
_cell_length_c   17.91819100
_cell_angle_alpha   90.00000000
_cell_angle_beta   90.00000000
_cell_angle_gamma   120.00001346
_symmetry_Int_Tables_number   1
_chemical_formula_structural   Nd4ReOs3I2
_chemical_formula_sum   'Nd4 Re1 Os3 I2'
_cell_volume   285.23461762
_cell_formula_units_Z   1
loop_
 _symmetry_equiv_pos_site_id
 _symmetry_equiv_pos_as_xyz
  1  'x, y, z'
loop_
 _atom_site_type_symbol
 _atom_site_label
 _atom_site_symmetry_multiplicity
 _atom_site_fract_x
 _atom_site_fract_y
 _atom_site_fract_z
 _atom_site_occupancy
  Nd  Nd0  1  0.000000  0.000000  0.107086  1
  Nd  Nd1  1  0.000000  0.000000  0.892460  1
  Nd  Nd2  1  0.000000  0.000000  0.611551  1
  Nd  Nd3  1  0.000000  0.000000  0.389402  1
  Re  Re4  1  0.333333  0.666667  0.511010  1
  Os  Os5  1  0.666667  0.333333  0.488468  1
  Os  Os6  1  0.666667  0.333333  0.004325  1
  Os  Os7  1  0.333333  0.666667  0.995505  1
  I  I8  1  0.333333  0.666667  0.248603  1
  I  I9  1  0.666667  0.333333  0.751590  1
