# generated using pymatgen
data_KMnCuS2
_symmetry_space_group_name_H-M   'P 1'
_cell_length_a   7.23954509
_cell_length_b   7.23954512
_cell_length_c   7.23954468
_cell_angle_alpha   148.31144255
_cell_angle_beta   148.31144781
_cell_angle_gamma   45.42582555
_symmetry_Int_Tables_number   1
_chemical_formula_structural   KMnCuS2
_chemical_formula_sum   'K1 Mn1 Cu1 S2'
_cell_volume   104.36094935
_cell_formula_units_Z   1
loop_
 _symmetry_equiv_pos_site_id
 _symmetry_equiv_pos_as_xyz
  1  'x, y, z'
loop_
 _atom_site_type_symbol
 _atom_site_label
 _atom_site_symmetry_multiplicity
 _atom_site_fract_x
 _atom_site_fract_y
 _atom_site_fract_z
 _atom_site_occupancy
  K  K0  1  0.000000  0.000000  0.000000  1
  Mn  Mn1  1  0.750000  0.250000  0.500000  1
  Cu  Cu2  1  0.250000  0.750000  0.500000  1
  S  S3  1  0.645758  0.645758  0.000000  1
  S  S4  1  0.354242  0.354242  0.000000  1
