# generated using pymatgen
data_Y3Np2(NbN4)3
_symmetry_space_group_name_H-M   'P 1'
_cell_length_a   11.37134816
_cell_length_b   11.37134815
_cell_length_c   11.37134800
_cell_angle_alpha   109.47121858
_cell_angle_beta   109.47121856
_cell_angle_gamma   109.47122273
_symmetry_Int_Tables_number   1
_chemical_formula_structural   Y3Np2(NbN4)3
_chemical_formula_sum   'Y12 Np8 Nb12 N48'
_cell_volume   1131.91543944
_cell_formula_units_Z   4
loop_
 _symmetry_equiv_pos_site_id
 _symmetry_equiv_pos_as_xyz
  1  'x, y, z'
loop_
 _atom_site_type_symbol
 _atom_site_label
 _atom_site_symmetry_multiplicity
 _atom_site_fract_x
 _atom_site_fract_y
 _atom_site_fract_z
 _atom_site_occupancy
  Y  Y0  1  0.250000  0.375000  0.125000  1
  Y  Y1  1  0.375000  0.750000  0.125000  1
  Y  Y2  1  0.375000  0.125000  0.250000  1
  Y  Y3  1  0.875000  0.625000  0.250000  1
  Y  Y4  1  0.750000  0.125000  0.375000  1
  Y  Y5  1  0.125000  0.250000  0.375000  1
  Y  Y6  1  0.875000  0.750000  0.625000  1
  Y  Y7  1  0.250000  0.875000  0.625000  1
  Y  Y8  1  0.125000  0.375000  0.750000  1
  Y  Y9  1  0.625000  0.875000  0.750000  1
  Y  Y10  1  0.625000  0.250000  0.875000  1
  Y  Y11  1  0.750000  0.625000  0.875000  1
  Np  Np12  1  0.000000  0.000000  0.000000  1
  Np  Np13  1  0.500000  0.000000  0.000000  1
  Np  Np14  1  0.000000  0.500000  0.000000  1
  Np  Np15  1  0.500000  0.500000  0.000000  1
  Np  Np16  1  0.000000  0.000000  0.500000  1
  Np  Np17  1  0.500000  0.000000  0.500000  1
  Np  Np18  1  0.000000  0.500000  0.500000  1
  Np  Np19  1  0.500000  0.500000  0.500000  1
  Nb  Nb20  1  0.875000  0.250000  0.125000  1
  Nb  Nb21  1  0.750000  0.875000  0.125000  1
  Nb  Nb22  1  0.625000  0.375000  0.250000  1
  Nb  Nb23  1  0.125000  0.875000  0.250000  1
  Nb  Nb24  1  0.250000  0.625000  0.375000  1
  Nb  Nb25  1  0.625000  0.750000  0.375000  1
  Nb  Nb26  1  0.375000  0.250000  0.625000  1
  Nb  Nb27  1  0.750000  0.375000  0.625000  1
  Nb  Nb28  1  0.875000  0.125000  0.750000  1
  Nb  Nb29  1  0.375000  0.625000  0.750000  1
  Nb  Nb30  1  0.250000  0.125000  0.875000  1
  Nb  Nb31  1  0.125000  0.750000  0.875000  1
  N  N32  1  0.207495  0.123669  0.027947  1
  N  N33  1  0.320452  0.904278  0.027947  1
  N  N34  1  0.707495  0.679547  0.083826  1
  N  N35  1  0.876331  0.404278  0.083826  1
  N  N36  1  0.623668  0.416174  0.095722  1
  N  N37  1  0.972053  0.679547  0.095722  1
  N  N38  1  0.027947  0.207495  0.123669  1
  N  N39  1  0.595722  0.916174  0.123669  1
  N  N40  1  0.472053  0.595722  0.179547  1
  N  N41  1  0.207495  0.583825  0.179547  1
  N  N42  1  0.123669  0.027947  0.207495  1
  N  N43  1  0.583825  0.179547  0.207495  1
  N  N44  1  0.320452  0.916174  0.292505  1
  N  N45  1  0.472053  0.376331  0.292505  1
  N  N46  1  0.904278  0.027947  0.320452  1
  N  N47  1  0.916174  0.292505  0.320452  1
  N  N48  1  0.292505  0.472053  0.376331  1
  N  N49  1  0.583825  0.904278  0.376331  1
  N  N50  1  0.820452  0.527946  0.404278  1
  N  N51  1  0.083826  0.876331  0.404278  1
  N  N52  1  0.095722  0.623668  0.416174  1
  N  N53  1  0.820452  0.792505  0.416174  1
  N  N54  1  0.595722  0.179547  0.472053  1
  N  N55  1  0.376331  0.292505  0.472053  1
  N  N56  1  0.623668  0.707495  0.527946  1
  N  N57  1  0.404278  0.820452  0.527946  1
  N  N58  1  0.179547  0.207495  0.583825  1
  N  N59  1  0.904278  0.376331  0.583825  1
  N  N60  1  0.916174  0.123669  0.595722  1
  N  N61  1  0.179547  0.472053  0.595722  1
  N  N62  1  0.416174  0.095722  0.623668  1
  N  N63  1  0.707495  0.527946  0.623668  1
  N  N64  1  0.095722  0.972053  0.679547  1
  N  N65  1  0.083826  0.707495  0.679547  1
  N  N66  1  0.679547  0.083826  0.707495  1
  N  N67  1  0.527946  0.623668  0.707495  1
  N  N68  1  0.416174  0.820452  0.792505  1
  N  N69  1  0.876331  0.972053  0.792505  1
  N  N70  1  0.527946  0.404278  0.820452  1
  N  N71  1  0.792505  0.416174  0.820452  1
  N  N72  1  0.404278  0.083826  0.876331  1
  N  N73  1  0.972053  0.792505  0.876331  1
  N  N74  1  0.027947  0.320452  0.904278  1
  N  N75  1  0.376331  0.583825  0.904278  1
  N  N76  1  0.292505  0.320452  0.916174  1
  N  N77  1  0.123669  0.595722  0.916174  1
  N  N78  1  0.679547  0.095722  0.972053  1
  N  N79  1  0.792505  0.876331  0.972053  1
