# generated using pymatgen
data_Be8Cr3Os
_symmetry_space_group_name_H-M   'P 1'
_cell_length_a   4.23408800
_cell_length_b   4.23408957
_cell_length_c   6.93428600
_cell_angle_alpha   90.00000000
_cell_angle_beta   90.00000000
_cell_angle_gamma   120.00000340
_symmetry_Int_Tables_number   1
_chemical_formula_structural   Be8Cr3Os
_chemical_formula_sum   'Be8 Cr3 Os1'
_cell_volume   107.65948235
_cell_formula_units_Z   1
loop_
 _symmetry_equiv_pos_site_id
 _symmetry_equiv_pos_as_xyz
  1  'x, y, z'
loop_
 _atom_site_type_symbol
 _atom_site_label
 _atom_site_symmetry_multiplicity
 _atom_site_fract_x
 _atom_site_fract_y
 _atom_site_fract_z
 _atom_site_occupancy
  Be  Be0  1  0.169730  0.339459  0.750998  1
  Be  Be1  1  0.169730  0.830270  0.750998  1
  Be  Be2  1  0.339778  0.169890  0.249029  1
  Be  Be3  1  0.830110  0.660222  0.249029  1
  Be  Be4  1  0.000000  0.000000  0.999841  1
  Be  Be5  1  0.660541  0.830270  0.750998  1
  Be  Be6  1  0.830110  0.169890  0.249029  1
  Be  Be7  1  0.000000  0.000000  0.501000  1
  Cr  Cr8  1  0.666667  0.333333  0.937657  1
  Cr  Cr9  1  0.333333  0.666667  0.058215  1
  Cr  Cr10  1  0.666667  0.333333  0.565417  1
  Os  Os11  1  0.333333  0.666667  0.437789  1
