# generated using pymatgen
data_Pr17Tm3(Ga5Sn)2
_symmetry_space_group_name_H-M   'P 1'
_cell_length_a   7.95664500
_cell_length_b   7.95664500
_cell_length_c   14.70178500
_cell_angle_alpha   90.00000000
_cell_angle_beta   90.00000000
_cell_angle_gamma   90.00000000
_symmetry_Int_Tables_number   1
_chemical_formula_structural   Pr17Tm3(Ga5Sn)2
_chemical_formula_sum   'Pr17 Tm3 Ga10 Sn2'
_cell_volume   930.74354008
_cell_formula_units_Z   1
loop_
 _symmetry_equiv_pos_site_id
 _symmetry_equiv_pos_as_xyz
  1  'x, y, z'
loop_
 _atom_site_type_symbol
 _atom_site_label
 _atom_site_symmetry_multiplicity
 _atom_site_fract_x
 _atom_site_fract_y
 _atom_site_fract_z
 _atom_site_occupancy
  Pr  Pr0  1  0.818135  0.838758  0.608770  1
  Pr  Pr1  1  0.179264  0.837806  0.101608  1
  Pr  Pr2  1  0.162102  0.821602  0.390224  1
  Pr  Pr3  1  0.837898  0.178398  0.390224  1
  Pr  Pr4  1  0.678398  0.662102  0.390224  1
  Pr  Pr5  1  0.661242  0.318135  0.608770  1
  Pr  Pr6  1  0.338758  0.681865  0.608770  1
  Pr  Pr7  1  0.662194  0.679264  0.101608  1
  Pr  Pr8  1  0.684561  0.342704  0.898359  1
  Pr  Pr9  1  0.842704  0.815439  0.898359  1
  Pr  Pr10  1  0.321602  0.337898  0.390224  1
  Pr  Pr11  1  0.181865  0.161242  0.608770  1
  Pr  Pr12  1  0.820736  0.162194  0.101608  1
  Pr  Pr13  1  0.315439  0.657296  0.898359  1
  Pr  Pr14  1  0.337806  0.320736  0.101608  1
  Pr  Pr15  1  0.157296  0.184561  0.898359  1
  Pr  Pr16  1  0.500000  0.000000  0.792913  1
  Tm  Tm17  1  0.000000  0.500000  0.736176  1
  Tm  Tm18  1  0.000000  0.500000  0.220449  1
  Tm  Tm19  1  0.500000  0.000000  0.256499  1
  Ga  Ga20  1  0.623014  0.375353  0.247393  1
  Ga  Ga21  1  0.118430  0.873893  0.750633  1
  Ga  Ga22  1  0.373893  0.381570  0.750633  1
  Ga  Ga23  1  0.376986  0.624647  0.247393  1
  Ga  Ga24  1  0.875353  0.876986  0.247393  1
  Ga  Ga25  1  0.626107  0.618430  0.750633  1
  Ga  Ga26  1  0.881570  0.126107  0.750633  1
  Ga  Ga27  1  0.500000  0.000000  0.002513  1
  Ga  Ga28  1  0.124647  0.123014  0.247393  1
  Ga  Ga29  1  0.000000  0.500000  0.009249  1
  Sn  Sn30  1  0.000000  0.500000  0.511890  1
  Sn  Sn31  1  0.500000  0.000000  0.482361  1
