# generated using pymatgen
data_LaEr(AsPt)2
_symmetry_space_group_name_H-M   'P 1'
_cell_length_a   4.31905000
_cell_length_b   4.31904998
_cell_length_c   15.96215100
_cell_angle_alpha   90.00000000
_cell_angle_beta   90.00000000
_cell_angle_gamma   120.00000013
_symmetry_Int_Tables_number   1
_chemical_formula_structural   LaEr(AsPt)2
_chemical_formula_sum   'La2 Er2 As4 Pt4'
_cell_volume   257.86862687
_cell_formula_units_Z   2
loop_
 _symmetry_equiv_pos_site_id
 _symmetry_equiv_pos_as_xyz
  1  'x, y, z'
loop_
 _atom_site_type_symbol
 _atom_site_label
 _atom_site_symmetry_multiplicity
 _atom_site_fract_x
 _atom_site_fract_y
 _atom_site_fract_z
 _atom_site_occupancy
  La  La0  1  0.000000  0.000000  0.500000  1
  La  La1  1  0.000000  0.000000  0.000000  1
  Er  Er2  1  0.000000  0.000000  0.250000  1
  Er  Er3  1  0.000000  0.000000  0.750000  1
  As  As4  1  0.333333  0.666667  0.878132  1
  As  As5  1  0.666667  0.333333  0.121868  1
  As  As6  1  0.666667  0.333333  0.378132  1
  As  As7  1  0.333333  0.666667  0.621868  1
  Pt  Pt8  1  0.333333  0.666667  0.355218  1
  Pt  Pt9  1  0.666667  0.333333  0.644782  1
  Pt  Pt10  1  0.666667  0.333333  0.855218  1
  Pt  Pt11  1  0.333333  0.666667  0.144782  1
