# generated using pymatgen
data_Sc8Ti9Si16Tc3
_symmetry_space_group_name_H-M   'P 1'
_cell_length_a   6.58529453
_cell_length_b   6.76787145
_cell_length_c   12.94039300
_cell_angle_alpha   90.00000000
_cell_angle_beta   90.00000000
_cell_angle_gamma   90.08876796
_symmetry_Int_Tables_number   1
_chemical_formula_structural   Sc8Ti9Si16Tc3
_chemical_formula_sum   'Sc8 Ti9 Si16 Tc3'
_cell_volume   576.73226702
_cell_formula_units_Z   1
loop_
 _symmetry_equiv_pos_site_id
 _symmetry_equiv_pos_as_xyz
  1  'x, y, z'
loop_
 _atom_site_type_symbol
 _atom_site_label
 _atom_site_symmetry_multiplicity
 _atom_site_fract_x
 _atom_site_fract_y
 _atom_site_fract_z
 _atom_site_occupancy
  Sc  Sc0  1  0.500615  0.674231  0.593451  1
  Sc  Sc1  1  0.000704  0.827428  0.906087  1
  Sc  Sc2  1  0.499655  0.327039  0.094680  1
  Sc  Sc3  1  0.001457  0.172492  0.405507  1
  Sc  Sc4  1  0.499655  0.327039  0.405320  1
  Sc  Sc5  1  0.001457  0.172492  0.094493  1
  Sc  Sc6  1  0.500615  0.674231  0.906549  1
  Sc  Sc7  1  0.000704  0.827428  0.593913  1
  Ti  Ti8  1  0.666457  0.170607  0.626278  1
  Ti  Ti9  1  0.166049  0.327588  0.874413  1
  Ti  Ti10  1  0.331594  0.830774  0.125983  1
  Ti  Ti11  1  0.831106  0.669880  0.373337  1
  Ti  Ti12  1  0.331594  0.830774  0.374017  1
  Ti  Ti13  1  0.831106  0.669880  0.126663  1
  Ti  Ti14  1  0.666457  0.170607  0.873722  1
  Ti  Ti15  1  0.166049  0.327588  0.625587  1
  Ti  Ti16  1  0.839788  0.491692  0.750000  1
  Si  Si17  1  0.666997  0.963509  0.458183  1
  Si  Si18  1  0.166174  0.536370  0.042253  1
  Si  Si19  1  0.334266  0.037249  0.958361  1
  Si  Si20  1  0.835035  0.464352  0.539850  1
  Si  Si21  1  0.334266  0.037249  0.541639  1
  Si  Si22  1  0.835035  0.464352  0.960150  1
  Si  Si23  1  0.666997  0.963509  0.041817  1
  Si  Si24  1  0.166174  0.536370  0.457747  1
  Si  Si25  1  0.464761  0.384540  0.750000  1
  Si  Si26  1  0.967242  0.116119  0.750000  1
  Si  Si27  1  0.529978  0.614952  0.250000  1
  Si  Si28  1  0.032248  0.883514  0.250000  1
  Si  Si29  1  0.703070  0.861572  0.750000  1
  Si  Si30  1  0.205662  0.640309  0.750000  1
  Si  Si31  1  0.298331  0.139274  0.250000  1
  Si  Si32  1  0.797200  0.359395  0.250000  1
  Tc  Tc33  1  0.340477  0.007503  0.750000  1
  Tc  Tc34  1  0.160138  0.506155  0.250000  1
  Tc  Tc35  1  0.660885  0.991941  0.250000  1
