# generated using pymatgen
data_Tm2U2Fe(CoSi2)5
_symmetry_space_group_name_H-M   'P 1'
_cell_length_a   7.84447172
_cell_length_b   7.77345902
_cell_length_c   7.77345939
_cell_angle_alpha   138.41372179
_cell_angle_beta   104.12521613
_cell_angle_gamma   90.32770578
_symmetry_Int_Tables_number   1
_chemical_formula_structural   Tm2U2Fe(CoSi2)5
_chemical_formula_sum   'Tm2 U2 Fe1 Co5 Si10'
_cell_volume   291.77290557
_cell_formula_units_Z   1
loop_
 _symmetry_equiv_pos_site_id
 _symmetry_equiv_pos_as_xyz
  1  'x, y, z'
loop_
 _atom_site_type_symbol
 _atom_site_label
 _atom_site_symmetry_multiplicity
 _atom_site_fract_x
 _atom_site_fract_y
 _atom_site_fract_z
 _atom_site_occupancy
  Tm  Tm0  1  0.868215  0.633490  0.232958  1
  Tm  Tm1  1  0.131785  0.364742  0.765274  1
  U  U2  1  0.601893  0.868577  0.736437  1
  U  U3  1  0.398107  0.134544  0.266683  1
  Fe  Fe4  1  0.000000  0.244013  0.244013  1
  Co  Co5  1  0.746524  0.132599  0.611765  1
  Co  Co6  1  0.523082  0.644788  0.882246  1
  Co  Co7  1  0.476918  0.359164  0.121706  1
  Co  Co8  1  0.000000  0.752714  0.752714  1
  Co  Co9  1  0.253476  0.865240  0.386074  1
  Si  Si10  1  0.053658  0.896817  0.156467  1
  Si  Si11  1  0.946342  0.102808  0.843158  1
  Si  Si12  1  0.253353  0.600991  0.651986  1
  Si  Si13  1  0.746647  0.398634  0.347639  1
  Si  Si14  1  0.229353  0.978415  0.746060  1
  Si  Si15  1  0.770647  0.516707  0.749061  1
  Si  Si16  1  0.772750  0.023670  0.254295  1
  Si  Si17  1  0.500000  0.255011  0.755011  1
  Si  Si18  1  0.500000  0.745531  0.245531  1
  Si  Si19  1  0.227250  0.481545  0.250920  1
