# generated using pymatgen
data_Cs8Na4Sm3HoSb8
_symmetry_space_group_name_H-M   'P 1'
_cell_length_a   11.72054626
_cell_length_b   11.72054453
_cell_length_c   7.64199173
_cell_angle_alpha   90.05895083
_cell_angle_beta   89.94105262
_cell_angle_gamma   99.43961706
_symmetry_Int_Tables_number   1
_chemical_formula_structural   Cs8Na4Sm3HoSb8
_chemical_formula_sum   'Cs8 Na4 Sm3 Ho1 Sb8'
_cell_volume   1035.57330813
_cell_formula_units_Z   1
loop_
 _symmetry_equiv_pos_site_id
 _symmetry_equiv_pos_as_xyz
  1  'x, y, z'
loop_
 _atom_site_type_symbol
 _atom_site_label
 _atom_site_symmetry_multiplicity
 _atom_site_fract_x
 _atom_site_fract_y
 _atom_site_fract_z
 _atom_site_occupancy
  Cs  Cs0  1  0.070809  0.429282  0.250095  1
  Cs  Cs1  1  0.429282  0.070809  0.749905  1
  Cs  Cs2  1  0.928942  0.570788  0.749833  1
  Cs  Cs3  1  0.570788  0.928942  0.250167  1
  Cs  Cs4  1  0.676874  0.323395  0.212954  1
  Cs  Cs5  1  0.823091  0.176921  0.712731  1
  Cs  Cs6  1  0.323395  0.676874  0.787046  1
  Cs  Cs7  1  0.176921  0.823091  0.287269  1
  Na  Na8  1  0.382086  0.382086  0.000000  1
  Na  Na9  1  0.118014  0.118014  0.500000  1
  Na  Na10  1  0.617950  0.617950  0.000000  1
  Na  Na11  1  0.881697  0.881697  0.500000  1
  Sm  Sm12  1  0.131679  0.131679  0.000000  1
  Sm  Sm13  1  0.369139  0.369139  0.500000  1
  Sm  Sm14  1  0.868099  0.868099  0.000000  1
  Ho  Ho15  1  0.630944  0.630944  0.500000  1
  Sb  Sb16  1  0.840759  0.656510  0.252991  1
  Sb  Sb17  1  0.656510  0.840759  0.747009  1
  Sb  Sb18  1  0.156637  0.343351  0.750090  1
  Sb  Sb19  1  0.343351  0.156637  0.249910  1
  Sb  Sb20  1  0.903538  0.096328  0.213277  1
  Sb  Sb21  1  0.597055  0.406112  0.711265  1
  Sb  Sb22  1  0.096328  0.903538  0.786723  1
  Sb  Sb23  1  0.406112  0.597055  0.288735  1
