# generated using pymatgen
data_LuHf11(TaSi2)8
_symmetry_space_group_name_H-M   'P 1'
_cell_length_a   6.92568574
_cell_length_b   6.92669926
_cell_length_c   12.73899800
_cell_angle_alpha   90.32285557
_cell_angle_beta   89.94049274
_cell_angle_gamma   89.98361816
_symmetry_Int_Tables_number   1
_chemical_formula_structural   LuHf11(TaSi2)8
_chemical_formula_sum   'Lu1 Hf11 Ta8 Si16'
_cell_volume   611.10696685
_cell_formula_units_Z   1
loop_
 _symmetry_equiv_pos_site_id
 _symmetry_equiv_pos_as_xyz
  1  'x, y, z'
loop_
 _atom_site_type_symbol
 _atom_site_label
 _atom_site_symmetry_multiplicity
 _atom_site_fract_x
 _atom_site_fract_y
 _atom_site_fract_z
 _atom_site_occupancy
  Lu  Lu0  1  0.338971  0.003828  0.468917  1
  Hf  Hf1  1  0.650306  0.496033  0.876676  1
  Hf  Hf2  1  0.502869  0.351723  0.624168  1
  Hf  Hf3  1  0.500226  0.647554  0.124280  1
  Hf  Hf4  1  0.147876  0.999405  0.874123  1
  Hf  Hf5  1  0.000528  0.656297  0.033588  1
  Hf  Hf6  1  0.999166  0.345379  0.528912  1
  Hf  Hf7  1  0.658185  0.998149  0.969593  1
  Hf  Hf8  1  0.154327  0.499556  0.779851  1
  Hf  Hf9  1  0.843564  0.500735  0.280138  1
  Hf  Hf10  1  0.500801  0.157521  0.220865  1
  Hf  Hf11  1  0.500239  0.842036  0.717132  1
  Ta  Ta12  1  0.350557  0.506951  0.374832  1
  Ta  Ta13  1  0.852641  0.997620  0.373295  1
  Ta  Ta14  1  0.006256  0.148675  0.125963  1
  Ta  Ta15  1  0.994744  0.849126  0.626320  1
  Ta  Ta16  1  0.674275  0.672412  0.498748  1
  Ta  Ta17  1  0.829381  0.171245  0.749787  1
  Ta  Ta18  1  0.170982  0.830685  0.250569  1
  Ta  Ta19  1  0.328151  0.324716  0.001570  1
  Si  Si20  1  0.044498  0.700359  0.435520  1
  Si  Si21  1  0.956968  0.301365  0.936719  1
  Si  Si22  1  0.703237  0.044888  0.563520  1
  Si  Si23  1  0.198386  0.454123  0.186157  1
  Si  Si24  1  0.802864  0.546636  0.684473  1
  Si  Si25  1  0.454427  0.195312  0.814880  1
  Si  Si26  1  0.548806  0.801020  0.315002  1
  Si  Si27  1  0.302016  0.955200  0.065712  1
  Si  Si28  1  0.855352  0.795323  0.820071  1
  Si  Si29  1  0.137048  0.210720  0.321748  1
  Si  Si30  1  0.796906  0.863188  0.178452  1
  Si  Si31  1  0.289504  0.640105  0.572745  1
  Si  Si32  1  0.709230  0.353844  0.074617  1
  Si  Si33  1  0.640476  0.295827  0.425461  1
  Si  Si34  1  0.355615  0.701590  0.928184  1
  Si  Si35  1  0.200626  0.140853  0.677417  1
