# generated using pymatgen
data_Yb6Ti2ReH27
_symmetry_space_group_name_H-M   'P 1'
_cell_length_a   8.56726600
_cell_length_b   8.56726787
_cell_length_c   4.93616900
_cell_angle_alpha   90.00000000
_cell_angle_beta   90.00000000
_cell_angle_gamma   120.00000823
_symmetry_Int_Tables_number   1
_chemical_formula_structural   Yb6Ti2ReH27
_chemical_formula_sum   'Yb6 Ti2 Re1 H27'
_cell_volume   313.76551737
_cell_formula_units_Z   1
loop_
 _symmetry_equiv_pos_site_id
 _symmetry_equiv_pos_as_xyz
  1  'x, y, z'
loop_
 _atom_site_type_symbol
 _atom_site_label
 _atom_site_symmetry_multiplicity
 _atom_site_fract_x
 _atom_site_fract_y
 _atom_site_fract_z
 _atom_site_occupancy
  Yb  Yb0  1  0.994712  0.253988  0.500000  1
  Yb  Yb1  1  0.746012  0.740724  0.500000  1
  Yb  Yb2  1  0.259276  0.005288  0.500000  1
  Yb  Yb3  1  0.938793  0.589187  0.000000  1
  Yb  Yb4  1  0.410813  0.349607  0.000000  1
  Yb  Yb5  1  0.650393  0.061207  0.000000  1
  Ti  Ti6  1  0.666667  0.333333  0.500000  1
  Ti  Ti7  1  0.000000  0.000000  0.000000  1
  Re  Re8  1  0.333333  0.666667  0.500000  1
  H  H9  1  0.817727  0.329271  0.761045  1
  H  H10  1  0.670729  0.488454  0.761045  1
  H  H11  1  0.511546  0.182273  0.761045  1
  H  H12  1  0.194135  0.529087  0.249399  1
  H  H13  1  0.511546  0.182273  0.238955  1
  H  H14  1  0.817727  0.329271  0.238955  1
  H  H15  1  0.670729  0.488454  0.238955  1
  H  H16  1  0.334950  0.805865  0.750601  1
  H  H17  1  0.470913  0.665050  0.750601  1
  H  H18  1  0.219891  0.005673  0.000000  1
  H  H19  1  0.785781  0.780109  0.000000  1
  H  H20  1  0.994327  0.214219  0.000000  1
  H  H21  1  0.843799  0.998603  0.254584  1
  H  H22  1  0.154805  0.156201  0.745416  1
  H  H23  1  0.001397  0.845195  0.745416  1
  H  H24  1  0.001397  0.845195  0.254584  1
  H  H25  1  0.154805  0.156201  0.254584  1
  H  H26  1  0.843799  0.998603  0.745416  1
  H  H27  1  0.136715  0.665758  0.500000  1
  H  H28  1  0.529043  0.863285  0.500000  1
  H  H29  1  0.334242  0.470957  0.500000  1
  H  H30  1  0.448916  0.323301  0.500000  1
  H  H31  1  0.874385  0.551084  0.500000  1
  H  H32  1  0.676699  0.125615  0.500000  1
  H  H33  1  0.194135  0.529087  0.750601  1
  H  H34  1  0.334950  0.805865  0.249399  1
  H  H35  1  0.470913  0.665050  0.249399  1
