# generated using pymatgen
data_Y6MgFe(Co4P3)4
_symmetry_space_group_name_H-M   'P 1'
_cell_length_a   3.71961400
_cell_length_b   10.57748500
_cell_length_c   12.23574500
_cell_angle_alpha   90.00000000
_cell_angle_beta   90.00000000
_cell_angle_gamma   90.00000000
_symmetry_Int_Tables_number   1
_chemical_formula_structural   Y6MgFe(Co4P3)4
_chemical_formula_sum   'Y6 Mg1 Fe1 Co16 P12'
_cell_volume   481.40512479
_cell_formula_units_Z   1
loop_
 _symmetry_equiv_pos_site_id
 _symmetry_equiv_pos_as_xyz
  1  'x, y, z'
loop_
 _atom_site_type_symbol
 _atom_site_label
 _atom_site_symmetry_multiplicity
 _atom_site_fract_x
 _atom_site_fract_y
 _atom_site_fract_z
 _atom_site_occupancy
  Y  Y0  1  0.000000  0.500000  0.525322  1
  Y  Y1  1  0.500000  0.000000  0.478814  1
  Y  Y2  1  0.500000  0.821372  0.206582  1
  Y  Y3  1  0.500000  0.178628  0.206582  1
  Y  Y4  1  0.000000  0.682521  0.794818  1
  Y  Y5  1  0.000000  0.317479  0.794818  1
  Mg  Mg6  1  0.500000  0.500000  0.153120  1
  Fe  Fe7  1  0.000000  0.000000  0.840813  1
  Co  Co8  1  0.500000  0.500000  0.703917  1
  Co  Co9  1  0.000000  0.000000  0.296762  1
  Co  Co10  1  0.000000  0.500000  0.986014  1
  Co  Co11  1  0.500000  0.000000  0.011826  1
  Co  Co12  1  0.500000  0.329299  0.992694  1
  Co  Co13  1  0.500000  0.670701  0.992694  1
  Co  Co14  1  0.000000  0.163542  0.001990  1
  Co  Co15  1  0.000000  0.836458  0.001990  1
  Co  Co16  1  0.500000  0.295602  0.433014  1
  Co  Co17  1  0.500000  0.704398  0.433014  1
  Co  Co18  1  0.000000  0.202410  0.570079  1
  Co  Co19  1  0.000000  0.797590  0.570079  1
  Co  Co20  1  0.500000  0.879697  0.708316  1
  Co  Co21  1  0.500000  0.120303  0.708316  1
  Co  Co22  1  0.000000  0.622685  0.293728  1
  Co  Co23  1  0.000000  0.377315  0.293728  1
  P  P24  1  0.500000  0.500000  0.883268  1
  P  P25  1  0.000000  0.000000  0.116249  1
  P  P26  1  0.500000  0.500000  0.353332  1
  P  P27  1  0.000000  0.000000  0.656386  1
  P  P28  1  0.500000  0.309052  0.617131  1
  P  P29  1  0.500000  0.690948  0.617131  1
  P  P30  1  0.000000  0.189517  0.385764  1
  P  P31  1  0.000000  0.810483  0.385764  1
  P  P32  1  0.500000  0.849680  0.889865  1
  P  P33  1  0.500000  0.150320  0.889865  1
  P  P34  1  0.000000  0.662486  0.103107  1
  P  P35  1  0.000000  0.337514  0.103107  1
