# generated using pymatgen
data_Ac2TlPt2
_symmetry_space_group_name_H-M   'P 1'
_cell_length_a   8.31807700
_cell_length_b   8.31807700
_cell_length_c   4.00869000
_cell_angle_alpha   90.00000000
_cell_angle_beta   90.00000000
_cell_angle_gamma   90.00000000
_symmetry_Int_Tables_number   1
_chemical_formula_structural   Ac2TlPt2
_chemical_formula_sum   'Ac4 Tl2 Pt4'
_cell_volume   277.36288453
_cell_formula_units_Z   2
loop_
 _symmetry_equiv_pos_site_id
 _symmetry_equiv_pos_as_xyz
  1  'x, y, z'
loop_
 _atom_site_type_symbol
 _atom_site_label
 _atom_site_symmetry_multiplicity
 _atom_site_fract_x
 _atom_site_fract_y
 _atom_site_fract_z
 _atom_site_occupancy
  Ac  Ac0  1  0.327463  0.827463  0.500000  1
  Ac  Ac1  1  0.827463  0.672537  0.500000  1
  Ac  Ac2  1  0.172537  0.327463  0.500000  1
  Ac  Ac3  1  0.672537  0.172537  0.500000  1
  Tl  Tl4  1  0.500000  0.500000  0.000000  1
  Tl  Tl5  1  0.000000  0.000000  0.000000  1
  Pt  Pt6  1  0.125190  0.625190  0.000000  1
  Pt  Pt7  1  0.625190  0.874810  0.000000  1
  Pt  Pt8  1  0.874810  0.374810  0.000000  1
  Pt  Pt9  1  0.374810  0.125190  0.000000  1
