# generated using pymatgen
data_Nb15ReNi8C3N
_symmetry_space_group_name_H-M   'P 1'
_cell_length_a   8.23724438
_cell_length_b   8.26769351
_cell_length_c   8.23724500
_cell_angle_alpha   60.12175644
_cell_angle_beta   60.00000153
_cell_angle_gamma   60.12175362
_symmetry_Int_Tables_number   1
_chemical_formula_structural   Nb15ReNi8C3N
_chemical_formula_sum   'Nb15 Re1 Ni8 C3 N1'
_cell_volume   397.40205346
_cell_formula_units_Z   1
loop_
 _symmetry_equiv_pos_site_id
 _symmetry_equiv_pos_as_xyz
  1  'x, y, z'
loop_
 _atom_site_type_symbol
 _atom_site_label
 _atom_site_symmetry_multiplicity
 _atom_site_fract_x
 _atom_site_fract_y
 _atom_site_fract_z
 _atom_site_occupancy
  Nb  Nb0  1  0.125000  0.625000  0.625000  1
  Nb  Nb1  1  0.625000  0.625000  0.125000  1
  Nb  Nb2  1  0.625000  0.625000  0.625000  1
  Nb  Nb3  1  0.818978  0.817950  0.181536  1
  Nb  Nb4  1  0.189148  0.186362  0.812244  1
  Nb  Nb5  1  0.812244  0.186362  0.812244  1
  Nb  Nb6  1  0.181536  0.817950  0.181536  1
  Nb  Nb7  1  0.181536  0.817950  0.818978  1
  Nb  Nb8  1  0.812244  0.186362  0.189148  1
  Nb  Nb9  1  0.431022  0.432050  0.068464  1
  Nb  Nb10  1  0.060852  0.063638  0.437756  1
  Nb  Nb11  1  0.437756  0.063638  0.437756  1
  Nb  Nb12  1  0.068464  0.432050  0.068464  1
  Nb  Nb13  1  0.068464  0.432050  0.431022  1
  Nb  Nb14  1  0.437756  0.063638  0.060852  1
  Re  Re15  1  0.625000  0.125000  0.625000  1
  Ni  Ni16  1  0.738043  0.415922  0.423018  1
  Ni  Ni17  1  0.419393  0.741819  0.419393  1
  Ni  Ni18  1  0.423018  0.415922  0.738043  1
  Ni  Ni19  1  0.423018  0.415922  0.423018  1
  Ni  Ni20  1  0.511957  0.834078  0.826982  1
  Ni  Ni21  1  0.830607  0.508181  0.830607  1
  Ni  Ni22  1  0.826982  0.834078  0.511957  1
  Ni  Ni23  1  0.826982  0.834078  0.826982  1
  C  C24  1  0.625000  0.125000  0.125000  1
  C  C25  1  0.125000  0.125000  0.625000  1
  C  C26  1  0.125000  0.125000  0.125000  1
  N  N27  1  0.125000  0.625000  0.125000  1
