# generated using pymatgen
data_Tm3LuZn2(B2Ir5)2
_symmetry_space_group_name_H-M   'P 1'
_cell_length_a   9.57914312
_cell_length_b   9.57914312
_cell_length_c   3.11921100
_cell_angle_alpha   90.00000000
_cell_angle_beta   90.00000000
_cell_angle_gamma   89.89371219
_symmetry_Int_Tables_number   1
_chemical_formula_structural   Tm3LuZn2(B2Ir5)2
_chemical_formula_sum   'Tm3 Lu1 Zn2 B4 Ir10'
_cell_volume   286.21825562
_cell_formula_units_Z   1
loop_
 _symmetry_equiv_pos_site_id
 _symmetry_equiv_pos_as_xyz
  1  'x, y, z'
loop_
 _atom_site_type_symbol
 _atom_site_label
 _atom_site_symmetry_multiplicity
 _atom_site_fract_x
 _atom_site_fract_y
 _atom_site_fract_z
 _atom_site_occupancy
  Tm  Tm0  1  0.677552  0.177389  0.000000  1
  Tm  Tm1  1  0.322611  0.822448  0.000000  1
  Tm  Tm2  1  0.177176  0.322824  0.000000  1
  Lu  Lu3  1  0.822611  0.677389  0.000000  1
  Zn  Zn4  1  0.000007  0.000132  0.000000  1
  Zn  Zn5  1  0.499868  0.499993  0.000000  1
  B  B6  1  0.124689  0.625058  0.000000  1
  B  B7  1  0.874942  0.375311  0.000000  1
  B  B8  1  0.625408  0.874592  0.000000  1
  B  B9  1  0.375124  0.124876  0.000000  1
  Ir  Ir10  1  0.219674  0.067954  0.500000  1
  Ir  Ir11  1  0.780870  0.931061  0.500000  1
  Ir  Ir12  1  0.066985  0.780319  0.500000  1
  Ir  Ir13  1  0.719681  0.433015  0.500000  1
  Ir  Ir14  1  0.932056  0.219911  0.500000  1
  Ir  Ir15  1  0.280089  0.567944  0.500000  1
  Ir  Ir16  1  0.568939  0.719130  0.500000  1
  Ir  Ir17  1  0.432046  0.280326  0.500000  1
  Ir  Ir18  1  0.500259  0.999741  0.500000  1
  Ir  Ir19  1  0.999412  0.500588  0.500000  1
