# generated using pymatgen
data_Sm2Th(SnRh)3
_symmetry_space_group_name_H-M   'P 1'
_cell_length_a   7.55945279
_cell_length_b   7.65468331
_cell_length_c   4.02977400
_cell_angle_alpha   90.00000000
_cell_angle_beta   90.00000000
_cell_angle_gamma   120.41760644
_symmetry_Int_Tables_number   1
_chemical_formula_structural   Sm2Th(SnRh)3
_chemical_formula_sum   'Sm2 Th1 Sn3 Rh3'
_cell_volume   201.08790002
_cell_formula_units_Z   1
loop_
 _symmetry_equiv_pos_site_id
 _symmetry_equiv_pos_as_xyz
  1  'x, y, z'
loop_
 _atom_site_type_symbol
 _atom_site_label
 _atom_site_symmetry_multiplicity
 _atom_site_fract_x
 _atom_site_fract_y
 _atom_site_fract_z
 _atom_site_occupancy
  Sm  Sm0  1  0.408316  0.409935  0.500000  1
  Sm  Sm1  1  0.591684  0.001619  0.500000  1
  Th  Th2  1  0.000000  0.585072  0.500000  1
  Sn  Sn3  1  0.735374  0.746223  0.000000  1
  Sn  Sn4  1  0.264626  0.010849  0.000000  1
  Sn  Sn5  1  0.000000  0.242584  0.000000  1
  Rh  Rh6  1  0.688018  0.352082  0.000000  1
  Rh  Rh7  1  0.311982  0.664065  0.000000  1
  Rh  Rh8  1  0.000000  0.987571  0.500000  1
