# generated using pymatgen
data_Ho3Mg2CdPdPb2
_symmetry_space_group_name_H-M   'P 1'
_cell_length_a   7.52521300
_cell_length_b   7.46657401
_cell_length_c   4.54745000
_cell_angle_alpha   90.00000000
_cell_angle_beta   90.00000000
_cell_angle_gamma   120.26013908
_symmetry_Int_Tables_number   1
_chemical_formula_structural   Ho3Mg2CdPdPb2
_chemical_formula_sum   'Ho3 Mg2 Cd1 Pd1 Pb2'
_cell_volume   220.69593089
_cell_formula_units_Z   1
loop_
 _symmetry_equiv_pos_site_id
 _symmetry_equiv_pos_as_xyz
  1  'x, y, z'
loop_
 _atom_site_type_symbol
 _atom_site_label
 _atom_site_symmetry_multiplicity
 _atom_site_fract_x
 _atom_site_fract_y
 _atom_site_fract_z
 _atom_site_occupancy
  Ho  Ho0  1  0.597043  0.000000  0.000000  1
  Ho  Ho1  1  0.002526  0.603382  0.000000  1
  Ho  Ho2  1  0.399144  0.396618  0.000000  1
  Mg  Mg3  1  0.000683  0.227966  0.500000  1
  Mg  Mg4  1  0.772716  0.772034  0.500000  1
  Cd  Cd5  1  0.229641  0.000000  0.500000  1
  Pd  Pd6  1  0.990276  0.000000  0.000000  1
  Pb  Pb7  1  0.335446  0.662922  0.500000  1
  Pb  Pb8  1  0.672525  0.337078  0.500000  1
