# generated using pymatgen
data_BaCr3Sb12Ru
_symmetry_space_group_name_H-M   'P 1'
_cell_length_a   8.30216279
_cell_length_b   8.24283988
_cell_length_c   8.24283971
_cell_angle_alpha   109.32497449
_cell_angle_beta   109.61707607
_cell_angle_gamma   109.61707231
_symmetry_Int_Tables_number   1
_chemical_formula_structural   BaCr3Sb12Ru
_chemical_formula_sum   'Ba1 Cr3 Sb12 Ru1'
_cell_volume   433.44915372
_cell_formula_units_Z   1
loop_
 _symmetry_equiv_pos_site_id
 _symmetry_equiv_pos_as_xyz
  1  'x, y, z'
loop_
 _atom_site_type_symbol
 _atom_site_label
 _atom_site_symmetry_multiplicity
 _atom_site_fract_x
 _atom_site_fract_y
 _atom_site_fract_z
 _atom_site_occupancy
  Ba  Ba0  1  0.000000  0.000000  0.000000  1
  Cr  Cr1  1  0.500000  0.500000  0.500000  1
  Cr  Cr2  1  0.000000  0.000000  0.500000  1
  Cr  Cr3  1  0.000000  0.500000  0.000000  1
  Sb  Sb4  1  0.161240  0.815354  0.663049  1
  Sb  Sb5  1  0.155238  0.499495  0.345549  1
  Sb  Sb6  1  0.501809  0.663049  0.847695  1
  Sb  Sb7  1  0.345886  0.847695  0.184646  1
  Sb  Sb8  1  0.809688  0.654451  0.153946  1
  Sb  Sb9  1  0.655742  0.846054  0.500505  1
  Sb  Sb10  1  0.190312  0.345549  0.846054  1
  Sb  Sb11  1  0.654114  0.152305  0.815354  1
  Sb  Sb12  1  0.344258  0.153946  0.499495  1
  Sb  Sb13  1  0.498191  0.336951  0.152305  1
  Sb  Sb14  1  0.844762  0.500505  0.654451  1
  Sb  Sb15  1  0.838760  0.184646  0.336951  1
  Ru  Ru16  1  0.500000  0.000000  0.000000  1
