# generated using pymatgen
data_Nb2CoNiH6
_symmetry_space_group_name_H-M   'P 1'
_cell_length_a   5.30849302
_cell_length_b   5.30849374
_cell_length_c   4.30892700
_cell_angle_alpha   90.00000000
_cell_angle_beta   90.00000000
_cell_angle_gamma   143.47382432
_symmetry_Int_Tables_number   1
_chemical_formula_structural   Nb2CoNiH6
_chemical_formula_sum   'Nb2 Co1 Ni1 H6'
_cell_volume   72.27153849
_cell_formula_units_Z   1
loop_
 _symmetry_equiv_pos_site_id
 _symmetry_equiv_pos_as_xyz
  1  'x, y, z'
loop_
 _atom_site_type_symbol
 _atom_site_label
 _atom_site_symmetry_multiplicity
 _atom_site_fract_x
 _atom_site_fract_y
 _atom_site_fract_z
 _atom_site_occupancy
  Nb  Nb0  1  0.141367  0.858635  0.250000  1
  Nb  Nb1  1  0.855411  0.144591  0.750000  1
  Co  Co2  1  0.433717  0.566285  0.250000  1
  Ni  Ni3  1  0.566483  0.433519  0.750000  1
  H  H4  1  0.689322  0.310680  0.008631  1
  H  H5  1  0.932304  0.067698  0.250000  1
  H  H6  1  0.689322  0.310680  0.491369  1
  H  H7  1  0.313882  0.686120  0.505424  1
  H  H8  1  0.064319  0.935683  0.750000  1
  H  H9  1  0.313882  0.686120  0.994575  1
