# generated using pymatgen
data_Ho3ErLu4(ReB6)4
_symmetry_space_group_name_H-M   'P 1'
_cell_length_a   3.63706700
_cell_length_b   9.09213500
_cell_length_c   11.46878400
_cell_angle_alpha   89.99996111
_cell_angle_beta   89.99915501
_cell_angle_gamma   89.99955259
_symmetry_Int_Tables_number   1
_chemical_formula_structural   Ho3ErLu4(ReB6)4
_chemical_formula_sum   'Ho3 Er1 Lu4 Re4 B24'
_cell_volume   379.25782524
_cell_formula_units_Z   1
loop_
 _symmetry_equiv_pos_site_id
 _symmetry_equiv_pos_as_xyz
  1  'x, y, z'
loop_
 _atom_site_type_symbol
 _atom_site_label
 _atom_site_symmetry_multiplicity
 _atom_site_fract_x
 _atom_site_fract_y
 _atom_site_fract_z
 _atom_site_occupancy
  Ho  Ho0  1  0.000010  0.323066  0.413921  1
  Ho  Ho1  1  0.000003  0.676909  0.586082  1
  Ho  Ho2  1  0.999997  0.823100  0.086050  1
  Er  Er3  1  0.999994  0.176861  0.913951  1
  Lu  Lu4  1  0.000008  0.943564  0.370351  1
  Lu  Lu5  1  0.000007  0.056513  0.629664  1
  Lu  Lu6  1  0.000008  0.443465  0.129561  1
  Lu  Lu7  1  0.999989  0.556418  0.870410  1
  Re  Re8  1  0.000012  0.639650  0.320129  1
  Re  Re9  1  0.999977  0.360216  0.679983  1
  Re  Re10  1  0.000014  0.139662  0.179695  1
  Re  Re11  1  0.999987  0.860509  0.820235  1
  B  B12  1  0.500000  0.553607  0.432872  1
  B  B13  1  0.499999  0.446366  0.567148  1
  B  B14  1  0.499991  0.053668  0.066965  1
  B  B15  1  0.500012  0.946576  0.932896  1
  B  B16  1  0.500002  0.750919  0.418726  1
  B  B17  1  0.500003  0.249086  0.581320  1
  B  B18  1  0.499998  0.250879  0.081066  1
  B  B19  1  0.499995  0.749129  0.918708  1
  B  B20  1  0.499999  0.793329  0.265351  1
  B  B21  1  0.500008  0.206596  0.734793  1
  B  B22  1  0.500005  0.293313  0.234596  1
  B  B23  1  0.499999  0.706686  0.765371  1
  B  B24  1  0.499987  0.630376  0.184696  1
  B  B25  1  0.499996  0.369468  0.815424  1
  B  B26  1  0.500002  0.130409  0.315270  1
  B  B27  1  0.500002  0.869642  0.684736  1
  B  B28  1  0.499999  0.981713  0.212532  1
  B  B29  1  0.499994  0.018524  0.787540  1
  B  B30  1  0.500002  0.481666  0.287410  1
  B  B31  1  0.500001  0.518303  0.712599  1
  B  B32  1  0.500001  0.598424  0.027369  1
  B  B33  1  0.499995  0.401368  0.972569  1
  B  B34  1  0.500001  0.098424  0.472628  1
  B  B35  1  0.499999  0.901599  0.527380  1
