# generated using pymatgen
data_Nb9InSe16
_symmetry_space_group_name_H-M   'P 1'
_cell_length_a   7.00873800
_cell_length_b   7.00873973
_cell_length_c   14.45460400
_cell_angle_alpha   90.00000000
_cell_angle_beta   90.00000000
_cell_angle_gamma   120.00001071
_symmetry_Int_Tables_number   1
_chemical_formula_structural   Nb9InSe16
_chemical_formula_sum   'Nb9 In1 Se16'
_cell_volume   614.91705887
_cell_formula_units_Z   1
loop_
 _symmetry_equiv_pos_site_id
 _symmetry_equiv_pos_as_xyz
  1  'x, y, z'
loop_
 _atom_site_type_symbol
 _atom_site_label
 _atom_site_symmetry_multiplicity
 _atom_site_fract_x
 _atom_site_fract_y
 _atom_site_fract_z
 _atom_site_occupancy
  Nb  Nb0  1  0.000000  0.000000  0.272772  1
  Nb  Nb1  1  0.000000  0.000000  0.727228  1
  Nb  Nb2  1  0.504958  0.009916  0.269867  1
  Nb  Nb3  1  0.495042  0.990084  0.730133  1
  Nb  Nb4  1  0.990084  0.495042  0.269867  1
  Nb  Nb5  1  0.009916  0.504958  0.730133  1
  Nb  Nb6  1  0.504958  0.495042  0.269867  1
  Nb  Nb7  1  0.495042  0.504958  0.730133  1
  Nb  Nb8  1  0.000000  0.000000  0.500000  1
  In  In9  1  0.000000  0.000000  0.000000  1
  Se  Se10  1  0.333333  0.666667  0.613107  1
  Se  Se11  1  0.666667  0.333333  0.386893  1
  Se  Se12  1  0.666667  0.333333  0.152140  1
  Se  Se13  1  0.333333  0.666667  0.847860  1
  Se  Se14  1  0.165542  0.331083  0.156764  1
  Se  Se15  1  0.834458  0.668917  0.843236  1
  Se  Se16  1  0.668917  0.834458  0.156764  1
  Se  Se17  1  0.831253  0.662506  0.613539  1
  Se  Se18  1  0.331083  0.165542  0.843236  1
  Se  Se19  1  0.168747  0.337494  0.386461  1
  Se  Se20  1  0.165542  0.834458  0.156764  1
  Se  Se21  1  0.337494  0.168747  0.613539  1
  Se  Se22  1  0.834458  0.165542  0.843236  1
  Se  Se23  1  0.662506  0.831253  0.386461  1
  Se  Se24  1  0.831253  0.168747  0.613539  1
  Se  Se25  1  0.168747  0.831253  0.386461  1
