# generated using pymatgen
data_Dy2Al3Cu3Si2
_symmetry_space_group_name_H-M   'P 1'
_cell_length_a   8.21351627
_cell_length_b   8.21351715
_cell_length_c   8.21351629
_cell_angle_alpha   139.38585043
_cell_angle_beta   100.18802196
_cell_angle_gamma   93.67003453
_symmetry_Int_Tables_number   1
_chemical_formula_structural   Dy2Al3Cu3Si2
_chemical_formula_sum   'Dy4 Al6 Cu6 Si4'
_cell_volume   337.58150148
_cell_formula_units_Z   2
loop_
 _symmetry_equiv_pos_site_id
 _symmetry_equiv_pos_as_xyz
  1  'x, y, z'
loop_
 _atom_site_type_symbol
 _atom_site_label
 _atom_site_symmetry_multiplicity
 _atom_site_fract_x
 _atom_site_fract_y
 _atom_site_fract_z
 _atom_site_occupancy
  Dy  Dy0  1  0.126069  0.873760  0.252309  1
  Dy  Dy1  1  0.873931  0.126240  0.747691  1
  Dy  Dy2  1  0.378549  0.626240  0.752309  1
  Dy  Dy3  1  0.621451  0.373760  0.247691  1
  Al  Al4  1  0.000000  0.750000  0.750000  1
  Al  Al5  1  0.000000  0.250000  0.250000  1
  Al  Al6  1  0.250595  0.000595  0.750000  1
  Al  Al7  1  0.749405  0.499405  0.750000  1
  Al  Al8  1  0.749405  0.999405  0.250000  1
  Al  Al9  1  0.250595  0.500595  0.250000  1
  Cu  Cu10  1  0.265228  0.125817  0.139410  1
  Cu  Cu11  1  0.500000  0.250000  0.750000  1
  Cu  Cu12  1  0.986408  0.625817  0.360590  1
  Cu  Cu13  1  0.013592  0.374183  0.639410  1
  Cu  Cu14  1  0.734772  0.874183  0.860590  1
  Cu  Cu15  1  0.500000  0.750000  0.250000  1
  Si  Si16  1  0.760182  0.618095  0.142088  1
  Si  Si17  1  0.476008  0.118095  0.357912  1
  Si  Si18  1  0.523992  0.881905  0.642088  1
  Si  Si19  1  0.239818  0.381905  0.857912  1
