# generated using pymatgen
data_HfZr9Ga3Sb5
_symmetry_space_group_name_H-M   'P 1'
_cell_length_a   8.65943909
_cell_length_b   8.66062488
_cell_length_c   5.85016006
_cell_angle_alpha   89.99208885
_cell_angle_beta   90.01582661
_cell_angle_gamma   120.15790379
_symmetry_Int_Tables_number   1
_chemical_formula_structural   HfZr9Ga3Sb5
_chemical_formula_sum   'Hf1 Zr9 Ga3 Sb5'
_cell_volume   379.35352798
_cell_formula_units_Z   1
loop_
 _symmetry_equiv_pos_site_id
 _symmetry_equiv_pos_as_xyz
  1  'x, y, z'
loop_
 _atom_site_type_symbol
 _atom_site_label
 _atom_site_symmetry_multiplicity
 _atom_site_fract_x
 _atom_site_fract_y
 _atom_site_fract_z
 _atom_site_occupancy
  Hf  Hf0  1  0.336364  0.666009  0.502488  1
  Zr  Zr1  1  0.275175  0.275626  0.749804  1
  Zr  Zr2  1  0.733364  0.733797  0.250036  1
  Zr  Zr3  1  0.726366  0.990460  0.749850  1
  Zr  Zr4  1  0.000964  0.267518  0.249952  1
  Zr  Zr5  1  0.665995  0.335777  0.502128  1
  Zr  Zr6  1  0.991150  0.726858  0.750086  1
  Zr  Zr7  1  0.335449  0.665951  0.997930  1
  Zr  Zr8  1  0.267145  0.000248  0.249991  1
  Zr  Zr9  1  0.665969  0.335632  0.997857  1
  Ga  Ga10  1  0.000407  0.000417  0.504468  1
  Ga  Ga11  1  0.611959  0.612337  0.749509  1
  Ga  Ga12  1  0.000359  0.000370  0.995499  1
  Sb  Sb13  1  0.385300  0.998105  0.749510  1
  Sb  Sb14  1  0.611107  0.000006  0.250419  1
  Sb  Sb15  1  0.393217  0.393569  0.250450  1
  Sb  Sb16  1  0.998934  0.385805  0.749546  1
  Sb  Sb17  1  0.000775  0.611515  0.250478  1
