# generated using pymatgen
data_YTm3Mn9Fe11P12
_symmetry_space_group_name_H-M   'P 1'
_cell_length_a   3.63186100
_cell_length_b   10.27849920
_cell_length_c   12.09941485
_cell_angle_alpha   89.62813677
_cell_angle_beta   90.00000000
_cell_angle_gamma   90.00000000
_symmetry_Int_Tables_number   1
_chemical_formula_structural   YTm3Mn9Fe11P12
_chemical_formula_sum   'Y1 Tm3 Mn9 Fe11 P12'
_cell_volume   451.66261604
_cell_formula_units_Z   1
loop_
 _symmetry_equiv_pos_site_id
 _symmetry_equiv_pos_as_xyz
  1  'x, y, z'
loop_
 _atom_site_type_symbol
 _atom_site_label
 _atom_site_symmetry_multiplicity
 _atom_site_fract_x
 _atom_site_fract_y
 _atom_site_fract_z
 _atom_site_occupancy
  Y  Y0  1  0.250000  0.580879  0.710467  1
  Tm  Tm1  1  0.250000  0.916209  0.211162  1
  Tm  Tm2  1  0.750000  0.424082  0.291926  1
  Tm  Tm3  1  0.750000  0.079961  0.788267  1
  Mn  Mn4  1  0.250000  0.705030  0.991179  1
  Mn  Mn5  1  0.250000  0.795663  0.491290  1
  Mn  Mn6  1  0.750000  0.291700  0.011400  1
  Mn  Mn7  1  0.750000  0.206951  0.506948  1
  Mn  Mn8  1  0.250000  0.410801  0.491529  1
  Mn  Mn9  1  0.250000  0.088997  0.989489  1
  Mn  Mn10  1  0.750000  0.592351  0.509525  1
  Mn  Mn11  1  0.750000  0.904344  0.008347  1
  Mn  Mn12  1  0.250000  0.217806  0.174792  1
  Fe  Fe13  1  0.250000  0.278150  0.672140  1
  Fe  Fe14  1  0.750000  0.778750  0.827898  1
  Fe  Fe15  1  0.750000  0.722143  0.328384  1
  Fe  Fe16  1  0.250000  0.879279  0.695033  1
  Fe  Fe17  1  0.250000  0.623437  0.196351  1
  Fe  Fe18  1  0.750000  0.127244  0.299862  1
  Fe  Fe19  1  0.750000  0.374987  0.805575  1
  Fe  Fe20  1  0.250000  0.461109  0.936780  1
  Fe  Fe21  1  0.250000  0.038994  0.433511  1
  Fe  Fe22  1  0.750000  0.537050  0.064970  1
  Fe  Fe23  1  0.750000  0.964361  0.562827  1
  P  P24  1  0.250000  0.425513  0.114619  1
  P  P25  1  0.250000  0.077450  0.612274  1
  P  P26  1  0.750000  0.575243  0.887293  1
  P  P27  1  0.750000  0.924425  0.385497  1
  P  P28  1  0.250000  0.266750  0.861379  1
  P  P29  1  0.250000  0.237408  0.367481  1
  P  P30  1  0.750000  0.731513  0.138885  1
  P  P31  1  0.750000  0.770447  0.638423  1
  P  P32  1  0.250000  0.604076  0.381549  1
  P  P33  1  0.250000  0.897416  0.879760  1
  P  P34  1  0.750000  0.396014  0.619382  1
  P  P35  1  0.750000  0.093466  0.113803  1
