# generated using pymatgen
data_HoEr3Sc4(ReB6)4
_symmetry_space_group_name_H-M   'P 1'
_cell_length_a   3.57570300
_cell_length_b   8.99544700
_cell_length_c   11.36192800
_cell_angle_alpha   90.00163859
_cell_angle_beta   90.00000000
_cell_angle_gamma   90.00000000
_symmetry_Int_Tables_number   1
_chemical_formula_structural   HoEr3Sc4(ReB6)4
_chemical_formula_sum   'Ho1 Er3 Sc4 Re4 B24'
_cell_volume   365.45694606
_cell_formula_units_Z   1
loop_
 _symmetry_equiv_pos_site_id
 _symmetry_equiv_pos_as_xyz
  1  'x, y, z'
loop_
 _atom_site_type_symbol
 _atom_site_label
 _atom_site_symmetry_multiplicity
 _atom_site_fract_x
 _atom_site_fract_y
 _atom_site_fract_z
 _atom_site_occupancy
  Ho  Ho0  1  0.000000  0.321805  0.413886  1
  Er  Er1  1  0.000000  0.678171  0.586105  1
  Er  Er2  1  0.000000  0.821818  0.086118  1
  Er  Er3  1  0.000000  0.178171  0.913914  1
  Sc  Sc4  1  0.000000  0.944204  0.370530  1
  Sc  Sc5  1  0.000000  0.055742  0.629450  1
  Sc  Sc6  1  0.000000  0.444272  0.129407  1
  Sc  Sc7  1  0.000000  0.555728  0.870596  1
  Re  Re8  1  0.000000  0.640724  0.318659  1
  Re  Re9  1  0.000000  0.359393  0.681429  1
  Re  Re10  1  0.000000  0.140562  0.181228  1
  Re  Re11  1  0.000000  0.859398  0.818693  1
  B  B12  1  0.500000  0.554175  0.433046  1
  B  B13  1  0.500000  0.445969  0.567051  1
  B  B14  1  0.500000  0.054088  0.066974  1
  B  B15  1  0.500000  0.945933  0.933041  1
  B  B16  1  0.500000  0.754487  0.419066  1
  B  B17  1  0.500000  0.245497  0.581066  1
  B  B18  1  0.500000  0.254443  0.080971  1
  B  B19  1  0.500000  0.745525  0.919041  1
  B  B20  1  0.500000  0.795417  0.264742  1
  B  B21  1  0.500000  0.204585  0.735251  1
  B  B22  1  0.500000  0.295385  0.235154  1
  B  B23  1  0.500000  0.704532  0.764742  1
  B  B24  1  0.500000  0.629457  0.182950  1
  B  B25  1  0.500000  0.370538  0.817019  1
  B  B26  1  0.500000  0.129361  0.316959  1
  B  B27  1  0.500000  0.870545  0.682959  1
  B  B28  1  0.500000  0.981171  0.213463  1
  B  B29  1  0.500000  0.018868  0.786538  1
  B  B30  1  0.500000  0.481240  0.286456  1
  B  B31  1  0.500000  0.518880  0.713466  1
  B  B32  1  0.500000  0.595938  0.026307  1
  B  B33  1  0.500000  0.404074  0.973687  1
  B  B34  1  0.500000  0.095838  0.473736  1
  B  B35  1  0.500000  0.904067  0.526298  1
