# generated using pymatgen
data_HoEr19(Bi2As)4
_symmetry_space_group_name_H-M   'P 1'
_cell_length_a   7.99440503
_cell_length_b   9.09805700
_cell_length_c   11.98194605
_cell_angle_alpha   90.00000000
_cell_angle_beta   89.98983551
_cell_angle_gamma   90.00000000
_symmetry_Int_Tables_number   1
_chemical_formula_structural   HoEr19(Bi2As)4
_chemical_formula_sum   'Ho1 Er19 Bi8 As4'
_cell_volume   871.48949004
_cell_formula_units_Z   1
loop_
 _symmetry_equiv_pos_site_id
 _symmetry_equiv_pos_as_xyz
  1  'x, y, z'
loop_
 _atom_site_type_symbol
 _atom_site_label
 _atom_site_symmetry_multiplicity
 _atom_site_fract_x
 _atom_site_fract_y
 _atom_site_fract_z
 _atom_site_occupancy
  Ho  Ho0  1  0.134230  0.250000  0.207341  1
  Er  Er1  1  0.817018  0.556668  0.062907  1
  Er  Er2  1  0.683022  0.943257  0.562847  1
  Er  Er3  1  0.182961  0.056658  0.937061  1
  Er  Er4  1  0.317110  0.443364  0.437228  1
  Er  Er5  1  0.182961  0.443342  0.937061  1
  Er  Er6  1  0.317110  0.056636  0.437228  1
  Er  Er7  1  0.817018  0.943332  0.062907  1
  Er  Er8  1  0.683022  0.556743  0.562847  1
  Er  Er9  1  0.156180  0.750000  0.210830  1
  Er  Er10  1  0.343841  0.750000  0.710838  1
  Er  Er11  1  0.843671  0.250000  0.789101  1
  Er  Er12  1  0.656116  0.250000  0.289188  1
  Er  Er13  1  0.463985  0.750000  0.000253  1
  Er  Er14  1  0.035882  0.750000  0.500261  1
  Er  Er15  1  0.536078  0.250000  0.999734  1
  Er  Er16  1  0.963930  0.250000  0.499874  1
  Er  Er17  1  0.634303  0.750000  0.292740  1
  Er  Er18  1  0.865782  0.750000  0.792640  1
  Er  Er19  1  0.365812  0.250000  0.707313  1
  Bi  Bi20  1  0.925381  0.510219  0.326921  1
  Bi  Bi21  1  0.574512  0.989972  0.826823  1
  Bi  Bi22  1  0.074491  0.009986  0.673171  1
  Bi  Bi23  1  0.425717  0.490165  0.173147  1
  Bi  Bi24  1  0.074491  0.490014  0.673171  1
  Bi  Bi25  1  0.425717  0.009835  0.173147  1
  Bi  Bi26  1  0.925381  0.989781  0.326921  1
  Bi  Bi27  1  0.574512  0.510028  0.826823  1
  As  As28  1  0.412634  0.750000  0.478571  1
  As  As29  1  0.087429  0.750000  0.978548  1
  As  As30  1  0.587444  0.250000  0.521450  1
  As  As31  1  0.912259  0.250000  0.021105  1
