# generated using pymatgen
data_Pr8Dy7Er(ScSi4)4
_symmetry_space_group_name_H-M   'P 1'
_cell_length_a   7.39995469
_cell_length_b   7.77352020
_cell_length_c   14.72985104
_cell_angle_alpha   90.00678975
_cell_angle_beta   90.04255094
_cell_angle_gamma   89.97473969
_symmetry_Int_Tables_number   1
_chemical_formula_structural   Pr8Dy7Er(ScSi4)4
_chemical_formula_sum   'Pr8 Dy7 Er1 Sc4 Si16'
_cell_volume   847.31517035
_cell_formula_units_Z   1
loop_
 _symmetry_equiv_pos_site_id
 _symmetry_equiv_pos_as_xyz
  1  'x, y, z'
loop_
 _atom_site_type_symbol
 _atom_site_label
 _atom_site_symmetry_multiplicity
 _atom_site_fract_x
 _atom_site_fract_y
 _atom_site_fract_z
 _atom_site_occupancy
  Pr  Pr0  1  0.020279  0.179808  0.401366  1
  Pr  Pr1  1  0.519963  0.320272  0.401554  1
  Pr  Pr2  1  0.479686  0.679676  0.901103  1
  Pr  Pr3  1  0.479853  0.679398  0.598607  1
  Pr  Pr4  1  0.980087  0.820446  0.598417  1
  Pr  Pr5  1  0.979902  0.820522  0.901192  1
  Pr  Pr6  1  0.520291  0.320282  0.098694  1
  Pr  Pr7  1  0.020237  0.179843  0.098732  1
  Dy  Dy8  1  0.678915  0.822337  0.375342  1
  Dy  Dy9  1  0.179042  0.677978  0.375229  1
  Dy  Dy10  1  0.820742  0.322154  0.874867  1
  Dy  Dy11  1  0.820882  0.321975  0.624841  1
  Dy  Dy12  1  0.320771  0.177801  0.874916  1
  Dy  Dy13  1  0.179201  0.677897  0.124971  1
  Dy  Dy14  1  0.679083  0.822123  0.125003  1
  Er  Er15  1  0.320842  0.177519  0.625260  1
  Sc  Sc16  1  0.652843  0.988082  0.749725  1
  Sc  Sc17  1  0.847651  0.487996  0.250116  1
  Sc  Sc18  1  0.347446  0.012215  0.250077  1
  Sc  Sc19  1  0.152716  0.511401  0.749540  1
  Si  Si20  1  0.277159  0.874577  0.749603  1
  Si  Si21  1  0.479562  0.605202  0.250149  1
  Si  Si22  1  0.021367  0.105483  0.749476  1
  Si  Si23  1  0.519911  0.393934  0.749629  1
  Si  Si24  1  0.147380  0.467539  0.540041  1
  Si  Si25  1  0.979388  0.895013  0.250122  1
  Si  Si26  1  0.723172  0.126012  0.250069  1
  Si  Si27  1  0.853700  0.531634  0.039726  1
  Si  Si28  1  0.353698  0.968464  0.039830  1
  Si  Si29  1  0.146108  0.468516  0.960146  1
  Si  Si30  1  0.644882  0.031943  0.540366  1
  Si  Si31  1  0.352774  0.968866  0.460986  1
  Si  Si32  1  0.853825  0.531410  0.460279  1
  Si  Si33  1  0.777095  0.626097  0.749793  1
  Si  Si34  1  0.223221  0.374044  0.250092  1
  Si  Si35  1  0.646327  0.031541  0.960142  1
