# generated using pymatgen
data_La2Al2GaSn
_symmetry_space_group_name_H-M   'P 1'
_cell_length_a   4.46245700
_cell_length_b   4.47375600
_cell_length_c   7.75498700
_cell_angle_alpha   90.00000000
_cell_angle_beta   90.00000000
_cell_angle_gamma   90.00000000
_symmetry_Int_Tables_number   1
_chemical_formula_structural   La2Al2GaSn
_chemical_formula_sum   'La2 Al2 Ga1 Sn1'
_cell_volume   154.82012447
_cell_formula_units_Z   1
loop_
 _symmetry_equiv_pos_site_id
 _symmetry_equiv_pos_as_xyz
  1  'x, y, z'
loop_
 _atom_site_type_symbol
 _atom_site_label
 _atom_site_symmetry_multiplicity
 _atom_site_fract_x
 _atom_site_fract_y
 _atom_site_fract_z
 _atom_site_occupancy
  La  La0  1  0.000000  0.500000  0.995831  1
  La  La1  1  0.000000  0.000000  0.506463  1
  Al  Al2  1  0.500000  0.000000  0.150622  1
  Al  Al3  1  0.500000  0.500000  0.680564  1
  Ga  Ga4  1  0.500000  0.000000  0.830195  1
  Sn  Sn5  1  0.500000  0.500000  0.336325  1
