# generated using pymatgen
data_TmLu7Mn(B8Rh)3
_symmetry_space_group_name_H-M   'P 1'
_cell_length_a   3.57361100
_cell_length_b   9.03607253
_cell_length_c   11.38464501
_cell_angle_alpha   90.10802761
_cell_angle_beta   90.00000000
_cell_angle_gamma   90.00000000
_symmetry_Int_Tables_number   1
_chemical_formula_structural   TmLu7Mn(B8Rh)3
_chemical_formula_sum   'Tm1 Lu7 Mn1 B24 Rh3'
_cell_volume   367.62556547
_cell_formula_units_Z   1
loop_
 _symmetry_equiv_pos_site_id
 _symmetry_equiv_pos_as_xyz
  1  'x, y, z'
loop_
 _atom_site_type_symbol
 _atom_site_label
 _atom_site_symmetry_multiplicity
 _atom_site_fract_x
 _atom_site_fract_y
 _atom_site_fract_z
 _atom_site_occupancy
  Tm  Tm0  1  0.500000  0.316760  0.409351  1
  Lu  Lu1  1  0.500000  0.679041  0.585794  1
  Lu  Lu2  1  0.500000  0.178237  0.918725  1
  Lu  Lu3  1  0.500000  0.826395  0.087510  1
  Lu  Lu4  1  0.500000  0.439387  0.126372  1
  Lu  Lu5  1  0.500000  0.556008  0.874047  1
  Lu  Lu6  1  0.500000  0.056225  0.626850  1
  Lu  Lu7  1  0.500000  0.947396  0.370843  1
  Mn  Mn8  1  0.500000  0.138519  0.179727  1
  B  B9  1  0.000000  0.106464  0.470911  1
  B  B10  1  0.000000  0.893357  0.529153  1
  B  B11  1  0.000000  0.392409  0.970604  1
  B  B12  1  0.000000  0.608082  0.029513  1
  B  B13  1  0.000000  0.131185  0.313774  1
  B  B14  1  0.000000  0.868062  0.682885  1
  B  B15  1  0.000000  0.367964  0.817580  1
  B  B16  1  0.000000  0.631538  0.183047  1
  B  B17  1  0.000000  0.054352  0.067703  1
  B  B18  1  0.000000  0.947788  0.935346  1
  B  B19  1  0.000000  0.446437  0.564603  1
  B  B20  1  0.000000  0.552822  0.434207  1
  B  B21  1  0.000000  0.480525  0.286523  1
  B  B22  1  0.000000  0.519319  0.712928  1
  B  B23  1  0.000000  0.019781  0.787864  1
  B  B24  1  0.000000  0.984425  0.212054  1
  B  B25  1  0.000000  0.247149  0.081734  1
  B  B26  1  0.000000  0.750351  0.921976  1
  B  B27  1  0.000000  0.249583  0.578563  1
  B  B28  1  0.000000  0.750666  0.420420  1
  B  B29  1  0.000000  0.290835  0.233995  1
  B  B30  1  0.000000  0.706260  0.763766  1
  B  B31  1  0.000000  0.206654  0.736922  1
  B  B32  1  0.000000  0.794039  0.264280  1
  Rh  Rh33  1  0.500000  0.861341  0.821459  1
  Rh  Rh34  1  0.500000  0.361789  0.678504  1
  Rh  Rh35  1  0.500000  0.638855  0.320467  1
