# generated using pymatgen
data_Lu3Ta3(B2Ru5)2
_symmetry_space_group_name_H-M   'P 1'
_cell_length_a   9.54407880
_cell_length_b   9.54407868
_cell_length_c   3.10756100
_cell_angle_alpha   90.00000000
_cell_angle_beta   90.00000000
_cell_angle_gamma   89.75395536
_symmetry_Int_Tables_number   1
_chemical_formula_structural   Lu3Ta3(B2Ru5)2
_chemical_formula_sum   'Lu3 Ta3 B4 Ru10'
_cell_volume   283.06337794
_cell_formula_units_Z   1
loop_
 _symmetry_equiv_pos_site_id
 _symmetry_equiv_pos_as_xyz
  1  'x, y, z'
loop_
 _atom_site_type_symbol
 _atom_site_label
 _atom_site_symmetry_multiplicity
 _atom_site_fract_x
 _atom_site_fract_y
 _atom_site_fract_z
 _atom_site_occupancy
  Lu  Lu0  1  0.174684  0.825316  0.000000  1
  Lu  Lu1  1  0.324580  0.324554  0.000000  1
  Lu  Lu2  1  0.675446  0.675420  0.000000  1
  Ta  Ta3  1  0.497505  0.998732  0.000000  1
  Ta  Ta4  1  0.001268  0.502495  0.000000  1
  Ta  Ta5  1  0.824639  0.175361  0.000000  1
  B  B6  1  0.622206  0.377794  0.000000  1
  B  B7  1  0.380022  0.619978  0.000000  1
  B  B8  1  0.120393  0.122466  0.000000  1
  B  B9  1  0.877534  0.879607  0.000000  1
  Ru  Ru10  1  0.503205  0.496795  0.500000  1
  Ru  Ru11  1  0.992515  0.007485  0.500000  1
  Ru  Ru12  1  0.582994  0.213974  0.500000  1
  Ru  Ru13  1  0.430191  0.780991  0.500000  1
  Ru  Ru14  1  0.060470  0.280121  0.500000  1
  Ru  Ru15  1  0.928274  0.720840  0.500000  1
  Ru  Ru16  1  0.279160  0.071726  0.500000  1
  Ru  Ru17  1  0.719879  0.939530  0.500000  1
  Ru  Ru18  1  0.219009  0.569809  0.500000  1
  Ru  Ru19  1  0.786026  0.417006  0.500000  1
