# generated using pymatgen
data_Tb2YCu12
_symmetry_space_group_name_H-M   'P 1'
_cell_length_a   5.03591473
_cell_length_b   5.03591416
_cell_length_c   10.61295911
_cell_angle_alpha   94.82727795
_cell_angle_beta   94.82729162
_cell_angle_gamma   119.57695194
_symmetry_Int_Tables_number   1
_chemical_formula_structural   Tb2YCu12
_chemical_formula_sum   'Tb2 Y1 Cu12'
_cell_volume   230.78081283
_cell_formula_units_Z   1
loop_
 _symmetry_equiv_pos_site_id
 _symmetry_equiv_pos_as_xyz
  1  'x, y, z'
loop_
 _atom_site_type_symbol
 _atom_site_label
 _atom_site_symmetry_multiplicity
 _atom_site_fract_x
 _atom_site_fract_y
 _atom_site_fract_z
 _atom_site_occupancy
  Tb  Tb0  1  0.133138  0.133138  0.357809  1
  Tb  Tb1  1  0.866862  0.866862  0.642191  1
  Y  Y2  1  0.000000  0.000000  0.000000  1
  Cu  Cu3  1  0.663720  0.336281  0.000000  1
  Cu  Cu4  1  0.336281  0.663720  0.000000  1
  Cu  Cu5  1  0.568348  0.066783  0.196091  1
  Cu  Cu6  1  0.066783  0.568348  0.196091  1
  Cu  Cu7  1  0.569681  0.569681  0.201528  1
  Cu  Cu8  1  0.807515  0.471156  0.405556  1
  Cu  Cu9  1  0.471156  0.807515  0.405556  1
  Cu  Cu10  1  0.528846  0.192486  0.594444  1
  Cu  Cu11  1  0.192486  0.528846  0.594444  1
  Cu  Cu12  1  0.430318  0.430318  0.798472  1
  Cu  Cu13  1  0.933216  0.431651  0.803910  1
  Cu  Cu14  1  0.431651  0.933216  0.803910  1
