# generated using pymatgen
data_Th6AlCo6Te7
_symmetry_space_group_name_H-M   'P 1'
_cell_length_a   8.29543322
_cell_length_b   8.24575883
_cell_length_c   8.29543258
_cell_angle_alpha   109.34996050
_cell_angle_beta   109.59220429
_cell_angle_gamma   109.34996401
_symmetry_Int_Tables_number   1
_chemical_formula_structural   Th6AlCo6Te7
_chemical_formula_sum   'Th6 Al1 Co6 Te7'
_cell_volume   437.45621289
_cell_formula_units_Z   1
loop_
 _symmetry_equiv_pos_site_id
 _symmetry_equiv_pos_as_xyz
  1  'x, y, z'
loop_
 _atom_site_type_symbol
 _atom_site_label
 _atom_site_symmetry_multiplicity
 _atom_site_fract_x
 _atom_site_fract_y
 _atom_site_fract_z
 _atom_site_occupancy
  Th  Th0  1  0.364995  0.251466  0.619342  1
  Th  Th1  1  0.754347  0.886471  0.135005  1
  Th  Th2  1  0.243752  0.616204  0.374936  1
  Th  Th3  1  0.631184  0.372452  0.256248  1
  Th  Th4  1  0.880658  0.132123  0.745653  1
  Th  Th5  1  0.125064  0.741267  0.868816  1
  Al  Al6  1  0.000000  0.352432  0.500000  1
  Co  Co7  1  0.123900  0.874537  0.252461  1
  Co  Co8  1  0.628561  0.750637  0.376100  1
  Co  Co9  1  0.878227  0.251104  0.133536  1
  Co  Co10  1  0.247539  0.122076  0.871439  1
  Co  Co11  1  0.755308  0.372877  0.621773  1
  Co  Co12  1  0.366464  0.617569  0.744692  1
  Te  Te13  1  0.838607  0.499519  0.999007  1
  Te  Te14  1  0.500993  0.000513  0.839600  1
  Te  Te15  1  0.660400  0.660913  0.661393  1
  Te  Te16  1  0.156749  0.156877  0.156765  1
  Te  Te17  1  0.343235  0.500112  0.999985  1
  Te  Te18  1  0.500015  0.000128  0.343251  1
  Te  Te19  1  0.000000  0.840723  0.500000  1
