# generated using pymatgen
data_Ho2Sc2CrCoB12
_symmetry_space_group_name_H-M   'P 1'
_cell_length_a   3.44029500
_cell_length_b   8.93894885
_cell_length_c   11.31909941
_cell_angle_alpha   89.77149028
_cell_angle_beta   90.00000000
_cell_angle_gamma   90.00000000
_symmetry_Int_Tables_number   1
_chemical_formula_structural   Ho2Sc2CrCoB12
_chemical_formula_sum   'Ho4 Sc4 Cr2 Co2 B24'
_cell_volume   348.08920615
_cell_formula_units_Z   2
loop_
 _symmetry_equiv_pos_site_id
 _symmetry_equiv_pos_as_xyz
  1  'x, y, z'
loop_
 _atom_site_type_symbol
 _atom_site_label
 _atom_site_symmetry_multiplicity
 _atom_site_fract_x
 _atom_site_fract_y
 _atom_site_fract_z
 _atom_site_occupancy
  Ho  Ho0  1  0.000000  0.821054  0.085819  1
  Ho  Ho1  1  0.000000  0.178946  0.914181  1
  Ho  Ho2  1  0.000000  0.323132  0.415771  1
  Ho  Ho3  1  0.000000  0.676868  0.584229  1
  Sc  Sc4  1  0.000000  0.445457  0.129225  1
  Sc  Sc5  1  0.000000  0.554543  0.870775  1
  Sc  Sc6  1  0.000000  0.942974  0.371281  1
  Sc  Sc7  1  0.000000  0.057026  0.628719  1
  Cr  Cr8  1  0.000000  0.641857  0.316752  1
  Cr  Cr9  1  0.000000  0.358143  0.683248  1
  Co  Co10  1  0.000000  0.141036  0.181595  1
  Co  Co11  1  0.000000  0.858964  0.818405  1
  B  B12  1  0.500000  0.055880  0.067966  1
  B  B13  1  0.500000  0.944120  0.932034  1
  B  B14  1  0.500000  0.554257  0.431736  1
  B  B15  1  0.500000  0.445743  0.568264  1
  B  B16  1  0.500000  0.251702  0.082692  1
  B  B17  1  0.500000  0.748298  0.917308  1
  B  B18  1  0.500000  0.752493  0.417602  1
  B  B19  1  0.500000  0.247507  0.582398  1
  B  B20  1  0.500000  0.292604  0.235259  1
  B  B21  1  0.500000  0.707396  0.764741  1
  B  B22  1  0.500000  0.795821  0.264235  1
  B  B23  1  0.500000  0.204179  0.735765  1
  B  B24  1  0.500000  0.130224  0.316638  1
  B  B25  1  0.500000  0.869776  0.683362  1
  B  B26  1  0.500000  0.630528  0.182536  1
  B  B27  1  0.500000  0.369472  0.817464  1
  B  B28  1  0.500000  0.481923  0.285636  1
  B  B29  1  0.500000  0.518077  0.714364  1
  B  B30  1  0.500000  0.985105  0.213032  1
  B  B31  1  0.500000  0.014895  0.786968  1
  B  B32  1  0.500000  0.098538  0.473037  1
  B  B33  1  0.500000  0.901462  0.526963  1
  B  B34  1  0.500000  0.599233  0.025669  1
  B  B35  1  0.500000  0.400767  0.974331  1
