# generated using pymatgen
data_Er8Ga12TcAu3
_symmetry_space_group_name_H-M   'P 1'
_cell_length_a   7.01165200
_cell_length_b   8.94163606
_cell_length_c   8.94163600
_cell_angle_alpha   119.99999977
_cell_angle_beta   90.00000000
_cell_angle_gamma   90.00000000
_symmetry_Int_Tables_number   1
_chemical_formula_structural   Er8Ga12TcAu3
_chemical_formula_sum   'Er8 Ga12 Tc1 Au3'
_cell_volume   485.49522389
_cell_formula_units_Z   1
loop_
 _symmetry_equiv_pos_site_id
 _symmetry_equiv_pos_as_xyz
  1  'x, y, z'
loop_
 _atom_site_type_symbol
 _atom_site_label
 _atom_site_symmetry_multiplicity
 _atom_site_fract_x
 _atom_site_fract_y
 _atom_site_fract_z
 _atom_site_occupancy
  Er  Er0  1  0.745090  0.000000  0.000000  1
  Er  Er1  1  0.252252  0.000000  0.000000  1
  Er  Er2  1  0.746897  0.489640  0.510360  1
  Er  Er3  1  0.259743  0.521945  0.478055  1
  Er  Er4  1  0.746897  0.020720  0.510360  1
  Er  Er5  1  0.259743  0.956110  0.478055  1
  Er  Er6  1  0.746897  0.489640  0.979280  1
  Er  Er7  1  0.259743  0.521945  0.043890  1
  Ga  Ga8  1  0.955374  0.837157  0.162843  1
  Ga  Ga9  1  0.048755  0.165320  0.834680  1
  Ga  Ga10  1  0.955374  0.325687  0.162843  1
  Ga  Ga11  1  0.458595  0.163606  0.836394  1
  Ga  Ga12  1  0.048755  0.669359  0.834680  1
  Ga  Ga13  1  0.539786  0.830247  0.169753  1
  Ga  Ga14  1  0.955374  0.837157  0.674313  1
  Ga  Ga15  1  0.458595  0.672786  0.836394  1
  Ga  Ga16  1  0.048755  0.165320  0.330641  1
  Ga  Ga17  1  0.539786  0.339507  0.169753  1
  Ga  Ga18  1  0.458595  0.163606  0.327214  1
  Ga  Ga19  1  0.539786  0.830247  0.660493  1
  Tc  Tc20  1  0.513434  0.666667  0.333333  1
  Au  Au21  1  0.960482  0.666667  0.333333  1
  Au  Au22  1  0.027181  0.333333  0.666667  1
  Au  Au23  1  0.474119  0.333333  0.666667  1
