# generated using pymatgen
data_Cs6PbS4
_symmetry_space_group_name_H-M   'P 1'
_cell_length_a   11.23105200
_cell_length_b   11.23105257
_cell_length_c   8.45906900
_cell_angle_alpha   90.00000000
_cell_angle_beta   90.00000000
_cell_angle_gamma   119.99999832
_symmetry_Int_Tables_number   1
_chemical_formula_structural   Cs6PbS4
_chemical_formula_sum   'Cs12 Pb2 S8'
_cell_volume   924.04709190
_cell_formula_units_Z   2
loop_
 _symmetry_equiv_pos_site_id
 _symmetry_equiv_pos_as_xyz
  1  'x, y, z'
loop_
 _atom_site_type_symbol
 _atom_site_label
 _atom_site_symmetry_multiplicity
 _atom_site_fract_x
 _atom_site_fract_y
 _atom_site_fract_z
 _atom_site_occupancy
  Cs  Cs0  1  0.147339  0.294676  0.206948  1
  Cs  Cs1  1  0.147339  0.852661  0.206948  1
  Cs  Cs2  1  0.705324  0.852661  0.206948  1
  Cs  Cs3  1  0.852661  0.705324  0.706948  1
  Cs  Cs4  1  0.852661  0.147339  0.706948  1
  Cs  Cs5  1  0.294676  0.147339  0.706948  1
  Cs  Cs6  1  0.531833  0.063665  0.379029  1
  Cs  Cs7  1  0.531833  0.468167  0.379029  1
  Cs  Cs8  1  0.936335  0.468167  0.379029  1
  Cs  Cs9  1  0.468167  0.936335  0.879029  1
  Cs  Cs10  1  0.468167  0.531833  0.879029  1
  Cs  Cs11  1  0.063665  0.531833  0.879029  1
  Pb  Pb12  1  0.333333  0.666667  0.497453  1
  Pb  Pb13  1  0.666667  0.333333  0.997453  1
  S  S14  1  0.333333  0.666667  0.160530  1
  S  S15  1  0.666667  0.333333  0.660530  1
  S  S16  1  0.808670  0.617338  0.102356  1
  S  S17  1  0.808670  0.191330  0.102356  1
  S  S18  1  0.382662  0.191330  0.102356  1
  S  S19  1  0.191330  0.382662  0.602356  1
  S  S20  1  0.191330  0.808670  0.602356  1
  S  S21  1  0.617338  0.808670  0.602356  1
