# generated using pymatgen
data_Nd16MgHg3IrPt3
_symmetry_space_group_name_H-M   'P 1'
_cell_length_a   9.98255732
_cell_length_b   9.96485609
_cell_length_c   9.96485938
_cell_angle_alpha   60.32033672
_cell_angle_beta   60.45896634
_cell_angle_gamma   60.45907537
_symmetry_Int_Tables_number   1
_chemical_formula_structural   Nd16MgHg3IrPt3
_chemical_formula_sum   'Nd16 Mg1 Hg3 Ir1 Pt3'
_cell_volume   707.46084651
_cell_formula_units_Z   1
loop_
 _symmetry_equiv_pos_site_id
 _symmetry_equiv_pos_as_xyz
  1  'x, y, z'
loop_
 _atom_site_type_symbol
 _atom_site_label
 _atom_site_symmetry_multiplicity
 _atom_site_fract_x
 _atom_site_fract_y
 _atom_site_fract_z
 _atom_site_occupancy
  Nd  Nd0  1  0.646443  0.050800  0.650940  1
  Nd  Nd1  1  0.806678  0.190422  0.807106  1
  Nd  Nd2  1  0.193286  0.808243  0.808244  1
  Nd  Nd3  1  0.059926  0.437362  0.437358  1
  Nd  Nd4  1  0.061645  0.062497  0.439009  1
  Nd  Nd5  1  0.435150  0.061219  0.438340  1
  Nd  Nd6  1  0.811029  0.189279  0.189274  1
  Nd  Nd7  1  0.436541  0.062420  0.062425  1
  Nd  Nd8  1  0.191677  0.812043  0.185035  1
  Nd  Nd9  1  0.435152  0.438335  0.061221  1
  Nd  Nd10  1  0.806675  0.807108  0.190424  1
  Nd  Nd11  1  0.191677  0.185033  0.812042  1
  Nd  Nd12  1  0.055948  0.647711  0.647711  1
  Nd  Nd13  1  0.646452  0.650206  0.650205  1
  Nd  Nd14  1  0.061643  0.439009  0.062498  1
  Nd  Nd15  1  0.646445  0.650942  0.050798  1
  Mg  Mg16  1  0.430097  0.429479  0.429480  1
  Hg  Hg17  1  0.412843  0.412147  0.756925  1
  Hg  Hg18  1  0.756467  0.412545  0.412545  1
  Hg  Hg19  1  0.412846  0.756922  0.412150  1
  Ir  Ir20  1  0.428216  0.856496  0.856496  1
  Pt  Pt21  1  0.857416  0.854964  0.854964  1
  Pt  Pt22  1  0.857875  0.429238  0.855577  1
  Pt  Pt23  1  0.857875  0.855580  0.429235  1
