# generated using pymatgen
data_Zr6ZnSn5Ir6
_symmetry_space_group_name_H-M   'P 1'
_cell_length_a   7.44876864
_cell_length_b   7.44876945
_cell_length_c   7.22690115
_cell_angle_alpha   90.11420901
_cell_angle_beta   89.88579307
_cell_angle_gamma   120.51848829
_symmetry_Int_Tables_number   1
_chemical_formula_structural   Zr6ZnSn5Ir6
_chemical_formula_sum   'Zr6 Zn1 Sn5 Ir6'
_cell_volume   345.42820714
_cell_formula_units_Z   1
loop_
 _symmetry_equiv_pos_site_id
 _symmetry_equiv_pos_as_xyz
  1  'x, y, z'
loop_
 _atom_site_type_symbol
 _atom_site_label
 _atom_site_symmetry_multiplicity
 _atom_site_fract_x
 _atom_site_fract_y
 _atom_site_fract_z
 _atom_site_occupancy
  Zr  Zr0  1  0.404351  0.025050  0.255158  1
  Zr  Zr1  1  0.587983  0.602093  0.742575  1
  Zr  Zr2  1  0.602093  0.587983  0.257425  1
  Zr  Zr3  1  0.000216  0.389878  0.255386  1
  Zr  Zr4  1  0.025050  0.404351  0.744842  1
  Zr  Zr5  1  0.389878  0.000216  0.744614  1
  Zn  Zn6  1  0.273804  0.273804  0.500000  1
  Sn  Sn7  1  0.267318  0.267318  0.000000  1
  Sn  Sn8  1  0.729974  0.998147  0.999764  1
  Sn  Sn9  1  0.001158  0.729745  0.499675  1
  Sn  Sn10  1  0.729745  0.001158  0.500325  1
  Sn  Sn11  1  0.998147  0.729974  0.000236  1
  Ir  Ir12  1  0.661573  0.331507  0.521856  1
  Ir  Ir13  1  0.662397  0.330197  0.972889  1
  Ir  Ir14  1  0.330197  0.662397  0.027111  1
  Ir  Ir15  1  0.331507  0.661573  0.478144  1
  Ir  Ir16  1  0.002142  0.002467  0.743954  1
  Ir  Ir17  1  0.002467  0.002142  0.256046  1
