# generated using pymatgen
data_Tb5CeHo10(CdIr)4
_symmetry_space_group_name_H-M   'P 1'
_cell_length_a   9.63416315
_cell_length_b   9.64300641
_cell_length_c   9.64300494
_cell_angle_alpha   59.34223760
_cell_angle_beta   60.03033298
_cell_angle_gamma   60.03033364
_symmetry_Int_Tables_number   1
_chemical_formula_structural   Tb5CeHo10(CdIr)4
_chemical_formula_sum   'Tb5 Ce1 Ho10 Cd4 Ir4'
_cell_volume   630.54394878
_cell_formula_units_Z   1
loop_
 _symmetry_equiv_pos_site_id
 _symmetry_equiv_pos_as_xyz
  1  'x, y, z'
loop_
 _atom_site_type_symbol
 _atom_site_label
 _atom_site_symmetry_multiplicity
 _atom_site_fract_x
 _atom_site_fract_y
 _atom_site_fract_z
 _atom_site_occupancy
  Tb  Tb0  1  0.593520  0.601598  0.601598  1
  Tb  Tb1  1  0.602703  0.593995  0.200602  1
  Tb  Tb2  1  0.602703  0.200602  0.593995  1
  Tb  Tb3  1  0.203285  0.601598  0.601598  1
  Tb  Tb4  1  0.060341  0.439659  0.439659  1
  Ce  Ce5  1  0.438795  0.061205  0.061205  1
  Ho  Ho6  1  0.440298  0.060779  0.441153  1
  Ho  Ho7  1  0.057770  0.441153  0.060779  1
  Ho  Ho8  1  0.440298  0.441153  0.060779  1
  Ho  Ho9  1  0.057770  0.060779  0.441153  1
  Ho  Ho10  1  0.181808  0.818192  0.818192  1
  Ho  Ho11  1  0.817228  0.182772  0.182772  1
  Ho  Ho12  1  0.810883  0.190632  0.810868  1
  Ho  Ho13  1  0.187616  0.810868  0.190632  1
  Ho  Ho14  1  0.810883  0.810868  0.190632  1
  Ho  Ho15  1  0.187616  0.190632  0.810868  1
  Cd  Cd16  1  0.834197  0.829929  0.829929  1
  Cd  Cd17  1  0.831752  0.831997  0.504496  1
  Cd  Cd18  1  0.831752  0.504496  0.831997  1
  Cd  Cd19  1  0.505943  0.829929  0.829929  1
  Ir  Ir20  1  0.386898  0.394087  0.394087  1
  Ir  Ir21  1  0.395506  0.377612  0.831377  1
  Ir  Ir22  1  0.395506  0.831377  0.377612  1
  Ir  Ir23  1  0.824928  0.394087  0.394087  1
