# generated using pymatgen
data_Na4Cd3S5
_symmetry_space_group_name_H-M   'P 1'
_cell_length_a   4.09725500
_cell_length_b   13.57610100
_cell_length_c   19.47936000
_cell_angle_alpha   90.00000000
_cell_angle_beta   90.00000000
_cell_angle_gamma   90.00000000
_symmetry_Int_Tables_number   1
_chemical_formula_structural   Na4Cd3S5
_chemical_formula_sum   'Na16 Cd12 S20'
_cell_volume   1083.53448541
_cell_formula_units_Z   4
loop_
 _symmetry_equiv_pos_site_id
 _symmetry_equiv_pos_as_xyz
  1  'x, y, z'
loop_
 _atom_site_type_symbol
 _atom_site_label
 _atom_site_symmetry_multiplicity
 _atom_site_fract_x
 _atom_site_fract_y
 _atom_site_fract_z
 _atom_site_occupancy
  Na  Na0  1  0.250000  0.776530  0.334189  1
  Na  Na1  1  0.750000  0.223470  0.665811  1
  Na  Na2  1  0.250000  0.276530  0.165811  1
  Na  Na3  1  0.750000  0.723470  0.834189  1
  Na  Na4  1  0.250000  0.611199  0.448142  1
  Na  Na5  1  0.750000  0.388801  0.551858  1
  Na  Na6  1  0.250000  0.111199  0.051858  1
  Na  Na7  1  0.750000  0.888801  0.948142  1
  Na  Na8  1  0.250000  0.506848  0.918640  1
  Na  Na9  1  0.750000  0.493152  0.081360  1
  Na  Na10  1  0.250000  0.006848  0.581360  1
  Na  Na11  1  0.750000  0.993152  0.418640  1
  Na  Na12  1  0.250000  0.001193  0.233720  1
  Na  Na13  1  0.750000  0.998807  0.766280  1
  Na  Na14  1  0.250000  0.501193  0.266280  1
  Na  Na15  1  0.750000  0.498807  0.733720  1
  Cd  Cd16  1  0.250000  0.075931  0.870455  1
  Cd  Cd17  1  0.750000  0.924069  0.129545  1
  Cd  Cd18  1  0.250000  0.575931  0.629545  1
  Cd  Cd19  1  0.750000  0.424069  0.370455  1
  Cd  Cd20  1  0.250000  0.817078  0.716768  1
  Cd  Cd21  1  0.750000  0.182922  0.283232  1
  Cd  Cd22  1  0.250000  0.317078  0.783232  1
  Cd  Cd23  1  0.750000  0.682922  0.216768  1
  Cd  Cd24  1  0.250000  0.706112  0.035155  1
  Cd  Cd25  1  0.750000  0.293888  0.964845  1
  Cd  Cd26  1  0.250000  0.206112  0.464845  1
  Cd  Cd27  1  0.750000  0.793888  0.535155  1
  S  S28  1  0.250000  0.614750  0.151463  1
  S  S29  1  0.750000  0.861628  0.252706  1
  S  S30  1  0.750000  0.361628  0.247294  1
  S  S31  1  0.250000  0.638372  0.752706  1
  S  S32  1  0.750000  0.645902  0.968249  1
  S  S33  1  0.250000  0.354098  0.031751  1
  S  S34  1  0.750000  0.145902  0.531751  1
  S  S35  1  0.250000  0.854098  0.468249  1
  S  S36  1  0.750000  0.614199  0.343543  1
  S  S37  1  0.250000  0.385801  0.656457  1
  S  S38  1  0.750000  0.114199  0.156457  1
  S  S39  1  0.250000  0.885801  0.843543  1
  S  S40  1  0.750000  0.607063  0.554095  1
  S  S41  1  0.250000  0.392937  0.445905  1
  S  S42  1  0.750000  0.107063  0.945905  1
  S  S43  1  0.250000  0.892937  0.054095  1
  S  S44  1  0.250000  0.114750  0.348537  1
  S  S45  1  0.750000  0.885250  0.651463  1
  S  S46  1  0.250000  0.138372  0.747294  1
  S  S47  1  0.750000  0.385250  0.848537  1
