# generated using pymatgen
data_LiPa3(GeIr)4
_symmetry_space_group_name_H-M   'P 1'
_cell_length_a   4.28970800
_cell_length_b   6.79791497
_cell_length_c   7.69962316
_cell_angle_alpha   89.09349718
_cell_angle_beta   90.00000000
_cell_angle_gamma   90.00000000
_symmetry_Int_Tables_number   1
_chemical_formula_structural   LiPa3(GeIr)4
_chemical_formula_sum   'Li1 Pa3 Ge4 Ir4'
_cell_volume   224.50115052
_cell_formula_units_Z   1
loop_
 _symmetry_equiv_pos_site_id
 _symmetry_equiv_pos_as_xyz
  1  'x, y, z'
loop_
 _atom_site_type_symbol
 _atom_site_label
 _atom_site_symmetry_multiplicity
 _atom_site_fract_x
 _atom_site_fract_y
 _atom_site_fract_z
 _atom_site_occupancy
  Li  Li0  1  0.750000  0.011137  0.198197  1
  Pa  Pa1  1  0.250000  0.492720  0.702501  1
  Pa  Pa2  1  0.250000  0.995360  0.803946  1
  Pa  Pa3  1  0.750000  0.512422  0.298448  1
  Ge  Ge4  1  0.250000  0.842665  0.399387  1
  Ge  Ge5  1  0.250000  0.304455  0.089898  1
  Ge  Ge6  1  0.750000  0.166276  0.573654  1
  Ge  Ge7  1  0.750000  0.693954  0.927257  1
  Ir  Ir8  1  0.250000  0.238177  0.415845  1
  Ir  Ir9  1  0.250000  0.704163  0.096743  1
  Ir  Ir10  1  0.750000  0.766929  0.592816  1
  Ir  Ir11  1  0.750000  0.271740  0.901308  1
