# generated using pymatgen
data_MgVIn(Ni10B3)2
_symmetry_space_group_name_H-M   'P 1'
_cell_length_a   7.46949935
_cell_length_b   7.46949956
_cell_length_c   7.46949900
_cell_angle_alpha   59.99999806
_cell_angle_beta   59.99999711
_cell_angle_gamma   60.00000414
_symmetry_Int_Tables_number   1
_chemical_formula_structural   MgVIn(Ni10B3)2
_chemical_formula_sum   'Mg1 V1 In1 Ni20 B6'
_cell_volume   294.68597924
_cell_formula_units_Z   1
loop_
 _symmetry_equiv_pos_site_id
 _symmetry_equiv_pos_as_xyz
  1  'x, y, z'
loop_
 _atom_site_type_symbol
 _atom_site_label
 _atom_site_symmetry_multiplicity
 _atom_site_fract_x
 _atom_site_fract_y
 _atom_site_fract_z
 _atom_site_occupancy
  Mg  Mg0  1  0.250000  0.250000  0.250000  1
  V  V1  1  0.000000  0.000000  0.000000  1
  In  In2  1  0.750000  0.750000  0.750000  1
  Ni  Ni3  1  0.613280  0.613280  0.160160  1
  Ni  Ni4  1  0.613280  0.160160  0.613280  1
  Ni  Ni5  1  0.160160  0.613280  0.613280  1
  Ni  Ni6  1  0.613280  0.613280  0.613280  1
  Ni  Ni7  1  0.384539  0.384539  0.846385  1
  Ni  Ni8  1  0.384539  0.846385  0.384539  1
  Ni  Ni9  1  0.846385  0.384539  0.384539  1
  Ni  Ni10  1  0.384539  0.384539  0.384539  1
  Ni  Ni11  1  0.000839  0.000839  0.335167  1
  Ni  Ni12  1  0.663154  0.000839  0.335167  1
  Ni  Ni13  1  0.000839  0.663154  0.335167  1
  Ni  Ni14  1  0.663154  0.335167  0.000839  1
  Ni  Ni15  1  0.000839  0.335167  0.000839  1
  Ni  Ni16  1  0.000839  0.335167  0.663154  1
  Ni  Ni17  1  0.335167  0.663154  0.000839  1
  Ni  Ni18  1  0.335167  0.000839  0.663154  1
  Ni  Ni19  1  0.335167  0.000839  0.000839  1
  Ni  Ni20  1  0.000839  0.000839  0.663154  1
  Ni  Ni21  1  0.000839  0.663154  0.000839  1
  Ni  Ni22  1  0.663154  0.000839  0.000839  1
  B  B23  1  0.727906  0.727906  0.272094  1
  B  B24  1  0.272094  0.727906  0.272094  1
  B  B25  1  0.727906  0.272094  0.272094  1
  B  B26  1  0.272094  0.272094  0.727906  1
  B  B27  1  0.727906  0.272094  0.727906  1
  B  B28  1  0.272094  0.727906  0.727906  1
