# generated using pymatgen
data_La9Sm3(Si7Br3)2
_symmetry_space_group_name_H-M   'P 1'
_cell_length_a   4.10850900
_cell_length_b   11.93185149
_cell_length_c   16.74116042
_cell_angle_alpha   89.62402119
_cell_angle_beta   90.00000000
_cell_angle_gamma   90.00000000
_symmetry_Int_Tables_number   1
_chemical_formula_structural   La9Sm3(Si7Br3)2
_chemical_formula_sum   'La9 Sm3 Si14 Br6'
_cell_volume   820.66949218
_cell_formula_units_Z   1
loop_
 _symmetry_equiv_pos_site_id
 _symmetry_equiv_pos_as_xyz
  1  'x, y, z'
loop_
 _atom_site_type_symbol
 _atom_site_label
 _atom_site_symmetry_multiplicity
 _atom_site_fract_x
 _atom_site_fract_y
 _atom_site_fract_z
 _atom_site_occupancy
  La  La0  1  0.500000  0.339541  0.504317  1
  La  La1  1  0.000000  0.658892  0.999264  1
  La  La2  1  0.000000  0.641252  0.745126  1
  La  La3  1  0.500000  0.358161  0.244479  1
  La  La4  1  0.000000  0.638659  0.256306  1
  La  La5  1  0.500000  0.069814  0.877529  1
  La  La6  1  0.000000  0.935024  0.619851  1
  La  La7  1  0.500000  0.066737  0.117589  1
  La  La8  1  0.000000  0.931047  0.379667  1
  Sm  Sm9  1  0.500000  0.365137  0.759177  1
  Sm  Sm10  1  0.500000  0.356935  0.998841  1
  Sm  Sm11  1  0.000000  0.641335  0.502180  1
  Si  Si12  1  0.000000  0.157182  0.997570  1
  Si  Si13  1  0.500000  0.843832  0.500576  1
  Si  Si14  1  0.500000  0.563741  0.878076  1
  Si  Si15  1  0.000000  0.433550  0.626065  1
  Si  Si16  1  0.500000  0.562650  0.120853  1
  Si  Si17  1  0.000000  0.435045  0.381078  1
  Si  Si18  1  0.000000  0.258170  0.872383  1
  Si  Si19  1  0.500000  0.743824  0.624893  1
  Si  Si20  1  0.000000  0.255719  0.122840  1
  Si  Si21  1  0.500000  0.741394  0.377279  1
  Si  Si22  1  0.000000  0.457969  0.878316  1
  Si  Si23  1  0.500000  0.541370  0.624168  1
  Si  Si24  1  0.500000  0.541055  0.379680  1
  Si  Si25  1  0.000000  0.456322  0.121388  1
  Br  Br26  1  0.500000  0.117709  0.690288  1
  Br  Br27  1  0.000000  0.892516  0.806657  1
  Br  Br28  1  0.000000  0.136183  0.497820  1
  Br  Br29  1  0.500000  0.863057  0.998116  1
  Br  Br30  1  0.500000  0.106842  0.306485  1
  Br  Br31  1  0.000000  0.889338  0.191139  1
