# generated using pymatgen
data_SrDy6IrI12
_symmetry_space_group_name_H-M   'P 1'
_cell_length_a   9.86162814
_cell_length_b   9.86162741
_cell_length_c   9.86162740
_cell_angle_alpha   106.70748782
_cell_angle_beta   106.70748552
_cell_angle_gamma   106.70748266
_symmetry_Int_Tables_number   1
_chemical_formula_structural   SrDy6IrI12
_chemical_formula_sum   'Sr1 Dy6 Ir1 I12'
_cell_volume   805.00268103
_cell_formula_units_Z   1
loop_
 _symmetry_equiv_pos_site_id
 _symmetry_equiv_pos_as_xyz
  1  'x, y, z'
loop_
 _atom_site_type_symbol
 _atom_site_label
 _atom_site_symmetry_multiplicity
 _atom_site_fract_x
 _atom_site_fract_y
 _atom_site_fract_z
 _atom_site_occupancy
  Sr  Sr0  1  0.500000  0.500000  0.500000  1
  Dy  Dy1  1  0.092580  0.019546  0.294726  1
  Dy  Dy2  1  0.294726  0.092580  0.019546  1
  Dy  Dy3  1  0.019546  0.294726  0.092580  1
  Dy  Dy4  1  0.907420  0.980454  0.705274  1
  Dy  Dy5  1  0.705274  0.907420  0.980454  1
  Dy  Dy6  1  0.980454  0.705274  0.907420  1
  Ir  Ir7  1  0.000000  0.000000  0.000000  1
  I  I8  1  0.071547  0.676954  0.222707  1
  I  I9  1  0.222707  0.071547  0.676954  1
  I  I10  1  0.676954  0.222707  0.071547  1
  I  I11  1  0.928453  0.323046  0.777293  1
  I  I12  1  0.777293  0.928453  0.323046  1
  I  I13  1  0.323046  0.777293  0.928453  1
  I  I14  1  0.448793  0.136410  0.369115  1
  I  I15  1  0.369115  0.448793  0.136410  1
  I  I16  1  0.136410  0.369115  0.448793  1
  I  I17  1  0.551207  0.863590  0.630885  1
  I  I18  1  0.630885  0.551207  0.863590  1
  I  I19  1  0.863590  0.630885  0.551207  1
