# generated using pymatgen
data_Rb2Pt(S4O13)2
_symmetry_space_group_name_H-M   'P 1'
_cell_length_a   7.76463256
_cell_length_b   9.02304808
_cell_length_c   9.41252985
_cell_angle_alpha   107.41941873
_cell_angle_beta   89.01482183
_cell_angle_gamma   107.27665757
_symmetry_Int_Tables_number   1
_chemical_formula_structural   Rb2Pt(S4O13)2
_chemical_formula_sum   'Rb2 Pt1 S8 O26'
_cell_volume   598.95237301
_cell_formula_units_Z   1
loop_
 _symmetry_equiv_pos_site_id
 _symmetry_equiv_pos_as_xyz
  1  'x, y, z'
loop_
 _atom_site_type_symbol
 _atom_site_label
 _atom_site_symmetry_multiplicity
 _atom_site_fract_x
 _atom_site_fract_y
 _atom_site_fract_z
 _atom_site_occupancy
  Rb  Rb0  1  0.128770  0.265230  0.878922  1
  Rb  Rb1  1  0.871230  0.734770  0.121078  1
  Pt  Pt2  1  0.500000  0.500000  0.500000  1
  S  S3  1  0.665480  0.358912  0.714594  1
  S  S4  1  0.334520  0.641088  0.285406  1
  S  S5  1  0.863997  0.189084  0.484447  1
  S  S6  1  0.136003  0.810916  0.515553  1
  S  S7  1  0.380191  0.160164  0.229844  1
  S  S8  1  0.619809  0.839836  0.770156  1
  S  S9  1  0.779061  0.235067  0.200381  1
  S  S10  1  0.220939  0.764933  0.799619  1
  O  O11  1  0.689632  0.187392  0.575004  1
  O  O12  1  0.310368  0.812608  0.424996  1
  O  O13  1  0.693826  0.481319  0.630869  1
  O  O14  1  0.306174  0.518681  0.369131  1
  O  O15  1  0.813339  0.407627  0.825314  1
  O  O16  1  0.186661  0.592373  0.174686  1
  O  O17  1  0.844865  0.303351  0.380583  1
  O  O18  1  0.155135  0.696649  0.619417  1
  O  O19  1  0.025811  0.283308  0.578241  1
  O  O20  1  0.974189  0.716692  0.421759  1
  O  O21  1  0.483941  0.292585  0.748469  1
  O  O22  1  0.516059  0.707415  0.251531  1
  O  O23  1  0.836482  0.025538  0.392155  1
  O  O24  1  0.163518  0.974462  0.607845  1
  O  O25  1  0.411552  0.254948  0.393026  1
  O  O26  1  0.588448  0.745052  0.606974  1
  O  O27  1  0.587027  0.108898  0.192506  1
  O  O28  1  0.412973  0.891102  0.807494  1
  O  O29  1  0.771080  0.378431  0.169759  1
  O  O30  1  0.228920  0.621569  0.830241  1
  O  O31  1  0.893979  0.143641  0.124786  1
  O  O32  1  0.106021  0.856359  0.875214  1
  O  O33  1  0.367534  0.248018  0.128274  1
  O  O34  1  0.632466  0.751982  0.871726  1
  O  O35  1  0.261285  0.998674  0.207877  1
  O  O36  1  0.738715  0.001326  0.792123  1
