# generated using pymatgen
data_Ba9Sr(Bi2As)2
_symmetry_space_group_name_H-M   'P 1'
_cell_length_a   9.22726651
_cell_length_b   10.53664500
_cell_length_c   14.10212354
_cell_angle_alpha   90.00000000
_cell_angle_beta   90.16455490
_cell_angle_gamma   90.00000000
_symmetry_Int_Tables_number   1
_chemical_formula_structural   Ba9Sr(Bi2As)2
_chemical_formula_sum   'Ba18 Sr2 Bi8 As4'
_cell_volume   1371.06529058
_cell_formula_units_Z   2
loop_
 _symmetry_equiv_pos_site_id
 _symmetry_equiv_pos_as_xyz
  1  'x, y, z'
loop_
 _atom_site_type_symbol
 _atom_site_label
 _atom_site_symmetry_multiplicity
 _atom_site_fract_x
 _atom_site_fract_y
 _atom_site_fract_z
 _atom_site_occupancy
  Ba  Ba0  1  0.548202  0.250000  0.000069  1
  Ba  Ba1  1  0.451798  0.750000  0.999931  1
  Ba  Ba2  1  0.858295  0.750000  0.799489  1
  Ba  Ba3  1  0.141705  0.250000  0.200511  1
  Ba  Ba4  1  0.357630  0.250000  0.696586  1
  Ba  Ba5  1  0.642370  0.750000  0.303414  1
  Ba  Ba6  1  0.686954  0.533465  0.574535  1
  Ba  Ba7  1  0.313046  0.466535  0.425465  1
  Ba  Ba8  1  0.183996  0.466178  0.923040  1
  Ba  Ba9  1  0.313046  0.033465  0.425465  1
  Ba  Ba10  1  0.816004  0.533822  0.076960  1
  Ba  Ba11  1  0.686954  0.966535  0.574535  1
  Ba  Ba12  1  0.816004  0.966178  0.076960  1
  Ba  Ba13  1  0.183996  0.033822  0.923040  1
  Ba  Ba14  1  0.329571  0.750000  0.710555  1
  Ba  Ba15  1  0.670429  0.250000  0.289445  1
  Ba  Ba16  1  0.832863  0.250000  0.785370  1
  Ba  Ba17  1  0.167137  0.750000  0.214630  1
  Sr  Sr18  1  0.044557  0.750000  0.500421  1
  Sr  Sr19  1  0.955443  0.250000  0.499579  1
  Bi  Bi20  1  0.564473  0.508232  0.827976  1
  Bi  Bi21  1  0.435527  0.491768  0.172024  1
  Bi  Bi22  1  0.062391  0.492073  0.666243  1
  Bi  Bi23  1  0.435527  0.008232  0.172024  1
  Bi  Bi24  1  0.937609  0.507927  0.333757  1
  Bi  Bi25  1  0.564473  0.991768  0.827976  1
  Bi  Bi26  1  0.937609  0.992073  0.333757  1
  Bi  Bi27  1  0.062391  0.007927  0.666243  1
  As  As28  1  0.068340  0.750000  0.987984  1
  As  As29  1  0.931660  0.250000  0.012016  1
  As  As30  1  0.578737  0.250000  0.512605  1
  As  As31  1  0.421263  0.750000  0.487395  1
