# generated using pymatgen
data_Sc5Re18(TcRu)3
_symmetry_space_group_name_H-M   'P 1'
_cell_length_a   8.43776805
_cell_length_b   8.42995388
_cell_length_c   8.42880193
_cell_angle_alpha   109.55307222
_cell_angle_beta   109.45582058
_cell_angle_gamma   109.36282325
_symmetry_Int_Tables_number   1
_chemical_formula_structural   Sc5Re18(TcRu)3
_chemical_formula_sum   'Sc5 Re18 Tc3 Ru3'
_cell_volume   461.76441072
_cell_formula_units_Z   1
loop_
 _symmetry_equiv_pos_site_id
 _symmetry_equiv_pos_as_xyz
  1  'x, y, z'
loop_
 _atom_site_type_symbol
 _atom_site_label
 _atom_site_symmetry_multiplicity
 _atom_site_fract_x
 _atom_site_fract_y
 _atom_site_fract_z
 _atom_site_occupancy
  Sc  Sc0  1  0.370043  0.370694  0.371262  1
  Sc  Sc1  1  0.000593  0.629183  0.998968  1
  Sc  Sc2  1  0.629969  0.000549  0.001248  1
  Sc  Sc3  1  0.999425  0.001091  0.629613  1
  Sc  Sc4  1  0.000019  0.000013  0.000267  1
  Re  Re5  1  0.604205  0.602999  0.277377  1
  Re  Re6  1  0.808337  0.810898  0.184530  1
  Re  Re7  1  0.374488  0.190038  0.998328  1
  Re  Re8  1  0.192912  0.375518  0.002027  1
  Re  Re9  1  0.624962  0.815246  0.623284  1
  Re  Re10  1  0.373519  0.996998  0.189672  1
  Re  Re11  1  0.999910  0.377989  0.194662  1
  Re  Re12  1  0.816857  0.622641  0.620190  1
  Re  Re13  1  0.183041  0.805720  0.803520  1
  Re  Re14  1  0.806957  0.182792  0.809186  1
  Re  Re15  1  0.191820  0.002852  0.376305  1
  Re  Re16  1  0.999848  0.195537  0.380376  1
  Re  Re17  1  0.627197  0.624052  0.816551  1
  Re  Re18  1  0.395682  0.998476  0.672949  1
  Re  Re19  1  0.605982  0.279056  0.602384  1
  Re  Re20  1  0.676849  0.397596  0.003110  1
  Re  Re21  1  0.394060  0.673197  0.996486  1
  Re  Re22  1  0.324470  0.327536  0.721435  1
  Tc  Tc23  1  0.322753  0.720322  0.325966  1
  Tc  Tc24  1  0.675798  0.003072  0.396988  1
  Tc  Tc25  1  0.000206  0.677397  0.397719  1
  Ru  Ru26  1  0.000081  0.398793  0.682252  1
  Ru  Ru27  1  0.285943  0.602874  0.604599  1
  Ru  Ru28  1  0.714076  0.316872  0.318745  1
