# generated using pymatgen
data_Al2Zn(FeRh2)3
_symmetry_space_group_name_H-M   'P 1'
_cell_length_a   4.26473200
_cell_length_b   6.01970700
_cell_length_c   12.77776100
_cell_angle_alpha   90.00000000
_cell_angle_beta   90.00131297
_cell_angle_gamma   90.00000000
_symmetry_Int_Tables_number   1
_chemical_formula_structural   Al2Zn(FeRh2)3
_chemical_formula_sum   'Al4 Zn2 Fe6 Rh12'
_cell_volume   328.03626517
_cell_formula_units_Z   2
loop_
 _symmetry_equiv_pos_site_id
 _symmetry_equiv_pos_as_xyz
  1  'x, y, z'
loop_
 _atom_site_type_symbol
 _atom_site_label
 _atom_site_symmetry_multiplicity
 _atom_site_fract_x
 _atom_site_fract_y
 _atom_site_fract_z
 _atom_site_occupancy
  Al  Al0  1  0.999772  0.000000  0.332647  1
  Al  Al1  1  0.500000  0.500001  0.499781  1
  Al  Al2  1  0.000228  0.000000  0.666927  1
  Al  Al3  1  0.500269  0.500001  0.834001  1
  Zn  Zn4  1  0.000001  0.000000  0.000260  1
  Zn  Zn5  1  0.499704  0.500001  0.166427  1
  Fe  Fe6  1  0.000003  0.500001  0.001134  1
  Fe  Fe7  1  0.499589  0.000000  0.165575  1
  Fe  Fe8  1  0.999591  0.500001  0.331617  1
  Fe  Fe9  1  0.499999  0.000000  0.499477  1
  Fe  Fe10  1  0.000408  0.500001  0.667152  1
  Fe  Fe11  1  0.500409  0.000000  0.835040  1
  Rh  Rh12  1  0.500009  0.251041  0.998653  1
  Rh  Rh13  1  0.500009  0.748958  0.998653  1
  Rh  Rh14  1  0.999616  0.248950  0.168032  1
  Rh  Rh15  1  0.999616  0.751052  0.168032  1
  Rh  Rh16  1  0.499622  0.248398  0.335092  1
  Rh  Rh17  1  0.499622  0.751602  0.335092  1
  Rh  Rh18  1  0.000001  0.250433  0.500378  1
  Rh  Rh19  1  0.000001  0.749569  0.500378  1
  Rh  Rh20  1  0.500370  0.249516  0.666263  1
  Rh  Rh21  1  0.500370  0.750484  0.666263  1
  Rh  Rh22  1  0.000396  0.251621  0.831562  1
  Rh  Rh23  1  0.000396  0.748381  0.831562  1
