# generated using pymatgen
data_Dy19Ho(Bi2Pt)4
_symmetry_space_group_name_H-M   'P 1'
_cell_length_a   8.07504708
_cell_length_b   9.05119302
_cell_length_c   12.39289911
_cell_angle_alpha   89.99494403
_cell_angle_beta   90.01431595
_cell_angle_gamma   89.99339026
_symmetry_Int_Tables_number   1
_chemical_formula_structural   Dy19Ho(Bi2Pt)4
_chemical_formula_sum   'Dy19 Ho1 Bi8 Pt4'
_cell_volume   905.78220758
_cell_formula_units_Z   1
loop_
 _symmetry_equiv_pos_site_id
 _symmetry_equiv_pos_as_xyz
  1  'x, y, z'
loop_
 _atom_site_type_symbol
 _atom_site_label
 _atom_site_symmetry_multiplicity
 _atom_site_fract_x
 _atom_site_fract_y
 _atom_site_fract_z
 _atom_site_occupancy
  Dy  Dy0  1  0.165832  0.749979  0.210658  1
  Dy  Dy1  1  0.334297  0.749928  0.710611  1
  Dy  Dy2  1  0.834140  0.250030  0.789297  1
  Dy  Dy3  1  0.665788  0.250005  0.289411  1
  Dy  Dy4  1  0.453112  0.749995  0.999875  1
  Dy  Dy5  1  0.046824  0.749928  0.499892  1
  Dy  Dy6  1  0.546903  0.249995  0.000128  1
  Dy  Dy7  1  0.952914  0.250082  0.500152  1
  Dy  Dy8  1  0.628059  0.749907  0.303361  1
  Dy  Dy9  1  0.871948  0.749969  0.803206  1
  Dy  Dy10  1  0.372083  0.250022  0.696663  1
  Dy  Dy11  1  0.128033  0.250009  0.196721  1
  Dy  Dy12  1  0.821803  0.548028  0.066557  1
  Dy  Dy13  1  0.678144  0.951892  0.566546  1
  Dy  Dy14  1  0.178185  0.048039  0.933453  1
  Dy  Dy15  1  0.321993  0.451989  0.433535  1
  Dy  Dy16  1  0.178190  0.451952  0.933447  1
  Dy  Dy17  1  0.321827  0.048015  0.433480  1
  Dy  Dy18  1  0.821817  0.951963  0.066552  1
  Ho  Ho19  1  0.677632  0.548073  0.566413  1
  Bi  Bi20  1  0.932327  0.509373  0.326800  1
  Bi  Bi21  1  0.567730  0.990644  0.826792  1
  Bi  Bi22  1  0.067729  0.009335  0.673204  1
  Bi  Bi23  1  0.432283  0.490652  0.173206  1
  Bi  Bi24  1  0.067558  0.490668  0.673151  1
  Bi  Bi25  1  0.432282  0.009346  0.173227  1
  Bi  Bi26  1  0.932281  0.990635  0.326796  1
  Bi  Bi27  1  0.567779  0.509378  0.826704  1
  Pt  Pt28  1  0.418858  0.749777  0.487649  1
  Pt  Pt29  1  0.081459  0.750007  0.987536  1
  Pt  Pt30  1  0.581654  0.250380  0.512509  1
  Pt  Pt31  1  0.918535  0.250004  0.012468  1
