# generated using pymatgen
data_Tb3HoAl4(Ga7Ir3)2
_symmetry_space_group_name_H-M   'P 1'
_cell_length_a   7.57033362
_cell_length_b   7.57165702
_cell_length_c   9.51241000
_cell_angle_alpha   90.00000000
_cell_angle_beta   90.00000000
_cell_angle_gamma   119.70039753
_symmetry_Int_Tables_number   1
_chemical_formula_structural   Tb3HoAl4(Ga7Ir3)2
_chemical_formula_sum   'Tb3 Ho1 Al4 Ga14 Ir6'
_cell_volume   473.62037336
_cell_formula_units_Z   1
loop_
 _symmetry_equiv_pos_site_id
 _symmetry_equiv_pos_as_xyz
  1  'x, y, z'
loop_
 _atom_site_type_symbol
 _atom_site_label
 _atom_site_symmetry_multiplicity
 _atom_site_fract_x
 _atom_site_fract_y
 _atom_site_fract_z
 _atom_site_occupancy
  Tb  Tb0  1  0.000316  0.669464  0.250000  1
  Tb  Tb1  1  0.999721  0.330571  0.750000  1
  Tb  Tb2  1  0.669448  0.000324  0.250000  1
  Ho  Ho3  1  0.330496  0.999507  0.750000  1
  Al  Al4  1  0.332022  0.331751  0.554096  1
  Al  Al5  1  0.667966  0.667969  0.446218  1
  Al  Al6  1  0.667966  0.667969  0.053782  1
  Al  Al7  1  0.332022  0.331751  0.945904  1
  Ga  Ga8  1  0.126438  0.126424  0.250000  1
  Ga  Ga9  1  0.873902  0.873723  0.750000  1
  Ga  Ga10  1  0.000524  0.334942  0.079510  1
  Ga  Ga11  1  0.999836  0.665424  0.920276  1
  Ga  Ga12  1  0.999836  0.665424  0.579724  1
  Ga  Ga13  1  0.334937  0.000473  0.420722  1
  Ga  Ga14  1  0.000524  0.334942  0.420490  1
  Ga  Ga15  1  0.664679  0.999494  0.579740  1
  Ga  Ga16  1  0.664679  0.999494  0.920260  1
  Ga  Ga17  1  0.334937  0.000473  0.079278  1
  Ga  Ga18  1  0.346437  0.549263  0.250000  1
  Ga  Ga19  1  0.653320  0.450422  0.750000  1
  Ga  Ga20  1  0.549194  0.346397  0.250000  1
  Ga  Ga21  1  0.450721  0.653783  0.750000  1
  Ir  Ir22  1  0.669401  0.330460  0.999888  1
  Ir  Ir23  1  0.330493  0.669510  0.999895  1
  Ir  Ir24  1  0.330493  0.669510  0.500105  1
  Ir  Ir25  1  0.669401  0.330460  0.500112  1
  Ir  Ir26  1  0.000146  0.000039  0.999856  1
  Ir  Ir27  1  0.000146  0.000039  0.500144  1
