# generated using pymatgen
data_ErTm5Mg2(Co4P3)4
_symmetry_space_group_name_H-M   'P 1'
_cell_length_a   3.70792200
_cell_length_b   10.57800000
_cell_length_c   12.20708100
_cell_angle_alpha   90.00000000
_cell_angle_beta   90.00000000
_cell_angle_gamma   90.00000000
_symmetry_Int_Tables_number   1
_chemical_formula_structural   ErTm5Mg2(Co4P3)4
_chemical_formula_sum   'Er1 Tm5 Mg2 Co16 P12'
_cell_volume   478.79100058
_cell_formula_units_Z   1
loop_
 _symmetry_equiv_pos_site_id
 _symmetry_equiv_pos_as_xyz
  1  'x, y, z'
loop_
 _atom_site_type_symbol
 _atom_site_label
 _atom_site_symmetry_multiplicity
 _atom_site_fract_x
 _atom_site_fract_y
 _atom_site_fract_z
 _atom_site_occupancy
  Er  Er0  1  0.000000  0.500000  0.526002  1
  Tm  Tm1  1  0.500000  0.000000  0.473537  1
  Tm  Tm2  1  0.500000  0.822749  0.206650  1
  Tm  Tm3  1  0.500000  0.177251  0.206650  1
  Tm  Tm4  1  0.000000  0.677257  0.793747  1
  Tm  Tm5  1  0.000000  0.322743  0.793747  1
  Mg  Mg6  1  0.500000  0.500000  0.156316  1
  Mg  Mg7  1  0.000000  0.000000  0.842177  1
  Co  Co8  1  0.500000  0.500000  0.705435  1
  Co  Co9  1  0.000000  0.000000  0.295222  1
  Co  Co10  1  0.000000  0.500000  0.988772  1
  Co  Co11  1  0.500000  0.000000  0.011564  1
  Co  Co12  1  0.500000  0.332307  0.996768  1
  Co  Co13  1  0.500000  0.667693  0.996768  1
  Co  Co14  1  0.000000  0.167359  0.003377  1
  Co  Co15  1  0.000000  0.832641  0.003377  1
  Co  Co16  1  0.500000  0.296261  0.432200  1
  Co  Co17  1  0.500000  0.703739  0.432200  1
  Co  Co18  1  0.000000  0.203421  0.567881  1
  Co  Co19  1  0.000000  0.796579  0.567881  1
  Co  Co20  1  0.500000  0.877127  0.705542  1
  Co  Co21  1  0.500000  0.122873  0.705542  1
  Co  Co22  1  0.000000  0.622996  0.294356  1
  Co  Co23  1  0.000000  0.377004  0.294356  1
  P  P24  1  0.500000  0.500000  0.884760  1
  P  P25  1  0.000000  0.000000  0.115648  1
  P  P26  1  0.500000  0.500000  0.356158  1
  P  P27  1  0.000000  0.000000  0.642717  1
  P  P28  1  0.500000  0.310726  0.616171  1
  P  P29  1  0.500000  0.689274  0.616171  1
  P  P30  1  0.000000  0.189143  0.384106  1
  P  P31  1  0.000000  0.810857  0.384106  1
  P  P32  1  0.500000  0.838258  0.891862  1
  P  P33  1  0.500000  0.161742  0.891862  1
  P  P34  1  0.000000  0.662098  0.108186  1
  P  P35  1  0.000000  0.337902  0.108186  1
