# generated using pymatgen
data_Ta12Al9Re3C4
_symmetry_space_group_name_H-M   'P 1'
_cell_length_a   8.31119387
_cell_length_b   8.31119493
_cell_length_c   8.31119434
_cell_angle_alpha   60.46058406
_cell_angle_beta   60.46058348
_cell_angle_gamma   60.46058471
_symmetry_Int_Tables_number   1
_chemical_formula_structural   Ta12Al9Re3C4
_chemical_formula_sum   'Ta12 Al9 Re3 C4'
_cell_volume   410.17930242
_cell_formula_units_Z   1
loop_
 _symmetry_equiv_pos_site_id
 _symmetry_equiv_pos_as_xyz
  1  'x, y, z'
loop_
 _atom_site_type_symbol
 _atom_site_label
 _atom_site_symmetry_multiplicity
 _atom_site_fract_x
 _atom_site_fract_y
 _atom_site_fract_z
 _atom_site_occupancy
  Ta  Ta0  1  0.190770  0.808771  0.190770  1
  Ta  Ta1  1  0.807358  0.190366  0.807358  1
  Ta  Ta2  1  0.059230  0.441229  0.059230  1
  Ta  Ta3  1  0.059634  0.442642  0.442642  1
  Ta  Ta4  1  0.441229  0.059230  0.059230  1
  Ta  Ta5  1  0.442642  0.059634  0.442642  1
  Ta  Ta6  1  0.807358  0.807358  0.190366  1
  Ta  Ta7  1  0.059230  0.059230  0.441229  1
  Ta  Ta8  1  0.190770  0.190770  0.808771  1
  Ta  Ta9  1  0.190366  0.807358  0.807358  1
  Ta  Ta10  1  0.442642  0.442642  0.059634  1
  Ta  Ta11  1  0.808771  0.190770  0.190770  1
  Al  Al12  1  0.625000  0.625000  0.625000  1
  Al  Al13  1  0.837813  0.837813  0.493485  1
  Al  Al14  1  0.493485  0.837813  0.837813  1
  Al  Al15  1  0.412187  0.756515  0.412187  1
  Al  Al16  1  0.756515  0.412187  0.412187  1
  Al  Al17  1  0.415583  0.415583  0.415583  1
  Al  Al18  1  0.412187  0.412187  0.756515  1
  Al  Al19  1  0.837813  0.493485  0.837813  1
  Al  Al20  1  0.834417  0.834417  0.834417  1
  Re  Re21  1  0.125000  0.625000  0.625000  1
  Re  Re22  1  0.625000  0.625000  0.125000  1
  Re  Re23  1  0.625000  0.125000  0.625000  1
  C  C24  1  0.125000  0.125000  0.125000  1
  C  C25  1  0.125000  0.125000  0.625000  1
  C  C26  1  0.625000  0.125000  0.125000  1
  C  C27  1  0.125000  0.625000  0.125000  1
