# generated using pymatgen
data_Nb12Co12CN
_symmetry_space_group_name_H-M   'P 1'
_cell_length_a   7.89761766
_cell_length_b   7.89761744
_cell_length_c   7.89761800
_cell_angle_alpha   60.00000603
_cell_angle_beta   60.00000695
_cell_angle_gamma   60.00000372
_symmetry_Int_Tables_number   1
_chemical_formula_structural   Nb12Co12CN
_chemical_formula_sum   'Nb12 Co12 C1 N1'
_cell_volume   348.31596277
_cell_formula_units_Z   1
loop_
 _symmetry_equiv_pos_site_id
 _symmetry_equiv_pos_as_xyz
  1  'x, y, z'
loop_
 _atom_site_type_symbol
 _atom_site_label
 _atom_site_symmetry_multiplicity
 _atom_site_fract_x
 _atom_site_fract_y
 _atom_site_fract_z
 _atom_site_occupancy
  Nb  Nb0  1  0.052019  0.052019  0.447981  1
  Nb  Nb1  1  0.447981  0.052019  0.447981  1
  Nb  Nb2  1  0.052019  0.447981  0.447981  1
  Nb  Nb3  1  0.447981  0.447981  0.052019  1
  Nb  Nb4  1  0.052019  0.447981  0.052019  1
  Nb  Nb5  1  0.447981  0.052019  0.052019  1
  Nb  Nb6  1  0.198542  0.198542  0.801458  1
  Nb  Nb7  1  0.801458  0.198542  0.801458  1
  Nb  Nb8  1  0.198542  0.801458  0.801458  1
  Nb  Nb9  1  0.801458  0.801458  0.198542  1
  Nb  Nb10  1  0.198542  0.801458  0.198542  1
  Nb  Nb11  1  0.801458  0.198542  0.198542  1
  Co  Co12  1  0.420955  0.420955  0.737136  1
  Co  Co13  1  0.420955  0.737136  0.420955  1
  Co  Co14  1  0.737136  0.420955  0.420955  1
  Co  Co15  1  0.420955  0.420955  0.420955  1
  Co  Co16  1  0.829194  0.829194  0.512416  1
  Co  Co17  1  0.829194  0.512416  0.829194  1
  Co  Co18  1  0.512416  0.829194  0.829194  1
  Co  Co19  1  0.829194  0.829194  0.829194  1
  Co  Co20  1  0.624933  0.624933  0.125202  1
  Co  Co21  1  0.624933  0.125202  0.624933  1
  Co  Co22  1  0.125202  0.624933  0.624933  1
  Co  Co23  1  0.624933  0.624933  0.624933  1
  C  C24  1  0.000000  0.000000  0.000000  1
  N  N25  1  0.250000  0.250000  0.250000  1
