# generated using pymatgen
data_Li3DyNi9MoP7
_symmetry_space_group_name_H-M   'P 1'
_cell_length_a   9.13100217
_cell_length_b   9.09984563
_cell_length_c   3.66120100
_cell_angle_alpha   90.00000000
_cell_angle_beta   90.00000000
_cell_angle_gamma   119.56476572
_symmetry_Int_Tables_number   1
_chemical_formula_structural   Li3DyNi9MoP7
_chemical_formula_sum   'Li3 Dy1 Ni9 Mo1 P7'
_cell_volume   264.60296489
_cell_formula_units_Z   1
loop_
 _symmetry_equiv_pos_site_id
 _symmetry_equiv_pos_as_xyz
  1  'x, y, z'
loop_
 _atom_site_type_symbol
 _atom_site_label
 _atom_site_symmetry_multiplicity
 _atom_site_fract_x
 _atom_site_fract_y
 _atom_site_fract_z
 _atom_site_occupancy
  Li  Li0  1  0.894657  0.118039  0.500000  1
  Li  Li1  1  0.220142  0.104338  0.500000  1
  Li  Li2  1  0.663804  0.331861  0.500000  1
  Dy  Dy3  1  0.332697  0.664272  0.000000  1
  Ni  Ni4  1  0.717169  0.883524  0.000000  1
  Ni  Ni5  1  0.162729  0.280186  0.000000  1
  Ni  Ni6  1  0.126190  0.839564  0.000000  1
  Ni  Ni7  1  0.628891  0.567411  0.000000  1
  Ni  Ni8  1  0.937455  0.367244  0.000000  1
  Ni  Ni9  1  0.430552  0.059656  0.000000  1
  Ni  Ni10  1  0.566495  0.956787  0.500000  1
  Ni  Ni11  1  0.390332  0.433507  0.500000  1
  Ni  Ni12  1  0.047202  0.609674  0.500000  1
  Mo  Mo13  1  0.882721  0.785504  0.500000  1
  P  P14  1  0.593844  0.711467  0.500000  1
  P  P15  1  0.119335  0.406649  0.500000  1
  P  P16  1  0.287823  0.879367  0.500000  1
  P  P17  1  0.000282  0.998685  0.000000  1
  P  P18  1  0.880339  0.578578  0.000000  1
  P  P19  1  0.695712  0.122086  0.000000  1
  P  P20  1  0.421632  0.301600  0.000000  1
