# generated using pymatgen
data_Tm2Lu2CuPt3
_symmetry_space_group_name_H-M   'P 1'
_cell_length_a   4.43397000
_cell_length_b   5.53787244
_cell_length_c   6.86168399
_cell_angle_alpha   90.52332690
_cell_angle_beta   90.00000000
_cell_angle_gamma   90.00000000
_symmetry_Int_Tables_number   1
_chemical_formula_structural   Tm2Lu2CuPt3
_chemical_formula_sum   'Tm2 Lu2 Cu1 Pt3'
_cell_volume   168.47997729
_cell_formula_units_Z   1
loop_
 _symmetry_equiv_pos_site_id
 _symmetry_equiv_pos_as_xyz
  1  'x, y, z'
loop_
 _atom_site_type_symbol
 _atom_site_label
 _atom_site_symmetry_multiplicity
 _atom_site_fract_x
 _atom_site_fract_y
 _atom_site_fract_z
 _atom_site_occupancy
  Tm  Tm0  1  0.250000  0.642754  0.182038  1
  Tm  Tm1  1  0.750000  0.363281  0.813679  1
  Lu  Lu2  1  0.750000  0.138678  0.325406  1
  Lu  Lu3  1  0.250000  0.855479  0.679237  1
  Cu  Cu4  1  0.250000  0.141240  0.036385  1
  Pt  Pt5  1  0.750000  0.864442  0.965653  1
  Pt  Pt6  1  0.750000  0.657139  0.454580  1
  Pt  Pt7  1  0.250000  0.336986  0.543020  1
