# generated using pymatgen
data_Er15Tm5Ir5Rh7
_symmetry_space_group_name_H-M   'P 1'
_cell_length_a   10.77384610
_cell_length_b   10.77339940
_cell_length_c   6.31606602
_cell_angle_alpha   90.00233857
_cell_angle_beta   89.99623926
_cell_angle_gamma   90.06495163
_symmetry_Int_Tables_number   1
_chemical_formula_structural   Er15Tm5Ir5Rh7
_chemical_formula_sum   'Er15 Tm5 Ir5 Rh7'
_cell_volume   733.11129130
_cell_formula_units_Z   1
loop_
 _symmetry_equiv_pos_site_id
 _symmetry_equiv_pos_as_xyz
  1  'x, y, z'
loop_
 _atom_site_type_symbol
 _atom_site_label
 _atom_site_symmetry_multiplicity
 _atom_site_fract_x
 _atom_site_fract_y
 _atom_site_fract_z
 _atom_site_occupancy
  Er  Er0  1  0.290551  0.087970  0.376751  1
  Er  Er1  1  0.290500  0.910435  0.878035  1
  Er  Er2  1  0.708880  0.089314  0.877659  1
  Er  Er3  1  0.708712  0.910648  0.377108  1
  Er  Er4  1  0.587140  0.789963  0.878005  1
  Er  Er5  1  0.587039  0.210039  0.377849  1
  Er  Er6  1  0.411594  0.790176  0.377892  1
  Er  Er7  1  0.412800  0.209970  0.877844  1
  Er  Er8  1  0.209996  0.412797  0.621982  1
  Er  Er9  1  0.209779  0.588307  0.122068  1
  Er  Er10  1  0.790037  0.412933  0.122141  1
  Er  Er11  1  0.790042  0.587183  0.622167  1
  Er  Er12  1  0.912095  0.709381  0.123175  1
  Er  Er13  1  0.910736  0.291130  0.622314  1
  Er  Er14  1  0.089556  0.709499  0.621939  1
  Tm  Tm15  1  0.089439  0.291471  0.122847  1
  Tm  Tm16  1  0.000231  0.999780  0.499978  1
  Tm  Tm17  1  0.000258  0.999842  0.000026  1
  Tm  Tm18  1  0.499918  0.499822  0.000084  1
  Tm  Tm19  1  0.500157  0.500078  0.499931  1
  Ir  Ir20  1  0.153092  0.846898  0.249996  1
  Ir  Ir21  1  0.654433  0.345571  0.750002  1
  Ir  Ir22  1  0.654523  0.654367  0.249875  1
  Ir  Ir23  1  0.345420  0.345415  0.250010  1
  Ir  Ir24  1  0.346240  0.653761  0.750011  1
  Rh  Rh25  1  0.847050  0.153178  0.249899  1
  Rh  Rh26  1  0.846141  0.846935  0.749910  1
  Rh  Rh27  1  0.152963  0.153998  0.750459  1
  Rh  Rh28  1  0.500522  0.000253  0.122812  1
  Rh  Rh29  1  0.500486  0.000257  0.623302  1
  Rh  Rh30  1  0.999846  0.499350  0.876899  1
  Rh  Rh31  1  0.999824  0.499281  0.377028  1
