# generated using pymatgen
data_SmErFe3Tc14C3
_symmetry_space_group_name_H-M   'P 1'
_cell_length_a   6.89618313
_cell_length_b   6.89618381
_cell_length_c   6.89618240
_cell_angle_alpha   82.59238958
_cell_angle_beta   82.59239222
_cell_angle_gamma   82.59238566
_symmetry_Int_Tables_number   1
_chemical_formula_structural   SmErFe3Tc14C3
_chemical_formula_sum   'Sm1 Er1 Fe3 Tc14 C3'
_cell_volume   320.40255839
_cell_formula_units_Z   1
loop_
 _symmetry_equiv_pos_site_id
 _symmetry_equiv_pos_as_xyz
  1  'x, y, z'
loop_
 _atom_site_type_symbol
 _atom_site_label
 _atom_site_symmetry_multiplicity
 _atom_site_fract_x
 _atom_site_fract_y
 _atom_site_fract_z
 _atom_site_occupancy
  Sm  Sm0  1  0.650983  0.650983  0.650983  1
  Er  Er1  1  0.347785  0.347785  0.347785  1
  Fe  Fe2  1  0.999914  0.999914  0.500034  1
  Fe  Fe3  1  0.500034  0.999914  0.999914  1
  Fe  Fe4  1  0.999914  0.500034  0.999914  1
  Tc  Tc5  1  0.724107  0.275521  0.000479  1
  Tc  Tc6  1  0.000479  0.724107  0.275521  1
  Tc  Tc7  1  0.275521  0.000479  0.724107  1
  Tc  Tc8  1  0.000479  0.275521  0.724107  1
  Tc  Tc9  1  0.724107  0.000479  0.275521  1
  Tc  Tc10  1  0.275521  0.724107  0.000479  1
  Tc  Tc11  1  0.347510  0.862506  0.347510  1
  Tc  Tc12  1  0.347510  0.347510  0.862506  1
  Tc  Tc13  1  0.862506  0.347510  0.347510  1
  Tc  Tc14  1  0.651369  0.139957  0.651369  1
  Tc  Tc15  1  0.651369  0.651369  0.139957  1
  Tc  Tc16  1  0.139957  0.651369  0.651369  1
  Tc  Tc17  1  0.899619  0.899619  0.899619  1
  Tc  Tc18  1  0.101129  0.101129  0.101129  1
  C  C19  1  0.497494  0.497494  0.005200  1
  C  C20  1  0.005200  0.497494  0.497494  1
  C  C21  1  0.497494  0.005200  0.497494  1
