# generated using pymatgen
data_Ho16In4NiIrRh2
_symmetry_space_group_name_H-M   'P 1'
_cell_length_a   9.59402345
_cell_length_b   9.59041206
_cell_length_c   9.61148355
_cell_angle_alpha   60.07249221
_cell_angle_beta   60.03371984
_cell_angle_gamma   60.01245573
_symmetry_Int_Tables_number   1
_chemical_formula_structural   Ho16In4NiIrRh2
_chemical_formula_sum   'Ho16 In4 Ni1 Ir1 Rh2'
_cell_volume   625.89638677
_cell_formula_units_Z   1
loop_
 _symmetry_equiv_pos_site_id
 _symmetry_equiv_pos_as_xyz
  1  'x, y, z'
loop_
 _atom_site_type_symbol
 _atom_site_label
 _atom_site_symmetry_multiplicity
 _atom_site_fract_x
 _atom_site_fract_y
 _atom_site_fract_z
 _atom_site_occupancy
  Ho  Ho0  1  0.438012  0.436416  0.062718  1
  Ho  Ho1  1  0.647772  0.652812  0.046606  1
  Ho  Ho2  1  0.190537  0.810473  0.188515  1
  Ho  Ho3  1  0.060134  0.439315  0.061236  1
  Ho  Ho4  1  0.191182  0.810675  0.810534  1
  Ho  Ho5  1  0.059421  0.441027  0.438778  1
  Ho  Ho6  1  0.810877  0.188784  0.190499  1
  Ho  Ho7  1  0.648769  0.653668  0.652181  1
  Ho  Ho8  1  0.811216  0.189434  0.809915  1
  Ho  Ho9  1  0.191182  0.187609  0.810534  1
  Ho  Ho10  1  0.050481  0.650411  0.648696  1
  Ho  Ho11  1  0.438012  0.062854  0.062718  1
  Ho  Ho12  1  0.059421  0.060774  0.438778  1
  Ho  Ho13  1  0.648769  0.045384  0.652181  1
  Ho  Ho14  1  0.810877  0.809840  0.190499  1
  Ho  Ho15  1  0.439501  0.062337  0.435824  1
  In  In16  1  0.418566  0.415914  0.416085  1
  In  In17  1  0.418681  0.416204  0.748912  1
  In  In18  1  0.418566  0.749436  0.416085  1
  In  In19  1  0.747047  0.417703  0.417549  1
  Ni  Ni20  1  0.424716  0.858200  0.858884  1
  Ir  Ir21  1  0.858718  0.857426  0.426429  1
  Rh  Rh22  1  0.858771  0.857522  0.857922  1
  Rh  Rh23  1  0.858771  0.425783  0.857922  1
