# generated using pymatgen
data_DyLu15(In3Tc)2
_symmetry_space_group_name_H-M   'P 1'
_cell_length_a   10.21457700
_cell_length_b   10.21457847
_cell_length_c   6.94547700
_cell_angle_alpha   90.00000000
_cell_angle_beta   90.00000000
_cell_angle_gamma   120.00000496
_symmetry_Int_Tables_number   1
_chemical_formula_structural   DyLu15(In3Tc)2
_chemical_formula_sum   'Dy1 Lu15 In6 Tc2'
_cell_volume   627.58639907
_cell_formula_units_Z   1
loop_
 _symmetry_equiv_pos_site_id
 _symmetry_equiv_pos_as_xyz
  1  'x, y, z'
loop_
 _atom_site_type_symbol
 _atom_site_label
 _atom_site_symmetry_multiplicity
 _atom_site_fract_x
 _atom_site_fract_y
 _atom_site_fract_z
 _atom_site_occupancy
  Dy  Dy0  1  0.000000  0.000000  0.997921  1
  Lu  Lu1  1  0.531272  0.062545  0.517333  1
  Lu  Lu2  1  0.937455  0.468728  0.517333  1
  Lu  Lu3  1  0.531272  0.468728  0.517333  1
  Lu  Lu4  1  0.468513  0.937026  0.017025  1
  Lu  Lu5  1  0.062974  0.531487  0.017025  1
  Lu  Lu6  1  0.468513  0.531487  0.017025  1
  Lu  Lu7  1  0.177694  0.355389  0.718350  1
  Lu  Lu8  1  0.644611  0.822306  0.718350  1
  Lu  Lu9  1  0.177694  0.822306  0.718350  1
  Lu  Lu10  1  0.822098  0.644198  0.219999  1
  Lu  Lu11  1  0.355802  0.177902  0.219999  1
  Lu  Lu12  1  0.822098  0.177902  0.219999  1
  Lu  Lu13  1  0.666667  0.333333  0.892848  1
  Lu  Lu14  1  0.333333  0.666667  0.395155  1
  Lu  Lu15  1  0.000000  0.000000  0.496621  1
  In  In16  1  0.836139  0.672277  0.758778  1
  In  In17  1  0.327723  0.163861  0.758778  1
  In  In18  1  0.836139  0.163861  0.758778  1
  In  In19  1  0.163806  0.327612  0.261692  1
  In  In20  1  0.672388  0.836194  0.261692  1
  In  In21  1  0.163806  0.836194  0.261692  1
  Tc  Tc22  1  0.666667  0.333333  0.290393  1
  Tc  Tc23  1  0.333333  0.666667  0.791734  1
