# generated using pymatgen
data_Dy3Tm7(InSb)3
_symmetry_space_group_name_H-M   'P 1'
_cell_length_a   6.46446000
_cell_length_b   8.88599164
_cell_length_c   8.88599200
_cell_angle_alpha   59.99683419
_cell_angle_beta   90.00041824
_cell_angle_gamma   89.99958647
_symmetry_Int_Tables_number   1
_chemical_formula_structural   Dy3Tm7(InSb)3
_chemical_formula_sum   'Dy3 Tm7 In3 Sb3'
_cell_volume   442.03926409
_cell_formula_units_Z   1
loop_
 _symmetry_equiv_pos_site_id
 _symmetry_equiv_pos_as_xyz
  1  'x, y, z'
loop_
 _atom_site_type_symbol
 _atom_site_label
 _atom_site_symmetry_multiplicity
 _atom_site_fract_x
 _atom_site_fract_y
 _atom_site_fract_z
 _atom_site_occupancy
  Dy  Dy0  1  0.250036  0.761217  0.238783  1
  Dy  Dy1  1  0.249998  0.238856  0.999958  1
  Dy  Dy2  1  0.249998  0.000042  0.761144  1
  Tm  Tm3  1  0.502789  0.333308  0.333299  1
  Tm  Tm4  1  0.502789  0.666701  0.666692  1
  Tm  Tm5  1  0.997193  0.666634  0.666658  1
  Tm  Tm6  1  0.997193  0.333342  0.333366  1
  Tm  Tm7  1  0.749984  0.237880  0.762120  1
  Tm  Tm8  1  0.750024  0.762148  0.000054  1
  Tm  Tm9  1  0.750024  0.999946  0.237852  1
  In  In10  1  0.749890  0.606329  0.393671  1
  In  In11  1  0.750038  0.393661  0.000015  1
  In  In12  1  0.750038  0.999985  0.606339  1
  Sb  Sb13  1  0.250047  0.396413  0.603587  1
  Sb  Sb14  1  0.249979  0.603606  0.000065  1
  Sb  Sb15  1  0.249979  0.999935  0.396394  1
