# generated using pymatgen
data_Lu7Th(InIr)2
_symmetry_space_group_name_H-M   'P 1'
_cell_length_a   9.55262094
_cell_length_b   9.55262051
_cell_length_c   9.53513100
_cell_angle_alpha   60.06054938
_cell_angle_beta   60.06055084
_cell_angle_gamma   60.39074568
_symmetry_Int_Tables_number   1
_chemical_formula_structural   Lu7Th(InIr)2
_chemical_formula_sum   'Lu14 Th2 In4 Ir4'
_cell_volume   617.62102101
_cell_formula_units_Z   2
loop_
 _symmetry_equiv_pos_site_id
 _symmetry_equiv_pos_as_xyz
  1  'x, y, z'
loop_
 _atom_site_type_symbol
 _atom_site_label
 _atom_site_symmetry_multiplicity
 _atom_site_fract_x
 _atom_site_fract_y
 _atom_site_fract_z
 _atom_site_occupancy
  Lu  Lu0  1  0.606427  0.193200  0.600187  1
  Lu  Lu1  1  0.193200  0.606427  0.600187  1
  Lu  Lu2  1  0.060798  0.442128  0.438725  1
  Lu  Lu3  1  0.442128  0.060798  0.058350  1
  Lu  Lu4  1  0.442128  0.060798  0.438725  1
  Lu  Lu5  1  0.060798  0.442128  0.058350  1
  Lu  Lu6  1  0.435646  0.435646  0.064354  1
  Lu  Lu7  1  0.059120  0.059120  0.440880  1
  Lu  Lu8  1  0.186861  0.816689  0.811431  1
  Lu  Lu9  1  0.816689  0.186861  0.185019  1
  Lu  Lu10  1  0.816689  0.186861  0.811431  1
  Lu  Lu11  1  0.186861  0.816689  0.185019  1
  Lu  Lu12  1  0.814039  0.814039  0.185961  1
  Lu  Lu13  1  0.198428  0.198428  0.801572  1
  Th  Th14  1  0.594881  0.594881  0.601690  1
  Th  Th15  1  0.594881  0.594881  0.208549  1
  In  In16  1  0.835214  0.835214  0.833378  1
  In  In17  1  0.835214  0.835214  0.496193  1
  In  In18  1  0.833923  0.496345  0.834865  1
  In  In19  1  0.496345  0.833923  0.834865  1
  Ir  Ir20  1  0.386122  0.386122  0.403030  1
  Ir  Ir21  1  0.386122  0.386122  0.824725  1
  Ir  Ir22  1  0.390096  0.827385  0.391259  1
  Ir  Ir23  1  0.827385  0.390096  0.391259  1
