# generated using pymatgen
data_Dy3Al27Cr8Re
_symmetry_space_group_name_H-M   'P 1'
_cell_length_a   5.08172321
_cell_length_b   6.87840923
_cell_length_c   19.33898309
_cell_angle_alpha   87.12521444
_cell_angle_beta   97.80323848
_cell_angle_gamma   111.67840879
_symmetry_Int_Tables_number   1
_chemical_formula_structural   Dy3Al27Cr8Re
_chemical_formula_sum   'Dy3 Al27 Cr8 Re1'
_cell_volume   622.35072275
_cell_formula_units_Z   1
loop_
 _symmetry_equiv_pos_site_id
 _symmetry_equiv_pos_as_xyz
  1  'x, y, z'
loop_
 _atom_site_type_symbol
 _atom_site_label
 _atom_site_symmetry_multiplicity
 _atom_site_fract_x
 _atom_site_fract_y
 _atom_site_fract_z
 _atom_site_occupancy
  Dy  Dy0  1  0.333333  0.000000  0.666667  1
  Dy  Dy1  1  0.994244  0.000000  0.999124  1
  Dy  Dy2  1  0.672423  0.000000  0.334209  1
  Al  Al3  1  0.128801  0.350518  0.888347  1
  Al  Al4  1  0.775139  0.353401  0.222432  1
  Al  Al5  1  0.463544  0.350440  0.555991  1
  Al  Al6  1  0.203122  0.649560  0.777343  1
  Al  Al7  1  0.891528  0.646599  0.110901  1
  Al  Al8  1  0.537866  0.649482  0.444986  1
  Al  Al9  1  0.553564  0.350440  0.777343  1
  Al  Al10  1  0.244931  0.353401  0.110901  1
  Al  Al11  1  0.888384  0.350518  0.444986  1
  Al  Al12  1  0.778283  0.649482  0.888347  1
  Al  Al13  1  0.421736  0.646599  0.222432  1
  Al  Al14  1  0.113102  0.649560  0.555991  1
  Al  Al15  1  0.766808  0.775317  0.737777  1
  Al  Al16  1  0.411336  0.775218  0.069770  1
  Al  Al17  1  0.104611  0.775662  0.405514  1
  Al  Al18  1  0.562055  0.224338  0.927820  1
  Al  Al19  1  0.255331  0.224782  0.263563  1
  Al  Al20  1  0.899859  0.224683  0.595556  1
  Al  Al21  1  0.337717  0.775662  0.927820  1
  Al  Al22  1  0.030549  0.775218  0.263563  1
  Al  Al23  1  0.675175  0.775317  0.595556  1
  Al  Al24  1  0.991492  0.224683  0.737777  1
  Al  Al25  1  0.636118  0.224782  0.069770  1
  Al  Al26  1  0.328949  0.224338  0.405514  1
  Al  Al27  1  0.001830  0.000000  0.501120  1
  Al  Al28  1  0.664837  0.000000  0.832213  1
  Al  Al29  1  0.833333  0.000000  0.166667  1
  Cr  Cr30  1  0.500590  0.000000  0.499849  1
  Cr  Cr31  1  0.166077  0.000000  0.833484  1
  Cr  Cr32  1  0.995734  0.486919  0.999385  1
  Cr  Cr33  1  0.670933  0.513081  0.333948  1
  Cr  Cr34  1  0.333333  0.500000  0.666667  1
  Cr  Cr35  1  0.508815  0.513081  0.999385  1
  Cr  Cr36  1  0.157852  0.486919  0.333948  1
  Cr  Cr37  1  0.833333  0.500000  0.666667  1
  Re  Re38  1  0.333333  0.000000  0.166667  1
