# generated using pymatgen
data_LaTb6Sn23Ir6
_symmetry_space_group_name_H-M   'P 1'
_cell_length_a   9.89107100
_cell_length_b   9.89107196
_cell_length_c   10.12167600
_cell_angle_alpha   90.00000000
_cell_angle_beta   90.00000000
_cell_angle_gamma   120.00000682
_symmetry_Int_Tables_number   1
_chemical_formula_structural   LaTb6Sn23Ir6
_chemical_formula_sum   'La1 Tb6 Sn23 Ir6'
_cell_volume   857.57026462
_cell_formula_units_Z   1
loop_
 _symmetry_equiv_pos_site_id
 _symmetry_equiv_pos_as_xyz
  1  'x, y, z'
loop_
 _atom_site_type_symbol
 _atom_site_label
 _atom_site_symmetry_multiplicity
 _atom_site_fract_x
 _atom_site_fract_y
 _atom_site_fract_z
 _atom_site_occupancy
  La  La0  1  0.000000  0.000000  0.000000  1
  Tb  Tb1  1  0.480720  0.519280  0.306198  1
  Tb  Tb2  1  0.519280  0.480720  0.693802  1
  Tb  Tb3  1  0.480720  0.961439  0.306198  1
  Tb  Tb4  1  0.519280  0.038561  0.693802  1
  Tb  Tb5  1  0.038561  0.519280  0.306198  1
  Tb  Tb6  1  0.961439  0.480720  0.693802  1
  Sn  Sn7  1  0.353230  0.000000  0.000000  1
  Sn  Sn8  1  0.646770  0.000000  0.000000  1
  Sn  Sn9  1  0.000000  0.353230  0.000000  1
  Sn  Sn10  1  0.000000  0.646770  0.000000  1
  Sn  Sn11  1  0.646770  0.646770  0.000000  1
  Sn  Sn12  1  0.353230  0.353230  0.000000  1
  Sn  Sn13  1  0.333333  0.666667  0.825607  1
  Sn  Sn14  1  0.666667  0.333333  0.174393  1
  Sn  Sn15  1  0.000000  0.000000  0.500000  1
  Sn  Sn16  1  0.777882  0.222118  0.458457  1
  Sn  Sn17  1  0.222118  0.777882  0.541543  1
  Sn  Sn18  1  0.777882  0.555763  0.458457  1
  Sn  Sn19  1  0.222118  0.444237  0.541543  1
  Sn  Sn20  1  0.444237  0.222118  0.458457  1
  Sn  Sn21  1  0.555763  0.777882  0.541543  1
  Sn  Sn22  1  0.333333  0.666667  0.120018  1
  Sn  Sn23  1  0.666667  0.333333  0.879982  1
  Sn  Sn24  1  0.118557  0.881443  0.284422  1
  Sn  Sn25  1  0.881443  0.118557  0.715578  1
  Sn  Sn26  1  0.118557  0.237115  0.284422  1
  Sn  Sn27  1  0.881443  0.762885  0.715578  1
  Sn  Sn28  1  0.762885  0.881443  0.284422  1
  Sn  Sn29  1  0.237115  0.118557  0.715578  1
  Ir  Ir30  1  0.829946  0.170054  0.200246  1
  Ir  Ir31  1  0.170054  0.829946  0.799754  1
  Ir  Ir32  1  0.829946  0.659892  0.200246  1
  Ir  Ir33  1  0.170054  0.340108  0.799754  1
  Ir  Ir34  1  0.340108  0.170054  0.200246  1
  Ir  Ir35  1  0.659892  0.829946  0.799754  1
