# generated using pymatgen
data_LaYbGa7Cu
_symmetry_space_group_name_H-M   'P 1'
_cell_length_a   6.05094368
_cell_length_b   6.04548786
_cell_length_c   11.58036431
_cell_angle_alpha   74.86921625
_cell_angle_beta   74.85523754
_cell_angle_gamma   89.99999819
_symmetry_Int_Tables_number   1
_chemical_formula_structural   LaYbGa7Cu
_chemical_formula_sum   'La2 Yb2 Ga14 Cu2'
_cell_volume   393.67307678
_cell_formula_units_Z   2
loop_
 _symmetry_equiv_pos_site_id
 _symmetry_equiv_pos_as_xyz
  1  'x, y, z'
loop_
 _atom_site_type_symbol
 _atom_site_label
 _atom_site_symmetry_multiplicity
 _atom_site_fract_x
 _atom_site_fract_y
 _atom_site_fract_z
 _atom_site_occupancy
  La  La0  1  0.751842  0.251842  0.496317  1
  La  La1  1  0.248475  0.748475  0.503051  1
  Yb  Yb2  1  0.998855  0.998855  0.002290  1
  Yb  Yb3  1  0.503860  0.503860  0.992279  1
  Ga  Ga4  1  0.198247  0.198247  0.603508  1
  Ga  Ga5  1  0.809096  0.809096  0.381810  1
  Ga  Ga6  1  0.612638  0.131017  0.249437  1
  Ga  Ga7  1  0.137924  0.619545  0.249437  1
  Ga  Ga8  1  0.612638  0.619545  0.249437  1
  Ga  Ga9  1  0.137924  0.131017  0.249437  1
  Ga  Ga10  1  0.867218  0.360188  0.755274  1
  Ga  Ga11  1  0.377507  0.884536  0.755274  1
  Ga  Ga12  1  0.867218  0.884536  0.755274  1
  Ga  Ga13  1  0.377507  0.360188  0.755274  1
  Ga  Ga14  1  0.693115  0.693115  0.613769  1
  Ga  Ga15  1  0.059263  0.559263  0.881474  1
  Ga  Ga16  1  0.449552  0.949552  0.100894  1
  Ga  Ga17  1  0.943647  0.443647  0.112705  1
  Cu  Cu18  1  0.309098  0.309098  0.381803  1
  Cu  Cu19  1  0.559205  0.059205  0.881590  1
