# generated using pymatgen
data_PrNd3Al4Pt3Rh
_symmetry_space_group_name_H-M   'P 1'
_cell_length_a   4.50458400
_cell_length_b   7.07209187
_cell_length_c   7.95007202
_cell_angle_alpha   90.16486511
_cell_angle_beta   90.00000000
_cell_angle_gamma   90.00000000
_symmetry_Int_Tables_number   1
_chemical_formula_structural   PrNd3Al4Pt3Rh
_chemical_formula_sum   'Pr1 Nd3 Al4 Pt3 Rh1'
_cell_volume   253.26305928
_cell_formula_units_Z   1
loop_
 _symmetry_equiv_pos_site_id
 _symmetry_equiv_pos_as_xyz
  1  'x, y, z'
loop_
 _atom_site_type_symbol
 _atom_site_label
 _atom_site_symmetry_multiplicity
 _atom_site_fract_x
 _atom_site_fract_y
 _atom_site_fract_z
 _atom_site_occupancy
  Pr  Pr0  1  0.750000  0.464048  0.817955  1
  Nd  Nd1  1  0.250000  0.535284  0.179861  1
  Nd  Nd2  1  0.750000  0.968831  0.679855  1
  Nd  Nd3  1  0.250000  0.038300  0.323702  1
  Al  Al4  1  0.250000  0.636886  0.563168  1
  Al  Al5  1  0.750000  0.358903  0.437305  1
  Al  Al6  1  0.750000  0.858576  0.063431  1
  Al  Al7  1  0.250000  0.141646  0.937014  1
  Pt  Pt8  1  0.250000  0.780228  0.882442  1
  Pt  Pt9  1  0.750000  0.220435  0.118682  1
  Pt  Pt10  1  0.750000  0.722643  0.381748  1
  Rh  Rh11  1  0.250000  0.274219  0.614835  1
