# generated using pymatgen
data_Y3Er17(CoBi5)2
_symmetry_space_group_name_H-M   'P 1'
_cell_length_a   8.02041320
_cell_length_b   9.36275000
_cell_length_c   12.05264300
_cell_angle_alpha   90.00000000
_cell_angle_beta   90.04239813
_cell_angle_gamma   90.00000000
_symmetry_Int_Tables_number   1
_chemical_formula_structural   Y3Er17(CoBi5)2
_chemical_formula_sum   'Y3 Er17 Co2 Bi10'
_cell_volume   905.07036331
_cell_formula_units_Z   1
loop_
 _symmetry_equiv_pos_site_id
 _symmetry_equiv_pos_as_xyz
  1  'x, y, z'
loop_
 _atom_site_type_symbol
 _atom_site_label
 _atom_site_symmetry_multiplicity
 _atom_site_fract_x
 _atom_site_fract_y
 _atom_site_fract_z
 _atom_site_occupancy
  Y  Y0  1  0.573801  0.500000  0.772851  1
  Y  Y1  1  0.426052  0.500000  0.273017  1
  Y  Y2  1  0.907905  0.000000  0.201743  1
  Er  Er3  1  0.430275  0.177162  0.563120  1
  Er  Er4  1  0.569187  0.822646  0.062429  1
  Er  Er5  1  0.072054  0.729799  0.436786  1
  Er  Er6  1  0.927949  0.270413  0.936173  1
  Er  Er7  1  0.072054  0.270201  0.436786  1
  Er  Er8  1  0.927949  0.729587  0.936173  1
  Er  Er9  1  0.430275  0.822838  0.563120  1
  Er  Er10  1  0.569187  0.177354  0.062429  1
  Er  Er11  1  0.093109  0.000000  0.700396  1
  Er  Er12  1  0.258838  0.500000  0.993019  1
  Er  Er13  1  0.741510  0.500000  0.493772  1
  Er  Er14  1  0.198194  0.000000  0.995714  1
  Er  Er15  1  0.801936  0.000000  0.496545  1
  Er  Er16  1  0.088884  0.500000  0.718877  1
  Er  Er17  1  0.910846  0.500000  0.219151  1
  Er  Er18  1  0.371298  0.000000  0.308847  1
  Er  Er19  1  0.629694  0.000000  0.808663  1
  Co  Co20  1  0.174158  0.000000  0.488496  1
  Co  Co21  1  0.825352  0.000000  0.987881  1
  Bi  Bi22  1  0.815457  0.742278  0.671225  1
  Bi  Bi23  1  0.185083  0.258114  0.170965  1
  Bi  Bi24  1  0.679691  0.241841  0.325856  1
  Bi  Bi25  1  0.319420  0.758712  0.825237  1
  Bi  Bi26  1  0.679691  0.758159  0.325856  1
  Bi  Bi27  1  0.319420  0.241288  0.825237  1
  Bi  Bi28  1  0.815457  0.257722  0.671225  1
  Bi  Bi29  1  0.185083  0.741886  0.170965  1
  Bi  Bi30  1  0.345814  0.500000  0.528795  1
  Bi  Bi31  1  0.654377  0.500000  0.028650  1
