# generated using pymatgen
data_SrNdFePtO6
_symmetry_space_group_name_H-M   'P 1'
_cell_length_a   5.68354000
_cell_length_b   5.60105932
_cell_length_c   9.69930372
_cell_angle_alpha   54.77910777
_cell_angle_beta   90.00000000
_cell_angle_gamma   90.00000000
_symmetry_Int_Tables_number   1
_chemical_formula_structural   SrNdFePtO6
_chemical_formula_sum   'Sr2 Nd2 Fe2 Pt2 O12'
_cell_volume   252.24175037
_cell_formula_units_Z   2
loop_
 _symmetry_equiv_pos_site_id
 _symmetry_equiv_pos_as_xyz
  1  'x, y, z'
loop_
 _atom_site_type_symbol
 _atom_site_label
 _atom_site_symmetry_multiplicity
 _atom_site_fract_x
 _atom_site_fract_y
 _atom_site_fract_z
 _atom_site_occupancy
  Sr  Sr0  1  0.713778  0.756797  0.749531  1
  Sr  Sr1  1  0.286222  0.756797  0.249531  1
  Nd  Nd2  1  0.198061  0.235106  0.749557  1
  Nd  Nd3  1  0.801939  0.235106  0.249557  1
  Fe  Fe4  1  0.256393  0.499970  0.999276  1
  Fe  Fe5  1  0.743607  0.499970  0.499276  1
  Pt  Pt6  1  0.252284  0.999712  0.500239  1
  Pt  Pt7  1  0.747716  0.999712  0.000239  1
  O  O8  1  0.028593  0.762578  0.455949  1
  O  O9  1  0.543187  0.249775  0.047800  1
  O  O10  1  0.452548  0.842144  0.953687  1
  O  O11  1  0.970412  0.176846  0.543837  1
  O  O12  1  0.456813  0.249775  0.547800  1
  O  O13  1  0.971407  0.762578  0.955949  1
  O  O14  1  0.029588  0.176846  0.043837  1
  O  O15  1  0.547452  0.842144  0.453687  1
  O  O16  1  0.264027  0.652939  0.751819  1
  O  O17  1  0.778153  0.324131  0.748307  1
  O  O18  1  0.221847  0.324131  0.248307  1
  O  O19  1  0.735973  0.652939  0.251819  1
