# generated using pymatgen
data_NaSc6Co4Sn23Ir2
_symmetry_space_group_name_H-M   'P 1'
_cell_length_a   9.62320103
_cell_length_b   9.62320048
_cell_length_c   9.84325401
_cell_angle_alpha   90.26814591
_cell_angle_beta   89.73185302
_cell_angle_gamma   120.11995653
_symmetry_Int_Tables_number   1
_chemical_formula_structural   NaSc6Co4Sn23Ir2
_chemical_formula_sum   'Na1 Sc6 Co4 Sn23 Ir2'
_cell_volume   788.45307878
_cell_formula_units_Z   1
loop_
 _symmetry_equiv_pos_site_id
 _symmetry_equiv_pos_as_xyz
  1  'x, y, z'
loop_
 _atom_site_type_symbol
 _atom_site_label
 _atom_site_symmetry_multiplicity
 _atom_site_fract_x
 _atom_site_fract_y
 _atom_site_fract_z
 _atom_site_occupancy
  Na  Na0  1  0.000000  0.000000  0.000000  1
  Sc  Sc1  1  0.483689  0.516311  0.307729  1
  Sc  Sc2  1  0.516311  0.483689  0.692271  1
  Sc  Sc3  1  0.487096  0.969846  0.305279  1
  Sc  Sc4  1  0.512904  0.030154  0.694721  1
  Sc  Sc5  1  0.030154  0.512904  0.305279  1
  Sc  Sc6  1  0.969846  0.487096  0.694721  1
  Co  Co7  1  0.825815  0.655008  0.204044  1
  Co  Co8  1  0.174185  0.344992  0.795956  1
  Co  Co9  1  0.344992  0.174185  0.204044  1
  Co  Co10  1  0.655008  0.825815  0.795956  1
  Sn  Sn11  1  0.350419  0.004770  0.005791  1
  Sn  Sn12  1  0.649581  0.995230  0.994209  1
  Sn  Sn13  1  0.004770  0.350419  0.994209  1
  Sn  Sn14  1  0.995230  0.649581  0.005791  1
  Sn  Sn15  1  0.654342  0.654342  0.000000  1
  Sn  Sn16  1  0.345658  0.345658  0.000000  1
  Sn  Sn17  1  0.337201  0.662799  0.820560  1
  Sn  Sn18  1  0.662799  0.337201  0.179440  1
  Sn  Sn19  1  0.000000  0.000000  0.500000  1
  Sn  Sn20  1  0.776229  0.223771  0.467254  1
  Sn  Sn21  1  0.223771  0.776229  0.532746  1
  Sn  Sn22  1  0.779121  0.558467  0.456861  1
  Sn  Sn23  1  0.220879  0.441533  0.543139  1
  Sn  Sn24  1  0.441533  0.220879  0.456861  1
  Sn  Sn25  1  0.558467  0.779121  0.543139  1
  Sn  Sn26  1  0.333618  0.666382  0.134957  1
  Sn  Sn27  1  0.666382  0.333618  0.865043  1
  Sn  Sn28  1  0.118733  0.881267  0.272851  1
  Sn  Sn29  1  0.881267  0.118733  0.727149  1
  Sn  Sn30  1  0.126542  0.242196  0.277908  1
  Sn  Sn31  1  0.873458  0.757804  0.722092  1
  Sn  Sn32  1  0.757804  0.873458  0.277908  1
  Sn  Sn33  1  0.242196  0.126542  0.722092  1
  Ir  Ir34  1  0.826964  0.173036  0.204570  1
  Ir  Ir35  1  0.173036  0.826964  0.795430  1
