# generated using pymatgen
data_LaPr5(CI5)2
_symmetry_space_group_name_H-M   'P 1'
_cell_length_a   8.03925576
_cell_length_b   9.83430106
_cell_length_c   9.94336840
_cell_angle_alpha   107.16860320
_cell_angle_beta   97.26956933
_cell_angle_gamma   104.83508777
_symmetry_Int_Tables_number   1
_chemical_formula_structural   LaPr5(CI5)2
_chemical_formula_sum   'La1 Pr5 C2 I10'
_cell_volume   708.46247319
_cell_formula_units_Z   1
loop_
 _symmetry_equiv_pos_site_id
 _symmetry_equiv_pos_as_xyz
  1  'x, y, z'
loop_
 _atom_site_type_symbol
 _atom_site_label
 _atom_site_symmetry_multiplicity
 _atom_site_fract_x
 _atom_site_fract_y
 _atom_site_fract_z
 _atom_site_occupancy
  La  La0  1  0.379347  0.138894  0.185606  1
  Pr  Pr1  1  0.625803  0.864200  0.818095  1
  Pr  Pr2  1  0.028825  0.735264  0.923308  1
  Pr  Pr3  1  0.105096  0.039331  0.777072  1
  Pr  Pr4  1  0.968739  0.263874  0.074943  1
  Pr  Pr5  1  0.892595  0.959152  0.221457  1
  C  C6  1  0.088932  0.030877  0.042179  1
  C  C7  1  0.914802  0.970581  0.959891  1
  I  I8  1  0.185014  0.733129  0.646186  1
  I  I9  1  0.912189  0.631961  0.177689  1
  I  I10  1  0.087372  0.367729  0.821732  1
  I  I11  1  0.744143  0.914078  0.539230  1
  I  I12  1  0.250779  0.084050  0.463472  1
  I  I13  1  0.652125  0.541623  0.725784  1
  I  I14  1  0.457523  0.807789  0.088625  1
  I  I15  1  0.818983  0.267939  0.355763  1
  I  I16  1  0.343714  0.461619  0.273735  1
  I  I17  1  0.544021  0.187910  0.905236  1
