# generated using pymatgen
data_Tm12Tl2Os3
_symmetry_space_group_name_H-M   'P 1'
_cell_length_a   8.35583653
_cell_length_b   8.35583754
_cell_length_c   8.35583701
_cell_angle_alpha   109.37901877
_cell_angle_beta   109.37901459
_cell_angle_gamma   109.65577975
_symmetry_Int_Tables_number   1
_chemical_formula_structural   Tm12Tl2Os3
_chemical_formula_sum   'Tm12 Tl2 Os3'
_cell_volume   449.10164564
_cell_formula_units_Z   1
loop_
 _symmetry_equiv_pos_site_id
 _symmetry_equiv_pos_as_xyz
  1  'x, y, z'
loop_
 _atom_site_type_symbol
 _atom_site_label
 _atom_site_symmetry_multiplicity
 _atom_site_fract_x
 _atom_site_fract_y
 _atom_site_fract_z
 _atom_site_occupancy
  Tm  Tm0  1  0.184371  0.425651  0.241280  1
  Tm  Tm1  1  0.815629  0.574349  0.758720  1
  Tm  Tm2  1  0.184371  0.943092  0.758720  1
  Tm  Tm3  1  0.943092  0.184371  0.758720  1
  Tm  Tm4  1  0.815629  0.056908  0.241280  1
  Tm  Tm5  1  0.056908  0.815629  0.241280  1
  Tm  Tm6  1  0.425651  0.184371  0.241280  1
  Tm  Tm7  1  0.574349  0.815629  0.758720  1
  Tm  Tm8  1  0.318639  0.318639  0.637279  1
  Tm  Tm9  1  0.681361  0.681361  0.362721  1
  Tm  Tm10  1  0.681361  0.318639  0.000000  1
  Tm  Tm11  1  0.318639  0.681361  0.000000  1
  Tl  Tl12  1  0.000000  0.500000  0.500000  1
  Tl  Tl13  1  0.500000  0.000000  0.500000  1
  Os  Os14  1  0.345067  0.345067  0.000000  1
  Os  Os15  1  0.654933  0.654933  0.000000  1
  Os  Os16  1  0.000000  0.000000  0.000000  1
