# generated using pymatgen
data_Y7Er11(TmPt8)2
_symmetry_space_group_name_H-M   'P 1'
_cell_length_a   7.45928520
_cell_length_b   7.53813347
_cell_length_c   14.69642333
_cell_angle_alpha   90.01804869
_cell_angle_beta   90.05595611
_cell_angle_gamma   89.97046715
_symmetry_Int_Tables_number   1
_chemical_formula_structural   Y7Er11(TmPt8)2
_chemical_formula_sum   'Y7 Er11 Tm2 Pt16'
_cell_volume   826.36592712
_cell_formula_units_Z   1
loop_
 _symmetry_equiv_pos_site_id
 _symmetry_equiv_pos_as_xyz
  1  'x, y, z'
loop_
 _atom_site_type_symbol
 _atom_site_label
 _atom_site_symmetry_multiplicity
 _atom_site_fract_x
 _atom_site_fract_y
 _atom_site_fract_z
 _atom_site_occupancy
  Y  Y0  1  0.498773  0.679476  0.093220  1
  Y  Y1  1  0.501358  0.320553  0.592908  1
  Y  Y2  1  0.001262  0.179485  0.906945  1
  Y  Y3  1  0.000855  0.178652  0.592695  1
  Y  Y4  1  0.501368  0.320670  0.906955  1
  Y  Y5  1  0.498788  0.679638  0.407067  1
  Y  Y6  1  0.998755  0.820345  0.092940  1
  Er  Er7  1  0.818929  0.488872  0.749949  1
  Er  Er8  1  0.318845  0.011092  0.750070  1
  Er  Er9  1  0.655835  0.832299  0.622304  1
  Er  Er10  1  0.155924  0.667802  0.877689  1
  Er  Er11  1  0.844183  0.332015  0.377589  1
  Er  Er12  1  0.343983  0.167933  0.122438  1
  Er  Er13  1  0.343679  0.167643  0.377759  1
  Er  Er14  1  0.844131  0.332044  0.122501  1
  Er  Er15  1  0.155433  0.668248  0.622131  1
  Er  Er16  1  0.655944  0.832086  0.877808  1
  Er  Er17  1  0.997779  0.819430  0.406774  1
  Tm  Tm18  1  0.681205  0.988957  0.250197  1
  Tm  Tm19  1  0.181244  0.511229  0.250232  1
  Pt  Pt20  1  0.817529  0.642493  0.251048  1
  Pt  Pt21  1  0.315934  0.858242  0.250476  1
  Pt  Pt22  1  0.683690  0.141718  0.749730  1
  Pt  Pt23  1  0.183760  0.358476  0.749706  1
  Pt  Pt24  1  0.547105  0.385100  0.250200  1
  Pt  Pt25  1  0.046606  0.114419  0.250507  1
  Pt  Pt26  1  0.953064  0.884896  0.749885  1
  Pt  Pt27  1  0.453050  0.615214  0.749826  1
  Pt  Pt28  1  0.817732  0.534157  0.541299  1
  Pt  Pt29  1  0.317557  0.966617  0.958232  1
  Pt  Pt30  1  0.684280  0.032049  0.457842  1
  Pt  Pt31  1  0.182297  0.466849  0.041958  1
  Pt  Pt32  1  0.181907  0.468226  0.457659  1
  Pt  Pt33  1  0.682419  0.033421  0.041906  1
  Pt  Pt34  1  0.317242  0.966285  0.541313  1
  Pt  Pt35  1  0.817559  0.533367  0.958242  1
