# generated using pymatgen
data_Sm2Zn2Co5NiB2
_symmetry_space_group_name_H-M   'P 1'
_cell_length_a   5.15156473
_cell_length_b   5.14096898
_cell_length_c   6.79358600
_cell_angle_alpha   89.99854812
_cell_angle_beta   90.00280127
_cell_angle_gamma   119.73808971
_symmetry_Int_Tables_number   1
_chemical_formula_structural   Sm2Zn2Co5NiB2
_chemical_formula_sum   'Sm2 Zn2 Co5 Ni1 B2'
_cell_volume   156.22624561
_cell_formula_units_Z   1
loop_
 _symmetry_equiv_pos_site_id
 _symmetry_equiv_pos_as_xyz
  1  'x, y, z'
loop_
 _atom_site_type_symbol
 _atom_site_label
 _atom_site_symmetry_multiplicity
 _atom_site_fract_x
 _atom_site_fract_y
 _atom_site_fract_z
 _atom_site_occupancy
  Sm  Sm0  1  0.000019  0.999965  0.993512  1
  Sm  Sm1  1  0.000014  0.999934  0.499053  1
  Zn  Zn2  1  0.332048  0.668057  0.000287  1
  Zn  Zn3  1  0.667957  0.331897  0.000398  1
  Co  Co4  1  0.500058  0.000156  0.298833  1
  Co  Co5  1  0.999805  0.499919  0.298880  1
  Co  Co6  1  0.499999  0.999953  0.703308  1
  Co  Co7  1  0.500033  0.499959  0.701611  1
  Co  Co8  1  0.000028  0.499987  0.703371  1
  Ni  Ni9  1  0.499906  0.500133  0.296225  1
  B  B10  1  0.330349  0.669311  0.502361  1
  B  B11  1  0.669583  0.330730  0.502158  1
