# generated using pymatgen
data_Pr3Nd3Zn4Pd13
_symmetry_space_group_name_H-M   'P 1'
_cell_length_a   8.41454850
_cell_length_b   8.41454813
_cell_length_c   8.41453600
_cell_angle_alpha   109.47118903
_cell_angle_beta   109.47118813
_cell_angle_gamma   109.47125404
_symmetry_Int_Tables_number   1
_chemical_formula_structural   Pr3Nd3Zn4Pd13
_chemical_formula_sum   'Pr3 Nd3 Zn4 Pd13'
_cell_volume   458.63803003
_cell_formula_units_Z   1
loop_
 _symmetry_equiv_pos_site_id
 _symmetry_equiv_pos_as_xyz
  1  'x, y, z'
loop_
 _atom_site_type_symbol
 _atom_site_label
 _atom_site_symmetry_multiplicity
 _atom_site_fract_x
 _atom_site_fract_y
 _atom_site_fract_z
 _atom_site_occupancy
  Pr  Pr0  1  0.697913  0.697913  0.999867  1
  Pr  Pr1  1  0.302087  0.000000  0.301954  1
  Pr  Pr2  1  0.000000  0.302087  0.301954  1
  Nd  Nd3  1  0.302241  0.302241  0.999862  1
  Nd  Nd4  1  0.697759  0.000000  0.697621  1
  Nd  Nd5  1  0.000000  0.697759  0.697621  1
  Zn  Zn6  1  0.000000  0.000000  0.500355  1
  Zn  Zn7  1  0.000000  0.499833  0.999854  1
  Zn  Zn8  1  0.499833  0.000000  0.999854  1
  Zn  Zn9  1  0.500167  0.500167  0.500021  1
  Pd  Pd10  1  0.331080  0.331080  0.662586  1
  Pd  Pd11  1  0.668920  0.000000  0.331506  1
  Pd  Pd12  1  0.000000  0.668920  0.331506  1
  Pd  Pd13  1  0.668542  0.330844  0.999810  1
  Pd  Pd14  1  0.331458  0.662302  0.331268  1
  Pd  Pd15  1  0.000000  0.331220  0.669204  1
  Pd  Pd16  1  0.330844  0.668542  0.999810  1
  Pd  Pd17  1  0.331220  0.000000  0.669204  1
  Pd  Pd18  1  0.662302  0.331458  0.331268  1
  Pd  Pd19  1  0.668780  0.668780  0.337985  1
  Pd  Pd20  1  0.669156  0.337698  0.668966  1
  Pd  Pd21  1  0.337698  0.669156  0.668966  1
  Pd  Pd22  1  0.000000  0.000000  0.998956  1
