# generated using pymatgen
data_Dy3Ga6Ni8Ir
_symmetry_space_group_name_H-M   'P 1'
_cell_length_a   4.10644000
_cell_length_b   8.86798750
_cell_length_c   8.86798823
_cell_angle_alpha   58.35719477
_cell_angle_beta   90.00000000
_cell_angle_gamma   90.00000000
_symmetry_Int_Tables_number   1
_chemical_formula_structural   Dy3Ga6Ni8Ir
_chemical_formula_sum   'Dy3 Ga6 Ni8 Ir1'
_cell_volume   274.92628803
_cell_formula_units_Z   1
loop_
 _symmetry_equiv_pos_site_id
 _symmetry_equiv_pos_as_xyz
  1  'x, y, z'
loop_
 _atom_site_type_symbol
 _atom_site_label
 _atom_site_symmetry_multiplicity
 _atom_site_fract_x
 _atom_site_fract_y
 _atom_site_fract_z
 _atom_site_occupancy
  Dy  Dy0  1  0.500000  0.333918  0.334405  1
  Dy  Dy1  1  0.500000  0.665595  0.666082  1
  Dy  Dy2  1  0.000000  0.985215  0.014785  1
  Ga  Ga3  1  0.000000  0.525349  0.474651  1
  Ga  Ga4  1  0.000000  0.480039  0.988454  1
  Ga  Ga5  1  0.000000  0.011546  0.519961  1
  Ga  Ga6  1  0.500000  0.267315  0.732685  1
  Ga  Ga7  1  0.500000  0.724646  0.993858  1
  Ga  Ga8  1  0.500000  0.006142  0.275354  1
  Ni  Ni9  1  0.000000  0.176523  0.197485  1
  Ni  Ni10  1  0.000000  0.200384  0.632151  1
  Ni  Ni11  1  0.000000  0.609996  0.166224  1
  Ni  Ni12  1  0.000000  0.802515  0.823477  1
  Ni  Ni13  1  0.000000  0.367849  0.799616  1
  Ni  Ni14  1  0.000000  0.833776  0.390004  1
  Ni  Ni15  1  0.500000  0.292251  0.996058  1
  Ni  Ni16  1  0.500000  0.003942  0.707749  1
  Ir  Ir17  1  0.500000  0.712898  0.287102  1
