# generated using pymatgen
data_Ho3Zr8ScSn10
_symmetry_space_group_name_H-M   'P 1'
_cell_length_a   11.06350799
_cell_length_b   11.07909571
_cell_length_c   11.07909600
_cell_angle_alpha   149.01302001
_cell_angle_beta   132.02547031
_cell_angle_gamma   58.22775249
_symmetry_Int_Tables_number   1
_chemical_formula_structural   Ho3Zr8ScSn10
_chemical_formula_sum   'Ho3 Zr8 Sc1 Sn10'
_cell_volume   515.36909921
_cell_formula_units_Z   1
loop_
 _symmetry_equiv_pos_site_id
 _symmetry_equiv_pos_as_xyz
  1  'x, y, z'
loop_
 _atom_site_type_symbol
 _atom_site_label
 _atom_site_symmetry_multiplicity
 _atom_site_fract_x
 _atom_site_fract_y
 _atom_site_fract_z
 _atom_site_occupancy
  Ho  Ho0  1  0.257118  0.143428  0.113690  1
  Ho  Ho1  1  0.745047  0.857074  0.887973  1
  Ho  Ho2  1  0.029697  0.643123  0.386575  1
  Zr  Zr3  1  0.311730  0.561067  0.250683  1
  Zr  Zr4  1  0.689518  0.439249  0.750335  1
  Zr  Zr5  1  0.689518  0.939184  0.250269  1
  Zr  Zr6  1  0.311730  0.061047  0.750662  1
  Zr  Zr7  1  0.673851  0.435794  0.238057  1
  Zr  Zr8  1  0.325467  0.564323  0.761143  1
  Zr  Zr9  1  0.195286  0.935433  0.259853  1
  Zr  Zr10  1  0.804088  0.064358  0.739730  1
  Sc  Sc11  1  0.969766  0.356720  0.613047  1
  Sn  Sn12  1  0.594413  0.290189  0.304223  1
  Sn  Sn13  1  0.412045  0.711110  0.700936  1
  Sn  Sn14  1  0.989397  0.789227  0.200170  1
  Sn  Sn15  1  0.010454  0.212138  0.798316  1
  Sn  Sn16  1  0.999632  0.250162  0.251589  1
  Sn  Sn17  1  0.999632  0.748043  0.749470  1
  Sn  Sn18  1  0.467669  0.066361  0.401306  1
  Sn  Sn19  1  0.532525  0.933627  0.598899  1
  Sn  Sn20  1  0.664544  0.566374  0.098170  1
  Sn  Sn21  1  0.326873  0.431969  0.894905  1
