# generated using pymatgen
data_Li6CaPu2N6
_symmetry_space_group_name_H-M   'P 1'
_cell_length_a   6.00162300
_cell_length_b   6.00162277
_cell_length_c   5.44738100
_cell_angle_alpha   90.00000000
_cell_angle_beta   90.00000000
_cell_angle_gamma   119.99999578
_symmetry_Int_Tables_number   1
_chemical_formula_structural   Li6CaPu2N6
_chemical_formula_sum   'Li6 Ca1 Pu2 N6'
_cell_volume   169.92442430
_cell_formula_units_Z   1
loop_
 _symmetry_equiv_pos_site_id
 _symmetry_equiv_pos_as_xyz
  1  'x, y, z'
loop_
 _atom_site_type_symbol
 _atom_site_label
 _atom_site_symmetry_multiplicity
 _atom_site_fract_x
 _atom_site_fract_y
 _atom_site_fract_z
 _atom_site_occupancy
  Li  Li0  1  0.985828  0.659533  0.610093  1
  Li  Li1  1  0.340467  0.326295  0.610093  1
  Li  Li2  1  0.673705  0.014172  0.610093  1
  Li  Li3  1  0.014172  0.340467  0.389907  1
  Li  Li4  1  0.659533  0.673705  0.389907  1
  Li  Li5  1  0.326295  0.985828  0.389907  1
  Ca  Ca6  1  0.000000  0.000000  0.000000  1
  Pu  Pu7  1  0.333333  0.666667  0.994751  1
  Pu  Pu8  1  0.666667  0.333333  0.005249  1
  N  N9  1  0.001822  0.640233  0.223672  1
  N  N10  1  0.359767  0.361589  0.223672  1
  N  N11  1  0.638411  0.998178  0.223672  1
  N  N12  1  0.998178  0.359767  0.776328  1
  N  N13  1  0.640233  0.638411  0.776328  1
  N  N14  1  0.361589  0.001822  0.776328  1
