# generated using pymatgen
data_Er4Tm6(IrPt)3
_symmetry_space_group_name_H-M   'P 1'
_cell_length_a   10.91303279
_cell_length_b   10.90761100
_cell_length_c   6.29507400
_cell_angle_alpha   90.00000000
_cell_angle_beta   90.07191736
_cell_angle_gamma   90.00000000
_symmetry_Int_Tables_number   1
_chemical_formula_structural   Er4Tm6(IrPt)3
_chemical_formula_sum   'Er8 Tm12 Ir6 Pt6'
_cell_volume   749.33427703
_cell_formula_units_Z   2
loop_
 _symmetry_equiv_pos_site_id
 _symmetry_equiv_pos_as_xyz
  1  'x, y, z'
loop_
 _atom_site_type_symbol
 _atom_site_label
 _atom_site_symmetry_multiplicity
 _atom_site_fract_x
 _atom_site_fract_y
 _atom_site_fract_z
 _atom_site_occupancy
  Er  Er0  1  0.295223  0.090431  0.374146  1
  Er  Er1  1  0.295223  0.909569  0.874146  1
  Er  Er2  1  0.704151  0.087064  0.873181  1
  Er  Er3  1  0.704151  0.912936  0.373181  1
  Er  Er4  1  0.583609  0.792287  0.873584  1
  Er  Er5  1  0.583609  0.207713  0.373584  1
  Er  Er6  1  0.410822  0.793293  0.378591  1
  Er  Er7  1  0.410822  0.206707  0.878591  1
  Tm  Tm8  1  0.208861  0.414658  0.622859  1
  Tm  Tm9  1  0.208861  0.585342  0.122859  1
  Tm  Tm10  1  0.796022  0.412868  0.124166  1
  Tm  Tm11  1  0.796022  0.587132  0.624166  1
  Tm  Tm12  1  0.914344  0.703964  0.126033  1
  Tm  Tm13  1  0.914344  0.296036  0.626033  1
  Tm  Tm14  1  0.091261  0.703884  0.626017  1
  Tm  Tm15  1  0.091261  0.296116  0.126017  1
  Tm  Tm16  1  0.999743  0.999643  0.499935  1
  Tm  Tm17  1  0.999743  0.000357  0.999935  1
  Tm  Tm18  1  0.497204  0.498978  0.000133  1
  Tm  Tm19  1  0.497204  0.501022  0.500133  1
  Ir  Ir20  1  0.346242  0.346044  0.250759  1
  Ir  Ir21  1  0.346242  0.653956  0.750759  1
  Ir  Ir22  1  0.500061  0.999801  0.121283  1
  Ir  Ir23  1  0.500061  0.000199  0.621283  1
  Ir  Ir24  1  0.999825  0.500288  0.878773  1
  Ir  Ir25  1  0.999825  0.499712  0.378773  1
  Pt  Pt26  1  0.845667  0.153753  0.251256  1
  Pt  Pt27  1  0.845667  0.846247  0.751256  1
  Pt  Pt28  1  0.151975  0.154224  0.749444  1
  Pt  Pt29  1  0.151975  0.845776  0.249444  1
  Pt  Pt30  1  0.654991  0.347140  0.749839  1
  Pt  Pt31  1  0.654991  0.652860  0.249839  1
