# generated using pymatgen
data_Th2Mn3Ni9As6P
_symmetry_space_group_name_H-M   'P 1'
_cell_length_a   9.45871700
_cell_length_b   9.45871793
_cell_length_c   3.90988700
_cell_angle_alpha   90.00000000
_cell_angle_beta   90.00000000
_cell_angle_gamma   120.00000023
_symmetry_Int_Tables_number   1
_chemical_formula_structural   Th2Mn3Ni9As6P
_chemical_formula_sum   'Th2 Mn3 Ni9 As6 P1'
_cell_volume   302.94189881
_cell_formula_units_Z   1
loop_
 _symmetry_equiv_pos_site_id
 _symmetry_equiv_pos_as_xyz
  1  'x, y, z'
loop_
 _atom_site_type_symbol
 _atom_site_label
 _atom_site_symmetry_multiplicity
 _atom_site_fract_x
 _atom_site_fract_y
 _atom_site_fract_z
 _atom_site_occupancy
  Th  Th0  1  0.333333  0.666667  0.000000  1
  Th  Th1  1  0.000000  0.000000  0.500000  1
  Mn  Mn2  1  0.769409  0.232603  0.500000  1
  Mn  Mn3  1  0.767397  0.536805  0.500000  1
  Mn  Mn4  1  0.463195  0.230591  0.500000  1
  Ni  Ni5  1  0.035552  0.269154  0.000000  1
  Ni  Ni6  1  0.730846  0.766397  0.000000  1
  Ni  Ni7  1  0.233603  0.964448  0.000000  1
  Ni  Ni8  1  0.538877  0.065812  0.000000  1
  Ni  Ni9  1  0.934188  0.473065  0.000000  1
  Ni  Ni10  1  0.526935  0.461123  0.000000  1
  Ni  Ni11  1  0.611798  0.900770  0.500000  1
  Ni  Ni12  1  0.099230  0.711026  0.500000  1
  Ni  Ni13  1  0.288974  0.388202  0.500000  1
  As  As14  1  0.770325  0.035071  0.000000  1
  As  As15  1  0.964929  0.735256  0.000000  1
  As  As16  1  0.264744  0.229675  0.000000  1
  As  As17  1  0.372039  0.934772  0.500000  1
  As  As18  1  0.065228  0.437267  0.500000  1
  As  As19  1  0.562733  0.627961  0.500000  1
  P  P20  1  0.666667  0.333333  0.000000  1
