# generated using pymatgen
data_Er3Ta3(Be2Co5)2
_symmetry_space_group_name_H-M   'P 1'
_cell_length_a   9.04927984
_cell_length_b   9.04927984
_cell_length_c   3.17449000
_cell_angle_alpha   90.00000000
_cell_angle_beta   90.00000000
_cell_angle_gamma   89.88151174
_symmetry_Int_Tables_number   1
_chemical_formula_structural   Er3Ta3(Be2Co5)2
_chemical_formula_sum   'Er3 Ta3 Be4 Co10'
_cell_volume   259.95673371
_cell_formula_units_Z   1
loop_
 _symmetry_equiv_pos_site_id
 _symmetry_equiv_pos_as_xyz
  1  'x, y, z'
loop_
 _atom_site_type_symbol
 _atom_site_label
 _atom_site_symmetry_multiplicity
 _atom_site_fract_x
 _atom_site_fract_y
 _atom_site_fract_z
 _atom_site_occupancy
  Er  Er0  1  0.822877  0.324959  0.000000  1
  Er  Er1  1  0.175041  0.677123  0.000000  1
  Er  Er2  1  0.325070  0.174930  0.000000  1
  Ta  Ta3  1  0.500950  0.501975  0.000000  1
  Ta  Ta4  1  0.998025  0.999050  0.000000  1
  Ta  Ta5  1  0.674686  0.825314  0.000000  1
  Be  Be6  1  0.621407  0.110246  0.000000  1
  Be  Be7  1  0.389754  0.878593  0.000000  1
  Be  Be8  1  0.116124  0.383876  0.000000  1
  Be  Be9  1  0.876038  0.623962  0.000000  1
  Co  Co10  1  0.511508  0.988492  0.500000  1
  Co  Co11  1  0.995183  0.504817  0.500000  1
  Co  Co12  1  0.710721  0.584241  0.500000  1
  Co  Co13  1  0.285058  0.435023  0.500000  1
  Co  Co14  1  0.219556  0.931521  0.500000  1
  Co  Co15  1  0.782408  0.053620  0.500000  1
  Co  Co16  1  0.446380  0.717592  0.500000  1
  Co  Co17  1  0.568479  0.280444  0.500000  1
  Co  Co18  1  0.064977  0.214942  0.500000  1
  Co  Co19  1  0.915759  0.789279  0.500000  1
