# generated using pymatgen
data_RbNi6(BIr)6
_symmetry_space_group_name_H-M   'P 1'
_cell_length_a   6.34525892
_cell_length_b   6.34525806
_cell_length_c   6.34525965
_cell_angle_alpha   103.44827524
_cell_angle_beta   103.44827078
_cell_angle_gamma   103.44825483
_symmetry_Int_Tables_number   1
_chemical_formula_structural   RbNi6(BIr)6
_chemical_formula_sum   'Rb1 Ni6 B6 Ir6'
_cell_volume   230.29310136
_cell_formula_units_Z   1
loop_
 _symmetry_equiv_pos_site_id
 _symmetry_equiv_pos_as_xyz
  1  'x, y, z'
loop_
 _atom_site_type_symbol
 _atom_site_label
 _atom_site_symmetry_multiplicity
 _atom_site_fract_x
 _atom_site_fract_y
 _atom_site_fract_z
 _atom_site_occupancy
  Rb  Rb0  1  0.000000  0.000000  0.000000  1
  Ni  Ni1  1  0.540475  0.799812  0.540475  1
  Ni  Ni2  1  0.540475  0.540475  0.799812  1
  Ni  Ni3  1  0.799812  0.540475  0.540475  1
  Ni  Ni4  1  0.459525  0.200188  0.459525  1
  Ni  Ni5  1  0.459525  0.459525  0.200188  1
  Ni  Ni6  1  0.200188  0.459525  0.459525  1
  B  B7  1  0.769055  0.346126  0.769055  1
  B  B8  1  0.769055  0.769055  0.346126  1
  B  B9  1  0.346126  0.769055  0.769055  1
  B  B10  1  0.230945  0.653874  0.230945  1
  B  B11  1  0.230945  0.230945  0.653874  1
  B  B12  1  0.653874  0.230945  0.230945  1
  Ir  Ir13  1  0.139175  0.860825  0.500000  1
  Ir  Ir14  1  0.500000  0.139175  0.860825  1
  Ir  Ir15  1  0.860825  0.500000  0.139175  1
  Ir  Ir16  1  0.500000  0.860825  0.139175  1
  Ir  Ir17  1  0.139175  0.500000  0.860825  1
  Ir  Ir18  1  0.860825  0.139175  0.500000  1
