# generated using pymatgen
data_Pr5Dy(CI5)2
_symmetry_space_group_name_H-M   'P 1'
_cell_length_a   7.94172495
_cell_length_b   9.75509572
_cell_length_c   9.83888250
_cell_angle_alpha   107.12329080
_cell_angle_beta   96.42658286
_cell_angle_gamma   104.39599582
_symmetry_Int_Tables_number   1
_chemical_formula_structural   Pr5Dy(CI5)2
_chemical_formula_sum   'Pr5 Dy1 C2 I10'
_cell_volume   691.32479702
_cell_formula_units_Z   1
loop_
 _symmetry_equiv_pos_site_id
 _symmetry_equiv_pos_as_xyz
  1  'x, y, z'
loop_
 _atom_site_type_symbol
 _atom_site_label
 _atom_site_symmetry_multiplicity
 _atom_site_fract_x
 _atom_site_fract_y
 _atom_site_fract_z
 _atom_site_occupancy
  Pr  Pr0  1  0.106628  0.039459  0.774705  1
  Pr  Pr1  1  0.373271  0.133268  0.179364  1
  Pr  Pr2  1  0.890652  0.959227  0.224349  1
  Pr  Pr3  1  0.030938  0.733587  0.922500  1
  Pr  Pr4  1  0.967442  0.266332  0.076795  1
  Dy  Dy5  1  0.632864  0.869306  0.824176  1
  C  C6  1  0.908904  0.969382  0.958137  1
  C  C7  1  0.083362  0.028538  0.039059  1
  I  I8  1  0.206260  0.736906  0.648030  1
  I  I9  1  0.088711  0.370797  0.818486  1
  I  I10  1  0.459790  0.807374  0.084326  1
  I  I11  1  0.253212  0.083982  0.461802  1
  I  I12  1  0.545124  0.182605  0.902347  1
  I  I13  1  0.807810  0.267004  0.358224  1
  I  I14  1  0.344851  0.457713  0.273039  1
  I  I15  1  0.911655  0.629410  0.181376  1
  I  I16  1  0.650281  0.552144  0.727495  1
  I  I17  1  0.738245  0.912965  0.545793  1
