# generated using pymatgen
data_Tb4NdEr(RuO7)2
_symmetry_space_group_name_H-M   'P 1'
_cell_length_a   6.47427323
_cell_length_b   6.46402020
_cell_length_c   7.48427725
_cell_angle_alpha   90.04168661
_cell_angle_beta   89.90325929
_cell_angle_gamma   108.93293233
_symmetry_Int_Tables_number   1
_chemical_formula_structural   Tb4NdEr(RuO7)2
_chemical_formula_sum   'Tb4 Nd1 Er1 Ru2 O14'
_cell_volume   296.27004641
_cell_formula_units_Z   1
loop_
 _symmetry_equiv_pos_site_id
 _symmetry_equiv_pos_as_xyz
  1  'x, y, z'
loop_
 _atom_site_type_symbol
 _atom_site_label
 _atom_site_symmetry_multiplicity
 _atom_site_fract_x
 _atom_site_fract_y
 _atom_site_fract_z
 _atom_site_occupancy
  Tb  Tb0  1  0.537111  0.534121  0.499876  1
  Tb  Tb1  1  0.003025  0.463013  0.745266  1
  Tb  Tb2  1  0.536109  0.001345  0.752330  1
  Tb  Tb3  1  0.462908  0.002088  0.255064  1
  Nd  Nd4  1  0.497497  0.497616  0.000941  1
  Er  Er5  1  0.001419  0.536132  0.247120  1
  Ru  Ru6  1  0.001166  0.001306  0.499241  1
  Ru  Ru7  1  0.999506  0.999612  0.000707  1
  O  O8  1  0.934474  0.067857  0.750413  1
  O  O9  1  0.066207  0.929445  0.249593  1
  O  O10  1  0.356934  0.637313  0.259303  1
  O  O11  1  0.640269  0.362656  0.742482  1
  O  O12  1  0.367862  0.633100  0.741650  1
  O  O13  1  0.638820  0.370104  0.256931  1
  O  O14  1  0.321012  0.073750  0.973575  1
  O  O15  1  0.674859  0.918785  0.474354  1
  O  O16  1  0.309539  0.060311  0.533707  1
  O  O17  1  0.680333  0.928591  0.031939  1
  O  O18  1  0.045314  0.305753  0.461598  1
  O  O19  1  0.933873  0.681328  0.969830  1
  O  O20  1  0.924145  0.675840  0.524020  1
  O  O21  1  0.067621  0.319934  0.030062  1
