# generated using pymatgen
data_Nd3Fe(P3Ir4)2
_symmetry_space_group_name_H-M   'P 1'
_cell_length_a   3.99010000
_cell_length_b   11.27351300
_cell_length_c   12.79675300
_cell_angle_alpha   90.00000000
_cell_angle_beta   90.00000000
_cell_angle_gamma   90.00000000
_symmetry_Int_Tables_number   1
_chemical_formula_structural   Nd3Fe(P3Ir4)2
_chemical_formula_sum   'Nd6 Fe2 P12 Ir16'
_cell_volume   575.62922804
_cell_formula_units_Z   2
loop_
 _symmetry_equiv_pos_site_id
 _symmetry_equiv_pos_as_xyz
  1  'x, y, z'
loop_
 _atom_site_type_symbol
 _atom_site_label
 _atom_site_symmetry_multiplicity
 _atom_site_fract_x
 _atom_site_fract_y
 _atom_site_fract_z
 _atom_site_occupancy
  Nd  Nd0  1  0.000000  0.500000  0.521935  1
  Nd  Nd1  1  0.500000  0.000000  0.478065  1
  Nd  Nd2  1  0.500000  0.819939  0.200088  1
  Nd  Nd3  1  0.500000  0.180061  0.200088  1
  Nd  Nd4  1  0.000000  0.680061  0.799912  1
  Nd  Nd5  1  0.000000  0.319939  0.799912  1
  Fe  Fe6  1  0.000000  0.500000  0.995739  1
  Fe  Fe7  1  0.500000  0.000000  0.004261  1
  P  P8  1  0.500000  0.500000  0.885190  1
  P  P9  1  0.000000  0.000000  0.114810  1
  P  P10  1  0.500000  0.500000  0.352456  1
  P  P11  1  0.000000  0.000000  0.647544  1
  P  P12  1  0.500000  0.313494  0.618994  1
  P  P13  1  0.500000  0.686506  0.618994  1
  P  P14  1  0.000000  0.186506  0.381006  1
  P  P15  1  0.000000  0.813494  0.381006  1
  P  P16  1  0.500000  0.846999  0.897433  1
  P  P17  1  0.500000  0.153001  0.897433  1
  P  P18  1  0.000000  0.653001  0.102567  1
  P  P19  1  0.000000  0.346999  0.102567  1
  Ir  Ir20  1  0.500000  0.500000  0.171971  1
  Ir  Ir21  1  0.000000  0.000000  0.828029  1
  Ir  Ir22  1  0.500000  0.500000  0.702884  1
  Ir  Ir23  1  0.000000  0.000000  0.297116  1
  Ir  Ir24  1  0.500000  0.337880  0.996752  1
  Ir  Ir25  1  0.500000  0.662120  0.996752  1
  Ir  Ir26  1  0.000000  0.162120  0.003248  1
  Ir  Ir27  1  0.000000  0.837880  0.003248  1
  Ir  Ir28  1  0.500000  0.292150  0.428184  1
  Ir  Ir29  1  0.500000  0.707850  0.428184  1
  Ir  Ir30  1  0.000000  0.207850  0.571816  1
  Ir  Ir31  1  0.000000  0.792150  0.571816  1
  Ir  Ir32  1  0.500000  0.873192  0.715308  1
  Ir  Ir33  1  0.500000  0.126808  0.715308  1
  Ir  Ir34  1  0.000000  0.626808  0.284692  1
  Ir  Ir35  1  0.000000  0.373192  0.284692  1
