# generated using pymatgen
data_Sc3Hg3Pd2
_symmetry_space_group_name_H-M   'P 1'
_cell_length_a   7.49651800
_cell_length_b   7.49651624
_cell_length_c   3.33360800
_cell_angle_alpha   90.00000000
_cell_angle_beta   90.00000000
_cell_angle_gamma   120.00000775
_symmetry_Int_Tables_number   1
_chemical_formula_structural   Sc3Hg3Pd2
_chemical_formula_sum   'Sc3 Hg3 Pd2'
_cell_volume   162.24234018
_cell_formula_units_Z   1
loop_
 _symmetry_equiv_pos_site_id
 _symmetry_equiv_pos_as_xyz
  1  'x, y, z'
loop_
 _atom_site_type_symbol
 _atom_site_label
 _atom_site_symmetry_multiplicity
 _atom_site_fract_x
 _atom_site_fract_y
 _atom_site_fract_z
 _atom_site_occupancy
  Sc  Sc0  1  0.585900  0.000000  0.500001  1
  Sc  Sc1  1  0.414100  0.414100  0.500001  1
  Sc  Sc2  1  0.000000  0.585901  0.500001  1
  Hg  Hg3  1  0.237644  0.000000  0.000000  1
  Hg  Hg4  1  0.000000  0.237644  0.000000  1
  Hg  Hg5  1  0.762356  0.762356  0.000000  1
  Pd  Pd6  1  0.666666  0.333333  0.000000  1
  Pd  Pd7  1  0.333333  0.666666  0.000000  1
