# generated using pymatgen
data_PuSbO5
_symmetry_space_group_name_H-M   'P 1'
_cell_length_a   5.49303683
_cell_length_b   5.49303643
_cell_length_c   7.67189921
_cell_angle_alpha   69.78264464
_cell_angle_beta   69.78264632
_cell_angle_gamma   72.76327282
_symmetry_Int_Tables_number   1
_chemical_formula_structural   PuSbO5
_chemical_formula_sum   'Pu2 Sb2 O10'
_cell_volume   199.68643405
_cell_formula_units_Z   2
loop_
 _symmetry_equiv_pos_site_id
 _symmetry_equiv_pos_as_xyz
  1  'x, y, z'
loop_
 _atom_site_type_symbol
 _atom_site_label
 _atom_site_symmetry_multiplicity
 _atom_site_fract_x
 _atom_site_fract_y
 _atom_site_fract_z
 _atom_site_occupancy
  Pu  Pu0  1  0.466231  0.533769  0.750000  1
  Pu  Pu1  1  0.533769  0.466231  0.250000  1
  Sb  Sb2  1  0.000000  0.000000  0.000000  1
  Sb  Sb3  1  0.000000  0.000000  0.500000  1
  O  O4  1  0.231894  0.281150  0.868868  1
  O  O5  1  0.768106  0.718850  0.131132  1
  O  O6  1  0.718850  0.768106  0.631132  1
  O  O7  1  0.281150  0.231894  0.368868  1
  O  O8  1  0.084806  0.915194  0.750000  1
  O  O9  1  0.915194  0.084806  0.250000  1
  O  O10  1  0.691575  0.288343  0.973667  1
  O  O11  1  0.308425  0.711657  0.026333  1
  O  O12  1  0.288343  0.691575  0.473667  1
  O  O13  1  0.711657  0.308425  0.526333  1
