# generated using pymatgen
data_Tb2Y6MgCdPt2
_symmetry_space_group_name_H-M   'P 1'
_cell_length_a   9.75276421
_cell_length_b   9.75276473
_cell_length_c   9.76694400
_cell_angle_alpha   59.95190141
_cell_angle_beta   59.95189968
_cell_angle_gamma   59.86794273
_symmetry_Int_Tables_number   1
_chemical_formula_structural   Tb2Y6MgCdPt2
_chemical_formula_sum   'Tb4 Y12 Mg2 Cd2 Pt4'
_cell_volume   655.76519994
_cell_formula_units_Z   2
loop_
 _symmetry_equiv_pos_site_id
 _symmetry_equiv_pos_as_xyz
  1  'x, y, z'
loop_
 _atom_site_type_symbol
 _atom_site_label
 _atom_site_symmetry_multiplicity
 _atom_site_fract_x
 _atom_site_fract_y
 _atom_site_fract_z
 _atom_site_occupancy
  Tb  Tb0  1  0.351143  0.351143  0.349644  1
  Tb  Tb1  1  0.351143  0.351143  0.948069  1
  Tb  Tb2  1  0.352198  0.946063  0.350869  1
  Tb  Tb3  1  0.946063  0.352198  0.350869  1
  Y  Y4  1  0.811254  0.188787  0.189306  1
  Y  Y5  1  0.188787  0.811254  0.810653  1
  Y  Y6  1  0.188787  0.811254  0.189306  1
  Y  Y7  1  0.811254  0.188787  0.810653  1
  Y  Y8  1  0.191131  0.191131  0.808869  1
  Y  Y9  1  0.812955  0.812955  0.187045  1
  Y  Y10  1  0.937898  0.564407  0.564610  1
  Y  Y11  1  0.564407  0.937898  0.933085  1
  Y  Y12  1  0.564407  0.937898  0.564610  1
  Y  Y13  1  0.937898  0.564407  0.933085  1
  Y  Y14  1  0.566250  0.566250  0.933750  1
  Y  Y15  1  0.936624  0.936624  0.563376  1
  Mg  Mg16  1  0.576664  0.576664  0.580874  1
  Mg  Mg17  1  0.576664  0.576664  0.265797  1
  Cd  Cd18  1  0.581723  0.253895  0.582191  1
  Cd  Cd19  1  0.253895  0.581723  0.582191  1
  Pt  Pt20  1  0.143149  0.143149  0.144417  1
  Pt  Pt21  1  0.143149  0.143149  0.569283  1
  Pt  Pt22  1  0.142166  0.570386  0.143723  1
  Pt  Pt23  1  0.570386  0.142166  0.143723  1
