# generated using pymatgen
data_TbDy3Tm4(B6Rh)4
_symmetry_space_group_name_H-M   'P 1'
_cell_length_a   3.64406400
_cell_length_b   9.14719200
_cell_length_c   11.49271600
_cell_angle_alpha   90.00106586
_cell_angle_beta   90.00000000
_cell_angle_gamma   90.00000000
_symmetry_Int_Tables_number   1
_chemical_formula_structural   TbDy3Tm4(B6Rh)4
_chemical_formula_sum   'Tb1 Dy3 Tm4 B24 Rh4'
_cell_volume   383.08616302
_cell_formula_units_Z   1
loop_
 _symmetry_equiv_pos_site_id
 _symmetry_equiv_pos_as_xyz
  1  'x, y, z'
loop_
 _atom_site_type_symbol
 _atom_site_label
 _atom_site_symmetry_multiplicity
 _atom_site_fract_x
 _atom_site_fract_y
 _atom_site_fract_z
 _atom_site_occupancy
  Tb  Tb0  1  0.500000  0.322155  0.413614  1
  Dy  Dy1  1  0.500000  0.677980  0.586393  1
  Dy  Dy2  1  0.500000  0.177847  0.913708  1
  Dy  Dy3  1  0.500000  0.822128  0.086284  1
  Tm  Tm4  1  0.500000  0.444336  0.126692  1
  Tm  Tm5  1  0.500000  0.555726  0.873271  1
  Tm  Tm6  1  0.500000  0.055544  0.626866  1
  Tm  Tm7  1  0.500000  0.944271  0.373196  1
  B  B8  1  0.000000  0.107221  0.470971  1
  B  B9  1  0.000000  0.892400  0.529140  1
  B  B10  1  0.000000  0.392299  0.970817  1
  B  B11  1  0.000000  0.607756  0.029129  1
  B  B12  1  0.000000  0.132406  0.316262  1
  B  B13  1  0.000000  0.867328  0.683605  1
  B  B14  1  0.000000  0.367416  0.816422  1
  B  B15  1  0.000000  0.632656  0.183530  1
  B  B16  1  0.000000  0.054125  0.065631  1
  B  B17  1  0.000000  0.945878  0.934324  1
  B  B18  1  0.000000  0.445932  0.565964  1
  B  B19  1  0.000000  0.554440  0.434291  1
  B  B20  1  0.000000  0.483131  0.286080  1
  B  B21  1  0.000000  0.517198  0.713797  1
  B  B22  1  0.000000  0.017119  0.786350  1
  B  B23  1  0.000000  0.982804  0.213657  1
  B  B24  1  0.000000  0.250322  0.079739  1
  B  B25  1  0.000000  0.749678  0.920192  1
  B  B26  1  0.000000  0.249530  0.580080  1
  B  B27  1  0.000000  0.750404  0.420215  1
  B  B28  1  0.000000  0.294318  0.235384  1
  B  B29  1  0.000000  0.705576  0.764355  1
  B  B30  1  0.000000  0.205526  0.735695  1
  B  B31  1  0.000000  0.794459  0.264325  1
  Rh  Rh32  1  0.500000  0.139926  0.179424  1
  Rh  Rh33  1  0.500000  0.859965  0.820468  1
  Rh  Rh34  1  0.500000  0.359894  0.679753  1
  Rh  Rh35  1  0.500000  0.640307  0.320375  1
