# generated using pymatgen
data_Tb3Y(Ga5Rh3)2
_symmetry_space_group_name_H-M   'P 1'
_cell_length_a   8.60468370
_cell_length_b   8.60498357
_cell_length_c   5.68901301
_cell_angle_alpha   70.68047607
_cell_angle_beta   70.67950630
_cell_angle_gamma   96.56179021
_symmetry_Int_Tables_number   1
_chemical_formula_structural   Tb3Y(Ga5Rh3)2
_chemical_formula_sum   'Tb3 Y1 Ga10 Rh6'
_cell_volume   363.09395904
_cell_formula_units_Z   1
loop_
 _symmetry_equiv_pos_site_id
 _symmetry_equiv_pos_as_xyz
  1  'x, y, z'
loop_
 _atom_site_type_symbol
 _atom_site_label
 _atom_site_symmetry_multiplicity
 _atom_site_fract_x
 _atom_site_fract_y
 _atom_site_fract_z
 _atom_site_occupancy
  Tb  Tb0  1  0.867302  0.586295  0.773911  1
  Tb  Tb1  1  0.413713  0.132687  0.726091  1
  Tb  Tb2  1  0.132693  0.413709  0.226092  1
  Y  Y3  1  0.586330  0.867324  0.273878  1
  Ga  Ga4  1  0.090623  0.264690  0.821761  1
  Ga  Ga5  1  0.735305  0.909367  0.678244  1
  Ga  Ga6  1  0.909383  0.735323  0.178221  1
  Ga  Ga7  1  0.264670  0.090620  0.321780  1
  Ga  Ga8  1  0.202766  0.797238  0.749997  1
  Ga  Ga9  1  0.797236  0.202749  0.249991  1
  Ga  Ga10  1  0.500411  0.499592  0.750000  1
  Ga  Ga11  1  0.499587  0.500416  0.249997  1
  Ga  Ga12  1  0.796741  0.203244  0.750024  1
  Ga  Ga13  1  0.203261  0.796746  0.249997  1
  Rh  Rh14  1  0.262033  0.561886  0.589112  1
  Rh  Rh15  1  0.438101  0.737967  0.910899  1
  Rh  Rh16  1  0.737980  0.438116  0.410882  1
  Rh  Rh17  1  0.561873  0.262043  0.089112  1
  Rh  Rh18  1  0.999799  0.000190  0.750021  1
  Rh  Rh19  1  0.000193  0.999797  0.249990  1
