# generated using pymatgen
data_Dy8Er4Ga9Si9Ge2
_symmetry_space_group_name_H-M   'P 1'
_cell_length_a   5.95393880
_cell_length_b   5.95321177
_cell_length_c   18.63172507
_cell_angle_alpha   90.00742303
_cell_angle_beta   89.99173647
_cell_angle_gamma   102.83276148
_symmetry_Int_Tables_number   1
_chemical_formula_structural   Dy8Er4Ga9Si9Ge2
_chemical_formula_sum   'Dy8 Er4 Ga9 Si9 Ge2'
_cell_volume   643.90738032
_cell_formula_units_Z   1
loop_
 _symmetry_equiv_pos_site_id
 _symmetry_equiv_pos_as_xyz
  1  'x, y, z'
loop_
 _atom_site_type_symbol
 _atom_site_label
 _atom_site_symmetry_multiplicity
 _atom_site_fract_x
 _atom_site_fract_y
 _atom_site_fract_z
 _atom_site_occupancy
  Dy  Dy0  1  0.339508  0.339457  0.250454  1
  Dy  Dy1  1  0.339406  0.339553  0.749535  1
  Dy  Dy2  1  0.200584  0.801198  0.128466  1
  Dy  Dy3  1  0.199347  0.802282  0.624723  1
  Dy  Dy4  1  0.200791  0.801191  0.871543  1
  Dy  Dy5  1  0.199330  0.801896  0.375193  1
  Dy  Dy6  1  0.801321  0.200494  0.128387  1
  Dy  Dy7  1  0.802283  0.199239  0.624731  1
  Er  Er8  1  0.652393  0.652684  0.999957  1
  Er  Er9  1  0.662674  0.662779  0.500118  1
  Er  Er10  1  0.802292  0.198858  0.375199  1
  Er  Er11  1  0.801581  0.200405  0.871509  1
  Ga  Ga12  1  0.316566  0.316765  0.902701  1
  Ga  Ga13  1  0.324727  0.325018  0.402297  1
  Ga  Ga14  1  0.676810  0.676789  0.348974  1
  Ga  Ga15  1  0.677175  0.677136  0.847713  1
  Ga  Ga16  1  0.317298  0.317236  0.097381  1
  Ga  Ga17  1  0.325394  0.325380  0.597009  1
  Ga  Ga18  1  0.677409  0.677190  0.152506  1
  Ga  Ga19  1  0.677250  0.677261  0.651747  1
  Ga  Ga20  1  0.037830  0.038208  0.999779  1
  Si  Si21  1  0.485298  0.089596  0.499623  1
  Si  Si22  1  0.911174  0.517390  0.251296  1
  Si  Si23  1  0.911483  0.517346  0.749424  1
  Si  Si24  1  0.518881  0.912400  0.251139  1
  Si  Si25  1  0.518851  0.912845  0.749297  1
  Si  Si26  1  0.088146  0.483828  0.499735  1
  Si  Si27  1  0.053339  0.053742  0.499662  1
  Si  Si28  1  0.947791  0.948145  0.251494  1
  Si  Si29  1  0.948004  0.948394  0.749150  1
  Ge  Ge30  1  0.499684  0.087058  0.999449  1
  Ge  Ge31  1  0.085386  0.498242  0.999810  1
