# generated using pymatgen
data_K5BaNbP4
_symmetry_space_group_name_H-M   'P 1'
_cell_length_a   10.25883610
_cell_length_b   10.25883583
_cell_length_c   8.00059303
_cell_angle_alpha   89.31414511
_cell_angle_beta   89.31414510
_cell_angle_gamma   120.38161527
_symmetry_Int_Tables_number   1
_chemical_formula_structural   K5BaNbP4
_chemical_formula_sum   'K10 Ba2 Nb2 P8'
_cell_volume   726.17304454
_cell_formula_units_Z   2
loop_
 _symmetry_equiv_pos_site_id
 _symmetry_equiv_pos_as_xyz
  1  'x, y, z'
loop_
 _atom_site_type_symbol
 _atom_site_label
 _atom_site_symmetry_multiplicity
 _atom_site_fract_x
 _atom_site_fract_y
 _atom_site_fract_z
 _atom_site_occupancy
  K  K0  1  0.464899  0.526064  0.501090  1
  K  K1  1  0.060777  0.526818  0.500992  1
  K  K2  1  0.526064  0.464899  0.001090  1
  K  K3  1  0.526818  0.060777  0.000992  1
  K  K4  1  0.865092  0.144498  0.676475  1
  K  K5  1  0.289539  0.153132  0.697516  1
  K  K6  1  0.853591  0.713635  0.666124  1
  K  K7  1  0.144498  0.865092  0.176475  1
  K  K8  1  0.713635  0.853591  0.166124  1
  K  K9  1  0.153132  0.289539  0.197516  1
  Ba  Ba10  1  0.464731  0.933401  0.495373  1
  Ba  Ba11  1  0.933401  0.464731  0.995373  1
  Nb  Nb12  1  0.668632  0.334527  0.394277  1
  Nb  Nb13  1  0.334527  0.668632  0.894277  1
  P  P14  1  0.676804  0.333722  0.696928  1
  P  P15  1  0.333722  0.676804  0.196928  1
  P  P16  1  0.794769  0.201853  0.291652  1
  P  P17  1  0.405918  0.196582  0.311320  1
  P  P18  1  0.800188  0.590828  0.282543  1
  P  P19  1  0.201853  0.794769  0.791652  1
  P  P20  1  0.590828  0.800188  0.782543  1
  P  P21  1  0.196582  0.405918  0.811320  1
