# generated using pymatgen
data_NdYRh2O7
_symmetry_space_group_name_H-M   'P 1'
_cell_length_a   7.31864727
_cell_length_b   7.31864826
_cell_length_c   7.31864756
_cell_angle_alpha   119.78818767
_cell_angle_beta   120.23117284
_cell_angle_gamma   89.98366049
_symmetry_Int_Tables_number   1
_chemical_formula_structural   NdYRh2O7
_chemical_formula_sum   'Nd2 Y2 Rh4 O14'
_cell_volume   277.14423582
_cell_formula_units_Z   2
loop_
 _symmetry_equiv_pos_site_id
 _symmetry_equiv_pos_as_xyz
  1  'x, y, z'
loop_
 _atom_site_type_symbol
 _atom_site_label
 _atom_site_symmetry_multiplicity
 _atom_site_fract_x
 _atom_site_fract_y
 _atom_site_fract_z
 _atom_site_occupancy
  Nd  Nd0  1  0.000000  0.500000  0.000000  1
  Nd  Nd1  1  0.000000  0.000000  0.500000  1
  Y  Y2  1  0.000000  0.500000  0.500000  1
  Y  Y3  1  0.500000  0.500000  0.000000  1
  Rh  Rh4  1  0.500000  0.000000  0.000000  1
  Rh  Rh5  1  0.500000  0.500000  0.500000  1
  Rh  Rh6  1  0.500000  0.000000  0.500000  1
  Rh  Rh7  1  0.000000  0.000000  0.000000  1
  O  O8  1  0.867552  0.617552  0.250000  1
  O  O9  1  0.132448  0.382448  0.750000  1
  O  O10  1  0.833530  0.083530  0.750000  1
  O  O11  1  0.416912  0.666912  0.750000  1
  O  O12  1  0.833646  0.665702  0.744218  1
  O  O13  1  0.421484  0.089429  0.755782  1
  O  O14  1  0.833646  0.089429  0.167945  1
  O  O15  1  0.421484  0.665702  0.332055  1
  O  O16  1  0.166470  0.916470  0.250000  1
  O  O17  1  0.583088  0.333088  0.250000  1
  O  O18  1  0.166354  0.334298  0.255782  1
  O  O19  1  0.578516  0.910571  0.244218  1
  O  O20  1  0.166354  0.910571  0.832055  1
  O  O21  1  0.578516  0.334298  0.667945  1
