# generated using pymatgen
data_Tb4Nd7In9NiIr3
_symmetry_space_group_name_H-M   'P 1'
_cell_length_a   13.28717122
_cell_length_b   13.26127680
_cell_length_c   3.82150600
_cell_angle_alpha   90.00000000
_cell_angle_beta   90.00000000
_cell_angle_gamma   111.55802141
_symmetry_Int_Tables_number   1
_chemical_formula_structural   Tb4Nd7In9NiIr3
_chemical_formula_sum   'Tb4 Nd7 In9 Ni1 Ir3'
_cell_volume   626.26309825
_cell_formula_units_Z   1
loop_
 _symmetry_equiv_pos_site_id
 _symmetry_equiv_pos_as_xyz
  1  'x, y, z'
loop_
 _atom_site_type_symbol
 _atom_site_label
 _atom_site_symmetry_multiplicity
 _atom_site_fract_x
 _atom_site_fract_y
 _atom_site_fract_z
 _atom_site_occupancy
  Tb  Tb0  1  0.080406  0.420067  0.000000  1
  Tb  Tb1  1  0.919783  0.580753  0.000000  1
  Tb  Tb2  1  0.419968  0.079105  0.000000  1
  Tb  Tb3  1  0.581106  0.919387  0.000000  1
  Nd  Nd4  1  0.626687  0.371616  0.000000  1
  Nd  Nd5  1  0.369826  0.627111  0.000000  1
  Nd  Nd6  1  0.839692  0.160090  0.000000  1
  Nd  Nd7  1  0.160627  0.839526  0.000000  1
  Nd  Nd8  1  0.999443  0.000169  0.000000  1
  Nd  Nd9  1  0.311686  0.311144  0.000000  1
  Nd  Nd10  1  0.689235  0.687452  0.000000  1
  In  In11  1  0.841825  0.368398  0.500000  1
  In  In12  1  0.158462  0.631925  0.500000  1
  In  In13  1  0.371168  0.842320  0.500000  1
  In  In14  1  0.631202  0.156355  0.500000  1
  In  In15  1  0.077516  0.221690  0.500000  1
  In  In16  1  0.922251  0.778529  0.500000  1
  In  In17  1  0.221243  0.076458  0.500000  1
  In  In18  1  0.777176  0.922500  0.500000  1
  In  In19  1  0.499215  0.502471  0.500000  1
  Ni  Ni20  1  0.549658  0.759127  0.500000  1
  Ir  Ir21  1  0.243049  0.453029  0.500000  1
  Ir  Ir22  1  0.757587  0.550164  0.500000  1
  Ir  Ir23  1  0.451192  0.240614  0.500000  1
