# generated using pymatgen
data_Hf3Zr7(ZnSn3)2
_symmetry_space_group_name_H-M   'P 1'
_cell_length_a   8.68693900
_cell_length_b   8.68693801
_cell_length_c   5.89855400
_cell_angle_alpha   90.00000000
_cell_angle_beta   90.00000000
_cell_angle_gamma   119.99999996
_symmetry_Int_Tables_number   1
_chemical_formula_structural   Hf3Zr7(ZnSn3)2
_chemical_formula_sum   'Hf3 Zr7 Zn2 Sn6'
_cell_volume   385.48695481
_cell_formula_units_Z   1
loop_
 _symmetry_equiv_pos_site_id
 _symmetry_equiv_pos_as_xyz
  1  'x, y, z'
loop_
 _atom_site_type_symbol
 _atom_site_label
 _atom_site_symmetry_multiplicity
 _atom_site_fract_x
 _atom_site_fract_y
 _atom_site_fract_z
 _atom_site_occupancy
  Hf  Hf0  1  0.666667  0.333333  0.000000  1
  Hf  Hf1  1  0.333333  0.666667  0.000000  1
  Hf  Hf2  1  0.333333  0.666667  0.500000  1
  Zr  Zr3  1  0.666667  0.333333  0.500000  1
  Zr  Zr4  1  0.731472  0.731643  0.749833  1
  Zr  Zr5  1  0.268357  0.999829  0.749833  1
  Zr  Zr6  1  0.000171  0.268528  0.749833  1
  Zr  Zr7  1  0.268357  0.268528  0.250167  1
  Zr  Zr8  1  0.731472  0.999829  0.250167  1
  Zr  Zr9  1  0.000171  0.731643  0.250167  1
  Zn  Zn10  1  0.000000  0.000000  0.000000  1
  Zn  Zn11  1  0.000000  0.000000  0.500000  1
  Sn  Sn12  1  0.384270  0.384613  0.750265  1
  Sn  Sn13  1  0.615387  0.999658  0.750265  1
  Sn  Sn14  1  0.000342  0.615730  0.750265  1
  Sn  Sn15  1  0.615387  0.615730  0.249735  1
  Sn  Sn16  1  0.384270  0.999658  0.249735  1
  Sn  Sn17  1  0.000342  0.384613  0.249735  1
