# generated using pymatgen
data_Er3Zn2Co5(NiB)4
_symmetry_space_group_name_H-M   'P 1'
_cell_length_a   5.10065420
_cell_length_b   5.06891405
_cell_length_c   9.73584900
_cell_angle_alpha   90.00000000
_cell_angle_beta   90.00000000
_cell_angle_gamma   119.79436753
_symmetry_Int_Tables_number   1
_chemical_formula_structural   Er3Zn2Co5(NiB)4
_chemical_formula_sum   'Er3 Zn2 Co5 Ni4 B4'
_cell_volume   218.44466494
_cell_formula_units_Z   1
loop_
 _symmetry_equiv_pos_site_id
 _symmetry_equiv_pos_as_xyz
  1  'x, y, z'
loop_
 _atom_site_type_symbol
 _atom_site_label
 _atom_site_symmetry_multiplicity
 _atom_site_fract_x
 _atom_site_fract_y
 _atom_site_fract_z
 _atom_site_occupancy
  Er  Er0  1  0.000000  0.000000  0.000000  1
  Er  Er1  1  0.000000  0.000000  0.657297  1
  Er  Er2  1  0.000000  0.000000  0.342703  1
  Zn  Zn3  1  0.674389  0.337193  0.000000  1
  Zn  Zn4  1  0.325611  0.662807  0.000000  1
  Co  Co5  1  0.500000  0.500000  0.500000  1
  Co  Co6  1  0.500000  0.000000  0.500000  1
  Co  Co7  1  0.000000  0.500000  0.500000  1
  Co  Co8  1  0.000000  0.500000  0.788082  1
  Co  Co9  1  0.000000  0.500000  0.211918  1
  Ni  Ni10  1  0.500000  0.500000  0.792191  1
  Ni  Ni11  1  0.500000  0.000000  0.792191  1
  Ni  Ni12  1  0.500000  0.500000  0.207809  1
  Ni  Ni13  1  0.500000  0.000000  0.207809  1
  B  B14  1  0.671884  0.335941  0.647966  1
  B  B15  1  0.328116  0.664059  0.647966  1
  B  B16  1  0.328116  0.664059  0.352034  1
  B  B17  1  0.671884  0.335941  0.352034  1
