# generated using pymatgen
data_Er7FeO12
_symmetry_space_group_name_H-M   'P 1'
_cell_length_a   6.57437716
_cell_length_b   6.57437782
_cell_length_c   6.57437600
_cell_angle_alpha   93.65511436
_cell_angle_beta   93.65511473
_cell_angle_gamma   93.65513297
_symmetry_Int_Tables_number   1
_chemical_formula_structural   Er7FeO12
_chemical_formula_sum   'Er7 Fe1 O12'
_cell_volume   282.34886536
_cell_formula_units_Z   1
loop_
 _symmetry_equiv_pos_site_id
 _symmetry_equiv_pos_as_xyz
  1  'x, y, z'
loop_
 _atom_site_type_symbol
 _atom_site_label
 _atom_site_symmetry_multiplicity
 _atom_site_fract_x
 _atom_site_fract_y
 _atom_site_fract_z
 _atom_site_occupancy
  Er  Er0  1  0.739102  0.923196  0.434693  1
  Er  Er1  1  0.434693  0.739102  0.923196  1
  Er  Er2  1  0.076804  0.565307  0.260898  1
  Er  Er3  1  0.923196  0.434693  0.739102  1
  Er  Er4  1  0.565307  0.260898  0.076804  1
  Er  Er5  1  0.260898  0.076804  0.565307  1
  Er  Er6  1  0.000000  0.000000  0.000000  1
  Fe  Fe7  1  0.500000  0.500000  0.500000  1
  O  O8  1  0.067649  0.907896  0.318831  1
  O  O9  1  0.681169  0.932351  0.092104  1
  O  O10  1  0.462406  0.802159  0.589541  1
  O  O11  1  0.092104  0.681169  0.932351  1
  O  O12  1  0.802159  0.589541  0.462406  1
  O  O13  1  0.410459  0.537594  0.197841  1
  O  O14  1  0.589541  0.462406  0.802159  1
  O  O15  1  0.197841  0.410459  0.537594  1
  O  O16  1  0.907896  0.318831  0.067649  1
  O  O17  1  0.537594  0.197841  0.410459  1
  O  O18  1  0.318831  0.067649  0.907896  1
  O  O19  1  0.932351  0.092104  0.681169  1
