# generated using pymatgen
data_YSn6Ru3Rh
_symmetry_space_group_name_H-M   'P 1'
_cell_length_a   6.97260697
_cell_length_b   6.95453739
_cell_length_c   6.94881276
_cell_angle_alpha   120.27132828
_cell_angle_beta   120.35699002
_cell_angle_gamma   89.57932419
_symmetry_Int_Tables_number   1
_chemical_formula_structural   YSn6Ru3Rh
_chemical_formula_sum   'Y1 Sn6 Ru3 Rh1'
_cell_volume   236.86870037
_cell_formula_units_Z   1
loop_
 _symmetry_equiv_pos_site_id
 _symmetry_equiv_pos_as_xyz
  1  'x, y, z'
loop_
 _atom_site_type_symbol
 _atom_site_label
 _atom_site_symmetry_multiplicity
 _atom_site_fract_x
 _atom_site_fract_y
 _atom_site_fract_z
 _atom_site_occupancy
  Y  Y0  1  0.996792  0.004011  0.000000  1
  Sn  Sn1  1  0.877176  0.533965  0.000000  1
  Sn  Sn2  1  0.536636  0.879458  0.000000  1
  Sn  Sn3  1  0.121046  0.114827  0.649414  1
  Sn  Sn4  1  0.002437  0.501071  0.497638  1
  Sn  Sn5  1  0.471633  0.465414  0.350586  1
  Sn  Sn6  1  0.504799  0.003433  0.502362  1
  Ru  Ru7  1  0.400596  0.402059  0.651919  1
  Ru  Ru8  1  0.596987  0.247348  0.000000  1
  Ru  Ru9  1  0.748676  0.750140  0.348081  1
  Rh  Rh10  1  0.243222  0.598274  0.000000  1
