# generated using pymatgen
data_TbFe2CoB4Os
_symmetry_space_group_name_H-M   'P 1'
_cell_length_a   7.02679999
_cell_length_b   7.23949380
_cell_length_c   3.85573400
_cell_angle_alpha   90.00000000
_cell_angle_beta   90.00000000
_cell_angle_gamma   91.42386085
_symmetry_Int_Tables_number   1
_chemical_formula_structural   TbFe2CoB4Os
_chemical_formula_sum   'Tb2 Fe4 Co2 B8 Os2'
_cell_volume   196.08245665
_cell_formula_units_Z   2
loop_
 _symmetry_equiv_pos_site_id
 _symmetry_equiv_pos_as_xyz
  1  'x, y, z'
loop_
 _atom_site_type_symbol
 _atom_site_label
 _atom_site_symmetry_multiplicity
 _atom_site_fract_x
 _atom_site_fract_y
 _atom_site_fract_z
 _atom_site_occupancy
  Tb  Tb0  1  0.000000  0.000000  0.931391  1
  Tb  Tb1  1  0.500000  0.500000  0.408022  1
  Fe  Fe2  1  0.377583  0.112569  0.621124  1
  Fe  Fe3  1  0.622417  0.887431  0.621124  1
  Fe  Fe4  1  0.620280  0.122086  0.120381  1
  Fe  Fe5  1  0.379720  0.877914  0.120381  1
  Co  Co6  1  0.889392  0.343468  0.398139  1
  Co  Co7  1  0.110608  0.656532  0.398139  1
  B  B8  1  0.660615  0.819228  0.120392  1
  B  B9  1  0.339385  0.180772  0.120392  1
  B  B10  1  0.314525  0.833480  0.618306  1
  B  B11  1  0.685475  0.166520  0.618306  1
  B  B12  1  0.827516  0.729631  0.402911  1
  B  B13  1  0.172484  0.270369  0.402911  1
  B  B14  1  0.214392  0.669489  0.903063  1
  B  B15  1  0.785608  0.330511  0.903063  1
  Os  Os16  1  0.147062  0.386815  0.895974  1
  Os  Os17  1  0.852938  0.613185  0.895974  1
