# generated using pymatgen
data_La6Mg4Cd19P
_symmetry_space_group_name_H-M   'P 1'
_cell_length_a   10.11729952
_cell_length_b   10.11729958
_cell_length_c   10.11729876
_cell_angle_alpha   60.48261759
_cell_angle_beta   60.48261849
_cell_angle_gamma   60.48261642
_symmetry_Int_Tables_number   1
_chemical_formula_structural   La6Mg4Cd19P
_chemical_formula_sum   'La6 Mg4 Cd19 P1'
_cell_volume   740.27072344
_cell_formula_units_Z   1
loop_
 _symmetry_equiv_pos_site_id
 _symmetry_equiv_pos_as_xyz
  1  'x, y, z'
loop_
 _atom_site_type_symbol
 _atom_site_label
 _atom_site_symmetry_multiplicity
 _atom_site_fract_x
 _atom_site_fract_y
 _atom_site_fract_z
 _atom_site_occupancy
  La  La0  1  0.793868  0.793868  0.207772  1
  La  La1  1  0.206132  0.792228  0.206132  1
  La  La2  1  0.792228  0.206132  0.206132  1
  La  La3  1  0.206132  0.206132  0.792228  1
  La  La4  1  0.793868  0.207772  0.793868  1
  La  La5  1  0.207772  0.793868  0.793868  1
  Mg  Mg6  1  0.000000  0.000000  0.500000  1
  Mg  Mg7  1  0.000000  0.500000  0.000000  1
  Mg  Mg8  1  0.500000  0.000000  0.000000  1
  Mg  Mg9  1  0.500000  0.500000  0.500000  1
  Cd  Cd10  1  0.831253  0.831253  0.507896  1
  Cd  Cd11  1  0.831253  0.507896  0.831253  1
  Cd  Cd12  1  0.507896  0.831253  0.831253  1
  Cd  Cd13  1  0.830956  0.830956  0.830956  1
  Cd  Cd14  1  0.168747  0.168747  0.492104  1
  Cd  Cd15  1  0.168747  0.492104  0.168747  1
  Cd  Cd16  1  0.492104  0.168747  0.168747  1
  Cd  Cd17  1  0.169044  0.169044  0.169044  1
  Cd  Cd18  1  0.622351  0.622351  0.138346  1
  Cd  Cd19  1  0.622351  0.138346  0.622351  1
  Cd  Cd20  1  0.138346  0.622351  0.622351  1
  Cd  Cd21  1  0.620494  0.620494  0.620494  1
  Cd  Cd22  1  0.377649  0.377649  0.861654  1
  Cd  Cd23  1  0.377649  0.861654  0.377649  1
  Cd  Cd24  1  0.861654  0.377649  0.377649  1
  Cd  Cd25  1  0.379506  0.379506  0.379506  1
  Cd  Cd26  1  0.500000  0.000000  0.500000  1
  Cd  Cd27  1  0.000000  0.500000  0.500000  1
  Cd  Cd28  1  0.500000  0.500000  0.000000  1
  P  P29  1  0.000000  0.000000  0.000000  1
