# generated using pymatgen
data_Gd3Ga(SO4)6
_symmetry_space_group_name_H-M   'P 1'
_cell_length_a   9.06249683
_cell_length_b   9.06249686
_cell_length_c   9.67076900
_cell_angle_alpha   117.94028011
_cell_angle_beta   62.05971981
_cell_angle_gamma   120.00000284
_symmetry_Int_Tables_number   1
_chemical_formula_structural   Gd3Ga(SO4)6
_chemical_formula_sum   'Gd3 Ga1 S6 O24'
_cell_volume   578.47292776
_cell_formula_units_Z   1
loop_
 _symmetry_equiv_pos_site_id
 _symmetry_equiv_pos_as_xyz
  1  'x, y, z'
loop_
 _atom_site_type_symbol
 _atom_site_label
 _atom_site_symmetry_multiplicity
 _atom_site_fract_x
 _atom_site_fract_y
 _atom_site_fract_z
 _atom_site_occupancy
  Gd  Gd0  1  0.645805  0.354196  0.062587  1
  Gd  Gd1  1  0.851914  0.148087  0.444259  1
  Gd  Gd2  1  0.139800  0.860201  0.580600  1
  Ga  Ga3  1  0.347026  0.652975  0.958925  1
  S  S4  1  0.239018  0.010212  0.238201  1
  S  S5  1  0.989787  0.467007  0.238201  1
  S  S6  1  0.532993  0.760981  0.238201  1
  S  S7  1  0.465192  0.285176  0.759658  1
  S  S8  1  0.060326  0.534808  0.759658  1
  S  S9  1  0.714824  0.939674  0.759658  1
  O  O10  1  0.161140  0.491730  0.099302  1
  O  O11  1  0.508269  0.768711  0.099302  1
  O  O12  1  0.231289  0.838859  0.099302  1
  O  O13  1  0.413835  0.153995  0.197262  1
  O  O14  1  0.846005  0.457102  0.197262  1
  O  O15  1  0.542898  0.586165  0.197262  1
  O  O16  1  0.092724  0.059606  0.264071  1
  O  O17  1  0.940393  0.297189  0.264071  1
  O  O18  1  0.702811  0.907276  0.264071  1
  O  O19  1  0.212506  0.989761  0.392187  1
  O  O20  1  0.010240  0.614932  0.392187  1
  O  O21  1  0.385068  0.787494  0.392187  1
  O  O22  1  0.622398  0.264816  0.610636  1
  O  O23  1  0.031783  0.377602  0.610636  1
  O  O24  1  0.735183  0.968216  0.610636  1
  O  O25  1  0.298589  0.140846  0.722529  1
  O  O26  1  0.119727  0.701411  0.722529  1
  O  O27  1  0.859156  0.880273  0.722529  1
  O  O28  1  0.460729  0.464736  0.805229  1
  O  O29  1  0.198779  0.539271  0.805229  1
  O  O30  1  0.535263  0.801219  0.805229  1
  O  O31  1  0.731926  0.111236  0.895471  1
  O  O32  1  0.483838  0.268074  0.895471  1
  O  O33  1  0.888764  0.516163  0.895471  1
