# generated using pymatgen
data_Er12Tc2IrRh
_symmetry_space_group_name_H-M   'P 1'
_cell_length_a   6.28269262
_cell_length_b   7.29757133
_cell_length_c   9.05875900
_cell_angle_alpha   90.00000000
_cell_angle_beta   90.00000000
_cell_angle_gamma   90.12416326
_symmetry_Int_Tables_number   1
_chemical_formula_structural   Er12Tc2IrRh
_chemical_formula_sum   'Er12 Tc2 Ir1 Rh1'
_cell_volume   415.32860817
_cell_formula_units_Z   1
loop_
 _symmetry_equiv_pos_site_id
 _symmetry_equiv_pos_as_xyz
  1  'x, y, z'
loop_
 _atom_site_type_symbol
 _atom_site_label
 _atom_site_symmetry_multiplicity
 _atom_site_fract_x
 _atom_site_fract_y
 _atom_site_fract_z
 _atom_site_occupancy
  Er  Er0  1  0.331804  0.674955  0.062859  1
  Er  Er1  1  0.166374  0.179404  0.438720  1
  Er  Er2  1  0.667391  0.321737  0.561537  1
  Er  Er3  1  0.828791  0.823197  0.934663  1
  Er  Er4  1  0.667391  0.321737  0.938463  1
  Er  Er5  1  0.828791  0.823197  0.565337  1
  Er  Er6  1  0.331804  0.674955  0.437141  1
  Er  Er7  1  0.166374  0.179404  0.061280  1
  Er  Er8  1  0.871089  0.540929  0.250000  1
  Er  Er9  1  0.631870  0.040521  0.250000  1
  Er  Er10  1  0.130149  0.460116  0.750000  1
  Er  Er11  1  0.370439  0.960660  0.750000  1
  Tc  Tc12  1  0.463919  0.386975  0.250000  1
  Tc  Tc13  1  0.962735  0.112172  0.750000  1
  Ir  Ir14  1  0.539199  0.615041  0.750000  1
  Rh  Rh15  1  0.041879  0.885000  0.250000  1
