# generated using pymatgen
data_La2B2Ir2Rh3
_symmetry_space_group_name_H-M   'P 1'
_cell_length_a   11.14838905
_cell_length_b   11.14838925
_cell_length_c   11.14400638
_cell_angle_alpha   28.91552740
_cell_angle_beta   28.91552797
_cell_angle_gamma   28.89177512
_symmetry_Int_Tables_number   1
_chemical_formula_structural   La2B2Ir2Rh3
_chemical_formula_sum   'La4 B4 Ir4 Rh6'
_cell_volume   286.22782411
_cell_formula_units_Z   2
loop_
 _symmetry_equiv_pos_site_id
 _symmetry_equiv_pos_as_xyz
  1  'x, y, z'
loop_
 _atom_site_type_symbol
 _atom_site_label
 _atom_site_symmetry_multiplicity
 _atom_site_fract_x
 _atom_site_fract_y
 _atom_site_fract_z
 _atom_site_occupancy
  La  La0  1  0.151385  0.151385  0.151274  1
  La  La1  1  0.949693  0.949693  0.950016  1
  La  La2  1  0.847580  0.847580  0.848802  1
  La  La3  1  0.049787  0.049787  0.049685  1
  B  B4  1  0.617148  0.617148  0.619099  1
  B  B5  1  0.716897  0.716897  0.716953  1
  B  B6  1  0.382188  0.382188  0.382378  1
  B  B7  1  0.284090  0.284090  0.281371  1
  Ir  Ir8  1  0.591477  0.100234  0.591057  1
  Ir  Ir9  1  0.591347  0.591347  0.100116  1
  Ir  Ir10  1  0.100234  0.591477  0.591057  1
  Ir  Ir11  1  0.409718  0.409718  0.899061  1
  Rh  Rh12  1  0.409234  0.900555  0.408643  1
  Rh  Rh13  1  0.900555  0.409234  0.408643  1
  Rh  Rh14  1  0.500067  0.500067  0.999972  1
  Rh  Rh15  1  0.499761  0.999875  0.499561  1
  Rh  Rh16  1  0.999875  0.499761  0.499561  1
  Rh  Rh17  1  0.498967  0.498967  0.502751  1
