# generated using pymatgen
data_CoSn16RhAu2
_symmetry_space_group_name_H-M   'P 1'
_cell_length_a   12.76643737
_cell_length_b   12.76643726
_cell_length_c   12.77459378
_cell_angle_alpha   150.71427399
_cell_angle_beta   150.71427309
_cell_angle_gamma   41.79821689
_symmetry_Int_Tables_number   1
_chemical_formula_structural   CoSn16RhAu2
_chemical_formula_sum   'Co1 Sn16 Rh1 Au2'
_cell_volume   497.18408084
_cell_formula_units_Z   1
loop_
 _symmetry_equiv_pos_site_id
 _symmetry_equiv_pos_as_xyz
  1  'x, y, z'
loop_
 _atom_site_type_symbol
 _atom_site_label
 _atom_site_symmetry_multiplicity
 _atom_site_fract_x
 _atom_site_fract_y
 _atom_site_fract_z
 _atom_site_occupancy
  Co  Co0  1  0.250000  0.250000  0.000000  1
  Sn  Sn1  1  0.152749  0.626543  0.153893  1
  Sn  Sn2  1  0.625299  0.471971  0.471028  1
  Sn  Sn3  1  0.885405  0.901242  0.658692  1
  Sn  Sn4  1  0.402963  0.746280  0.019303  1
  Sn  Sn5  1  0.598758  0.614595  0.341308  1
  Sn  Sn6  1  0.116340  0.773021  0.019303  1
  Sn  Sn7  1  0.873457  0.347251  0.846107  1
  Sn  Sn8  1  0.345729  0.499058  0.471028  1
  Sn  Sn9  1  0.000942  0.154271  0.528972  1
  Sn  Sn10  1  0.472648  0.998857  0.846107  1
  Sn  Sn11  1  0.726979  0.383660  0.980697  1
  Sn  Sn12  1  0.242551  0.226713  0.341308  1
  Sn  Sn13  1  0.753720  0.097037  0.980697  1
  Sn  Sn14  1  0.273287  0.257449  0.658692  1
  Sn  Sn15  1  0.028029  0.874701  0.528972  1
  Sn  Sn16  1  0.501143  0.027352  0.153893  1
  Rh  Rh17  1  0.500000  0.000000  0.500000  1
  Au  Au18  1  0.750000  0.750000  0.000000  1
  Au  Au19  1  0.000000  0.500000  0.500000  1
