# generated using pymatgen
data_Sr2TbNd(NiP)4
_symmetry_space_group_name_H-M   'P 1'
_cell_length_a   3.93830900
_cell_length_b   3.93830819
_cell_length_c   16.90640700
_cell_angle_alpha   90.00000000
_cell_angle_beta   90.00000000
_cell_angle_gamma   119.99999837
_symmetry_Int_Tables_number   1
_chemical_formula_structural   Sr2TbNd(NiP)4
_chemical_formula_sum   'Sr2 Tb1 Nd1 Ni4 P4'
_cell_volume   227.09179632
_cell_formula_units_Z   1
loop_
 _symmetry_equiv_pos_site_id
 _symmetry_equiv_pos_as_xyz
  1  'x, y, z'
loop_
 _atom_site_type_symbol
 _atom_site_label
 _atom_site_symmetry_multiplicity
 _atom_site_fract_x
 _atom_site_fract_y
 _atom_site_fract_z
 _atom_site_occupancy
  Sr  Sr0  1  0.000000  0.000000  0.252828  1
  Sr  Sr1  1  0.000000  0.000000  0.747172  1
  Tb  Tb2  1  0.000000  0.000000  0.500000  1
  Nd  Nd3  1  0.000000  0.000000  0.000000  1
  Ni  Ni4  1  0.333333  0.666667  0.119486  1
  Ni  Ni5  1  0.666667  0.333333  0.880514  1
  Ni  Ni6  1  0.666667  0.333333  0.613257  1
  Ni  Ni7  1  0.333333  0.666667  0.386743  1
  P  P8  1  0.333333  0.666667  0.613765  1
  P  P9  1  0.666667  0.333333  0.386235  1
  P  P10  1  0.666667  0.333333  0.120334  1
  P  P11  1  0.333333  0.666667  0.879666  1
