# generated using pymatgen
data_Zr10CrRePb4
_symmetry_space_group_name_H-M   'P 1'
_cell_length_a   5.59155848
_cell_length_b   8.55325111
_cell_length_c   8.55325074
_cell_angle_alpha   83.86667559
_cell_angle_beta   70.92124812
_cell_angle_gamma   70.92125418
_symmetry_Int_Tables_number   1
_chemical_formula_structural   Zr10CrRePb4
_chemical_formula_sum   'Zr10 Cr1 Re1 Pb4'
_cell_volume   365.36206101
_cell_formula_units_Z   1
loop_
 _symmetry_equiv_pos_site_id
 _symmetry_equiv_pos_as_xyz
  1  'x, y, z'
loop_
 _atom_site_type_symbol
 _atom_site_label
 _atom_site_symmetry_multiplicity
 _atom_site_fract_x
 _atom_site_fract_y
 _atom_site_fract_z
 _atom_site_occupancy
  Zr  Zr0  1  0.069223  0.126805  0.727760  1
  Zr  Zr1  1  0.923788  0.873195  0.272240  1
  Zr  Zr2  1  0.796984  0.272240  0.126805  1
  Zr  Zr3  1  0.430777  0.272240  0.873195  1
  Zr  Zr4  1  0.196027  0.727760  0.873195  1
  Zr  Zr5  1  0.576212  0.727760  0.126805  1
  Zr  Zr6  1  0.703016  0.873195  0.727760  1
  Zr  Zr7  1  0.303973  0.126805  0.272240  1
  Zr  Zr8  1  0.250000  0.500000  0.500000  1
  Zr  Zr9  1  0.750000  0.500000  0.500000  1
  Cr  Cr10  1  0.750000  0.000000  0.000000  1
  Re  Re11  1  0.250000  0.000000  0.000000  1
  Pb  Pb12  1  0.164048  0.500000  0.171903  1
  Pb  Pb13  1  0.835952  0.500000  0.828097  1
  Pb  Pb14  1  0.335952  0.828097  0.500000  1
  Pb  Pb15  1  0.664048  0.171903  0.500000  1
