# generated using pymatgen
data_TbEr2Sc3MnBi2
_symmetry_space_group_name_H-M   'P 1'
_cell_length_a   7.94008423
_cell_length_b   7.94339660
_cell_length_c   4.24699500
_cell_angle_alpha   90.00000000
_cell_angle_beta   90.00000000
_cell_angle_gamma   120.01379341
_symmetry_Int_Tables_number   1
_chemical_formula_structural   TbEr2Sc3MnBi2
_chemical_formula_sum   'Tb1 Er2 Sc3 Mn1 Bi2'
_cell_volume   231.94411489
_cell_formula_units_Z   1
loop_
 _symmetry_equiv_pos_site_id
 _symmetry_equiv_pos_as_xyz
  1  'x, y, z'
loop_
 _atom_site_type_symbol
 _atom_site_label
 _atom_site_symmetry_multiplicity
 _atom_site_fract_x
 _atom_site_fract_y
 _atom_site_fract_z
 _atom_site_occupancy
  Tb  Tb0  1  0.000000  0.611480  0.500000  1
  Er  Er1  1  0.387293  0.387045  0.500000  1
  Er  Er2  1  0.612707  0.999752  0.500000  1
  Sc  Sc3  1  0.224137  0.000871  0.000000  1
  Sc  Sc4  1  0.775863  0.776734  0.000000  1
  Sc  Sc5  1  0.000000  0.223599  0.000000  1
  Mn  Mn6  1  0.000000  0.001222  0.500000  1
  Bi  Bi7  1  0.334347  0.666822  0.000000  1
  Bi  Bi8  1  0.665653  0.332474  0.000000  1
