# generated using pymatgen
data_Er4Tm15MgIr12
_symmetry_space_group_name_H-M   'P 1'
_cell_length_a   10.73294000
_cell_length_b   10.73277000
_cell_length_c   6.27276800
_cell_angle_alpha   90.00000000
_cell_angle_beta   90.00000000
_cell_angle_gamma   89.99868676
_symmetry_Int_Tables_number   1
_chemical_formula_structural   Er4Tm15MgIr12
_chemical_formula_sum   'Er4 Tm15 Mg1 Ir12'
_cell_volume   722.58634369
_cell_formula_units_Z   1
loop_
 _symmetry_equiv_pos_site_id
 _symmetry_equiv_pos_as_xyz
  1  'x, y, z'
loop_
 _atom_site_type_symbol
 _atom_site_label
 _atom_site_symmetry_multiplicity
 _atom_site_fract_x
 _atom_site_fract_y
 _atom_site_fract_z
 _atom_site_occupancy
  Er  Er0  1  0.284044  0.084600  0.377633  1
  Er  Er1  1  0.290685  0.912242  0.878991  1
  Er  Er2  1  0.709315  0.087758  0.878991  1
  Er  Er3  1  0.715956  0.915400  0.377633  1
  Tm  Tm4  1  0.588327  0.791845  0.877502  1
  Tm  Tm5  1  0.587110  0.208093  0.376221  1
  Tm  Tm6  1  0.412890  0.791907  0.376221  1
  Tm  Tm7  1  0.411673  0.208155  0.877502  1
  Tm  Tm8  1  0.207867  0.412911  0.623810  1
  Tm  Tm9  1  0.207908  0.588247  0.122490  1
  Tm  Tm10  1  0.792092  0.411753  0.122490  1
  Tm  Tm11  1  0.792133  0.587089  0.623810  1
  Tm  Tm12  1  0.912432  0.708927  0.120803  1
  Tm  Tm13  1  0.915651  0.284503  0.621996  1
  Tm  Tm14  1  0.084349  0.715497  0.621996  1
  Tm  Tm15  1  0.087568  0.291073  0.120803  1
  Tm  Tm16  1  0.000000  0.000000  0.000090  1
  Tm  Tm17  1  0.500000  0.500000  0.000027  1
  Tm  Tm18  1  0.500000  0.500000  0.500058  1
  Mg  Mg19  1  0.000000  0.000000  0.500124  1
  Ir  Ir20  1  0.846192  0.155082  0.247207  1
  Ir  Ir21  1  0.845375  0.845721  0.753429  1
  Ir  Ir22  1  0.154625  0.154279  0.753429  1
  Ir  Ir23  1  0.153808  0.844918  0.247207  1
  Ir  Ir24  1  0.654085  0.346420  0.748646  1
  Ir  Ir25  1  0.653727  0.653937  0.251114  1
  Ir  Ir26  1  0.346273  0.346063  0.251114  1
  Ir  Ir27  1  0.345915  0.653580  0.748646  1
  Ir  Ir28  1  0.500000  0.000000  0.124543  1
  Ir  Ir29  1  0.500000  0.000000  0.620883  1
  Ir  Ir30  1  0.000000  0.500000  0.875459  1
  Ir  Ir31  1  0.000000  0.500000  0.379129  1
