# generated using pymatgen
data_Yb2Cu2Ir
_symmetry_space_group_name_H-M   'P 1'
_cell_length_a   5.33664772
_cell_length_b   5.33664616
_cell_length_c   5.33664700
_cell_angle_alpha   133.94887452
_cell_angle_beta   121.21288320
_cell_angle_gamma   77.74659428
_symmetry_Int_Tables_number   1
_chemical_formula_structural   Yb2Cu2Ir
_chemical_formula_sum   'Yb2 Cu2 Ir1'
_cell_volume   90.86316319
_cell_formula_units_Z   1
loop_
 _symmetry_equiv_pos_site_id
 _symmetry_equiv_pos_as_xyz
  1  'x, y, z'
loop_
 _atom_site_type_symbol
 _atom_site_label
 _atom_site_symmetry_multiplicity
 _atom_site_fract_x
 _atom_site_fract_y
 _atom_site_fract_z
 _atom_site_occupancy
  Yb  Yb0  1  0.694867  0.198108  0.496759  1
  Yb  Yb1  1  0.298648  0.801892  0.496760  1
  Cu  Cu2  1  0.000788  0.000000  0.000788  1
  Cu  Cu3  1  0.743109  0.500000  0.243110  1
  Ir  Ir4  1  0.262585  0.500001  0.762585  1
