# generated using pymatgen
data_KBaSb(AsSe3)2
_symmetry_space_group_name_H-M   'P 1'
_cell_length_a   26.22613500
_cell_length_b   6.41341237
_cell_length_c   9.06340807
_cell_angle_alpha   66.15033774
_cell_angle_beta   90.00000000
_cell_angle_gamma   90.00000000
_symmetry_Int_Tables_number   1
_chemical_formula_structural   KBaSb(AsSe3)2
_chemical_formula_sum   'K4 Ba4 Sb4 As8 Se24'
_cell_volume   1394.28232040
_cell_formula_units_Z   4
loop_
 _symmetry_equiv_pos_site_id
 _symmetry_equiv_pos_as_xyz
  1  'x, y, z'
loop_
 _atom_site_type_symbol
 _atom_site_label
 _atom_site_symmetry_multiplicity
 _atom_site_fract_x
 _atom_site_fract_y
 _atom_site_fract_z
 _atom_site_occupancy
  K  K0  1  0.935216  0.764139  0.096400  1
  K  K1  1  0.064784  0.235861  0.903600  1
  K  K2  1  0.435216  0.235861  0.403600  1
  K  K3  1  0.564784  0.764139  0.596400  1
  Ba  Ba4  1  0.747226  0.822525  0.066939  1
  Ba  Ba5  1  0.252774  0.177475  0.933061  1
  Ba  Ba6  1  0.247226  0.177475  0.433061  1
  Ba  Ba7  1  0.752774  0.822525  0.566939  1
  Sb  Sb8  1  0.570580  0.955763  0.036426  1
  Sb  Sb9  1  0.429420  0.044237  0.963574  1
  Sb  Sb10  1  0.070580  0.044237  0.463574  1
  Sb  Sb11  1  0.929420  0.955763  0.536426  1
  As  As12  1  0.651765  0.338567  0.188548  1
  As  As13  1  0.348235  0.661433  0.811452  1
  As  As14  1  0.151765  0.661433  0.311452  1
  As  As15  1  0.848235  0.338567  0.688548  1
  As  As16  1  0.836524  0.342565  0.094912  1
  As  As17  1  0.163476  0.657435  0.905088  1
  As  As18  1  0.336524  0.657435  0.405088  1
  As  As19  1  0.663476  0.342565  0.594912  1
  Se  Se20  1  0.488385  0.873907  0.229803  1
  Se  Se21  1  0.511615  0.126093  0.770197  1
  Se  Se22  1  0.988385  0.126093  0.270197  1
  Se  Se23  1  0.011615  0.873907  0.729803  1
  Se  Se24  1  0.657871  0.931687  0.290328  1
  Se  Se25  1  0.342129  0.068313  0.709672  1
  Se  Se26  1  0.157871  0.068313  0.209672  1
  Se  Se27  1  0.842129  0.931687  0.790328  1
  Se  Se28  1  0.839727  0.944418  0.270853  1
  Se  Se29  1  0.160273  0.055582  0.729147  1
  Se  Se30  1  0.339727  0.055582  0.229147  1
  Se  Se31  1  0.660273  0.944418  0.770853  1
  Se  Se32  1  0.741564  0.386815  0.441061  1
  Se  Se33  1  0.258436  0.613185  0.558939  1
  Se  Se34  1  0.241564  0.613185  0.058939  1
  Se  Se35  1  0.758436  0.386815  0.941061  1
  Se  Se36  1  0.415495  0.614773  0.010872  1
  Se  Se37  1  0.584505  0.385227  0.989128  1
  Se  Se38  1  0.915495  0.385227  0.489128  1
  Se  Se39  1  0.084505  0.614773  0.510872  1
  Se  Se40  1  0.595061  0.367087  0.397636  1
  Se  Se41  1  0.404939  0.632913  0.602364  1
  Se  Se42  1  0.095061  0.632913  0.102364  1
  Se  Se43  1  0.904939  0.367087  0.897636  1
