# generated using pymatgen
data_NaTa(NbAs)4
_symmetry_space_group_name_H-M   'P 1'
_cell_length_a   10.09908000
_cell_length_b   10.09908000
_cell_length_c   3.51171000
_cell_angle_alpha   90.00000000
_cell_angle_beta   90.00000000
_cell_angle_gamma   90.00000000
_symmetry_Int_Tables_number   1
_chemical_formula_structural   NaTa(NbAs)4
_chemical_formula_sum   'Na2 Ta2 Nb8 As8'
_cell_volume   358.16427845
_cell_formula_units_Z   2
loop_
 _symmetry_equiv_pos_site_id
 _symmetry_equiv_pos_as_xyz
  1  'x, y, z'
loop_
 _atom_site_type_symbol
 _atom_site_label
 _atom_site_symmetry_multiplicity
 _atom_site_fract_x
 _atom_site_fract_y
 _atom_site_fract_z
 _atom_site_occupancy
  Na  Na0  1  0.000000  0.500000  0.500000  1
  Na  Na1  1  0.500000  0.000000  0.500000  1
  Ta  Ta2  1  0.500000  0.500000  0.500000  1
  Ta  Ta3  1  0.000000  0.000000  0.000000  1
  Nb  Nb4  1  0.137245  0.814609  0.500000  1
  Nb  Nb5  1  0.862755  0.185391  0.500000  1
  Nb  Nb6  1  0.185391  0.137245  0.500000  1
  Nb  Nb7  1  0.814609  0.862755  0.500000  1
  Nb  Nb8  1  0.384163  0.707651  0.000000  1
  Nb  Nb9  1  0.615837  0.292349  0.000000  1
  Nb  Nb10  1  0.292349  0.384163  0.000000  1
  Nb  Nb11  1  0.707651  0.615837  0.000000  1
  As  As12  1  0.243248  0.577613  0.500000  1
  As  As13  1  0.756752  0.422387  0.500000  1
  As  As14  1  0.422387  0.243248  0.500000  1
  As  As15  1  0.577613  0.756752  0.500000  1
  As  As16  1  0.275598  0.954862  0.000000  1
  As  As17  1  0.724402  0.045138  0.000000  1
  As  As18  1  0.045138  0.275598  0.000000  1
  As  As19  1  0.954862  0.724402  0.000000  1
