# generated using pymatgen
data_Zr4Co15Ni5P12
_symmetry_space_group_name_H-M   'P 1'
_cell_length_a   3.60739000
_cell_length_b   10.09697787
_cell_length_c   11.72080264
_cell_angle_alpha   89.98224611
_cell_angle_beta   90.00000000
_cell_angle_gamma   90.00000000
_symmetry_Int_Tables_number   1
_chemical_formula_structural   Zr4Co15Ni5P12
_chemical_formula_sum   'Zr4 Co15 Ni5 P12'
_cell_volume   426.91541240
_cell_formula_units_Z   1
loop_
 _symmetry_equiv_pos_site_id
 _symmetry_equiv_pos_as_xyz
  1  'x, y, z'
loop_
 _atom_site_type_symbol
 _atom_site_label
 _atom_site_symmetry_multiplicity
 _atom_site_fract_x
 _atom_site_fract_y
 _atom_site_fract_z
 _atom_site_occupancy
  Zr  Zr0  1  0.250000  0.579420  0.703224  1
  Zr  Zr1  1  0.250000  0.921046  0.202698  1
  Zr  Zr2  1  0.750000  0.420941  0.295616  1
  Zr  Zr3  1  0.750000  0.078852  0.797184  1
  Co  Co4  1  0.250000  0.090386  0.983413  1
  Co  Co5  1  0.750000  0.589858  0.516885  1
  Co  Co6  1  0.750000  0.908861  0.016351  1
  Co  Co7  1  0.250000  0.223081  0.177387  1
  Co  Co8  1  0.250000  0.277498  0.678773  1
  Co  Co9  1  0.750000  0.776501  0.821376  1
  Co  Co10  1  0.750000  0.723468  0.321325  1
  Co  Co11  1  0.250000  0.881145  0.700654  1
  Co  Co12  1  0.250000  0.618546  0.200627  1
  Co  Co13  1  0.750000  0.118938  0.299162  1
  Co  Co14  1  0.750000  0.381011  0.800666  1
  Co  Co15  1  0.250000  0.466365  0.931486  1
  Co  Co16  1  0.250000  0.033530  0.431605  1
  Co  Co17  1  0.750000  0.533938  0.068632  1
  Co  Co18  1  0.750000  0.966445  0.568652  1
  Ni  Ni19  1  0.250000  0.716001  0.992552  1
  Ni  Ni20  1  0.250000  0.784442  0.492760  1
  Ni  Ni21  1  0.750000  0.284254  0.007508  1
  Ni  Ni22  1  0.750000  0.216148  0.508689  1
  Ni  Ni23  1  0.250000  0.408953  0.483334  1
  P  P24  1  0.250000  0.420921  0.114936  1
  P  P25  1  0.250000  0.079467  0.615816  1
  P  P26  1  0.750000  0.579227  0.884711  1
  P  P27  1  0.750000  0.920908  0.384689  1
  P  P28  1  0.250000  0.265700  0.867742  1
  P  P29  1  0.250000  0.232605  0.365132  1
  P  P30  1  0.750000  0.734168  0.132595  1
  P  P31  1  0.750000  0.766169  0.632676  1
  P  P32  1  0.250000  0.603216  0.388918  1
  P  P33  1  0.250000  0.898755  0.889624  1
  P  P34  1  0.750000  0.398333  0.612973  1
  P  P35  1  0.750000  0.100905  0.109627  1
