# generated using pymatgen
data_Ac3(Hg2Pd)2
_symmetry_space_group_name_H-M   'P 1'
_cell_length_a   8.31145300
_cell_length_b   8.31145150
_cell_length_c   4.16202400
_cell_angle_alpha   90.00000000
_cell_angle_beta   90.00000000
_cell_angle_gamma   120.00000198
_symmetry_Int_Tables_number   1
_chemical_formula_structural   Ac3(Hg2Pd)2
_chemical_formula_sum   'Ac3 Hg4 Pd2'
_cell_volume   248.99408581
_cell_formula_units_Z   1
loop_
 _symmetry_equiv_pos_site_id
 _symmetry_equiv_pos_as_xyz
  1  'x, y, z'
loop_
 _atom_site_type_symbol
 _atom_site_label
 _atom_site_symmetry_multiplicity
 _atom_site_fract_x
 _atom_site_fract_y
 _atom_site_fract_z
 _atom_site_occupancy
  Ac  Ac0  1  0.405698  0.405698  0.500000  1
  Ac  Ac1  1  0.594302  0.000000  0.500000  1
  Ac  Ac2  1  0.000000  0.594302  0.500000  1
  Hg  Hg3  1  0.000000  0.000000  0.500000  1
  Hg  Hg4  1  0.723413  0.723413  0.000000  1
  Hg  Hg5  1  0.276587  0.000000  0.000000  1
  Hg  Hg6  1  0.000000  0.276587  0.000000  1
  Pd  Pd7  1  0.666667  0.333333  0.000000  1
  Pd  Pd8  1  0.333333  0.666667  0.000000  1
