# generated using pymatgen
data_SrTbNd(Si3Pd10)2
_symmetry_space_group_name_H-M   'P 1'
_cell_length_a   8.78628474
_cell_length_b   8.78628421
_cell_length_c   8.78628400
_cell_angle_alpha   60.00000078
_cell_angle_beta   60.00000278
_cell_angle_gamma   59.99999986
_symmetry_Int_Tables_number   1
_chemical_formula_structural   SrTbNd(Si3Pd10)2
_chemical_formula_sum   'Sr1 Tb1 Nd1 Si6 Pd20'
_cell_volume   479.62384994
_cell_formula_units_Z   1
loop_
 _symmetry_equiv_pos_site_id
 _symmetry_equiv_pos_as_xyz
  1  'x, y, z'
loop_
 _atom_site_type_symbol
 _atom_site_label
 _atom_site_symmetry_multiplicity
 _atom_site_fract_x
 _atom_site_fract_y
 _atom_site_fract_z
 _atom_site_occupancy
  Sr  Sr0  1  0.250000  0.250000  0.250000  1
  Tb  Tb1  1  0.000000  0.000000  0.000000  1
  Nd  Nd2  1  0.750000  0.750000  0.750000  1
  Si  Si3  1  0.732592  0.267408  0.267408  1
  Si  Si4  1  0.267408  0.732592  0.732592  1
  Si  Si5  1  0.267408  0.732592  0.267408  1
  Si  Si6  1  0.732592  0.267408  0.732592  1
  Si  Si7  1  0.267408  0.267408  0.732592  1
  Si  Si8  1  0.732592  0.732592  0.267408  1
  Pd  Pd9  1  0.346319  0.998141  0.998141  1
  Pd  Pd10  1  0.657399  0.998141  0.998141  1
  Pd  Pd11  1  0.998141  0.346319  0.657399  1
  Pd  Pd12  1  0.998141  0.657399  0.346319  1
  Pd  Pd13  1  0.998141  0.346319  0.998141  1
  Pd  Pd14  1  0.657399  0.998141  0.346319  1
  Pd  Pd15  1  0.998141  0.657399  0.998141  1
  Pd  Pd16  1  0.346319  0.998141  0.657399  1
  Pd  Pd17  1  0.998141  0.998141  0.346319  1
  Pd  Pd18  1  0.998141  0.998141  0.657399  1
  Pd  Pd19  1  0.657399  0.346319  0.998141  1
  Pd  Pd20  1  0.346319  0.657399  0.998141  1
  Pd  Pd21  1  0.387040  0.387040  0.387040  1
  Pd  Pd22  1  0.615288  0.615288  0.615288  1
  Pd  Pd23  1  0.387040  0.387040  0.838879  1
  Pd  Pd24  1  0.387040  0.838879  0.387040  1
  Pd  Pd25  1  0.615288  0.615288  0.154137  1
  Pd  Pd26  1  0.615288  0.154137  0.615288  1
  Pd  Pd27  1  0.838879  0.387040  0.387040  1
  Pd  Pd28  1  0.154137  0.615288  0.615288  1
