# generated using pymatgen
data_NdYTmRuO7
_symmetry_space_group_name_H-M   'P 1'
_cell_length_a   6.41945523
_cell_length_b   6.43809351
_cell_length_c   7.49516200
_cell_angle_alpha   90.00000000
_cell_angle_beta   90.00000000
_cell_angle_gamma   109.93365031
_symmetry_Int_Tables_number   1
_chemical_formula_structural   NdYTmRuO7
_chemical_formula_sum   'Nd2 Y2 Tm2 Ru2 O14'
_cell_volume   291.20914790
_cell_formula_units_Z   2
loop_
 _symmetry_equiv_pos_site_id
 _symmetry_equiv_pos_as_xyz
  1  'x, y, z'
loop_
 _atom_site_type_symbol
 _atom_site_label
 _atom_site_symmetry_multiplicity
 _atom_site_fract_x
 _atom_site_fract_y
 _atom_site_fract_z
 _atom_site_occupancy
  Nd  Nd0  1  0.000000  0.000000  0.500000  1
  Nd  Nd1  1  0.000000  0.000000  0.000000  1
  Y  Y2  1  0.482712  0.932223  0.750000  1
  Y  Y3  1  0.517288  0.067777  0.250000  1
  Tm  Tm4  1  0.935044  0.484214  0.750000  1
  Tm  Tm5  1  0.064956  0.515786  0.250000  1
  Ru  Ru6  1  0.500000  0.500000  0.500000  1
  Ru  Ru7  1  0.500000  0.500000  0.000000  1
  O  O8  1  0.592231  0.585685  0.750000  1
  O  O9  1  0.407769  0.414315  0.250000  1
  O  O10  1  0.840752  0.123644  0.750000  1
  O  O11  1  0.159248  0.876356  0.250000  1
  O  O12  1  0.114992  0.835796  0.750000  1
  O  O13  1  0.885008  0.164204  0.250000  1
  O  O14  1  0.434525  0.179825  0.964260  1
  O  O15  1  0.565475  0.820175  0.464260  1
  O  O16  1  0.181033  0.444959  0.963849  1
  O  O17  1  0.818967  0.555041  0.463849  1
  O  O18  1  0.434525  0.179825  0.535740  1
  O  O19  1  0.565475  0.820175  0.035740  1
  O  O20  1  0.818967  0.555041  0.036151  1
  O  O21  1  0.181033  0.444959  0.536151  1
