# generated using pymatgen
data_YbEr7SiPd24
_symmetry_space_group_name_H-M   'P 1'
_cell_length_a   8.29937530
_cell_length_b   8.29937530
_cell_length_c   8.29937530
_cell_angle_alpha   90.02189621
_cell_angle_beta   90.02189621
_cell_angle_gamma   90.02189621
_symmetry_Int_Tables_number   1
_chemical_formula_structural   YbEr7SiPd24
_chemical_formula_sum   'Yb1 Er7 Si1 Pd24'
_cell_volume   571.65777834
_cell_formula_units_Z   1
loop_
 _symmetry_equiv_pos_site_id
 _symmetry_equiv_pos_as_xyz
  1  'x, y, z'
loop_
 _atom_site_type_symbol
 _atom_site_label
 _atom_site_symmetry_multiplicity
 _atom_site_fract_x
 _atom_site_fract_y
 _atom_site_fract_z
 _atom_site_occupancy
  Yb  Yb0  1  0.253044  0.253044  0.253044  1
  Er  Er1  1  0.746563  0.746563  0.746563  1
  Er  Er2  1  0.746491  0.746491  0.253445  1
  Er  Er3  1  0.746491  0.253445  0.746491  1
  Er  Er4  1  0.253436  0.253436  0.746567  1
  Er  Er5  1  0.253436  0.746567  0.253436  1
  Er  Er6  1  0.253445  0.746491  0.746491  1
  Er  Er7  1  0.746567  0.253436  0.253436  1
  Si  Si8  1  0.000343  0.000343  0.000343  1
  Pd  Pd9  1  0.257009  0.500239  0.999679  1
  Pd  Pd10  1  0.742992  0.500071  0.999887  1
  Pd  Pd11  1  0.999679  0.257009  0.500239  1
  Pd  Pd12  1  0.500239  0.257009  0.999679  1
  Pd  Pd13  1  0.999887  0.742992  0.500071  1
  Pd  Pd14  1  0.500071  0.742992  0.999887  1
  Pd  Pd15  1  0.500239  0.999679  0.257009  1
  Pd  Pd16  1  0.257009  0.999679  0.500239  1
  Pd  Pd17  1  0.500071  0.999887  0.742992  1
  Pd  Pd18  1  0.742992  0.999887  0.500071  1
  Pd  Pd19  1  0.999679  0.500239  0.257009  1
  Pd  Pd20  1  0.999887  0.500071  0.742992  1
  Pd  Pd21  1  0.251772  0.500233  0.500233  1
  Pd  Pd22  1  0.748155  0.500092  0.500092  1
  Pd  Pd23  1  0.500233  0.251772  0.500233  1
  Pd  Pd24  1  0.500092  0.748155  0.500092  1
  Pd  Pd25  1  0.500233  0.500233  0.251772  1
  Pd  Pd26  1  0.500092  0.500092  0.748155  1
  Pd  Pd27  1  0.279734  0.999964  0.999964  1
  Pd  Pd28  1  0.720223  0.999984  0.999984  1
  Pd  Pd29  1  0.999964  0.279734  0.999964  1
  Pd  Pd30  1  0.999984  0.720223  0.999984  1
  Pd  Pd31  1  0.999964  0.999964  0.279734  1
  Pd  Pd32  1  0.999984  0.999984  0.720223  1
