# generated using pymatgen
data_YbPrSm5FeI12
_symmetry_space_group_name_H-M   'P 1'
_cell_length_a   9.98144046
_cell_length_b   9.91426721
_cell_length_c   9.90724185
_cell_angle_alpha   106.85003639
_cell_angle_beta   106.86317142
_cell_angle_gamma   107.25402566
_symmetry_Int_Tables_number   1
_chemical_formula_structural   YbPrSm5FeI12
_chemical_formula_sum   'Yb1 Pr1 Sm5 Fe1 I12'
_cell_volume   816.72570468
_cell_formula_units_Z   1
loop_
 _symmetry_equiv_pos_site_id
 _symmetry_equiv_pos_as_xyz
  1  'x, y, z'
loop_
 _atom_site_type_symbol
 _atom_site_label
 _atom_site_symmetry_multiplicity
 _atom_site_fract_x
 _atom_site_fract_y
 _atom_site_fract_z
 _atom_site_occupancy
  Yb  Yb0  1  0.999634  0.000295  0.999121  1
  Pr  Pr1  1  0.404025  0.205076  0.475140  1
  Sm  Sm2  1  0.806072  0.526609  0.600595  1
  Sm  Sm3  1  0.524940  0.595455  0.788913  1
  Sm  Sm4  1  0.194199  0.472920  0.399613  1
  Sm  Sm5  1  0.475551  0.406387  0.211429  1
  Sm  Sm6  1  0.594665  0.788871  0.524822  1
  Fe  Fe7  1  0.499374  0.498716  0.499853  1
  I  I8  1  0.730941  0.184247  0.575540  1
  I  I9  1  0.957535  0.881384  0.654292  1
  I  I10  1  0.573889  0.725951  0.184770  1
  I  I11  1  0.120888  0.345818  0.041356  1
  I  I12  1  0.655633  0.958390  0.879778  1
  I  I13  1  0.879230  0.655384  0.959196  1
  I  I14  1  0.036120  0.117759  0.341877  1
  I  I15  1  0.816438  0.426730  0.274282  1
  I  I16  1  0.342897  0.041219  0.113398  1
  I  I17  1  0.275809  0.815070  0.426511  1
  I  I18  1  0.183938  0.574306  0.726166  1
  I  I19  1  0.428222  0.279413  0.823349  1
