# generated using pymatgen
data_Ce3Al3IrPd2
_symmetry_space_group_name_H-M   'P 1'
_cell_length_a   7.17950800
_cell_length_b   7.17950946
_cell_length_c   4.13657000
_cell_angle_alpha   90.00000000
_cell_angle_beta   90.00000000
_cell_angle_gamma   119.99999328
_symmetry_Int_Tables_number   1
_chemical_formula_structural   Ce3Al3IrPd2
_chemical_formula_sum   'Ce3 Al3 Ir1 Pd2'
_cell_volume   184.65475473
_cell_formula_units_Z   1
loop_
 _symmetry_equiv_pos_site_id
 _symmetry_equiv_pos_as_xyz
  1  'x, y, z'
loop_
 _atom_site_type_symbol
 _atom_site_label
 _atom_site_symmetry_multiplicity
 _atom_site_fract_x
 _atom_site_fract_y
 _atom_site_fract_z
 _atom_site_occupancy
  Ce  Ce0  1  0.006481  0.579907  0.500000  1
  Ce  Ce1  1  0.420093  0.426574  0.500000  1
  Ce  Ce2  1  0.573426  0.993519  0.500000  1
  Al  Al3  1  0.003328  0.237310  0.000000  1
  Al  Al4  1  0.762690  0.766017  0.000000  1
  Al  Al5  1  0.233983  0.996672  0.000000  1
  Ir  Ir6  1  0.333333  0.666667  0.000000  1
  Pd  Pd7  1  0.000000  0.000000  0.500000  1
  Pd  Pd8  1  0.666667  0.333333  0.000000  1
