# generated using pymatgen
data_Dy6MoO12
_symmetry_space_group_name_H-M   'P 1'
_cell_length_a   6.48012583
_cell_length_b   6.48012421
_cell_length_c   6.48012485
_cell_angle_alpha   98.56469373
_cell_angle_beta   98.56469604
_cell_angle_gamma   98.56469161
_symmetry_Int_Tables_number   1
_chemical_formula_structural   Dy6MoO12
_chemical_formula_sum   'Dy6 Mo1 O12'
_cell_volume   261.97299427
_cell_formula_units_Z   1
loop_
 _symmetry_equiv_pos_site_id
 _symmetry_equiv_pos_as_xyz
  1  'x, y, z'
loop_
 _atom_site_type_symbol
 _atom_site_label
 _atom_site_symmetry_multiplicity
 _atom_site_fract_x
 _atom_site_fract_y
 _atom_site_fract_z
 _atom_site_occupancy
  Dy  Dy0  1  0.612258  0.315578  0.144229  1
  Dy  Dy1  1  0.144228  0.612258  0.315579  1
  Dy  Dy2  1  0.684421  0.855771  0.387743  1
  Dy  Dy3  1  0.315579  0.144229  0.612258  1
  Dy  Dy4  1  0.855772  0.387743  0.684422  1
  Dy  Dy5  1  0.387742  0.684422  0.855773  1
  Mo  Mo6  1  0.000000  0.000000  0.000000  1
  O  O7  1  0.702916  0.925404  0.034040  1
  O  O8  1  0.965959  0.297084  0.074595  1
  O  O9  1  0.433207  0.591051  0.177420  1
  O  O10  1  0.074595  0.965960  0.297083  1
  O  O11  1  0.822580  0.566793  0.408948  1
  O  O12  1  0.591053  0.177420  0.433207  1
  O  O13  1  0.408948  0.822580  0.566792  1
  O  O14  1  0.177420  0.433207  0.591053  1
  O  O15  1  0.925405  0.034040  0.702916  1
  O  O16  1  0.566793  0.408948  0.822579  1
  O  O17  1  0.034041  0.702916  0.925404  1
  O  O18  1  0.297084  0.074595  0.965959  1
