# generated using pymatgen
data_K8Al3CrS4(O4F3)4
_symmetry_space_group_name_H-M   'P 1'
_cell_length_a   6.96194000
_cell_length_b   8.47483800
_cell_length_c   11.12115000
_cell_angle_alpha   90.00000000
_cell_angle_beta   90.00000000
_cell_angle_gamma   90.00000000
_symmetry_Int_Tables_number   1
_chemical_formula_structural   K8Al3CrS4(O4F3)4
_chemical_formula_sum   'K8 Al3 Cr1 S4 O16 F12'
_cell_volume   656.16245947
_cell_formula_units_Z   1
loop_
 _symmetry_equiv_pos_site_id
 _symmetry_equiv_pos_as_xyz
  1  'x, y, z'
loop_
 _atom_site_type_symbol
 _atom_site_label
 _atom_site_symmetry_multiplicity
 _atom_site_fract_x
 _atom_site_fract_y
 _atom_site_fract_z
 _atom_site_occupancy
  K  K0  1  0.698342  0.173956  0.199407  1
  K  K1  1  0.196631  0.324743  0.304084  1
  K  K2  1  0.301443  0.325926  0.696233  1
  K  K3  1  0.801395  0.174610  0.800840  1
  K  K4  1  0.301658  0.826044  0.800593  1
  K  K5  1  0.803369  0.675257  0.695916  1
  K  K6  1  0.698557  0.674074  0.303767  1
  K  K7  1  0.198605  0.825390  0.199160  1
  Al  Al8  1  0.000000  0.000000  0.500000  1
  Al  Al9  1  0.500000  0.000000  0.500000  1
  Al  Al10  1  0.000000  0.500000  0.000000  1
  Cr  Cr11  1  0.500000  0.500000  0.000000  1
  S  S12  1  0.750169  0.307901  0.499967  1
  S  S13  1  0.248154  0.187736  0.999665  1
  S  S14  1  0.249831  0.692099  0.500033  1
  S  S15  1  0.751846  0.812264  0.000335  1
  O  O16  1  0.828662  0.402115  0.400936  1
  O  O17  1  0.327461  0.094732  0.098934  1
  O  O18  1  0.164241  0.092840  0.902855  1
  O  O19  1  0.671939  0.402213  0.598980  1
  O  O20  1  0.171338  0.597885  0.599064  1
  O  O21  1  0.672539  0.905268  0.901066  1
  O  O22  1  0.835759  0.907160  0.097145  1
  O  O23  1  0.328061  0.597787  0.401020  1
  O  O24  1  0.594486  0.202151  0.447893  1
  O  O25  1  0.099438  0.299025  0.052426  1
  O  O26  1  0.405459  0.288694  0.942838  1
  O  O27  1  0.906035  0.202255  0.552085  1
  O  O28  1  0.405514  0.797849  0.552107  1
  O  O29  1  0.900562  0.700975  0.947574  1
  O  O30  1  0.594541  0.711306  0.057162  1
  O  O31  1  0.093965  0.797745  0.447915  1
  F  F32  1  0.978298  0.052747  0.345268  1
  F  F33  1  0.479336  0.442142  0.166610  1
  F  F34  1  0.023375  0.447529  0.845017  1
  F  F35  1  0.521422  0.053004  0.654732  1
  F  F36  1  0.021702  0.947253  0.654732  1
  F  F37  1  0.520664  0.557858  0.833390  1
  F  F38  1  0.976625  0.552471  0.154983  1
  F  F39  1  0.478578  0.946996  0.345268  1
  F  F40  1  0.758537  0.405250  0.000644  1
  F  F41  1  0.250017  0.085366  0.499959  1
  F  F42  1  0.241463  0.594750  0.999356  1
  F  F43  1  0.749983  0.914634  0.500041  1
