# generated using pymatgen
data_Nd8ZnCuPd23
_symmetry_space_group_name_H-M   'P 1'
_cell_length_a   8.44511600
_cell_length_b   8.48873900
_cell_length_c   8.54455500
_cell_angle_alpha   90.00000000
_cell_angle_beta   90.00000000
_cell_angle_gamma   90.00000000
_symmetry_Int_Tables_number   1
_chemical_formula_structural   Nd8ZnCuPd23
_chemical_formula_sum   'Nd8 Zn1 Cu1 Pd23'
_cell_volume   612.54535318
_cell_formula_units_Z   1
loop_
 _symmetry_equiv_pos_site_id
 _symmetry_equiv_pos_as_xyz
  1  'x, y, z'
loop_
 _atom_site_type_symbol
 _atom_site_label
 _atom_site_symmetry_multiplicity
 _atom_site_fract_x
 _atom_site_fract_y
 _atom_site_fract_z
 _atom_site_occupancy
  Nd  Nd0  1  0.250047  0.248075  0.253829  1
  Nd  Nd1  1  0.749231  0.748877  0.750396  1
  Nd  Nd2  1  0.749231  0.748877  0.249604  1
  Nd  Nd3  1  0.749231  0.251123  0.750396  1
  Nd  Nd4  1  0.250047  0.248075  0.746171  1
  Nd  Nd5  1  0.250047  0.751925  0.253829  1
  Nd  Nd6  1  0.250047  0.751925  0.746171  1
  Nd  Nd7  1  0.749231  0.251123  0.249604  1
  Zn  Zn8  1  0.999731  0.000000  0.000000  1
  Cu  Cu9  1  0.267046  0.500000  0.000000  1
  Pd  Pd10  1  0.739791  0.500000  0.000000  1
  Pd  Pd11  1  0.998998  0.262355  0.500000  1
  Pd  Pd12  1  0.493364  0.266983  0.000000  1
  Pd  Pd13  1  0.998998  0.737645  0.500000  1
  Pd  Pd14  1  0.493364  0.733017  0.000000  1
  Pd  Pd15  1  0.500403  0.000000  0.261614  1
  Pd  Pd16  1  0.262446  0.000000  0.500000  1
  Pd  Pd17  1  0.500403  0.000000  0.738386  1
  Pd  Pd18  1  0.737018  0.000000  0.500000  1
  Pd  Pd19  1  0.002334  0.500000  0.261807  1
  Pd  Pd20  1  0.002334  0.500000  0.738193  1
  Pd  Pd21  1  0.254135  0.500000  0.500000  1
  Pd  Pd22  1  0.745912  0.500000  0.500000  1
  Pd  Pd23  1  0.500399  0.254644  0.500000  1
  Pd  Pd24  1  0.500399  0.745356  0.500000  1
  Pd  Pd25  1  0.495189  0.500000  0.250194  1
  Pd  Pd26  1  0.495189  0.500000  0.749806  1
  Pd  Pd27  1  0.298030  0.000000  0.000000  1
  Pd  Pd28  1  0.699823  0.000000  0.000000  1
  Pd  Pd29  1  0.009880  0.301729  0.000000  1
  Pd  Pd30  1  0.009880  0.698271  0.000000  1
  Pd  Pd31  1  0.998911  0.000000  0.296130  1
  Pd  Pd32  1  0.998911  0.000000  0.703870  1
