# generated using pymatgen
data_Ac5La7(SmIr3)2
_symmetry_space_group_name_H-M   'P 1'
_cell_length_a   6.60587053
_cell_length_b   10.41063545
_cell_length_c   10.45597100
_cell_angle_alpha   119.85643821
_cell_angle_beta   89.94987605
_cell_angle_gamma   90.00117216
_symmetry_Int_Tables_number   1
_chemical_formula_structural   Ac5La7(SmIr3)2
_chemical_formula_sum   'Ac5 La7 Sm2 Ir6'
_cell_volume   623.63219438
_cell_formula_units_Z   1
loop_
 _symmetry_equiv_pos_site_id
 _symmetry_equiv_pos_as_xyz
  1  'x, y, z'
loop_
 _atom_site_type_symbol
 _atom_site_label
 _atom_site_symmetry_multiplicity
 _atom_site_fract_x
 _atom_site_fract_y
 _atom_site_fract_z
 _atom_site_occupancy
  Ac  Ac0  1  0.249432  0.129955  0.869395  1
  Ac  Ac1  1  0.249438  0.739401  0.869386  1
  Ac  Ac2  1  0.248538  0.131478  0.262954  1
  Ac  Ac3  1  0.747102  0.869171  0.130234  1
  Ac  Ac4  1  0.747126  0.261063  0.130243  1
  La  La5  1  0.756135  0.870061  0.740100  1
  La  La6  1  0.430033  0.544700  0.461094  1
  La  La7  1  0.429984  0.916409  0.461077  1
  La  La8  1  0.425046  0.541598  0.083189  1
  La  La9  1  0.929149  0.460390  0.540805  1
  La  La10  1  0.929175  0.080452  0.540842  1
  La  La11  1  0.927034  0.457566  0.915156  1
  Sm  Sm12  1  0.482981  0.333294  0.666602  1
  Sm  Sm13  1  0.979498  0.666166  0.332305  1
  Ir  Ir14  1  0.198705  0.810490  0.192489  1
  Ir  Ir15  1  0.198707  0.382007  0.192500  1
  Ir  Ir16  1  0.181835  0.808249  0.616511  1
  Ir  Ir17  1  0.697643  0.184793  0.805977  1
  Ir  Ir18  1  0.697635  0.621172  0.805969  1
  Ir  Ir19  1  0.696803  0.191583  0.383171  1
