# generated using pymatgen
data_Dy4Ga18IrRu3Pt2
_symmetry_space_group_name_H-M   'P 1'
_cell_length_a   7.62505743
_cell_length_b   7.62505726
_cell_length_c   9.58731625
_cell_angle_alpha   90.05373351
_cell_angle_beta   90.05373043
_cell_angle_gamma   120.30115211
_symmetry_Int_Tables_number   1
_chemical_formula_structural   Dy4Ga18IrRu3Pt2
_chemical_formula_sum   'Dy4 Ga18 Ir1 Ru3 Pt2'
_cell_volume   481.26825301
_cell_formula_units_Z   1
loop_
 _symmetry_equiv_pos_site_id
 _symmetry_equiv_pos_as_xyz
  1  'x, y, z'
loop_
 _atom_site_type_symbol
 _atom_site_label
 _atom_site_symmetry_multiplicity
 _atom_site_fract_x
 _atom_site_fract_y
 _atom_site_fract_z
 _atom_site_occupancy
  Dy  Dy0  1  0.996732  0.668770  0.250415  1
  Dy  Dy1  1  0.003871  0.331463  0.749782  1
  Dy  Dy2  1  0.668537  0.996129  0.250218  1
  Dy  Dy3  1  0.331230  0.003268  0.749585  1
  Ga  Ga4  1  0.133246  0.132258  0.251112  1
  Ga  Ga5  1  0.867742  0.866754  0.748888  1
  Ga  Ga6  1  0.000686  0.338611  0.080014  1
  Ga  Ga7  1  0.000623  0.661596  0.921082  1
  Ga  Ga8  1  0.002423  0.663306  0.578907  1
  Ga  Ga9  1  0.336694  0.997577  0.421093  1
  Ga  Ga10  1  0.001164  0.338664  0.421206  1
  Ga  Ga11  1  0.661336  0.998836  0.578794  1
  Ga  Ga12  1  0.661389  0.999314  0.919986  1
  Ga  Ga13  1  0.338404  0.999377  0.078918  1
  Ga  Ga14  1  0.337972  0.340711  0.565305  1
  Ga  Ga15  1  0.659289  0.662028  0.434695  1
  Ga  Ga16  1  0.658540  0.658237  0.065325  1
  Ga  Ga17  1  0.341763  0.341460  0.934675  1
  Ga  Ga18  1  0.335482  0.549447  0.250416  1
  Ga  Ga19  1  0.664632  0.452189  0.751189  1
  Ga  Ga20  1  0.547811  0.335368  0.248811  1
  Ga  Ga21  1  0.450553  0.664518  0.749584  1
  Ir  Ir22  1  0.671743  0.328257  0.500000  1
  Ru  Ru23  1  0.672653  0.327347  0.000000  1
  Ru  Ru24  1  0.327921  0.672079  0.000000  1
  Ru  Ru25  1  0.327855  0.672145  0.500000  1
  Pt  Pt26  1  0.999784  0.000216  0.000000  1
  Pt  Pt27  1  0.999924  0.000076  0.500000  1
