# generated using pymatgen
data_K7Th(SeO4)6
_symmetry_space_group_name_H-M   'P 1'
_cell_length_a   9.93568943
_cell_length_b   9.93568943
_cell_length_c   9.93568923
_cell_angle_alpha   109.18393430
_cell_angle_beta   109.18393533
_cell_angle_gamma   109.18391985
_symmetry_Int_Tables_number   1
_chemical_formula_structural   K7Th(SeO4)6
_chemical_formula_sum   'K7 Th1 Se6 O24'
_cell_volume   762.96921934
_cell_formula_units_Z   1
loop_
 _symmetry_equiv_pos_site_id
 _symmetry_equiv_pos_as_xyz
  1  'x, y, z'
loop_
 _atom_site_type_symbol
 _atom_site_label
 _atom_site_symmetry_multiplicity
 _atom_site_fract_x
 _atom_site_fract_y
 _atom_site_fract_z
 _atom_site_occupancy
  K  K0  1  0.500000  0.500000  0.500000  1
  K  K1  1  0.658372  0.161515  0.314853  1
  K  K2  1  0.314853  0.658372  0.161515  1
  K  K3  1  0.161515  0.314853  0.658372  1
  K  K4  1  0.341628  0.838485  0.685147  1
  K  K5  1  0.685147  0.341628  0.838485  1
  K  K6  1  0.838485  0.685147  0.341628  1
  Th  Th7  1  0.000000  0.000000  0.000000  1
  Se  Se8  1  0.267527  0.036003  0.402932  1
  Se  Se9  1  0.402932  0.267527  0.036003  1
  Se  Se10  1  0.036003  0.402932  0.267527  1
  Se  Se11  1  0.732473  0.963997  0.597068  1
  Se  Se12  1  0.597068  0.732473  0.963997  1
  Se  Se13  1  0.963997  0.597068  0.732473  1
  O  O14  1  0.089646  0.537933  0.819563  1
  O  O15  1  0.819563  0.089646  0.537933  1
  O  O16  1  0.537933  0.819563  0.089646  1
  O  O17  1  0.910354  0.462067  0.180437  1
  O  O18  1  0.180437  0.910354  0.462067  1
  O  O19  1  0.462067  0.180437  0.910354  1
  O  O20  1  0.021647  0.680469  0.627329  1
  O  O21  1  0.627329  0.021647  0.680469  1
  O  O22  1  0.680469  0.627329  0.021647  1
  O  O23  1  0.978353  0.319531  0.372671  1
  O  O24  1  0.372671  0.978353  0.319531  1
  O  O25  1  0.319531  0.372671  0.978353  1
  O  O26  1  0.030370  0.257280  0.110392  1
  O  O27  1  0.110392  0.030370  0.257280  1
  O  O28  1  0.553817  0.378680  0.229885  1
  O  O29  1  0.378680  0.229885  0.553817  1
  O  O30  1  0.229885  0.553817  0.378680  1
  O  O31  1  0.446183  0.621320  0.770115  1
  O  O32  1  0.621320  0.770115  0.446183  1
  O  O33  1  0.770115  0.446183  0.621320  1
  O  O34  1  0.742720  0.889608  0.969630  1
  O  O35  1  0.889608  0.969630  0.742720  1
  O  O36  1  0.969630  0.742720  0.889608  1
  O  O37  1  0.257280  0.110392  0.030370  1
