# generated using pymatgen
data_Pr4Ho12Cd4Pd3Ru
_symmetry_space_group_name_H-M   'P 1'
_cell_length_a   9.75655372
_cell_length_b   9.74496573
_cell_length_c   9.74496457
_cell_angle_alpha   59.88710488
_cell_angle_beta   59.64015876
_cell_angle_gamma   59.64016574
_symmetry_Int_Tables_number   1
_chemical_formula_structural   Pr4Ho12Cd4Pd3Ru
_chemical_formula_sum   'Pr4 Ho12 Cd4 Pd3 Ru1'
_cell_volume   651.01433164
_cell_formula_units_Z   1
loop_
 _symmetry_equiv_pos_site_id
 _symmetry_equiv_pos_as_xyz
  1  'x, y, z'
loop_
 _atom_site_type_symbol
 _atom_site_label
 _atom_site_symmetry_multiplicity
 _atom_site_fract_x
 _atom_site_fract_y
 _atom_site_fract_z
 _atom_site_occupancy
  Pr  Pr0  1  0.566147  0.933755  0.566672  1
  Pr  Pr1  1  0.936835  0.560795  0.934668  1
  Pr  Pr2  1  0.566147  0.566672  0.933755  1
  Pr  Pr3  1  0.936835  0.934668  0.560795  1
  Ho  Ho4  1  0.353510  0.352551  0.352551  1
  Ho  Ho5  1  0.347520  0.348965  0.950987  1
  Ho  Ho6  1  0.347520  0.950987  0.348965  1
  Ho  Ho7  1  0.948768  0.348283  0.348283  1
  Ho  Ho8  1  0.820194  0.185453  0.185453  1
  Ho  Ho9  1  0.186691  0.812229  0.812229  1
  Ho  Ho10  1  0.187292  0.818340  0.187352  1
  Ho  Ho11  1  0.811403  0.184907  0.811532  1
  Ho  Ho12  1  0.187292  0.187352  0.818340  1
  Ho  Ho13  1  0.811403  0.811532  0.184907  1
  Ho  Ho14  1  0.940274  0.558338  0.558338  1
  Ho  Ho15  1  0.552926  0.942882  0.942882  1
  Cd  Cd16  1  0.583309  0.577447  0.577447  1
  Cd  Cd17  1  0.577833  0.583745  0.258477  1
  Cd  Cd18  1  0.577833  0.258477  0.583745  1
  Cd  Cd19  1  0.258849  0.578540  0.578540  1
  Pd  Pd20  1  0.143016  0.147826  0.570686  1
  Pd  Pd21  1  0.143016  0.570686  0.147826  1
  Pd  Pd22  1  0.570074  0.143611  0.143611  1
  Ru  Ru23  1  0.145314  0.141960  0.141960  1
