# generated using pymatgen
data_Ba6Zr(RuO6)2
_symmetry_space_group_name_H-M   'P 1'
_cell_length_a   9.22486369
_cell_length_b   9.22486316
_cell_length_c   7.31311700
_cell_angle_alpha   67.76002328
_cell_angle_beta   67.76002462
_cell_angle_gamma   36.80827124
_symmetry_Int_Tables_number   1
_chemical_formula_structural   Ba6Zr(RuO6)2
_chemical_formula_sum   'Ba6 Zr1 Ru2 O12'
_cell_volume   341.91581963
_cell_formula_units_Z   1
loop_
 _symmetry_equiv_pos_site_id
 _symmetry_equiv_pos_as_xyz
  1  'x, y, z'
loop_
 _atom_site_type_symbol
 _atom_site_label
 _atom_site_symmetry_multiplicity
 _atom_site_fract_x
 _atom_site_fract_y
 _atom_site_fract_z
 _atom_site_occupancy
  Ba  Ba0  1  0.878634  0.878634  0.712798  1
  Ba  Ba1  1  0.217390  0.217390  0.711251  1
  Ba  Ba2  1  0.548848  0.548848  0.706317  1
  Ba  Ba3  1  0.451152  0.451152  0.293683  1
  Ba  Ba4  1  0.782610  0.782610  0.288749  1
  Ba  Ba5  1  0.121366  0.121366  0.287202  1
  Zr  Zr6  1  0.000000  0.000000  0.000000  1
  Ru  Ru7  1  0.668369  0.668369  0.999440  1
  Ru  Ru8  1  0.331631  0.331631  0.000560  1
  O  O9  1  0.946283  0.946283  0.316783  1
  O  O10  1  0.282180  0.282180  0.307306  1
  O  O11  1  0.616245  0.616245  0.305861  1
  O  O12  1  0.383755  0.383755  0.694139  1
  O  O13  1  0.717820  0.717820  0.692694  1
  O  O14  1  0.053717  0.053717  0.683217  1
  O  O15  1  0.500000  0.000000  0.000000  1
  O  O16  1  0.828781  0.342157  0.999855  1
  O  O17  1  0.171219  0.657843  0.000145  1
  O  O18  1  0.000000  0.500000  0.000000  1
  O  O19  1  0.342157  0.828781  0.999855  1
  O  O20  1  0.657843  0.171219  0.000145  1
