# generated using pymatgen
data_CsAcSnSe4
_symmetry_space_group_name_H-M   'P 1'
_cell_length_a   7.22408214
_cell_length_b   7.37274501
_cell_length_c   10.00513400
_cell_angle_alpha   89.99958812
_cell_angle_beta   107.36574092
_cell_angle_gamma   90.00217746
_symmetry_Int_Tables_number   1
_chemical_formula_structural   CsAcSnSe4
_chemical_formula_sum   'Cs2 Ac2 Sn2 Se8'
_cell_volume   508.59707574
_cell_formula_units_Z   2
loop_
 _symmetry_equiv_pos_site_id
 _symmetry_equiv_pos_as_xyz
  1  'x, y, z'
loop_
 _atom_site_type_symbol
 _atom_site_label
 _atom_site_symmetry_multiplicity
 _atom_site_fract_x
 _atom_site_fract_y
 _atom_site_fract_z
 _atom_site_occupancy
  Cs  Cs0  1  0.261435  0.010458  0.062449  1
  Cs  Cs1  1  0.738565  0.510456  0.937558  1
  Ac  Ac2  1  0.770731  0.492702  0.447898  1
  Ac  Ac3  1  0.229262  0.992713  0.552103  1
  Sn  Sn4  1  0.220928  0.524647  0.324783  1
  Sn  Sn5  1  0.779077  0.024648  0.675207  1
  Se  Se6  1  0.429193  0.524402  0.163337  1
  Se  Se7  1  0.963461  0.774895  0.282075  1
  Se  Se8  1  0.006745  0.243203  0.295378  1
  Se  Se9  1  0.568024  0.090521  0.424558  1
  Se  Se10  1  0.431970  0.590532  0.575443  1
  Se  Se11  1  0.993255  0.743195  0.704625  1
  Se  Se12  1  0.036552  0.274908  0.717920  1
  Se  Se13  1  0.570802  0.024398  0.836667  1
