# generated using pymatgen
data_Er2Si6Ir
_symmetry_space_group_name_H-M   'P 1'
_cell_length_a   5.55931223
_cell_length_b   5.55931361
_cell_length_c   20.95914600
_cell_angle_alpha   90.00000000
_cell_angle_beta   90.00000000
_cell_angle_gamma   90.90987775
_symmetry_Int_Tables_number   1
_chemical_formula_structural   Er2Si6Ir
_chemical_formula_sum   'Er8 Si24 Ir4'
_cell_volume   647.68085473
_cell_formula_units_Z   4
loop_
 _symmetry_equiv_pos_site_id
 _symmetry_equiv_pos_as_xyz
  1  'x, y, z'
loop_
 _atom_site_type_symbol
 _atom_site_label
 _atom_site_symmetry_multiplicity
 _atom_site_fract_x
 _atom_site_fract_y
 _atom_site_fract_z
 _atom_site_occupancy
  Er  Er0  1  0.373559  0.874087  0.581333  1
  Er  Er1  1  0.125913  0.626441  0.418667  1
  Er  Er2  1  0.625913  0.126441  0.081333  1
  Er  Er3  1  0.873559  0.374087  0.918667  1
  Er  Er4  1  0.626441  0.125913  0.418667  1
  Er  Er5  1  0.874087  0.373559  0.581333  1
  Er  Er6  1  0.374087  0.873559  0.918667  1
  Er  Er7  1  0.126441  0.625913  0.081333  1
  Si  Si8  1  0.652254  0.095490  0.693297  1
  Si  Si9  1  0.904510  0.347746  0.306703  1
  Si  Si10  1  0.404510  0.847746  0.193297  1
  Si  Si11  1  0.152254  0.595490  0.806703  1
  Si  Si12  1  0.347746  0.904510  0.306703  1
  Si  Si13  1  0.095490  0.652254  0.693297  1
  Si  Si14  1  0.595490  0.152254  0.806703  1
  Si  Si15  1  0.847746  0.404510  0.193297  1
  Si  Si16  1  0.376281  0.376281  0.964134  1
  Si  Si17  1  0.623719  0.623719  0.035866  1
  Si  Si18  1  0.123719  0.123719  0.464134  1
  Si  Si19  1  0.876281  0.876281  0.535866  1
  Si  Si20  1  0.374186  0.374186  0.530801  1
  Si  Si21  1  0.625814  0.625814  0.469199  1
  Si  Si22  1  0.125814  0.125814  0.030801  1
  Si  Si23  1  0.874186  0.874186  0.969199  1
  Si  Si24  1  0.154257  0.154257  0.806691  1
  Si  Si25  1  0.845743  0.845743  0.193309  1
  Si  Si26  1  0.345743  0.345743  0.306691  1
  Si  Si27  1  0.654257  0.654257  0.693309  1
  Si  Si28  1  0.093864  0.093864  0.693220  1
  Si  Si29  1  0.906136  0.906136  0.306780  1
  Si  Si30  1  0.406136  0.406136  0.193220  1
  Si  Si31  1  0.593864  0.593864  0.806780  1
  Ir  Ir32  1  0.374615  0.374615  0.642652  1
  Ir  Ir33  1  0.625385  0.625385  0.357348  1
  Ir  Ir34  1  0.125385  0.125385  0.142652  1
  Ir  Ir35  1  0.874615  0.874615  0.857348  1
