# generated using pymatgen
data_Pr9NdSn20IrPd7
_symmetry_space_group_name_H-M   'P 1'
_cell_length_a   14.30874802
_cell_length_b   14.32824902
_cell_length_c   4.68058900
_cell_angle_alpha   90.00000000
_cell_angle_beta   90.00000000
_cell_angle_gamma   89.99951958
_symmetry_Int_Tables_number   1
_chemical_formula_structural   Pr9NdSn20IrPd7
_chemical_formula_sum   'Pr9 Nd1 Sn20 Ir1 Pd7'
_cell_volume   959.61110294
_cell_formula_units_Z   1
loop_
 _symmetry_equiv_pos_site_id
 _symmetry_equiv_pos_as_xyz
  1  'x, y, z'
loop_
 _atom_site_type_symbol
 _atom_site_label
 _atom_site_symmetry_multiplicity
 _atom_site_fract_x
 _atom_site_fract_y
 _atom_site_fract_z
 _atom_site_occupancy
  Pr  Pr0  1  0.500241  0.498695  0.000000  1
  Pr  Pr1  1  0.999456  0.996127  0.000000  1
  Pr  Pr2  1  0.319666  0.819020  0.500000  1
  Pr  Pr3  1  0.179782  0.320689  0.500000  1
  Pr  Pr4  1  0.822834  0.681768  0.500000  1
  Pr  Pr5  1  0.892360  0.393503  0.500000  1
  Pr  Pr6  1  0.105185  0.610781  0.500000  1
  Pr  Pr7  1  0.391599  0.108128  0.500000  1
  Pr  Pr8  1  0.609264  0.892125  0.500000  1
  Nd  Nd9  1  0.680236  0.179832  0.500000  1
  Sn  Sn10  1  0.568993  0.068818  0.000000  1
  Sn  Sn11  1  0.430040  0.931226  0.000000  1
  Sn  Sn12  1  0.069173  0.432830  0.000000  1
  Sn  Sn13  1  0.930943  0.572067  0.000000  1
  Sn  Sn14  1  0.653025  0.700894  0.000000  1
  Sn  Sn15  1  0.347765  0.298391  0.000000  1
  Sn  Sn16  1  0.151390  0.796953  0.000000  1
  Sn  Sn17  1  0.848257  0.200573  0.000000  1
  Sn  Sn18  1  0.299210  0.652431  0.000000  1
  Sn  Sn19  1  0.701584  0.347046  0.000000  1
  Sn  Sn20  1  0.200272  0.151771  0.000000  1
  Sn  Sn21  1  0.800736  0.847454  0.000000  1
  Sn  Sn22  1  0.663004  0.501391  0.500000  1
  Sn  Sn23  1  0.336808  0.499972  0.500000  1
  Sn  Sn24  1  0.161446  0.996742  0.500000  1
  Sn  Sn25  1  0.837133  0.999802  0.500000  1
  Sn  Sn26  1  0.499891  0.662232  0.500000  1
  Sn  Sn27  1  0.501180  0.337540  0.500000  1
  Sn  Sn28  1  0.001304  0.162136  0.500000  1
  Sn  Sn29  1  0.996548  0.836996  0.500000  1
  Ir  Ir30  1  0.967758  0.756887  0.000000  1
  Pd  Pd31  1  0.744982  0.530985  0.000000  1
  Pd  Pd32  1  0.255954  0.467744  0.000000  1
  Pd  Pd33  1  0.243421  0.967856  0.000000  1
  Pd  Pd34  1  0.755457  0.031665  0.000000  1
  Pd  Pd35  1  0.469077  0.745413  0.000000  1
  Pd  Pd36  1  0.532315  0.255018  0.000000  1
  Pd  Pd37  1  0.031711  0.246499  0.000000  1
