# generated using pymatgen
data_Pr19Lu(Ga5Te)2
_symmetry_space_group_name_H-M   'P 1'
_cell_length_a   8.04237900
_cell_length_b   8.04237900
_cell_length_c   14.45488600
_cell_angle_alpha   90.00000000
_cell_angle_beta   90.00000000
_cell_angle_gamma   90.00000000
_symmetry_Int_Tables_number   1
_chemical_formula_structural   Pr19Lu(Ga5Te)2
_chemical_formula_sum   'Pr19 Lu1 Ga10 Te2'
_cell_volume   934.94000250
_cell_formula_units_Z   1
loop_
 _symmetry_equiv_pos_site_id
 _symmetry_equiv_pos_as_xyz
  1  'x, y, z'
loop_
 _atom_site_type_symbol
 _atom_site_label
 _atom_site_symmetry_multiplicity
 _atom_site_fract_x
 _atom_site_fract_y
 _atom_site_fract_z
 _atom_site_occupancy
  Pr  Pr0  1  0.827160  0.840523  0.608322  1
  Pr  Pr1  1  0.172050  0.841219  0.100825  1
  Pr  Pr2  1  0.160461  0.826381  0.393647  1
  Pr  Pr3  1  0.839539  0.173619  0.393647  1
  Pr  Pr4  1  0.673619  0.660461  0.393647  1
  Pr  Pr5  1  0.659477  0.327160  0.608322  1
  Pr  Pr6  1  0.340523  0.672840  0.608322  1
  Pr  Pr7  1  0.000000  0.500000  0.202916  1
  Pr  Pr8  1  0.658781  0.672050  0.100825  1
  Pr  Pr9  1  0.673997  0.341131  0.898305  1
  Pr  Pr10  1  0.841131  0.826003  0.898305  1
  Pr  Pr11  1  0.326381  0.339539  0.393647  1
  Pr  Pr12  1  0.172840  0.159477  0.608322  1
  Pr  Pr13  1  0.827950  0.158781  0.100825  1
  Pr  Pr14  1  0.326003  0.658869  0.898305  1
  Pr  Pr15  1  0.341219  0.327950  0.100825  1
  Pr  Pr16  1  0.500000  0.000000  0.229547  1
  Pr  Pr17  1  0.158869  0.173997  0.898305  1
  Pr  Pr18  1  0.500000  0.000000  0.794676  1
  Lu  Lu19  1  0.000000  0.500000  0.763960  1
  Ga  Ga20  1  0.624302  0.377253  0.253919  1
  Ga  Ga21  1  0.122459  0.870519  0.747641  1
  Ga  Ga22  1  0.370519  0.377541  0.747641  1
  Ga  Ga23  1  0.375698  0.622747  0.253919  1
  Ga  Ga24  1  0.877253  0.875698  0.253919  1
  Ga  Ga25  1  0.629481  0.622459  0.747641  1
  Ga  Ga26  1  0.877541  0.129481  0.747641  1
  Ga  Ga27  1  0.500000  0.000000  0.006724  1
  Ga  Ga28  1  0.122747  0.124302  0.253919  1
  Ga  Ga29  1  0.000000  0.500000  0.987840  1
  Te  Te30  1  0.000000  0.500000  0.516914  1
  Te  Te31  1  0.500000  0.000000  0.486788  1
