# generated using pymatgen
data_K3TlSb2S2(O4F3)2
_symmetry_space_group_name_H-M   'P 1'
_cell_length_a   5.72812000
_cell_length_b   9.29199100
_cell_length_c   14.35654900
_cell_angle_alpha   90.00000000
_cell_angle_beta   90.00000000
_cell_angle_gamma   90.00000000
_symmetry_Int_Tables_number   1
_chemical_formula_structural   K3TlSb2S2(O4F3)2
_chemical_formula_sum   'K6 Tl2 Sb4 S4 O16 F12'
_cell_volume   764.13650135
_cell_formula_units_Z   2
loop_
 _symmetry_equiv_pos_site_id
 _symmetry_equiv_pos_as_xyz
  1  'x, y, z'
loop_
 _atom_site_type_symbol
 _atom_site_label
 _atom_site_symmetry_multiplicity
 _atom_site_fract_x
 _atom_site_fract_y
 _atom_site_fract_z
 _atom_site_occupancy
  K  K0  1  0.492403  0.496601  0.193030  1
  K  K1  1  0.507597  0.996601  0.306970  1
  K  K2  1  0.004154  0.505182  0.692164  1
  K  K3  1  0.476661  0.682901  0.889649  1
  K  K4  1  0.995846  0.005182  0.807836  1
  K  K5  1  0.523339  0.182901  0.610351  1
  Tl  Tl6  1  0.975646  0.817551  0.114999  1
  Tl  Tl7  1  0.024354  0.317551  0.385001  1
  Sb  Sb8  1  0.469314  0.059834  0.017345  1
  Sb  Sb9  1  0.964671  0.440191  0.976470  1
  Sb  Sb10  1  0.035329  0.940191  0.523530  1
  Sb  Sb11  1  0.530686  0.559834  0.482655  1
  S  S12  1  0.969255  0.707608  0.345237  1
  S  S13  1  0.524909  0.292747  0.838003  1
  S  S14  1  0.475091  0.792747  0.661997  1
  S  S15  1  0.030745  0.207608  0.154763  1
  O  O16  1  0.355228  0.373410  0.781802  1
  O  O17  1  0.583943  0.649866  0.633317  1
  O  O18  1  0.078203  0.129836  0.063625  1
  O  O19  1  0.921797  0.629836  0.436375  1
  O  O20  1  0.921981  0.351647  0.129891  1
  O  O21  1  0.744059  0.265219  0.786310  1
  O  O22  1  0.644772  0.873410  0.718198  1
  O  O23  1  0.576753  0.374922  0.927023  1
  O  O24  1  0.136744  0.624407  0.289179  1
  O  O25  1  0.423247  0.874922  0.572977  1
  O  O26  1  0.745823  0.731169  0.295363  1
  O  O27  1  0.255941  0.765219  0.713690  1
  O  O28  1  0.416057  0.149866  0.866683  1
  O  O29  1  0.863256  0.124407  0.210821  1
  O  O30  1  0.254177  0.231169  0.204637  1
  O  O31  1  0.078019  0.851647  0.370109  1
  F  F32  1  0.540678  0.411063  0.376389  1
  F  F33  1  0.745235  0.420077  0.543515  1
  F  F34  1  0.713194  0.928680  0.958283  1
  F  F35  1  0.049422  0.091093  0.627046  1
  F  F36  1  0.254765  0.920077  0.956485  1
  F  F37  1  0.787241  0.069700  0.465642  1
  F  F38  1  0.950578  0.591093  0.872954  1
  F  F39  1  0.286806  0.428680  0.541717  1
  F  F40  1  0.253206  0.076298  0.461074  1
  F  F41  1  0.746794  0.576298  0.038926  1
  F  F42  1  0.459322  0.911063  0.123611  1
  F  F43  1  0.212759  0.569700  0.034358  1
