# generated using pymatgen
data_Gd3(Al3Os)4
_symmetry_space_group_name_H-M   'P 1'
_cell_length_a   8.85200700
_cell_length_b   8.85200767
_cell_length_c   9.57680500
_cell_angle_alpha   90.00000000
_cell_angle_beta   90.00000000
_cell_angle_gamma   119.99999376
_symmetry_Int_Tables_number   1
_chemical_formula_structural   Gd3(Al3Os)4
_chemical_formula_sum   'Gd6 Al24 Os8'
_cell_volume   649.88248712
_cell_formula_units_Z   2
loop_
 _symmetry_equiv_pos_site_id
 _symmetry_equiv_pos_as_xyz
  1  'x, y, z'
loop_
 _atom_site_type_symbol
 _atom_site_label
 _atom_site_symmetry_multiplicity
 _atom_site_fract_x
 _atom_site_fract_y
 _atom_site_fract_z
 _atom_site_occupancy
  Gd  Gd0  1  0.193143  0.386285  0.250000  1
  Gd  Gd1  1  0.806857  0.613715  0.750000  1
  Gd  Gd2  1  0.613715  0.806857  0.250000  1
  Gd  Gd3  1  0.386285  0.193143  0.750000  1
  Gd  Gd4  1  0.193143  0.806857  0.250000  1
  Gd  Gd5  1  0.806857  0.193143  0.750000  1
  Al  Al6  1  0.333333  0.666667  0.012906  1
  Al  Al7  1  0.666667  0.333333  0.987094  1
  Al  Al8  1  0.666667  0.333333  0.512906  1
  Al  Al9  1  0.333333  0.666667  0.487094  1
  Al  Al10  1  0.162285  0.324569  0.575552  1
  Al  Al11  1  0.837715  0.675431  0.424448  1
  Al  Al12  1  0.675431  0.837715  0.575552  1
  Al  Al13  1  0.837715  0.675431  0.075552  1
  Al  Al14  1  0.324569  0.162285  0.424448  1
  Al  Al15  1  0.162285  0.324569  0.924448  1
  Al  Al16  1  0.162285  0.837715  0.575552  1
  Al  Al17  1  0.324569  0.162285  0.075552  1
  Al  Al18  1  0.837715  0.162285  0.424448  1
  Al  Al19  1  0.675431  0.837715  0.924448  1
  Al  Al20  1  0.837715  0.162285  0.075552  1
  Al  Al21  1  0.162285  0.837715  0.924448  1
  Al  Al22  1  0.561074  0.122149  0.250000  1
  Al  Al23  1  0.438926  0.877851  0.750000  1
  Al  Al24  1  0.877851  0.438926  0.250000  1
  Al  Al25  1  0.122149  0.561074  0.750000  1
  Al  Al26  1  0.561074  0.438926  0.250000  1
  Al  Al27  1  0.438926  0.561074  0.750000  1
  Al  Al28  1  0.000000  0.000000  0.250000  1
  Al  Al29  1  0.000000  0.000000  0.750000  1
  Os  Os30  1  0.500000  0.000000  0.000000  1
  Os  Os31  1  0.000000  0.500000  0.000000  1
  Os  Os32  1  0.500000  0.000000  0.500000  1
  Os  Os33  1  0.500000  0.500000  0.000000  1
  Os  Os34  1  0.000000  0.500000  0.500000  1
  Os  Os35  1  0.500000  0.500000  0.500000  1
  Os  Os36  1  0.000000  0.000000  0.000000  1
  Os  Os37  1  0.000000  0.000000  0.500000  1
