# generated using pymatgen
data_PrZn10Pt
_symmetry_space_group_name_H-M   'P 1'
_cell_length_a   8.32852274
_cell_length_b   8.32852243
_cell_length_c   8.30895303
_cell_angle_alpha   99.79786441
_cell_angle_beta   99.79787172
_cell_angle_gamma   131.28040982
_symmetry_Int_Tables_number   1
_chemical_formula_structural   PrZn10Pt
_chemical_formula_sum   'Pr2 Zn20 Pt2'
_cell_volume   394.53659498
_cell_formula_units_Z   2
loop_
 _symmetry_equiv_pos_site_id
 _symmetry_equiv_pos_as_xyz
  1  'x, y, z'
loop_
 _atom_site_type_symbol
 _atom_site_label
 _atom_site_symmetry_multiplicity
 _atom_site_fract_x
 _atom_site_fract_y
 _atom_site_fract_z
 _atom_site_occupancy
  Pr  Pr0  1  0.494607  0.505393  0.000000  1
  Pr  Pr1  1  0.755393  0.244607  0.500000  1
  Zn  Zn2  1  0.845328  0.430643  0.169967  1
  Zn  Zn3  1  0.326341  0.154173  0.584470  1
  Zn  Zn4  1  0.261862  0.433792  0.584052  1
  Zn  Zn5  1  0.324831  0.741857  0.174636  1
  Zn  Zn6  1  0.988138  0.316208  0.915948  1
  Zn  Zn7  1  0.258143  0.675169  0.825364  1
  Zn  Zn8  1  0.244566  0.755434  0.500000  1
  Zn  Zn9  1  0.991857  0.074831  0.674636  1
  Zn  Zn10  1  0.005434  0.994566  0.000000  1
  Zn  Zn11  1  0.683792  0.011862  0.084052  1
  Zn  Zn12  1  0.625000  0.875000  0.750000  1
  Zn  Zn13  1  0.404672  0.319357  0.330033  1
  Zn  Zn14  1  0.925169  0.008143  0.325364  1
  Zn  Zn15  1  0.845827  0.673659  0.415530  1
  Zn  Zn16  1  0.566208  0.738138  0.415948  1
  Zn  Zn17  1  0.680643  0.595328  0.669967  1
  Zn  Zn18  1  0.404173  0.076341  0.084470  1
  Zn  Zn19  1  0.923659  0.595827  0.915530  1
  Zn  Zn20  1  0.569357  0.154672  0.830033  1
  Zn  Zn21  1  0.125000  0.375000  0.250000  1
  Pt  Pt22  1  0.125000  0.875000  0.750000  1
  Pt  Pt23  1  0.125000  0.875000  0.250000  1
