# generated using pymatgen
data_Sr7EuTa4O18
_symmetry_space_group_name_H-M   'P 1'
_cell_length_a   5.92414050
_cell_length_b   5.92500596
_cell_length_c   15.69929798
_cell_angle_alpha   89.98225123
_cell_angle_beta   89.99955554
_cell_angle_gamma   59.98666414
_symmetry_Int_Tables_number   1
_chemical_formula_structural   Sr7EuTa4O18
_chemical_formula_sum   'Sr7 Eu1 Ta4 O18'
_cell_volume   477.16282596
_cell_formula_units_Z   1
loop_
 _symmetry_equiv_pos_site_id
 _symmetry_equiv_pos_as_xyz
  1  'x, y, z'
loop_
 _atom_site_type_symbol
 _atom_site_label
 _atom_site_symmetry_multiplicity
 _atom_site_fract_x
 _atom_site_fract_y
 _atom_site_fract_z
 _atom_site_occupancy
  Sr  Sr0  1  0.000069  0.999849  0.249244  1
  Sr  Sr1  1  0.000000  0.000000  0.500000  1
  Sr  Sr2  1  0.666567  0.667332  0.358920  1
  Sr  Sr3  1  0.667098  0.664989  0.132115  1
  Sr  Sr4  1  0.332902  0.335011  0.867885  1
  Sr  Sr5  1  0.333433  0.332668  0.641080  1
  Sr  Sr6  1  0.999931  0.000151  0.750756  1
  Eu  Eu7  1  0.000000  0.000000  0.000000  1
  Ta  Ta8  1  0.665752  0.668220  0.848380  1
  Ta  Ta9  1  0.666989  0.666077  0.657062  1
  Ta  Ta10  1  0.333011  0.333923  0.342938  1
  Ta  Ta11  1  0.334248  0.331780  0.151620  1
  O  O12  1  0.592123  0.961249  0.752580  1
  O  O13  1  0.919626  0.728695  0.603965  1
  O  O14  1  0.918022  0.733912  0.901118  1
  O  O15  1  0.350672  0.918617  0.604302  1
  O  O16  1  0.349084  0.920848  0.901559  1
  O  O17  1  0.960270  0.447121  0.753096  1
  O  O18  1  0.446767  0.592595  0.753266  1
  O  O19  1  0.269953  0.646885  0.097204  1
  O  O20  1  0.269724  0.650539  0.395233  1
  O  O21  1  0.730276  0.349461  0.604767  1
  O  O22  1  0.730047  0.353115  0.902796  1
  O  O23  1  0.553233  0.407405  0.246734  1
  O  O24  1  0.039730  0.552879  0.246904  1
  O  O25  1  0.650916  0.079152  0.098441  1
  O  O26  1  0.649328  0.081383  0.395698  1
  O  O27  1  0.081978  0.266088  0.098882  1
  O  O28  1  0.080374  0.271305  0.396035  1
  O  O29  1  0.407877  0.038751  0.247420  1
