# generated using pymatgen
data_Ho2ScPa(Co4P3)2
_symmetry_space_group_name_H-M   'P 1'
_cell_length_a   3.73394900
_cell_length_b   10.67005600
_cell_length_c   12.30165500
_cell_angle_alpha   90.00000000
_cell_angle_beta   90.00000000
_cell_angle_gamma   90.00000000
_symmetry_Int_Tables_number   1
_chemical_formula_structural   Ho2ScPa(Co4P3)2
_chemical_formula_sum   'Ho4 Sc2 Pa2 Co16 P12'
_cell_volume   490.11571024
_cell_formula_units_Z   2
loop_
 _symmetry_equiv_pos_site_id
 _symmetry_equiv_pos_as_xyz
  1  'x, y, z'
loop_
 _atom_site_type_symbol
 _atom_site_label
 _atom_site_symmetry_multiplicity
 _atom_site_fract_x
 _atom_site_fract_y
 _atom_site_fract_z
 _atom_site_occupancy
  Ho  Ho0  1  0.500000  0.819747  0.204346  1
  Ho  Ho1  1  0.500000  0.180253  0.204346  1
  Ho  Ho2  1  0.000000  0.680253  0.795654  1
  Ho  Ho3  1  0.000000  0.319747  0.795654  1
  Sc  Sc4  1  0.500000  0.500000  0.155626  1
  Sc  Sc5  1  0.000000  0.000000  0.844374  1
  Pa  Pa6  1  0.000000  0.500000  0.534267  1
  Pa  Pa7  1  0.500000  0.000000  0.465733  1
  Co  Co8  1  0.000000  0.500000  0.986253  1
  Co  Co9  1  0.500000  0.000000  0.013747  1
  Co  Co10  1  0.500000  0.297760  0.434684  1
  Co  Co11  1  0.500000  0.702240  0.434684  1
  Co  Co12  1  0.000000  0.202240  0.565316  1
  Co  Co13  1  0.000000  0.797760  0.565316  1
  Co  Co14  1  0.500000  0.878513  0.703159  1
  Co  Co15  1  0.500000  0.121487  0.703159  1
  Co  Co16  1  0.000000  0.621487  0.296841  1
  Co  Co17  1  0.000000  0.378513  0.296841  1
  Co  Co18  1  0.500000  0.332216  0.993456  1
  Co  Co19  1  0.500000  0.667784  0.993456  1
  Co  Co20  1  0.000000  0.167784  0.006544  1
  Co  Co21  1  0.000000  0.832216  0.006544  1
  Co  Co22  1  0.500000  0.500000  0.696656  1
  Co  Co23  1  0.000000  0.000000  0.303344  1
  P  P24  1  0.500000  0.306514  0.617156  1
  P  P25  1  0.500000  0.693486  0.617156  1
  P  P26  1  0.000000  0.193486  0.382844  1
  P  P27  1  0.000000  0.806514  0.382844  1
  P  P28  1  0.500000  0.500000  0.881206  1
  P  P29  1  0.000000  0.000000  0.118794  1
  P  P30  1  0.500000  0.839644  0.893917  1
  P  P31  1  0.500000  0.160356  0.893917  1
  P  P32  1  0.000000  0.660356  0.106083  1
  P  P33  1  0.000000  0.339644  0.106083  1
  P  P34  1  0.500000  0.500000  0.359840  1
  P  P35  1  0.000000  0.000000  0.640160  1
