# generated using pymatgen
data_Sm6YNb4Re5N24
_symmetry_space_group_name_H-M   'P 1'
_cell_length_a   11.36270009
_cell_length_b   11.39592797
_cell_length_c   11.31558431
_cell_angle_alpha   109.23458748
_cell_angle_beta   109.11463803
_cell_angle_gamma   110.29066838
_symmetry_Int_Tables_number   1
_chemical_formula_structural   Sm6YNb4Re5N24
_chemical_formula_sum   'Sm12 Y2 Nb8 Re10 N48'
_cell_volume   1124.67279791
_cell_formula_units_Z   2
loop_
 _symmetry_equiv_pos_site_id
 _symmetry_equiv_pos_as_xyz
  1  'x, y, z'
loop_
 _atom_site_type_symbol
 _atom_site_label
 _atom_site_symmetry_multiplicity
 _atom_site_fract_x
 _atom_site_fract_y
 _atom_site_fract_z
 _atom_site_occupancy
  Sm  Sm0  1  0.375464  0.754956  0.124434  1
  Sm  Sm1  1  0.248970  0.369478  0.124434  1
  Sm  Sm2  1  0.371521  0.121521  0.243041  1
  Sm  Sm3  1  0.871855  0.621855  0.243709  1
  Sm  Sm4  1  0.753214  0.135732  0.380032  1
  Sm  Sm5  1  0.126817  0.244299  0.380032  1
  Sm  Sm6  1  0.878967  0.750925  0.622829  1
  Sm  Sm7  1  0.243861  0.871903  0.622829  1
  Sm  Sm8  1  0.134080  0.384080  0.768160  1
  Sm  Sm9  1  0.629361  0.879361  0.758723  1
  Sm  Sm10  1  0.610147  0.239307  0.866712  1
  Sm  Sm11  1  0.756565  0.627405  0.866712  1
  Y  Y12  1  0.879611  0.252860  0.120979  1
  Y  Y13  1  0.741369  0.868120  0.120980  1
  Nb  Nb14  1  0.998083  0.005919  0.010470  1
  Nb  Nb15  1  0.512388  0.004552  0.010470  1
  Nb  Nb16  1  0.979163  0.493175  0.999768  1
  Nb  Nb17  1  0.520605  0.506594  0.999768  1
  Nb  Nb18  1  0.990747  0.011264  0.492376  1
  Nb  Nb19  1  0.500158  0.001104  0.499841  1
  Nb  Nb20  1  0.001628  0.481111  0.492375  1
  Nb  Nb21  1  0.499685  0.498739  0.499842  1
  Re  Re22  1  0.628982  0.380364  0.258458  1
  Re  Re23  1  0.129475  0.878094  0.258458  1
  Re  Re24  1  0.245988  0.622609  0.371697  1
  Re  Re25  1  0.625709  0.749088  0.371697  1
  Re  Re26  1  0.375789  0.244413  0.619304  1
  Re  Re27  1  0.743516  0.374892  0.619304  1
  Re  Re28  1  0.875400  0.128639  0.754127  1
  Re  Re29  1  0.378727  0.625488  0.754127  1
  Re  Re30  1  0.246296  0.123646  0.871147  1
  Re  Re31  1  0.124851  0.747501  0.871147  1
  N  N32  1  0.206848  0.111703  0.012074  1
  N  N33  1  0.305227  0.900370  0.012073  1
  N  N34  1  0.855695  0.415821  0.066903  1
  N  N35  1  0.711208  0.651082  0.066903  1
  N  N36  1  0.605678  0.415857  0.109916  1
  N  N37  1  0.004238  0.694058  0.109916  1
  N  N38  1  0.054229  0.203232  0.136874  1
  N  N39  1  0.582645  0.933643  0.136873  1
  N  N40  1  0.196168  0.578288  0.184123  1
  N  N41  1  0.487955  0.605835  0.184123  1
  N  N42  1  0.587693  0.192052  0.202298  1
  N  N43  1  0.114605  0.010247  0.202299  1
  N  N44  1  0.483525  0.379741  0.300152  1
  N  N45  1  0.316628  0.920411  0.300152  1
  N  N46  1  0.914856  0.045350  0.340678  1
  N  N47  1  0.925822  0.295328  0.340678  1
  N  N48  1  0.311187  0.499018  0.391070  1
  N  N49  1  0.579883  0.892054  0.391070  1
  N  N50  1  0.819069  0.519448  0.399718  1
  N  N51  1  0.080648  0.880269  0.399718  1
  N  N52  1  0.097912  0.611175  0.412344  1
  N  N53  1  0.814432  0.801171  0.412344  1
  N  N54  1  0.599166  0.185597  0.480486  1
  N  N55  1  0.381320  0.294889  0.480486  1
  N  N56  1  0.617790  0.696112  0.507858  1
  N  N57  1  0.390068  0.811748  0.507859  1
  N  N58  1  0.192891  0.194303  0.586737  1
  N  N59  1  0.893847  0.392434  0.586737  1
  N  N60  1  0.919465  0.124453  0.610144  1
  N  N61  1  0.190678  0.485691  0.610145  1
  N  N62  1  0.413373  0.096142  0.613943  1
  N  N63  1  0.700568  0.517799  0.613942  1
  N  N64  1  0.090950  0.709846  0.688671  1
  N  N65  1  0.097721  0.978825  0.688671  1
  N  N66  1  0.687692  0.085013  0.701274  1
  N  N67  1  0.513581  0.616260  0.701274  1
  N  N68  1  0.411746  0.806786  0.799167  1
  N  N69  1  0.887421  0.992381  0.799168  1
  N  N70  1  0.507925  0.390387  0.807505  1
  N  N71  1  0.799580  0.417117  0.807504  1
  N  N72  1  0.394161  0.088878  0.878486  1
  N  N73  1  0.984326  0.789609  0.878487  1
  N  N74  1  0.014780  0.315173  0.908625  1
  N  N75  1  0.393845  0.593451  0.908626  1
  N  N76  1  0.286703  0.308170  0.908653  1
  N  N77  1  0.121950  0.600483  0.908652  1
  N  N78  1  0.655014  0.080726  0.953307  1
  N  N79  1  0.798294  0.872583  0.953308  1
