# generated using pymatgen
data_La16Cd4Ni3Ru
_symmetry_space_group_name_H-M   'P 1'
_cell_length_a   10.09016618
_cell_length_b   10.09016579
_cell_length_c   10.09016611
_cell_angle_alpha   59.56464750
_cell_angle_beta   59.56464677
_cell_angle_gamma   59.56464844
_symmetry_Int_Tables_number   1
_chemical_formula_structural   La16Cd4Ni3Ru
_chemical_formula_sum   'La16 Cd4 Ni3 Ru1'
_cell_volume   719.21747658
_cell_formula_units_Z   1
loop_
 _symmetry_equiv_pos_site_id
 _symmetry_equiv_pos_as_xyz
  1  'x, y, z'
loop_
 _atom_site_type_symbol
 _atom_site_label
 _atom_site_symmetry_multiplicity
 _atom_site_fract_x
 _atom_site_fract_y
 _atom_site_fract_z
 _atom_site_occupancy
  La  La0  1  0.597925  0.597925  0.597925  1
  La  La1  1  0.596959  0.596959  0.212828  1
  La  La2  1  0.596959  0.212828  0.596959  1
  La  La3  1  0.212828  0.596959  0.596959  1
  La  La4  1  0.060976  0.438167  0.438167  1
  La  La5  1  0.440193  0.055697  0.055697  1
  La  La6  1  0.438167  0.060976  0.438167  1
  La  La7  1  0.055697  0.440193  0.055697  1
  La  La8  1  0.438167  0.438167  0.060976  1
  La  La9  1  0.055697  0.055697  0.440193  1
  La  La10  1  0.188173  0.814462  0.814462  1
  La  La11  1  0.801500  0.190571  0.190571  1
  La  La12  1  0.814462  0.188173  0.814462  1
  La  La13  1  0.190571  0.801500  0.190571  1
  La  La14  1  0.814462  0.814462  0.188173  1
  La  La15  1  0.190571  0.190571  0.801500  1
  Cd  Cd16  1  0.828649  0.828649  0.828649  1
  Cd  Cd17  1  0.828843  0.828843  0.512195  1
  Cd  Cd18  1  0.828843  0.512195  0.828843  1
  Cd  Cd19  1  0.512195  0.828843  0.828843  1
  Ni  Ni20  1  0.394200  0.394200  0.828301  1
  Ni  Ni21  1  0.394200  0.828301  0.394200  1
  Ni  Ni22  1  0.828301  0.394200  0.394200  1
  Ru  Ru23  1  0.391466  0.391466  0.391466  1
