# generated using pymatgen
data_Zr3TaTi2Sn5
_symmetry_space_group_name_H-M   'P 1'
_cell_length_a   9.58694100
_cell_length_b   9.63379611
_cell_length_c   5.81361900
_cell_angle_alpha   90.00000000
_cell_angle_beta   90.00000000
_cell_angle_gamma   119.83924621
_symmetry_Int_Tables_number   1
_chemical_formula_structural   Zr3TaTi2Sn5
_chemical_formula_sum   'Zr6 Ta2 Ti4 Sn10'
_cell_volume   465.75328204
_cell_formula_units_Z   2
loop_
 _symmetry_equiv_pos_site_id
 _symmetry_equiv_pos_as_xyz
  1  'x, y, z'
loop_
 _atom_site_type_symbol
 _atom_site_label
 _atom_site_symmetry_multiplicity
 _atom_site_fract_x
 _atom_site_fract_y
 _atom_site_fract_z
 _atom_site_occupancy
  Zr  Zr0  1  0.845946  0.691892  0.750000  1
  Zr  Zr1  1  0.159802  0.849872  0.250000  1
  Zr  Zr2  1  0.690069  0.849872  0.250000  1
  Zr  Zr3  1  0.309931  0.150128  0.750000  1
  Zr  Zr4  1  0.840198  0.150128  0.750000  1
  Zr  Zr5  1  0.154054  0.308108  0.250000  1
  Ta  Ta6  1  0.500000  0.000000  0.500000  1
  Ta  Ta7  1  0.500000  0.000000  0.000000  1
  Ti  Ti8  1  0.500000  0.500000  0.000000  1
  Ti  Ti9  1  0.000000  0.500000  0.000000  1
  Ti  Ti10  1  0.000000  0.500000  0.500000  1
  Ti  Ti11  1  0.500000  0.500000  0.500000  1
  Sn  Sn12  1  0.210105  0.420211  0.750000  1
  Sn  Sn13  1  0.792628  0.215606  0.250000  1
  Sn  Sn14  1  0.422979  0.215606  0.250000  1
  Sn  Sn15  1  0.577021  0.784394  0.750000  1
  Sn  Sn16  1  0.207372  0.784394  0.750000  1
  Sn  Sn17  1  0.789895  0.579789  0.250000  1
  Sn  Sn18  1  0.667741  0.335482  0.750000  1
  Sn  Sn19  1  0.332259  0.664518  0.250000  1
  Sn  Sn20  1  0.000000  0.000000  0.500000  1
  Sn  Sn21  1  0.000000  0.000000  0.000000  1
