# generated using pymatgen
data_La3Mg3SnHg2
_symmetry_space_group_name_H-M   'P 1'
_cell_length_a   7.80888500
_cell_length_b   7.80888494
_cell_length_c   4.73405300
_cell_angle_alpha   90.00000000
_cell_angle_beta   90.00000000
_cell_angle_gamma   119.99999603
_symmetry_Int_Tables_number   1
_chemical_formula_structural   La3Mg3SnHg2
_chemical_formula_sum   'La3 Mg3 Sn1 Hg2'
_cell_volume   250.00104007
_cell_formula_units_Z   1
loop_
 _symmetry_equiv_pos_site_id
 _symmetry_equiv_pos_as_xyz
  1  'x, y, z'
loop_
 _atom_site_type_symbol
 _atom_site_label
 _atom_site_symmetry_multiplicity
 _atom_site_fract_x
 _atom_site_fract_y
 _atom_site_fract_z
 _atom_site_occupancy
  La  La0  1  0.419296  0.997771  0.000000  1
  La  La1  1  0.002229  0.421525  0.000000  1
  La  La2  1  0.578475  0.580704  0.000000  1
  Mg  Mg3  1  0.759529  0.995633  0.500000  1
  Mg  Mg4  1  0.236103  0.240471  0.500000  1
  Mg  Mg5  1  0.004367  0.763896  0.500000  1
  Sn  Sn6  1  0.666666  0.333333  0.500000  1
  Hg  Hg7  1  0.000000  0.000000  0.000000  1
  Hg  Hg8  1  0.333334  0.666667  0.500000  1
