# generated using pymatgen
data_Yb2Al2CoNi5B2
_symmetry_space_group_name_H-M   'P 1'
_cell_length_a   5.19054519
_cell_length_b   5.18446577
_cell_length_c   6.65446100
_cell_angle_alpha   90.00000000
_cell_angle_beta   90.00000000
_cell_angle_gamma   119.96125634
_symmetry_Int_Tables_number   1
_chemical_formula_structural   Yb2Al2CoNi5B2
_chemical_formula_sum   'Yb2 Al2 Co1 Ni5 B2'
_cell_volume   155.14219187
_cell_formula_units_Z   1
loop_
 _symmetry_equiv_pos_site_id
 _symmetry_equiv_pos_as_xyz
  1  'x, y, z'
loop_
 _atom_site_type_symbol
 _atom_site_label
 _atom_site_symmetry_multiplicity
 _atom_site_fract_x
 _atom_site_fract_y
 _atom_site_fract_z
 _atom_site_occupancy
  Yb  Yb0  1  0.000000  0.000000  0.999503  1
  Yb  Yb1  1  0.000000  0.000000  0.502824  1
  Al  Al2  1  0.670285  0.335142  0.500944  1
  Al  Al3  1  0.329715  0.664858  0.500944  1
  Co  Co4  1  0.000000  0.500000  0.800631  1
  Ni  Ni5  1  0.500000  0.500000  0.798024  1
  Ni  Ni6  1  0.500000  0.000000  0.798024  1
  Ni  Ni7  1  0.500000  0.500000  0.201062  1
  Ni  Ni8  1  0.500000  0.000000  0.201062  1
  Ni  Ni9  1  0.000000  0.500000  0.201163  1
  B  B10  1  0.672729  0.336364  0.997909  1
  B  B11  1  0.327271  0.663636  0.997909  1
