# generated using pymatgen
data_Ba12FeCo3O19
_symmetry_space_group_name_H-M   'P 1'
_cell_length_a   7.87016616
_cell_length_b   7.87532896
_cell_length_c   10.51134187
_cell_angle_alpha   89.96711726
_cell_angle_beta   90.03950257
_cell_angle_gamma   96.60614724
_symmetry_Int_Tables_number   1
_chemical_formula_structural   Ba12FeCo3O19
_chemical_formula_sum   'Ba12 Fe1 Co3 O19'
_cell_volume   647.16864111
_cell_formula_units_Z   1
loop_
 _symmetry_equiv_pos_site_id
 _symmetry_equiv_pos_as_xyz
  1  'x, y, z'
loop_
 _atom_site_type_symbol
 _atom_site_label
 _atom_site_symmetry_multiplicity
 _atom_site_fract_x
 _atom_site_fract_y
 _atom_site_fract_z
 _atom_site_occupancy
  Ba  Ba0  1  0.733277  0.253214  0.497070  1
  Ba  Ba1  1  0.274211  0.745228  0.998963  1
  Ba  Ba2  1  0.725352  0.254141  0.005003  1
  Ba  Ba3  1  0.266601  0.746265  0.498817  1
  Ba  Ba4  1  0.578794  0.577997  0.247002  1
  Ba  Ba5  1  0.067589  0.072304  0.764789  1
  Ba  Ba6  1  0.420787  0.423409  0.754403  1
  Ba  Ba7  1  0.928989  0.929417  0.234500  1
  Ba  Ba8  1  0.745799  0.745838  0.926311  1
  Ba  Ba9  1  0.263552  0.259256  0.424836  1
  Ba  Ba10  1  0.255412  0.251192  0.074720  1
  Ba  Ba11  1  0.737708  0.739230  0.574572  1
  Fe  Fe12  1  0.497327  0.998393  0.741875  1
  Co  Co13  1  0.501853  0.000564  0.256821  1
  Co  Co14  1  0.996325  0.497904  0.742757  1
  Co  Co15  1  0.004144  0.503104  0.257689  1
  O  O16  1  0.263095  0.966123  0.284952  1
  O  O17  1  0.766890  0.458512  0.759472  1
  O  O18  1  0.533516  0.240597  0.243797  1
  O  O19  1  0.038876  0.727447  0.714557  1
  O  O20  1  0.934177  0.630117  0.387292  1
  O  O21  1  0.420350  0.111456  0.887538  1
  O  O22  1  0.895327  0.574426  0.119355  1
  O  O23  1  0.354705  0.067942  0.608622  1
  O  O24  1  0.233385  0.542386  0.241001  1
  O  O25  1  0.738318  0.038199  0.705989  1
  O  O26  1  0.960446  0.273707  0.286368  1
  O  O27  1  0.464939  0.757515  0.761216  1
  O  O28  1  0.586503  0.889760  0.116174  1
  O  O29  1  0.068166  0.373004  0.612554  1
  O  O30  1  0.640276  0.924701  0.388109  1
  O  O31  1  0.104670  0.425929  0.881411  1
  O  O32  1  0.500200  0.500445  0.001344  1
  O  O33  1  0.998595  0.000536  0.999574  1
  O  O34  1  0.499848  0.499745  0.500549  1
