# generated using pymatgen
data_Dy2Lu4Al24ZnRu7
_symmetry_space_group_name_H-M   'P 1'
_cell_length_a   8.81474183
_cell_length_b   8.81474161
_cell_length_c   9.51139101
_cell_angle_alpha   90.01707028
_cell_angle_beta   89.98293308
_cell_angle_gamma   120.09211244
_symmetry_Int_Tables_number   1
_chemical_formula_structural   Dy2Lu4Al24ZnRu7
_chemical_formula_sum   'Dy2 Lu4 Al24 Zn1 Ru7'
_cell_volume   639.42552718
_cell_formula_units_Z   1
loop_
 _symmetry_equiv_pos_site_id
 _symmetry_equiv_pos_as_xyz
  1  'x, y, z'
loop_
 _atom_site_type_symbol
 _atom_site_label
 _atom_site_symmetry_multiplicity
 _atom_site_fract_x
 _atom_site_fract_y
 _atom_site_fract_z
 _atom_site_occupancy
  Dy  Dy0  1  0.806950  0.615347  0.747176  1
  Dy  Dy1  1  0.384653  0.193050  0.747176  1
  Lu  Lu2  1  0.196858  0.803142  0.245542  1
  Lu  Lu3  1  0.194939  0.388762  0.251997  1
  Lu  Lu4  1  0.611238  0.805061  0.251997  1
  Lu  Lu5  1  0.803081  0.196919  0.753821  1
  Al  Al6  1  0.563174  0.436826  0.246608  1
  Al  Al7  1  0.561408  0.119668  0.251321  1
  Al  Al8  1  0.880332  0.438592  0.251321  1
  Al  Al9  1  0.435890  0.564110  0.755545  1
  Al  Al10  1  0.439134  0.879445  0.748549  1
  Al  Al11  1  0.120555  0.560866  0.748549  1
  Al  Al12  1  0.321738  0.149844  0.415637  1
  Al  Al13  1  0.838109  0.161891  0.420331  1
  Al  Al14  1  0.850156  0.678262  0.415637  1
  Al  Al15  1  0.677925  0.850171  0.581835  1
  Al  Al16  1  0.163123  0.836877  0.576821  1
  Al  Al17  1  0.149829  0.322075  0.581835  1
  Al  Al18  1  0.675520  0.838640  0.924213  1
  Al  Al19  1  0.162490  0.837510  0.921960  1
  Al  Al20  1  0.161360  0.324480  0.924213  1
  Al  Al21  1  0.324145  0.162306  0.078558  1
  Al  Al22  1  0.838209  0.161791  0.079795  1
  Al  Al23  1  0.837694  0.675855  0.078558  1
  Al  Al24  1  0.671191  0.328809  0.521108  1
  Al  Al25  1  0.329844  0.670156  0.475158  1
  Al  Al26  1  0.334048  0.665952  0.018429  1
  Al  Al27  1  0.665976  0.334024  0.983710  1
  Al  Al28  1  0.000005  0.999995  0.249606  1
  Al  Al29  1  0.998185  0.001815  0.750351  1
  Zn  Zn30  1  0.500256  0.499744  0.500737  1
  Ru  Ru31  1  0.000356  0.999644  0.500145  1
  Ru  Ru32  1  0.000284  0.999716  0.999943  1
  Ru  Ru33  1  0.500431  0.999230  0.499033  1
  Ru  Ru34  1  0.000770  0.499569  0.499033  1
  Ru  Ru35  1  0.499515  0.500485  0.002013  1
  Ru  Ru36  1  0.500108  0.999479  0.000868  1
  Ru  Ru37  1  0.000521  0.499892  0.000868  1
