# generated using pymatgen
data_ScCr2(SiRu2)3
_symmetry_space_group_name_H-M   'P 1'
_cell_length_a   4.23160400
_cell_length_b   5.99334800
_cell_length_c   12.69048500
_cell_angle_alpha   90.00000000
_cell_angle_beta   89.99987812
_cell_angle_gamma   90.00000000
_symmetry_Int_Tables_number   1
_chemical_formula_structural   ScCr2(SiRu2)3
_chemical_formula_sum   'Sc2 Cr4 Si6 Ru12'
_cell_volume   321.84942276
_cell_formula_units_Z   2
loop_
 _symmetry_equiv_pos_site_id
 _symmetry_equiv_pos_as_xyz
  1  'x, y, z'
loop_
 _atom_site_type_symbol
 _atom_site_label
 _atom_site_symmetry_multiplicity
 _atom_site_fract_x
 _atom_site_fract_y
 _atom_site_fract_z
 _atom_site_occupancy
  Sc  Sc0  1  0.000003  0.500001  0.998164  1
  Sc  Sc1  1  0.499842  0.000000  0.168565  1
  Cr  Cr2  1  0.999799  0.500001  0.336151  1
  Cr  Cr3  1  0.499982  0.000000  0.500877  1
  Cr  Cr4  1  0.000199  0.500001  0.665707  1
  Cr  Cr5  1  0.500163  0.000000  0.830570  1
  Si  Si6  1  0.999958  0.000000  0.999406  1
  Si  Si7  1  0.499829  0.500001  0.167321  1
  Si  Si8  1  0.999761  0.000000  0.334755  1
  Si  Si9  1  0.499990  0.500001  0.501672  1
  Si  Si10  1  0.000249  0.000000  0.664920  1
  Si  Si11  1  0.500180  0.500001  0.831922  1
  Ru  Ru12  1  0.500010  0.242332  0.993535  1
  Ru  Ru13  1  0.500010  0.757668  0.993535  1
  Ru  Ru14  1  0.999862  0.257652  0.173234  1
  Ru  Ru15  1  0.999862  0.742348  0.173234  1
  Ru  Ru16  1  0.499856  0.255767  0.341372  1
  Ru  Ru17  1  0.499856  0.744233  0.341372  1
  Ru  Ru18  1  0.999987  0.248089  0.502046  1
  Ru  Ru19  1  0.999987  0.751911  0.502046  1
  Ru  Ru20  1  0.500162  0.251962  0.664540  1
  Ru  Ru21  1  0.500162  0.748038  0.664540  1
  Ru  Ru22  1  0.000148  0.244249  0.825259  1
  Ru  Ru23  1  0.000148  0.755751  0.825259  1
