# generated using pymatgen
data_Dy5Ta3(Co4P3)4
_symmetry_space_group_name_H-M   'P 1'
_cell_length_a   12.16664300
_cell_length_b   12.16664319
_cell_length_c   3.69485300
_cell_angle_alpha   90.00000000
_cell_angle_beta   90.00000000
_cell_angle_gamma   119.99999133
_symmetry_Int_Tables_number   1
_chemical_formula_structural   Dy5Ta3(Co4P3)4
_chemical_formula_sum   'Dy5 Ta3 Co16 P12'
_cell_volume   473.66290136
_cell_formula_units_Z   1
loop_
 _symmetry_equiv_pos_site_id
 _symmetry_equiv_pos_as_xyz
  1  'x, y, z'
loop_
 _atom_site_type_symbol
 _atom_site_label
 _atom_site_symmetry_multiplicity
 _atom_site_fract_x
 _atom_site_fract_y
 _atom_site_fract_z
 _atom_site_occupancy
  Dy  Dy0  1  0.666667  0.333333  0.000000  1
  Dy  Dy1  1  0.333333  0.666667  0.000000  1
  Dy  Dy2  1  0.184089  0.184089  0.500000  1
  Dy  Dy3  1  0.815911  0.000000  0.500000  1
  Dy  Dy4  1  0.000000  0.815911  0.500000  1
  Ta  Ta5  1  0.556921  0.556921  0.000000  1
  Ta  Ta6  1  0.443079  0.000000  0.000000  1
  Ta  Ta7  1  0.000000  0.443079  0.000000  1
  Co  Co8  1  0.823030  0.197688  0.000000  1
  Co  Co9  1  0.802312  0.625341  0.000000  1
  Co  Co10  1  0.374659  0.176970  0.000000  1
  Co  Co11  1  0.197688  0.823030  0.000000  1
  Co  Co12  1  0.625341  0.802312  0.000000  1
  Co  Co13  1  0.176970  0.374659  0.000000  1
  Co  Co14  1  0.644941  0.126430  0.500000  1
  Co  Co15  1  0.873570  0.518510  0.500000  1
  Co  Co16  1  0.481490  0.355059  0.500000  1
  Co  Co17  1  0.126430  0.644941  0.500000  1
  Co  Co18  1  0.518510  0.873570  0.500000  1
  Co  Co19  1  0.355059  0.481490  0.500000  1
  Co  Co20  1  0.719682  0.719682  0.500000  1
  Co  Co21  1  0.280318  0.000000  0.500000  1
  Co  Co22  1  0.000000  0.280318  0.500000  1
  Co  Co23  1  0.000000  0.000000  0.000000  1
  P  P24  1  0.356372  0.356372  0.000000  1
  P  P25  1  0.643628  0.000000  0.000000  1
  P  P26  1  0.000000  0.643628  0.000000  1
  P  P27  1  0.831698  0.311586  0.500000  1
  P  P28  1  0.688414  0.520112  0.500000  1
  P  P29  1  0.479888  0.168302  0.500000  1
  P  P30  1  0.311586  0.831698  0.500000  1
  P  P31  1  0.520112  0.688414  0.500000  1
  P  P32  1  0.168302  0.479888  0.500000  1
  P  P33  1  0.822121  0.822121  0.000000  1
  P  P34  1  0.177879  0.000000  0.000000  1
  P  P35  1  0.000000  0.177879  0.000000  1
