# generated using pymatgen
data_Li4Ni3P4Os
_symmetry_space_group_name_H-M   'P 1'
_cell_length_a   3.72579800
_cell_length_b   6.31829395
_cell_length_c   6.57462315
_cell_angle_alpha   89.33490262
_cell_angle_beta   90.00000000
_cell_angle_gamma   90.00000000
_symmetry_Int_Tables_number   1
_chemical_formula_structural   Li4Ni3P4Os
_chemical_formula_sum   'Li4 Ni3 P4 Os1'
_cell_volume   154.76071797
_cell_formula_units_Z   1
loop_
 _symmetry_equiv_pos_site_id
 _symmetry_equiv_pos_as_xyz
  1  'x, y, z'
loop_
 _atom_site_type_symbol
 _atom_site_label
 _atom_site_symmetry_multiplicity
 _atom_site_fract_x
 _atom_site_fract_y
 _atom_site_fract_z
 _atom_site_occupancy
  Li  Li0  1  0.250000  0.015789  0.831857  1
  Li  Li1  1  0.250000  0.516695  0.657161  1
  Li  Li2  1  0.750000  0.973957  0.169386  1
  Li  Li3  1  0.750000  0.491700  0.341233  1
  Ni  Ni4  1  0.250000  0.137218  0.444684  1
  Ni  Ni5  1  0.250000  0.648472  0.055825  1
  Ni  Ni6  1  0.750000  0.859036  0.551863  1
  P  P7  1  0.250000  0.788514  0.371885  1
  P  P8  1  0.250000  0.283309  0.133459  1
  P  P9  1  0.750000  0.207594  0.628866  1
  P  P10  1  0.750000  0.718575  0.869212  1
  Os  Os11  1  0.750000  0.359140  0.944569  1
