# generated using pymatgen
data_TbDy11Fe2Br17
_symmetry_space_group_name_H-M   'P 1'
_cell_length_a   9.18832850
_cell_length_b   11.07745042
_cell_length_c   11.10351794
_cell_angle_alpha   93.61041511
_cell_angle_beta   104.67801506
_cell_angle_gamma   114.00575958
_symmetry_Int_Tables_number   1
_chemical_formula_structural   TbDy11Fe2Br17
_chemical_formula_sum   'Tb1 Dy11 Fe2 Br17'
_cell_volume   980.91568159
_cell_formula_units_Z   1
loop_
 _symmetry_equiv_pos_site_id
 _symmetry_equiv_pos_as_xyz
  1  'x, y, z'
loop_
 _atom_site_type_symbol
 _atom_site_label
 _atom_site_symmetry_multiplicity
 _atom_site_fract_x
 _atom_site_fract_y
 _atom_site_fract_z
 _atom_site_occupancy
  Tb  Tb0  1  0.847482  0.711641  0.848707  1
  Dy  Dy1  1  0.057773  0.511477  0.321352  1
  Dy  Dy2  1  0.982920  0.809511  0.577628  1
  Dy  Dy3  1  0.644743  0.239481  0.285919  1
  Dy  Dy4  1  0.016017  0.191255  0.419866  1
  Dy  Dy5  1  0.226575  0.672011  0.992836  1
  Dy  Dy6  1  0.256602  0.988740  0.890593  1
  Dy  Dy7  1  0.351761  0.760402  0.715661  1
  Dy  Dy8  1  0.940853  0.485896  0.678067  1
  Dy  Dy9  1  0.744368  0.013496  0.110014  1
  Dy  Dy10  1  0.154719  0.288449  0.150593  1
  Dy  Dy11  1  0.775192  0.328128  0.009797  1
  Fe  Fe12  1  0.102347  0.738056  0.785544  1
  Fe  Fe13  1  0.897285  0.261901  0.214535  1
  Br  Br14  1  0.788479  0.525972  0.420410  1
  Br  Br15  1  0.647946  0.421190  0.762297  1
  Br  Br16  1  0.848467  0.900856  0.328034  1
  Br  Br17  1  0.327441  0.215143  0.365725  1
  Br  Br18  1  0.153241  0.099298  0.670867  1
  Br  Br19  1  0.582793  0.050368  0.848362  1
  Br  Br20  1  0.761549  0.188978  0.537186  1
  Br  Br21  1  0.548364  0.711954  0.951491  1
  Br  Br22  1  0.353983  0.578821  0.238629  1
  Br  Br23  1  0.210433  0.474320  0.580708  1
  Br  Br24  1  0.057620  0.372787  0.900610  1
  Br  Br25  1  0.450800  0.288405  0.047530  1
  Br  Br26  1  0.998902  0.998707  0.998710  1
  Br  Br27  1  0.237580  0.810017  0.463552  1
  Br  Br28  1  0.415873  0.948794  0.152186  1
  Br  Br29  1  0.674165  0.786082  0.633986  1
  Br  Br30  1  0.943720  0.627863  0.098604  1
