# generated using pymatgen
data_Ho3Tm5(CdRu)2
_symmetry_space_group_name_H-M   'P 1'
_cell_length_a   9.53195354
_cell_length_b   9.53318281
_cell_length_c   9.53245441
_cell_angle_alpha   60.01857555
_cell_angle_beta   60.01493679
_cell_angle_gamma   60.01649788
_symmetry_Int_Tables_number   1
_chemical_formula_structural   Ho3Tm5(CdRu)2
_chemical_formula_sum   'Ho6 Tm10 Cd4 Ru4'
_cell_volume   612.73638580
_cell_formula_units_Z   2
loop_
 _symmetry_equiv_pos_site_id
 _symmetry_equiv_pos_as_xyz
  1  'x, y, z'
loop_
 _atom_site_type_symbol
 _atom_site_label
 _atom_site_symmetry_multiplicity
 _atom_site_fract_x
 _atom_site_fract_y
 _atom_site_fract_z
 _atom_site_occupancy
  Ho  Ho0  1  0.189965  0.810702  0.810680  1
  Ho  Ho1  1  0.809602  0.190464  0.190488  1
  Ho  Ho2  1  0.810746  0.189827  0.810758  1
  Ho  Ho3  1  0.190477  0.809685  0.190460  1
  Ho  Ho4  1  0.810717  0.810710  0.189907  1
  Ho  Ho5  1  0.190502  0.190453  0.809650  1
  Tm  Tm6  1  0.598578  0.598494  0.598525  1
  Tm  Tm7  1  0.595192  0.595172  0.212241  1
  Tm  Tm8  1  0.595212  0.212255  0.595157  1
  Tm  Tm9  1  0.212138  0.595216  0.595205  1
  Tm  Tm10  1  0.061486  0.437602  0.437661  1
  Tm  Tm11  1  0.437755  0.061870  0.061873  1
  Tm  Tm12  1  0.437717  0.061457  0.437630  1
  Tm  Tm13  1  0.061816  0.437680  0.061847  1
  Tm  Tm14  1  0.437704  0.437574  0.061498  1
  Tm  Tm15  1  0.061827  0.061909  0.437670  1
  Cd  Cd16  1  0.829896  0.829867  0.829838  1
  Cd  Cd17  1  0.830236  0.830256  0.507661  1
  Cd  Cd18  1  0.830248  0.507602  0.830308  1
  Cd  Cd19  1  0.507598  0.830246  0.830296  1
  Ru  Ru20  1  0.389236  0.389262  0.389205  1
  Ru  Ru21  1  0.391177  0.391406  0.828881  1
  Ru  Ru22  1  0.391236  0.828920  0.391333  1
  Ru  Ru23  1  0.828940  0.391374  0.391230  1
