# generated using pymatgen
data_AcLa9Nd2(Si7Br3)2
_symmetry_space_group_name_H-M   'P 1'
_cell_length_a   4.14231100
_cell_length_b   11.98274500
_cell_length_c   16.88206500
_cell_angle_alpha   90.00000000
_cell_angle_beta   90.00000000
_cell_angle_gamma   90.00000000
_symmetry_Int_Tables_number   1
_chemical_formula_structural   AcLa9Nd2(Si7Br3)2
_chemical_formula_sum   'Ac1 La9 Nd2 Si14 Br6'
_cell_volume   837.96250730
_cell_formula_units_Z   1
loop_
 _symmetry_equiv_pos_site_id
 _symmetry_equiv_pos_as_xyz
  1  'x, y, z'
loop_
 _atom_site_type_symbol
 _atom_site_label
 _atom_site_symmetry_multiplicity
 _atom_site_fract_x
 _atom_site_fract_y
 _atom_site_fract_z
 _atom_site_occupancy
  Ac  Ac0  1  0.500000  0.337258  0.500000  1
  La  La1  1  0.000000  0.657261  0.000000  1
  La  La2  1  0.500000  0.358902  0.756987  1
  La  La3  1  0.000000  0.642703  0.744975  1
  La  La4  1  0.500000  0.358902  0.243013  1
  La  La5  1  0.000000  0.642703  0.255025  1
  La  La6  1  0.500000  0.066935  0.881216  1
  La  La7  1  0.000000  0.931981  0.619933  1
  La  La8  1  0.500000  0.066935  0.118784  1
  La  La9  1  0.000000  0.931981  0.380067  1
  Nd  Nd10  1  0.500000  0.357393  0.000000  1
  Nd  Nd11  1  0.000000  0.642671  0.500000  1
  Si  Si12  1  0.000000  0.154364  0.000000  1
  Si  Si13  1  0.500000  0.845794  0.500000  1
  Si  Si14  1  0.500000  0.563571  0.878228  1
  Si  Si15  1  0.000000  0.438905  0.624769  1
  Si  Si16  1  0.500000  0.563571  0.121772  1
  Si  Si17  1  0.000000  0.438905  0.375231  1
  Si  Si18  1  0.000000  0.255505  0.876094  1
  Si  Si19  1  0.500000  0.744912  0.624229  1
  Si  Si20  1  0.000000  0.255505  0.123906  1
  Si  Si21  1  0.500000  0.744912  0.375771  1
  Si  Si22  1  0.000000  0.457280  0.877204  1
  Si  Si23  1  0.500000  0.544736  0.624472  1
  Si  Si24  1  0.500000  0.544736  0.375528  1
  Si  Si25  1  0.000000  0.457280  0.122796  1
  Br  Br26  1  0.500000  0.108101  0.692073  1
  Br  Br27  1  0.000000  0.892789  0.807759  1
  Br  Br28  1  0.000000  0.131307  0.500000  1
  Br  Br29  1  0.500000  0.861313  0.000000  1
  Br  Br30  1  0.500000  0.108101  0.307927  1
  Br  Br31  1  0.000000  0.892789  0.192241  1
