# generated using pymatgen
data_Ho4Sn3P3Rh7
_symmetry_space_group_name_H-M   'P 1'
_cell_length_a   7.49219497
_cell_length_b   7.30275428
_cell_length_c   7.30275400
_cell_angle_alpha   108.93977482
_cell_angle_beta   109.99756998
_cell_angle_gamma   109.99757955
_symmetry_Int_Tables_number   1
_chemical_formula_structural   Ho4Sn3P3Rh7
_chemical_formula_sum   'Ho4 Sn3 P3 Rh7'
_cell_volume   305.56111379
_cell_formula_units_Z   1
loop_
 _symmetry_equiv_pos_site_id
 _symmetry_equiv_pos_as_xyz
  1  'x, y, z'
loop_
 _atom_site_type_symbol
 _atom_site_label
 _atom_site_symmetry_multiplicity
 _atom_site_fract_x
 _atom_site_fract_y
 _atom_site_fract_z
 _atom_site_occupancy
  Ho  Ho0  1  0.438258  0.000000  0.000000  1
  Ho  Ho1  1  0.012656  0.536078  0.000000  1
  Ho  Ho2  1  0.012656  0.000000  0.536078  1
  Ho  Ho3  1  0.476578  0.463922  0.463922  1
  Sn  Sn4  1  0.976925  0.284325  0.284325  1
  Sn  Sn5  1  0.692600  0.000000  0.715675  1
  Sn  Sn6  1  0.692600  0.715675  0.000000  1
  P  P7  1  0.991947  0.647851  0.647851  1
  P  P8  1  0.344095  0.000000  0.352149  1
  P  P9  1  0.344095  0.352149  0.000000  1
  Rh  Rh10  1  0.058524  0.000000  0.000000  1
  Rh  Rh11  1  0.494332  0.750401  0.253064  1
  Rh  Rh12  1  0.743931  0.502662  0.249599  1
  Rh  Rh13  1  0.241268  0.746936  0.497338  1
  Rh  Rh14  1  0.241268  0.497338  0.746936  1
  Rh  Rh15  1  0.494332  0.253064  0.750401  1
  Rh  Rh16  1  0.743931  0.249599  0.502662  1
