# generated using pymatgen
data_Tb5Tm(Lu2Sn3)2
_symmetry_space_group_name_H-M   'P 1'
_cell_length_a   8.90656940
_cell_length_b   8.90656989
_cell_length_c   6.45441000
_cell_angle_alpha   90.00000000
_cell_angle_beta   90.00000000
_cell_angle_gamma   119.83982925
_symmetry_Int_Tables_number   1
_chemical_formula_structural   Tb5Tm(Lu2Sn3)2
_chemical_formula_sum   'Tb5 Tm1 Lu4 Sn6'
_cell_volume   444.12661837
_cell_formula_units_Z   1
loop_
 _symmetry_equiv_pos_site_id
 _symmetry_equiv_pos_as_xyz
  1  'x, y, z'
loop_
 _atom_site_type_symbol
 _atom_site_label
 _atom_site_symmetry_multiplicity
 _atom_site_fract_x
 _atom_site_fract_y
 _atom_site_fract_z
 _atom_site_occupancy
  Tb  Tb0  1  0.238543  0.999624  0.750000  1
  Tb  Tb1  1  0.999624  0.238543  0.750000  1
  Tb  Tb2  1  0.241517  0.241517  0.250000  1
  Tb  Tb3  1  0.761231  0.999501  0.250000  1
  Tb  Tb4  1  0.999501  0.761231  0.250000  1
  Tm  Tm5  1  0.760132  0.760132  0.750000  1
  Lu  Lu6  1  0.666722  0.333028  0.999541  1
  Lu  Lu7  1  0.333028  0.666722  0.999541  1
  Lu  Lu8  1  0.333028  0.666722  0.500459  1
  Lu  Lu9  1  0.666722  0.333028  0.500459  1
  Sn  Sn10  1  0.398654  0.398654  0.750000  1
  Sn  Sn11  1  0.603453  0.998508  0.750000  1
  Sn  Sn12  1  0.998508  0.603453  0.750000  1
  Sn  Sn13  1  0.602564  0.602564  0.250000  1
  Sn  Sn14  1  0.397143  0.999633  0.250000  1
  Sn  Sn15  1  0.999633  0.397143  0.250000  1
