# generated using pymatgen
data_Yb5Si2Bi
_symmetry_space_group_name_H-M   'P 1'
_cell_length_a   9.23527841
_cell_length_b   9.23527836
_cell_length_c   9.23527893
_cell_angle_alpha   129.97136135
_cell_angle_beta   129.97135695
_cell_angle_gamma   73.45255347
_symmetry_Int_Tables_number   1
_chemical_formula_structural   Yb5Si2Bi
_chemical_formula_sum   'Yb10 Si4 Bi2'
_cell_volume   451.51922316
_cell_formula_units_Z   2
loop_
 _symmetry_equiv_pos_site_id
 _symmetry_equiv_pos_as_xyz
  1  'x, y, z'
loop_
 _atom_site_type_symbol
 _atom_site_label
 _atom_site_symmetry_multiplicity
 _atom_site_fract_x
 _atom_site_fract_y
 _atom_site_fract_z
 _atom_site_occupancy
  Yb  Yb0  1  0.000000  0.000000  0.000000  1
  Yb  Yb1  1  0.500000  0.500000  0.000000  1
  Yb  Yb2  1  0.190414  0.690414  0.154796  1
  Yb  Yb3  1  0.464381  0.964381  0.154796  1
  Yb  Yb4  1  0.035619  0.190414  0.500000  1
  Yb  Yb5  1  0.309586  0.464381  0.500000  1
  Yb  Yb6  1  0.690414  0.535619  0.500000  1
  Yb  Yb7  1  0.964381  0.809586  0.500000  1
  Yb  Yb8  1  0.535619  0.035619  0.845205  1
  Yb  Yb9  1  0.809586  0.309586  0.845205  1
  Si  Si10  1  0.885700  0.385700  0.271399  1
  Si  Si11  1  0.385700  0.114300  0.500000  1
  Si  Si12  1  0.614300  0.885700  0.500000  1
  Si  Si13  1  0.114300  0.614300  0.728601  1
  Bi  Bi14  1  0.250000  0.250000  0.000000  1
  Bi  Bi15  1  0.750000  0.750000  0.000000  1
