# generated using pymatgen
data_YbPaZn21Cu
_symmetry_space_group_name_H-M   'P 1'
_cell_length_a   8.22278721
_cell_length_b   8.20399015
_cell_length_c   8.22278503
_cell_angle_alpha   99.96099455
_cell_angle_beta   99.96582002
_cell_angle_gamma   130.98460727
_symmetry_Int_Tables_number   1
_chemical_formula_structural   YbPaZn21Cu
_chemical_formula_sum   'Yb1 Pa1 Zn21 Cu1'
_cell_volume   380.57638796
_cell_formula_units_Z   1
loop_
 _symmetry_equiv_pos_site_id
 _symmetry_equiv_pos_as_xyz
  1  'x, y, z'
loop_
 _atom_site_type_symbol
 _atom_site_label
 _atom_site_symmetry_multiplicity
 _atom_site_fract_x
 _atom_site_fract_y
 _atom_site_fract_z
 _atom_site_occupancy
  Yb  Yb0  1  0.749316  0.249335  0.500018  1
  Pa  Pa1  1  0.502016  0.500169  0.998154  1
  Zn  Zn2  1  0.405144  0.080058  0.085869  1
  Zn  Zn3  1  0.996110  0.318090  0.921870  1
  Zn  Zn4  1  0.256937  0.670274  0.829351  1
  Zn  Zn5  1  0.849316  0.428477  0.174414  1
  Zn  Zn6  1  0.922229  0.597982  0.916568  1
  Zn  Zn7  1  0.684796  0.009254  0.086592  1
  Zn  Zn8  1  0.327572  0.740273  0.172052  1
  Zn  Zn9  1  0.572006  0.156248  0.827982  1
  Zn  Zn10  1  0.840922  0.670274  0.413337  1
  Zn  Zn11  1  0.254063  0.428477  0.579162  1
  Zn  Zn12  1  0.994189  0.080058  0.674915  1
  Zn  Zn13  1  0.396219  0.318090  0.321980  1
  Zn  Zn14  1  0.328266  0.156248  0.584243  1
  Zn  Zn15  1  0.568221  0.740273  0.412701  1
  Zn  Zn16  1  0.922663  0.009254  0.324458  1
  Zn  Zn17  1  0.681414  0.597982  0.675753  1
  Zn  Zn18  1  0.246689  0.741696  0.495008  1
  Zn  Zn19  1  0.002358  0.006670  0.004311  1
  Zn  Zn20  1  0.128042  0.876762  0.748720  1
  Zn  Zn21  1  0.123379  0.872174  0.251501  1
  Zn  Zn22  1  0.620673  0.872174  0.748796  1
  Cu  Cu23  1  0.127461  0.379706  0.252245  1
