# generated using pymatgen
data_Lu8V(B8Rh)3
_symmetry_space_group_name_H-M   'P 1'
_cell_length_a   3.57357100
_cell_length_b   9.05731869
_cell_length_c   11.41896045
_cell_angle_alpha   90.19406095
_cell_angle_beta   90.00000000
_cell_angle_gamma   90.00000000
_symmetry_Int_Tables_number   1
_chemical_formula_structural   Lu8V(B8Rh)3
_chemical_formula_sum   'Lu8 V1 B24 Rh3'
_cell_volume   369.59504630
_cell_formula_units_Z   1
loop_
 _symmetry_equiv_pos_site_id
 _symmetry_equiv_pos_as_xyz
  1  'x, y, z'
loop_
 _atom_site_type_symbol
 _atom_site_label
 _atom_site_symmetry_multiplicity
 _atom_site_fract_x
 _atom_site_fract_y
 _atom_site_fract_z
 _atom_site_occupancy
  Lu  Lu0  1  0.500000  0.317538  0.409936  1
  Lu  Lu1  1  0.500000  0.678147  0.584973  1
  Lu  Lu2  1  0.500000  0.178114  0.918260  1
  Lu  Lu3  1  0.500000  0.824782  0.087252  1
  Lu  Lu4  1  0.500000  0.443541  0.125577  1
  Lu  Lu5  1  0.500000  0.556197  0.872940  1
  Lu  Lu6  1  0.500000  0.055882  0.627945  1
  Lu  Lu7  1  0.500000  0.946489  0.372956  1
  V  V8  1  0.500000  0.138602  0.179391  1
  B  B9  1  0.000000  0.107162  0.472008  1
  B  B10  1  0.000000  0.892297  0.530042  1
  B  B11  1  0.000000  0.393945  0.969644  1
  B  B12  1  0.000000  0.608612  0.029045  1
  B  B13  1  0.000000  0.132188  0.316171  1
  B  B14  1  0.000000  0.867000  0.682967  1
  B  B15  1  0.000000  0.367761  0.817645  1
  B  B16  1  0.000000  0.632696  0.183614  1
  B  B17  1  0.000000  0.052072  0.065042  1
  B  B18  1  0.000000  0.947666  0.934005  1
  B  B19  1  0.000000  0.446381  0.564783  1
  B  B20  1  0.000000  0.552668  0.434134  1
  B  B21  1  0.000000  0.481325  0.287111  1
  B  B22  1  0.000000  0.518286  0.712613  1
  B  B23  1  0.000000  0.018626  0.787780  1
  B  B24  1  0.000000  0.980238  0.213027  1
  B  B25  1  0.000000  0.249904  0.079067  1
  B  B26  1  0.000000  0.750485  0.921272  1
  B  B27  1  0.000000  0.249559  0.578642  1
  B  B28  1  0.000000  0.750299  0.420790  1
  B  B29  1  0.000000  0.295005  0.235632  1
  B  B30  1  0.000000  0.705540  0.763923  1
  B  B31  1  0.000000  0.206890  0.736405  1
  B  B32  1  0.000000  0.793913  0.265018  1
  Rh  Rh33  1  0.500000  0.859643  0.820189  1
  Rh  Rh34  1  0.500000  0.361311  0.679034  1
  Rh  Rh35  1  0.500000  0.639235  0.321164  1
