# generated using pymatgen
data_Dy3Ho(PbO4)3
_symmetry_space_group_name_H-M   'P 1'
_cell_length_a   6.46910172
_cell_length_b   6.55177706
_cell_length_c   6.74235718
_cell_angle_alpha   100.49521081
_cell_angle_beta   98.31951409
_cell_angle_gamma   99.64827162
_symmetry_Int_Tables_number   1
_chemical_formula_structural   Dy3Ho(PbO4)3
_chemical_formula_sum   'Dy3 Ho1 Pb3 O12'
_cell_volume   272.45024360
_cell_formula_units_Z   1
loop_
 _symmetry_equiv_pos_site_id
 _symmetry_equiv_pos_as_xyz
  1  'x, y, z'
loop_
 _atom_site_type_symbol
 _atom_site_label
 _atom_site_symmetry_multiplicity
 _atom_site_fract_x
 _atom_site_fract_y
 _atom_site_fract_z
 _atom_site_occupancy
  Dy  Dy0  1  0.393858  0.699556  0.862749  1
  Dy  Dy1  1  0.694934  0.868849  0.389127  1
  Dy  Dy2  1  0.605881  0.300308  0.137050  1
  Ho  Ho3  1  0.305339  0.131294  0.610801  1
  Pb  Pb4  1  0.000315  0.000154  0.999972  1
  Pb  Pb5  1  0.850053  0.398580  0.674036  1
  Pb  Pb6  1  0.150082  0.601275  0.326195  1
  O  O7  1  0.043680  0.676266  0.890869  1
  O  O8  1  0.680726  0.935084  0.063441  1
  O  O9  1  0.922473  0.076580  0.686437  1
  O  O10  1  0.956242  0.323764  0.109169  1
  O  O11  1  0.319192  0.065103  0.935729  1
  O  O12  1  0.078441  0.923986  0.314185  1
  O  O13  1  0.576181  0.183932  0.428114  1
  O  O14  1  0.176735  0.423025  0.580170  1
  O  O15  1  0.422995  0.585445  0.175290  1
  O  O16  1  0.422590  0.816813  0.572367  1
  O  O17  1  0.823708  0.575955  0.419938  1
  O  O18  1  0.576575  0.414030  0.824361  1
