# generated using pymatgen
data_Sc10Zn3Fe
_symmetry_space_group_name_H-M   'P 1'
_cell_length_a   8.69436100
_cell_length_b   8.69436205
_cell_length_c   8.93042100
_cell_angle_alpha   90.00000000
_cell_angle_beta   90.00000000
_cell_angle_gamma   119.99999219
_symmetry_Int_Tables_number   1
_chemical_formula_structural   Sc10Zn3Fe
_chemical_formula_sum   'Sc20 Zn6 Fe2'
_cell_volume   584.62581552
_cell_formula_units_Z   2
loop_
 _symmetry_equiv_pos_site_id
 _symmetry_equiv_pos_as_xyz
  1  'x, y, z'
loop_
 _atom_site_type_symbol
 _atom_site_label
 _atom_site_symmetry_multiplicity
 _atom_site_fract_x
 _atom_site_fract_y
 _atom_site_fract_z
 _atom_site_occupancy
  Sc  Sc0  1  0.000000  0.000000  0.500000  1
  Sc  Sc1  1  0.000000  0.000000  0.000000  1
  Sc  Sc2  1  0.541757  0.458243  0.250000  1
  Sc  Sc3  1  0.541757  0.083514  0.250000  1
  Sc  Sc4  1  0.916486  0.458243  0.250000  1
  Sc  Sc5  1  0.458243  0.541757  0.750000  1
  Sc  Sc6  1  0.458243  0.916486  0.750000  1
  Sc  Sc7  1  0.083514  0.541757  0.750000  1
  Sc  Sc8  1  0.209670  0.790330  0.438337  1
  Sc  Sc9  1  0.209670  0.419342  0.438337  1
  Sc  Sc10  1  0.580658  0.790330  0.438337  1
  Sc  Sc11  1  0.790330  0.209670  0.561663  1
  Sc  Sc12  1  0.790330  0.580658  0.561663  1
  Sc  Sc13  1  0.419342  0.209670  0.561663  1
  Sc  Sc14  1  0.790330  0.209670  0.938337  1
  Sc  Sc15  1  0.790330  0.580658  0.938337  1
  Sc  Sc16  1  0.419342  0.209670  0.938337  1
  Sc  Sc17  1  0.209670  0.790330  0.061663  1
  Sc  Sc18  1  0.209670  0.419342  0.061663  1
  Sc  Sc19  1  0.580658  0.790330  0.061663  1
  Zn  Zn20  1  0.889019  0.110981  0.250000  1
  Zn  Zn21  1  0.889019  0.778039  0.250000  1
  Zn  Zn22  1  0.221961  0.110981  0.250000  1
  Zn  Zn23  1  0.110981  0.889019  0.750000  1
  Zn  Zn24  1  0.110981  0.221961  0.750000  1
  Zn  Zn25  1  0.778039  0.889019  0.750000  1
  Fe  Fe26  1  0.333333  0.666667  0.250000  1
  Fe  Fe27  1  0.666667  0.333333  0.750000  1
