# generated using pymatgen
data_Tb4Er6Co2BiSb3
_symmetry_space_group_name_H-M   'P 1'
_cell_length_a   7.87757640
_cell_length_b   8.79356615
_cell_length_c   12.20341591
_cell_angle_alpha   90.01528324
_cell_angle_beta   90.04157007
_cell_angle_gamma   89.92110369
_symmetry_Int_Tables_number   1
_chemical_formula_structural   Tb4Er6Co2BiSb3
_chemical_formula_sum   'Tb8 Er12 Co4 Bi2 Sb6'
_cell_volume   845.35384068
_cell_formula_units_Z   2
loop_
 _symmetry_equiv_pos_site_id
 _symmetry_equiv_pos_as_xyz
  1  'x, y, z'
loop_
 _atom_site_type_symbol
 _atom_site_label
 _atom_site_symmetry_multiplicity
 _atom_site_fract_x
 _atom_site_fract_y
 _atom_site_fract_z
 _atom_site_occupancy
  Tb  Tb0  1  0.658103  0.752360  0.701807  1
  Tb  Tb1  1  0.341897  0.247640  0.298193  1
  Tb  Tb2  1  0.154092  0.247180  0.796160  1
  Tb  Tb3  1  0.845908  0.752820  0.203840  1
  Tb  Tb4  1  0.123802  0.752220  0.808679  1
  Tb  Tb5  1  0.876198  0.247780  0.191321  1
  Tb  Tb6  1  0.628824  0.247496  0.689877  1
  Tb  Tb7  1  0.371176  0.752504  0.310123  1
  Er  Er8  1  0.549953  0.754568  0.997177  1
  Er  Er9  1  0.450047  0.245432  0.002823  1
  Er  Er10  1  0.047690  0.250377  0.503090  1
  Er  Er11  1  0.952310  0.749623  0.496910  1
  Er  Er12  1  0.825702  0.464393  0.933280  1
  Er  Er13  1  0.174298  0.535607  0.066720  1
  Er  Er14  1  0.322230  0.535677  0.563553  1
  Er  Er15  1  0.176320  0.963950  0.066210  1
  Er  Er16  1  0.677770  0.464323  0.436447  1
  Er  Er17  1  0.823680  0.036050  0.933790  1
  Er  Er18  1  0.676596  0.035294  0.434063  1
  Er  Er19  1  0.323404  0.964706  0.565937  1
  Co  Co20  1  0.935201  0.750865  0.991842  1
  Co  Co21  1  0.064799  0.249135  0.008158  1
  Co  Co22  1  0.435918  0.249623  0.508545  1
  Co  Co23  1  0.564082  0.750377  0.491455  1
  Bi  Bi24  1  0.567566  0.492931  0.172417  1
  Bi  Bi25  1  0.432434  0.507069  0.827583  1
  Sb  Sb26  1  0.933973  0.006597  0.670514  1
  Sb  Sb27  1  0.066027  0.993403  0.329486  1
  Sb  Sb28  1  0.433381  0.993096  0.827401  1
  Sb  Sb29  1  0.066325  0.506586  0.328519  1
  Sb  Sb30  1  0.566619  0.006904  0.172599  1
  Sb  Sb31  1  0.933675  0.493414  0.671481  1
