# generated using pymatgen
data_Tb8TaSi16W11
_symmetry_space_group_name_H-M   'P 1'
_cell_length_a   6.89902369
_cell_length_b   6.89902396
_cell_length_c   12.86601909
_cell_angle_alpha   89.95171562
_cell_angle_beta   89.95171765
_cell_angle_gamma   89.81587096
_symmetry_Int_Tables_number   1
_chemical_formula_structural   Tb8TaSi16W11
_chemical_formula_sum   'Tb8 Ta1 Si16 W11'
_cell_volume   612.37426437
_cell_formula_units_Z   1
loop_
 _symmetry_equiv_pos_site_id
 _symmetry_equiv_pos_as_xyz
  1  'x, y, z'
loop_
 _atom_site_type_symbol
 _atom_site_label
 _atom_site_symmetry_multiplicity
 _atom_site_fract_x
 _atom_site_fract_y
 _atom_site_fract_z
 _atom_site_occupancy
  Tb  Tb0  1  0.002359  0.336697  0.219154  1
  Tb  Tb1  1  0.999533  0.664117  0.719117  1
  Tb  Tb2  1  0.163616  0.503161  0.468282  1
  Tb  Tb3  1  0.496839  0.836384  0.031718  1
  Tb  Tb4  1  0.837562  0.498882  0.969854  1
  Tb  Tb5  1  0.501118  0.162438  0.530146  1
  Tb  Tb6  1  0.335883  0.000467  0.780883  1
  Tb  Tb7  1  0.663303  0.997641  0.280846  1
  Ta  Ta8  1  0.667029  0.332971  0.750000  1
  Si  Si9  1  0.376004  0.298534  0.315731  1
  Si  Si10  1  0.626792  0.704783  0.816651  1
  Si  Si11  1  0.200294  0.875770  0.565913  1
  Si  Si12  1  0.124230  0.799706  0.934087  1
  Si  Si13  1  0.798134  0.124415  0.065972  1
  Si  Si14  1  0.875585  0.201866  0.434028  1
  Si  Si15  1  0.295217  0.373208  0.683349  1
  Si  Si16  1  0.701466  0.623996  0.184269  1
  Si  Si17  1  0.286748  0.033924  0.187490  1
  Si  Si18  1  0.709737  0.959941  0.683619  1
  Si  Si19  1  0.465143  0.787483  0.436403  1
  Si  Si20  1  0.212517  0.534857  0.063597  1
  Si  Si21  1  0.532849  0.210779  0.938716  1
  Si  Si22  1  0.789221  0.467151  0.561284  1
  Si  Si23  1  0.040059  0.290263  0.816381  1
  Si  Si24  1  0.966076  0.713252  0.312510  1
  W  W25  1  0.165547  0.165098  0.002455  1
  W  W26  1  0.834902  0.834453  0.497545  1
  W  W27  1  0.333667  0.666333  0.250000  1
  W  W28  1  0.166987  0.000924  0.377350  1
  W  W29  1  0.831866  0.003153  0.874185  1
  W  W30  1  0.499752  0.660656  0.627132  1
  W  W31  1  0.339344  0.500248  0.872868  1
  W  W32  1  0.498287  0.333585  0.126928  1
  W  W33  1  0.666415  0.501713  0.373072  1
  W  W34  1  0.996847  0.168134  0.625815  1
  W  W35  1  0.999076  0.833013  0.122650  1
