# generated using pymatgen
data_Ba6Pu(FeO6)2
_symmetry_space_group_name_H-M   'P 1'
_cell_length_a   9.40280462
_cell_length_b   9.40280596
_cell_length_c   7.48910800
_cell_angle_alpha   67.94054425
_cell_angle_beta   67.94054753
_cell_angle_gamma   36.79753767
_symmetry_Int_Tables_number   1
_chemical_formula_structural   Ba6Pu(FeO6)2
_chemical_formula_sum   'Ba6 Pu1 Fe2 O12'
_cell_volume   364.22166031
_cell_formula_units_Z   1
loop_
 _symmetry_equiv_pos_site_id
 _symmetry_equiv_pos_as_xyz
  1  'x, y, z'
loop_
 _atom_site_type_symbol
 _atom_site_label
 _atom_site_symmetry_multiplicity
 _atom_site_fract_x
 _atom_site_fract_y
 _atom_site_fract_z
 _atom_site_occupancy
  Ba  Ba0  1  0.872182  0.872182  0.721300  1
  Ba  Ba1  1  0.222272  0.222272  0.711318  1
  Ba  Ba2  1  0.548657  0.548657  0.702515  1
  Ba  Ba3  1  0.451343  0.451343  0.297485  1
  Ba  Ba4  1  0.777728  0.777728  0.288682  1
  Ba  Ba5  1  0.127818  0.127818  0.278700  1
  Pu  Pu6  1  0.000000  0.000000  0.000000  1
  Fe  Fe7  1  0.671343  0.671343  0.998625  1
  Fe  Fe8  1  0.328657  0.328657  0.001375  1
  O  O9  1  0.948776  0.948776  0.305826  1
  O  O10  1  0.285558  0.285558  0.301674  1
  O  O11  1  0.614153  0.614153  0.303416  1
  O  O12  1  0.385847  0.385847  0.696584  1
  O  O13  1  0.714442  0.714442  0.698326  1
  O  O14  1  0.051224  0.051224  0.694174  1
  O  O15  1  0.500000  0.000000  0.000000  1
  O  O16  1  0.835070  0.328165  0.000341  1
  O  O17  1  0.164930  0.671835  0.999659  1
  O  O18  1  0.000000  0.500000  0.000000  1
  O  O19  1  0.328165  0.835070  0.000341  1
  O  O20  1  0.671835  0.164930  0.999659  1
