# generated using pymatgen
data_Sc5Sn6GeRu12
_symmetry_space_group_name_H-M   'P 1'
_cell_length_a   4.52691900
_cell_length_b   6.40706300
_cell_length_c   13.57302600
_cell_angle_alpha   89.99980454
_cell_angle_beta   90.00013082
_cell_angle_gamma   89.99982198
_symmetry_Int_Tables_number   1
_chemical_formula_structural   Sc5Sn6GeRu12
_chemical_formula_sum   'Sc5 Sn6 Ge1 Ru12'
_cell_volume   393.67551033
_cell_formula_units_Z   1
loop_
 _symmetry_equiv_pos_site_id
 _symmetry_equiv_pos_as_xyz
  1  'x, y, z'
loop_
 _atom_site_type_symbol
 _atom_site_label
 _atom_site_symmetry_multiplicity
 _atom_site_fract_x
 _atom_site_fract_y
 _atom_site_fract_z
 _atom_site_occupancy
  Sc  Sc0  1  0.499896  0.500046  0.162864  1
  Sc  Sc1  1  0.999903  0.999982  0.334780  1
  Sc  Sc2  1  0.500000  0.500004  0.500002  1
  Sc  Sc3  1  0.000096  0.999987  0.665228  1
  Sc  Sc4  1  0.500105  0.500049  0.837112  1
  Sn  Sn5  1  0.000000  0.499902  0.999997  1
  Sn  Sn6  1  0.499881  0.000032  0.174280  1
  Sn  Sn7  1  0.999912  0.499974  0.329858  1
  Sn  Sn8  1  0.500002  0.000032  0.500001  1
  Sn  Sn9  1  0.000087  0.499975  0.670141  1
  Sn  Sn10  1  0.500124  0.000028  0.825725  1
  Ge  Ge11  1  0.000000  0.000024  0.000002  1
  Ru  Ru12  1  0.500002  0.226464  0.999996  1
  Ru  Ru13  1  0.500001  0.773500  0.999997  1
  Ru  Ru14  1  0.999909  0.239266  0.157899  1
  Ru  Ru15  1  0.999908  0.760755  0.157905  1
  Ru  Ru16  1  0.499905  0.253091  0.332499  1
  Ru  Ru17  1  0.499908  0.746897  0.332498  1
  Ru  Ru18  1  0.000000  0.250453  0.500005  1
  Ru  Ru19  1  0.000002  0.749533  0.500005  1
  Ru  Ru20  1  0.500088  0.253082  0.667507  1
  Ru  Ru21  1  0.500081  0.746905  0.667507  1
  Ru  Ru22  1  0.000094  0.239276  0.842099  1
  Ru  Ru23  1  0.000093  0.760750  0.842092  1
