# generated using pymatgen
data_Mo2Ir2Ru3Pt
_symmetry_space_group_name_H-M   'P 1'
_cell_length_a   5.51175856
_cell_length_b   5.52917046
_cell_length_c   4.40823800
_cell_angle_alpha   90.00000000
_cell_angle_beta   90.00000000
_cell_angle_gamma   119.60570820
_symmetry_Int_Tables_number   1
_chemical_formula_structural   Mo2Ir2Ru3Pt
_chemical_formula_sum   'Mo2 Ir2 Ru3 Pt1'
_cell_volume   116.80398758
_cell_formula_units_Z   1
loop_
 _symmetry_equiv_pos_site_id
 _symmetry_equiv_pos_as_xyz
  1  'x, y, z'
loop_
 _atom_site_type_symbol
 _atom_site_label
 _atom_site_symmetry_multiplicity
 _atom_site_fract_x
 _atom_site_fract_y
 _atom_site_fract_z
 _atom_site_occupancy
  Mo  Mo0  1  0.664553  0.341014  0.250000  1
  Mo  Mo1  1  0.335534  0.664709  0.750000  1
  Ir  Ir2  1  0.333017  0.167315  0.750000  1
  Ir  Ir3  1  0.165623  0.833541  0.250000  1
  Ru  Ru4  1  0.830944  0.665682  0.750000  1
  Ru  Ru5  1  0.667340  0.829164  0.250000  1
  Ru  Ru6  1  0.168970  0.332568  0.250000  1
  Pt  Pt7  1  0.834019  0.166008  0.750000  1
