# generated using pymatgen
data_Ba2SrYb7
_symmetry_space_group_name_H-M   'P 1'
_cell_length_a   16.05391992
_cell_length_b   16.05391973
_cell_length_c   6.32756400
_cell_angle_alpha   90.00000000
_cell_angle_beta   90.00000000
_cell_angle_gamma   164.44439951
_symmetry_Int_Tables_number   1
_chemical_formula_structural   Ba2SrYb7
_chemical_formula_sum   'Ba2 Sr1 Yb7'
_cell_volume   437.33513812
_cell_formula_units_Z   1
loop_
 _symmetry_equiv_pos_site_id
 _symmetry_equiv_pos_as_xyz
  1  'x, y, z'
loop_
 _atom_site_type_symbol
 _atom_site_label
 _atom_site_symmetry_multiplicity
 _atom_site_fract_x
 _atom_site_fract_y
 _atom_site_fract_z
 _atom_site_occupancy
  Ba  Ba0  1  0.999979  0.000021  0.000000  1
  Ba  Ba1  1  0.801931  0.198070  0.000000  1
  Sr  Sr2  1  0.197762  0.802239  0.000000  1
  Yb  Yb3  1  0.599378  0.400623  0.000000  1
  Yb  Yb4  1  0.400916  0.599085  0.000000  1
  Yb  Yb5  1  0.900991  0.099009  0.499999  1
  Yb  Yb6  1  0.699090  0.300910  0.499999  1
  Yb  Yb7  1  0.500024  0.499976  0.499999  1
  Yb  Yb8  1  0.300748  0.699252  0.499999  1
  Yb  Yb9  1  0.099184  0.900816  0.499999  1
