# generated using pymatgen
data_CeDyCdNi2
_symmetry_space_group_name_H-M   'P 1'
_cell_length_a   7.45002204
_cell_length_b   7.45002171
_cell_length_c   3.61678900
_cell_angle_alpha   90.00000000
_cell_angle_beta   90.00000000
_cell_angle_gamma   92.67697548
_symmetry_Int_Tables_number   1
_chemical_formula_structural   CeDyCdNi2
_chemical_formula_sum   'Ce2 Dy2 Cd2 Ni4'
_cell_volume   200.52294536
_cell_formula_units_Z   2
loop_
 _symmetry_equiv_pos_site_id
 _symmetry_equiv_pos_as_xyz
  1  'x, y, z'
loop_
 _atom_site_type_symbol
 _atom_site_label
 _atom_site_symmetry_multiplicity
 _atom_site_fract_x
 _atom_site_fract_y
 _atom_site_fract_z
 _atom_site_occupancy
  Ce  Ce0  1  0.674513  0.174513  0.500000  1
  Ce  Ce1  1  0.325487  0.825487  0.500000  1
  Dy  Dy2  1  0.172686  0.327314  0.500000  1
  Dy  Dy3  1  0.827314  0.672686  0.500000  1
  Cd  Cd4  1  0.000000  0.000000  0.000000  1
  Cd  Cd5  1  0.500000  0.500000  0.000000  1
  Ni  Ni6  1  0.125956  0.625956  0.000000  1
  Ni  Ni7  1  0.874044  0.374044  0.000000  1
  Ni  Ni8  1  0.618179  0.881821  0.000000  1
  Ni  Ni9  1  0.381821  0.118179  0.000000  1
