# generated using pymatgen
data_LuFe3Ge2
_symmetry_space_group_name_H-M   'P 1'
_cell_length_a   4.01155000
_cell_length_b   4.01154982
_cell_length_c   13.07073200
_cell_angle_alpha   90.00000000
_cell_angle_beta   90.00000000
_cell_angle_gamma   120.00000149
_symmetry_Int_Tables_number   1
_chemical_formula_structural   LuFe3Ge2
_chemical_formula_sum   'Lu2 Fe6 Ge4'
_cell_volume   182.16080420
_cell_formula_units_Z   2
loop_
 _symmetry_equiv_pos_site_id
 _symmetry_equiv_pos_as_xyz
  1  'x, y, z'
loop_
 _atom_site_type_symbol
 _atom_site_label
 _atom_site_symmetry_multiplicity
 _atom_site_fract_x
 _atom_site_fract_y
 _atom_site_fract_z
 _atom_site_occupancy
  Lu  Lu0  1  0.000000  0.000000  0.250000  1
  Lu  Lu1  1  0.000000  0.000000  0.750000  1
  Fe  Fe2  1  0.000000  0.000000  0.000000  1
  Fe  Fe3  1  0.666666  0.333334  0.068204  1
  Fe  Fe4  1  0.666666  0.333334  0.431796  1
  Fe  Fe5  1  0.000000  0.000000  0.500000  1
  Fe  Fe6  1  0.333333  0.666665  0.568204  1
  Fe  Fe7  1  0.333333  0.666665  0.931796  1
  Ge  Ge8  1  0.333333  0.666665  0.116893  1
  Ge  Ge9  1  0.333333  0.666665  0.383107  1
  Ge  Ge10  1  0.666666  0.333334  0.616893  1
  Ge  Ge11  1  0.666666  0.333334  0.883107  1
