# generated using pymatgen
data_K6Tl2Bi3
_symmetry_space_group_name_H-M   'P 1'
_cell_length_a   10.30652544
_cell_length_b   10.30652564
_cell_length_c   20.54512200
_cell_angle_alpha   82.96631770
_cell_angle_beta   82.96631756
_cell_angle_gamma   119.49550722
_symmetry_Int_Tables_number   1
_chemical_formula_structural   K6Tl2Bi3
_chemical_formula_sum   'K24 Tl8 Bi12'
_cell_volume   1842.58153260
_cell_formula_units_Z   4
loop_
 _symmetry_equiv_pos_site_id
 _symmetry_equiv_pos_as_xyz
  1  'x, y, z'
loop_
 _atom_site_type_symbol
 _atom_site_label
 _atom_site_symmetry_multiplicity
 _atom_site_fract_x
 _atom_site_fract_y
 _atom_site_fract_z
 _atom_site_occupancy
  K  K0  1  0.486390  0.337133  0.945422  1
  K  K1  1  0.662867  0.513610  0.554578  1
  K  K2  1  0.513610  0.662867  0.054578  1
  K  K3  1  0.337133  0.486390  0.445422  1
  K  K4  1  0.216304  0.672278  0.946337  1
  K  K5  1  0.327722  0.783696  0.553663  1
  K  K6  1  0.783696  0.327722  0.053663  1
  K  K7  1  0.672278  0.216304  0.446337  1
  K  K8  1  0.587125  0.076070  0.822213  1
  K  K9  1  0.923930  0.412875  0.677787  1
  K  K10  1  0.412875  0.923930  0.177787  1
  K  K11  1  0.076070  0.587125  0.322213  1
  K  K12  1  0.244058  0.412732  0.821962  1
  K  K13  1  0.587268  0.755942  0.678038  1
  K  K14  1  0.755942  0.587268  0.178038  1
  K  K15  1  0.412732  0.244058  0.321962  1
  K  K16  1  0.125689  0.938862  0.054342  1
  K  K17  1  0.061138  0.874311  0.445658  1
  K  K18  1  0.874311  0.061138  0.945658  1
  K  K19  1  0.938862  0.125689  0.554342  1
  K  K20  1  0.976905  0.023095  0.750000  1
  K  K21  1  0.023095  0.976905  0.250000  1
  K  K22  1  0.199508  0.800492  0.750000  1
  K  K23  1  0.800492  0.199508  0.250000  1
  Tl  Tl24  1  0.876184  0.706179  0.928056  1
  Tl  Tl25  1  0.293821  0.123816  0.571944  1
  Tl  Tl26  1  0.123816  0.293821  0.071944  1
  Tl  Tl27  1  0.706179  0.876184  0.428056  1
  Tl  Tl28  1  0.731867  0.560700  0.771915  1
  Tl  Tl29  1  0.439300  0.268133  0.728085  1
  Tl  Tl30  1  0.268133  0.439300  0.228085  1
  Tl  Tl31  1  0.560700  0.731867  0.271915  1
  Bi  Bi32  1  0.603738  0.727783  0.862534  1
  Bi  Bi33  1  0.272217  0.396262  0.637466  1
  Bi  Bi34  1  0.396262  0.272217  0.137466  1
  Bi  Bi35  1  0.727783  0.603738  0.362534  1
  Bi  Bi36  1  0.968227  0.790906  0.629808  1
  Bi  Bi37  1  0.209094  0.031773  0.870192  1
  Bi  Bi38  1  0.031773  0.209094  0.370192  1
  Bi  Bi39  1  0.790906  0.968227  0.129808  1
  Bi  Bi40  1  0.887621  0.427289  0.865534  1
  Bi  Bi41  1  0.572711  0.112379  0.634466  1
  Bi  Bi42  1  0.112379  0.572711  0.134466  1
  Bi  Bi43  1  0.427289  0.887621  0.365534  1
