# generated using pymatgen
data_Tm2Sc2B12IrW
_symmetry_space_group_name_H-M   'P 1'
_cell_length_a   3.52383300
_cell_length_b   9.02585232
_cell_length_c   11.43318770
_cell_angle_alpha   90.16430156
_cell_angle_beta   90.00000000
_cell_angle_gamma   90.00000000
_symmetry_Int_Tables_number   1
_chemical_formula_structural   Tm2Sc2B12IrW
_chemical_formula_sum   'Tm4 Sc4 B24 Ir2 W2'
_cell_volume   363.63785676
_cell_formula_units_Z   2
loop_
 _symmetry_equiv_pos_site_id
 _symmetry_equiv_pos_as_xyz
  1  'x, y, z'
loop_
 _atom_site_type_symbol
 _atom_site_label
 _atom_site_symmetry_multiplicity
 _atom_site_fract_x
 _atom_site_fract_y
 _atom_site_fract_z
 _atom_site_occupancy
  Tm  Tm0  1  0.500000  0.317288  0.412627  1
  Tm  Tm1  1  0.500000  0.682712  0.587373  1
  Tm  Tm2  1  0.500000  0.178146  0.915717  1
  Tm  Tm3  1  0.500000  0.821854  0.084283  1
  Sc  Sc4  1  0.500000  0.444109  0.125221  1
  Sc  Sc5  1  0.500000  0.555891  0.874779  1
  Sc  Sc6  1  0.500000  0.052760  0.625795  1
  Sc  Sc7  1  0.500000  0.947240  0.374205  1
  B  B8  1  0.000000  0.100754  0.474125  1
  B  B9  1  0.000000  0.899246  0.525875  1
  B  B10  1  0.000000  0.400818  0.972006  1
  B  B11  1  0.000000  0.599182  0.027994  1
  B  B12  1  0.000000  0.130209  0.320448  1
  B  B13  1  0.000000  0.869791  0.679552  1
  B  B14  1  0.000000  0.370530  0.817830  1
  B  B15  1  0.000000  0.629470  0.182170  1
  B  B16  1  0.000000  0.051999  0.065213  1
  B  B17  1  0.000000  0.948001  0.934787  1
  B  B18  1  0.000000  0.445602  0.565840  1
  B  B19  1  0.000000  0.554398  0.434160  1
  B  B20  1  0.000000  0.482114  0.286754  1
  B  B21  1  0.000000  0.517886  0.713246  1
  B  B22  1  0.000000  0.022943  0.784430  1
  B  B23  1  0.000000  0.977057  0.215570  1
  B  B24  1  0.000000  0.255613  0.077972  1
  B  B25  1  0.000000  0.744387  0.922028  1
  B  B26  1  0.000000  0.245954  0.579860  1
  B  B27  1  0.000000  0.754046  0.420140  1
  B  B28  1  0.000000  0.299344  0.236800  1
  B  B29  1  0.000000  0.700656  0.763200  1
  B  B30  1  0.000000  0.206854  0.734623  1
  B  B31  1  0.000000  0.793146  0.265377  1
  Ir  Ir32  1  0.500000  0.360091  0.679894  1
  Ir  Ir33  1  0.500000  0.639909  0.320106  1
  W  W34  1  0.500000  0.141062  0.182518  1
  W  W35  1  0.500000  0.858938  0.817482  1
