# generated using pymatgen
data_Ta4Si2IrOs9
_symmetry_space_group_name_H-M   'P 1'
_cell_length_a   4.12251900
_cell_length_b   5.43879468
_cell_length_c   10.66770500
_cell_angle_alpha   89.94312343
_cell_angle_beta   90.00000000
_cell_angle_gamma   90.00000000
_symmetry_Int_Tables_number   1
_chemical_formula_structural   Ta4Si2IrOs9
_chemical_formula_sum   'Ta4 Si2 Ir1 Os9'
_cell_volume   239.18619682
_cell_formula_units_Z   1
loop_
 _symmetry_equiv_pos_site_id
 _symmetry_equiv_pos_as_xyz
  1  'x, y, z'
loop_
 _atom_site_type_symbol
 _atom_site_label
 _atom_site_symmetry_multiplicity
 _atom_site_fract_x
 _atom_site_fract_y
 _atom_site_fract_z
 _atom_site_occupancy
  Ta  Ta0  1  0.500000  0.829273  0.358187  1
  Ta  Ta1  1  0.500000  0.166553  0.643438  1
  Ta  Ta2  1  0.500000  0.327372  0.139979  1
  Ta  Ta3  1  0.500000  0.667735  0.859556  1
  Si  Si4  1  0.000000  0.505581  0.494959  1
  Si  Si5  1  0.000000  0.007967  0.002973  1
  Ir  Ir6  1  0.500000  0.675162  0.602768  1
  Os  Os7  1  0.000000  0.518414  0.993478  1
  Os  Os8  1  0.000000  0.017933  0.508382  1
  Os  Os9  1  0.000000  0.572614  0.243937  1
  Os  Os10  1  0.000000  0.410434  0.741913  1
  Os  Os11  1  0.000000  0.072795  0.256461  1
  Os  Os12  1  0.000000  0.907075  0.758127  1
  Os  Os13  1  0.500000  0.821720  0.106357  1
  Os  Os14  1  0.500000  0.178493  0.895091  1
  Os  Os15  1  0.500000  0.320885  0.394395  1
