# generated using pymatgen
data_Y8Hg3Ir
_symmetry_space_group_name_H-M   'P 1'
_cell_length_a   10.19444800
_cell_length_b   10.19444718
_cell_length_c   7.29262000
_cell_angle_alpha   90.00000000
_cell_angle_beta   90.00000000
_cell_angle_gamma   120.00000266
_symmetry_Int_Tables_number   1
_chemical_formula_structural   Y8Hg3Ir
_chemical_formula_sum   'Y16 Hg6 Ir2'
_cell_volume   656.35923363
_cell_formula_units_Z   2
loop_
 _symmetry_equiv_pos_site_id
 _symmetry_equiv_pos_as_xyz
  1  'x, y, z'
loop_
 _atom_site_type_symbol
 _atom_site_label
 _atom_site_symmetry_multiplicity
 _atom_site_fract_x
 _atom_site_fract_y
 _atom_site_fract_z
 _atom_site_occupancy
  Y  Y0  1  0.462132  0.537868  0.477099  1
  Y  Y1  1  0.075736  0.537868  0.477099  1
  Y  Y2  1  0.462132  0.924264  0.477099  1
  Y  Y3  1  0.537868  0.462132  0.977099  1
  Y  Y4  1  0.924264  0.462132  0.977099  1
  Y  Y5  1  0.537868  0.075736  0.977099  1
  Y  Y6  1  0.827524  0.172476  0.286340  1
  Y  Y7  1  0.344950  0.172476  0.286340  1
  Y  Y8  1  0.827524  0.655050  0.286340  1
  Y  Y9  1  0.172476  0.827524  0.786340  1
  Y  Y10  1  0.655050  0.827524  0.786340  1
  Y  Y11  1  0.172476  0.344950  0.786340  1
  Y  Y12  1  0.333333  0.666667  0.095121  1
  Y  Y13  1  0.666667  0.333333  0.595121  1
  Y  Y14  1  0.000000  0.000000  0.504242  1
  Y  Y15  1  0.000000  0.000000  0.004242  1
  Hg  Hg16  1  0.166623  0.833377  0.222713  1
  Hg  Hg17  1  0.666754  0.833377  0.222713  1
  Hg  Hg18  1  0.166623  0.333246  0.222713  1
  Hg  Hg19  1  0.833377  0.166623  0.722713  1
  Hg  Hg20  1  0.333246  0.166623  0.722713  1
  Hg  Hg21  1  0.833377  0.666754  0.722713  1
  Ir  Ir22  1  0.333333  0.666667  0.714463  1
  Ir  Ir23  1  0.666667  0.333333  0.214463  1
