# generated using pymatgen
data_Eu6TiMoO14
_symmetry_space_group_name_H-M   'P 1'
_cell_length_a   6.56707855
_cell_length_b   6.56707773
_cell_length_c   7.62355093
_cell_angle_alpha   89.91994242
_cell_angle_beta   89.91994408
_cell_angle_gamma   111.30299526
_symmetry_Int_Tables_number   1
_chemical_formula_structural   Eu6TiMoO14
_chemical_formula_sum   'Eu6 Ti1 Mo1 O14'
_cell_volume   306.31163682
_cell_formula_units_Z   1
loop_
 _symmetry_equiv_pos_site_id
 _symmetry_equiv_pos_as_xyz
  1  'x, y, z'
loop_
 _atom_site_type_symbol
 _atom_site_label
 _atom_site_symmetry_multiplicity
 _atom_site_fract_x
 _atom_site_fract_y
 _atom_site_fract_z
 _atom_site_occupancy
  Eu  Eu0  1  0.063591  0.522370  0.241815  1
  Eu  Eu1  1  0.936409  0.477630  0.758185  1
  Eu  Eu2  1  0.522370  0.063591  0.241815  1
  Eu  Eu3  1  0.477630  0.936409  0.758185  1
  Eu  Eu4  1  0.000000  0.000000  0.000000  1
  Eu  Eu5  1  0.000000  0.000000  0.500000  1
  Ti  Ti6  1  0.500000  0.500000  0.000000  1
  Mo  Mo7  1  0.500000  0.500000  0.500000  1
  O  O8  1  0.435949  0.435949  0.252916  1
  O  O9  1  0.564051  0.564051  0.747084  1
  O  O10  1  0.893118  0.155904  0.251422  1
  O  O11  1  0.106882  0.844096  0.748578  1
  O  O12  1  0.155904  0.893118  0.251422  1
  O  O13  1  0.844096  0.106882  0.748578  1
  O  O14  1  0.815404  0.563196  0.034850  1
  O  O15  1  0.184596  0.436804  0.965150  1
  O  O16  1  0.189299  0.440267  0.535324  1
  O  O17  1  0.559733  0.810701  0.464676  1
  O  O18  1  0.810701  0.559733  0.464676  1
  O  O19  1  0.440267  0.189299  0.535324  1
  O  O20  1  0.436804  0.184596  0.965150  1
  O  O21  1  0.563196  0.815404  0.034850  1
