# generated using pymatgen
data_Ac8Si12Ir2PdPt
_symmetry_space_group_name_H-M   'P 1'
_cell_length_a   8.44642804
_cell_length_b   8.44535309
_cell_length_c   9.17811500
_cell_angle_alpha   90.00049029
_cell_angle_beta   89.99942441
_cell_angle_gamma   119.99522213
_symmetry_Int_Tables_number   1
_chemical_formula_structural   Ac8Si12Ir2PdPt
_chemical_formula_sum   'Ac8 Si12 Ir2 Pd1 Pt1'
_cell_volume   567.01680689
_cell_formula_units_Z   1
loop_
 _symmetry_equiv_pos_site_id
 _symmetry_equiv_pos_as_xyz
  1  'x, y, z'
loop_
 _atom_site_type_symbol
 _atom_site_label
 _atom_site_symmetry_multiplicity
 _atom_site_fract_x
 _atom_site_fract_y
 _atom_site_fract_z
 _atom_site_occupancy
  Ac  Ac0  1  0.503470  0.006896  0.250299  1
  Ac  Ac1  1  0.502280  0.004549  0.749392  1
  Ac  Ac2  1  0.993090  0.496517  0.250301  1
  Ac  Ac3  1  0.995443  0.497709  0.749387  1
  Ac  Ac4  1  0.503497  0.496492  0.250298  1
  Ac  Ac5  1  0.502353  0.497635  0.749399  1
  Ac  Ac6  1  0.999999  0.000003  0.251280  1
  Ac  Ac7  1  0.999992  0.000006  0.749110  1
  Si  Si8  1  0.165393  0.330818  0.999056  1
  Si  Si9  1  0.832178  0.664314  0.000778  1
  Si  Si10  1  0.669191  0.834623  0.999058  1
  Si  Si11  1  0.832814  0.665547  0.497949  1
  Si  Si12  1  0.335671  0.167810  0.000776  1
  Si  Si13  1  0.164154  0.328364  0.502534  1
  Si  Si14  1  0.165435  0.834585  0.999073  1
  Si  Si15  1  0.334480  0.167218  0.497953  1
  Si  Si16  1  0.832113  0.167876  0.000780  1
  Si  Si17  1  0.671601  0.835814  0.502540  1
  Si  Si18  1  0.832723  0.167316  0.497914  1
  Si  Si19  1  0.164200  0.835765  0.502542  1
  Ir  Ir20  1  0.666631  0.333419  0.999897  1
  Ir  Ir21  1  0.666605  0.333427  0.503577  1
  Pd  Pd22  1  0.333345  0.666654  0.495295  1
  Pt  Pt23  1  0.333341  0.666649  0.000809  1
