# generated using pymatgen
data_Ca3Yb7Al3GaSb12
_symmetry_space_group_name_H-M   'P 1'
_cell_length_a   4.49270500
_cell_length_b   12.07065702
_cell_length_c   14.04979778
_cell_angle_alpha   89.96685874
_cell_angle_beta   90.00000000
_cell_angle_gamma   90.00000000
_symmetry_Int_Tables_number   1
_chemical_formula_structural   Ca3Yb7Al3GaSb12
_chemical_formula_sum   'Ca3 Yb7 Al3 Ga1 Sb12'
_cell_volume   761.91901725
_cell_formula_units_Z   1
loop_
 _symmetry_equiv_pos_site_id
 _symmetry_equiv_pos_as_xyz
  1  'x, y, z'
loop_
 _atom_site_type_symbol
 _atom_site_label
 _atom_site_symmetry_multiplicity
 _atom_site_fract_x
 _atom_site_fract_y
 _atom_site_fract_z
 _atom_site_occupancy
  Ca  Ca0  1  0.500000  0.999584  0.499956  1
  Ca  Ca1  1  0.500000  0.499795  0.000198  1
  Ca  Ca2  1  0.500000  0.591513  0.752977  1
  Yb  Yb3  1  0.500000  0.670585  0.481446  1
  Yb  Yb4  1  0.500000  0.329599  0.518305  1
  Yb  Yb5  1  0.500000  0.829739  0.981809  1
  Yb  Yb6  1  0.500000  0.170490  0.019055  1
  Yb  Yb7  1  0.500000  0.908609  0.252992  1
  Yb  Yb8  1  0.500000  0.091275  0.746890  1
  Yb  Yb9  1  0.500000  0.408476  0.246662  1
  Al  Al10  1  0.000000  0.329877  0.711734  1
  Al  Al11  1  0.000000  0.669548  0.288019  1
  Al  Al12  1  0.000000  0.831409  0.788336  1
  Ga  Ga13  1  0.000000  0.169320  0.211595  1
  Sb  Sb14  1  0.000000  0.973558  0.100570  1
  Sb  Sb15  1  0.000000  0.026336  0.899325  1
  Sb  Sb16  1  0.000000  0.474274  0.398964  1
  Sb  Sb17  1  0.000000  0.524977  0.600583  1
  Sb  Sb18  1  0.500000  0.162915  0.323679  1
  Sb  Sb19  1  0.500000  0.837332  0.677272  1
  Sb  Sb20  1  0.500000  0.663004  0.177222  1
  Sb  Sb21  1  0.500000  0.336786  0.822649  1
  Sb  Sb22  1  0.000000  0.344975  0.091799  1
  Sb  Sb23  1  0.000000  0.656432  0.908496  1
  Sb  Sb24  1  0.000000  0.844219  0.407715  1
  Sb  Sb25  1  0.000000  0.155373  0.591750  1
