# generated using pymatgen
data_Th4GePd7Rh5
_symmetry_space_group_name_H-M   'P 1'
_cell_length_a   7.40037107
_cell_length_b   7.40008803
_cell_length_c   7.40037300
_cell_angle_alpha   109.27386045
_cell_angle_beta   109.30387078
_cell_angle_gamma   109.83810630
_symmetry_Int_Tables_number   1
_chemical_formula_structural   Th4GePd7Rh5
_chemical_formula_sum   'Th4 Ge1 Pd7 Rh5'
_cell_volume   311.96108767
_cell_formula_units_Z   1
loop_
 _symmetry_equiv_pos_site_id
 _symmetry_equiv_pos_as_xyz
  1  'x, y, z'
loop_
 _atom_site_type_symbol
 _atom_site_label
 _atom_site_symmetry_multiplicity
 _atom_site_fract_x
 _atom_site_fract_y
 _atom_site_fract_z
 _atom_site_occupancy
  Th  Th0  1  0.004305  0.004290  0.507449  1
  Th  Th1  1  0.004323  0.496895  0.000011  1
  Th  Th2  1  0.496841  0.004290  0.999986  1
  Th  Th3  1  0.496884  0.496895  0.492572  1
  Ge  Ge4  1  0.999669  0.999635  0.999965  1
  Pd  Pd5  1  0.750194  0.250204  0.500009  1
  Pd  Pd6  1  0.753799  0.501382  0.252434  1
  Pd  Pd7  1  0.501257  0.249124  0.747867  1
  Pd  Pd8  1  0.248948  0.501382  0.747583  1
  Pd  Pd9  1  0.250006  0.750000  0.499994  1
  Pd  Pd10  1  0.501292  0.753443  0.252152  1
  Pd  Pd11  1  0.713478  0.713540  0.000063  1
  Rh  Rh12  1  0.277202  0.999180  0.278043  1
  Rh  Rh13  1  0.999054  0.276977  0.277921  1
  Rh  Rh14  1  0.282436  0.282391  0.999954  1
  Rh  Rh15  1  0.721138  0.999180  0.721978  1
  Rh  Rh16  1  0.999171  0.721194  0.722022  1
