# generated using pymatgen
data_Rb5NdO4
_symmetry_space_group_name_H-M   'P 1'
_cell_length_a   6.69543100
_cell_length_b   8.66730000
_cell_length_c   9.32994500
_cell_angle_alpha   90.00000000
_cell_angle_beta   90.00000000
_cell_angle_gamma   90.00000000
_symmetry_Int_Tables_number   1
_chemical_formula_structural   Rb5NdO4
_chemical_formula_sum   'Rb10 Nd2 O8'
_cell_volume   541.42892224
_cell_formula_units_Z   2
loop_
 _symmetry_equiv_pos_site_id
 _symmetry_equiv_pos_as_xyz
  1  'x, y, z'
loop_
 _atom_site_type_symbol
 _atom_site_label
 _atom_site_symmetry_multiplicity
 _atom_site_fract_x
 _atom_site_fract_y
 _atom_site_fract_z
 _atom_site_occupancy
  Rb  Rb0  1  0.256931  0.762618  0.811716  1
  Rb  Rb1  1  0.256931  0.237382  0.811716  1
  Rb  Rb2  1  0.816048  0.500000  0.000000  1
  Rb  Rb3  1  0.256931  0.762618  0.188284  1
  Rb  Rb4  1  0.256931  0.237382  0.188284  1
  Rb  Rb5  1  0.743069  0.737382  0.311716  1
  Rb  Rb6  1  0.743069  0.262618  0.311716  1
  Rb  Rb7  1  0.183952  0.000000  0.500000  1
  Rb  Rb8  1  0.743069  0.737382  0.688284  1
  Rb  Rb9  1  0.743069  0.262618  0.688284  1
  Nd  Nd10  1  0.779553  0.000000  0.000000  1
  Nd  Nd11  1  0.220447  0.500000  0.500000  1
  O  O12  1  0.964840  0.000000  0.794375  1
  O  O13  1  0.599179  0.778071  0.000000  1
  O  O14  1  0.599179  0.221929  0.000000  1
  O  O15  1  0.964840  0.000000  0.205625  1
  O  O16  1  0.035160  0.500000  0.294375  1
  O  O17  1  0.400821  0.721929  0.500000  1
  O  O18  1  0.400821  0.278071  0.500000  1
  O  O19  1  0.035160  0.500000  0.705625  1
