# generated using pymatgen
data_CsTb2HoS5
_symmetry_space_group_name_H-M   'P 1'
_cell_length_a   4.02206200
_cell_length_b   12.05959500
_cell_length_c   21.45132500
_cell_angle_alpha   90.00000000
_cell_angle_beta   90.00000000
_cell_angle_gamma   90.00000000
_symmetry_Int_Tables_number   1
_chemical_formula_structural   CsTb2HoS5
_chemical_formula_sum   'Cs4 Tb8 Ho4 S20'
_cell_volume   1040.48448032
_cell_formula_units_Z   4
loop_
 _symmetry_equiv_pos_site_id
 _symmetry_equiv_pos_as_xyz
  1  'x, y, z'
loop_
 _atom_site_type_symbol
 _atom_site_label
 _atom_site_symmetry_multiplicity
 _atom_site_fract_x
 _atom_site_fract_y
 _atom_site_fract_z
 _atom_site_occupancy
  Cs  Cs0  1  0.250000  0.853816  0.093166  1
  Cs  Cs1  1  0.750000  0.146184  0.906834  1
  Cs  Cs2  1  0.750000  0.353816  0.406834  1
  Cs  Cs3  1  0.250000  0.646184  0.593166  1
  Tb  Tb4  1  0.750000  0.797258  0.825860  1
  Tb  Tb5  1  0.250000  0.202742  0.174140  1
  Tb  Tb6  1  0.250000  0.297258  0.674140  1
  Tb  Tb7  1  0.750000  0.702742  0.325860  1
  Tb  Tb8  1  0.250000  0.958295  0.696994  1
  Tb  Tb9  1  0.750000  0.041705  0.303006  1
  Tb  Tb10  1  0.750000  0.458295  0.803006  1
  Tb  Tb11  1  0.250000  0.541705  0.196994  1
  Ho  Ho12  1  0.750000  0.391331  0.052492  1
  Ho  Ho13  1  0.250000  0.608669  0.947508  1
  Ho  Ho14  1  0.250000  0.891331  0.447508  1
  Ho  Ho15  1  0.750000  0.108669  0.552492  1
  S  S16  1  0.250000  0.952749  0.567965  1
  S  S17  1  0.750000  0.047251  0.432035  1
  S  S18  1  0.750000  0.452749  0.932035  1
  S  S19  1  0.250000  0.547251  0.067965  1
  S  S20  1  0.750000  0.759707  0.952196  1
  S  S21  1  0.250000  0.240293  0.047804  1
  S  S22  1  0.250000  0.259707  0.547804  1
  S  S23  1  0.750000  0.740293  0.452196  1
  S  S24  1  0.250000  0.947118  0.824522  1
  S  S25  1  0.750000  0.052882  0.175478  1
  S  S26  1  0.750000  0.447118  0.675478  1
  S  S27  1  0.250000  0.552882  0.324522  1
  S  S28  1  0.750000  0.126213  0.681735  1
  S  S29  1  0.250000  0.873787  0.318265  1
  S  S30  1  0.250000  0.626213  0.818265  1
  S  S31  1  0.750000  0.373787  0.181735  1
  S  S32  1  0.750000  0.690052  0.198385  1
  S  S33  1  0.250000  0.309948  0.801615  1
  S  S34  1  0.250000  0.190052  0.301615  1
  S  S35  1  0.750000  0.809948  0.698385  1
