# generated using pymatgen
data_Zr4Fe(CoSi2)5
_symmetry_space_group_name_H-M   'P 1'
_cell_length_a   5.50412578
_cell_length_b   7.65866944
_cell_length_c   7.65867029
_cell_angle_alpha   75.47463554
_cell_angle_beta   68.94035942
_cell_angle_gamma   68.94035598
_symmetry_Int_Tables_number   1
_chemical_formula_structural   Zr4Fe(CoSi2)5
_chemical_formula_sum   'Zr4 Fe1 Co5 Si10'
_cell_volume   278.40020586
_cell_formula_units_Z   1
loop_
 _symmetry_equiv_pos_site_id
 _symmetry_equiv_pos_as_xyz
  1  'x, y, z'
loop_
 _atom_site_type_symbol
 _atom_site_label
 _atom_site_symmetry_multiplicity
 _atom_site_fract_x
 _atom_site_fract_y
 _atom_site_fract_z
 _atom_site_occupancy
  Zr  Zr0  1  0.365551  0.867051  0.405049  1
  Zr  Zr1  1  0.637650  0.132949  0.594951  1
  Zr  Zr2  1  0.862350  0.405049  0.867051  1
  Zr  Zr3  1  0.134449  0.594951  0.132949  1
  Fe  Fe4  1  0.750000  0.000000  0.000000  1
  Co  Co5  1  0.250000  0.000000  0.000000  1
  Co  Co6  1  0.140168  0.252023  0.470742  1
  Co  Co7  1  0.862935  0.747977  0.529258  1
  Co  Co8  1  0.637065  0.470742  0.252023  1
  Co  Co9  1  0.359832  0.529258  0.747977  1
  Si  Si10  1  0.750000  0.500000  0.500000  1
  Si  Si11  1  0.250000  0.500000  0.500000  1
  Si  Si12  1  0.524822  0.225178  0.225178  1
  Si  Si13  1  0.975178  0.774822  0.774822  1
  Si  Si14  1  0.477060  0.772940  0.772940  1
  Si  Si15  1  0.022940  0.227060  0.227060  1
  Si  Si16  1  0.098320  0.063452  0.738630  1
  Si  Si17  1  0.900402  0.936548  0.261370  1
  Si  Si18  1  0.599598  0.738630  0.063452  1
  Si  Si19  1  0.401680  0.261370  0.936548  1
