# generated using pymatgen
data_Tb5Er2Th3Sn8
_symmetry_space_group_name_H-M   'P 1'
_cell_length_a   8.11072200
_cell_length_b   8.21964325
_cell_length_c   15.57277255
_cell_angle_alpha   90.09132959
_cell_angle_beta   90.00000000
_cell_angle_gamma   90.00000000
_symmetry_Int_Tables_number   1
_chemical_formula_structural   Tb5Er2Th3Sn8
_chemical_formula_sum   'Tb10 Er4 Th6 Sn16'
_cell_volume   1038.19246710
_cell_formula_units_Z   2
loop_
 _symmetry_equiv_pos_site_id
 _symmetry_equiv_pos_as_xyz
  1  'x, y, z'
loop_
 _atom_site_type_symbol
 _atom_site_label
 _atom_site_symmetry_multiplicity
 _atom_site_fract_x
 _atom_site_fract_y
 _atom_site_fract_z
 _atom_site_occupancy
  Tb  Tb0  1  0.359085  0.836207  0.875890  1
  Tb  Tb1  1  0.859085  0.663793  0.624110  1
  Tb  Tb2  1  0.636406  0.164174  0.377330  1
  Tb  Tb3  1  0.136406  0.335826  0.122670  1
  Tb  Tb4  1  0.638796  0.163537  0.122762  1
  Tb  Tb5  1  0.138796  0.336463  0.377238  1
  Tb  Tb6  1  0.362772  0.838492  0.624544  1
  Tb  Tb7  1  0.862772  0.661508  0.875456  1
  Tb  Tb8  1  0.524987  0.323589  0.899422  1
  Tb  Tb9  1  0.024987  0.176411  0.600578  1
  Er  Er10  1  0.192102  0.499420  0.749778  1
  Er  Er11  1  0.692102  0.000580  0.750222  1
  Er  Er12  1  0.808312  0.501583  0.249780  1
  Er  Er13  1  0.308312  0.998417  0.250220  1
  Th  Th14  1  0.480625  0.678918  0.404035  1
  Th  Th15  1  0.980625  0.821082  0.095965  1
  Th  Th16  1  0.482142  0.678504  0.096471  1
  Th  Th17  1  0.982142  0.821496  0.403529  1
  Th  Th18  1  0.515611  0.322106  0.595567  1
  Th  Th19  1  0.015611  0.177894  0.904433  1
  Sn  Sn20  1  0.298594  0.036422  0.042657  1
  Sn  Sn21  1  0.798594  0.463578  0.457343  1
  Sn  Sn22  1  0.706344  0.966503  0.543298  1
  Sn  Sn23  1  0.206344  0.533497  0.956702  1
  Sn  Sn24  1  0.697773  0.959264  0.957509  1
  Sn  Sn25  1  0.197773  0.540736  0.542491  1
  Sn  Sn26  1  0.296233  0.039887  0.459419  1
  Sn  Sn27  1  0.796233  0.460113  0.040581  1
  Sn  Sn28  1  0.556830  0.619861  0.749555  1
  Sn  Sn29  1  0.056830  0.880139  0.750445  1
  Sn  Sn30  1  0.441880  0.377822  0.249648  1
  Sn  Sn31  1  0.941880  0.122178  0.250352  1
  Sn  Sn32  1  0.326829  0.147446  0.751988  1
  Sn  Sn33  1  0.826829  0.352554  0.748012  1
  Sn  Sn34  1  0.674676  0.856716  0.250318  1
  Sn  Sn35  1  0.174676  0.643284  0.249682  1
