# generated using pymatgen
data_Al2GaSn(PPd6)2
_symmetry_space_group_name_H-M   'P 1'
_cell_length_a   3.41903100
_cell_length_b   6.81694241
_cell_length_c   11.78641200
_cell_angle_alpha   90.05808560
_cell_angle_beta   90.00000000
_cell_angle_gamma   90.00000000
_symmetry_Int_Tables_number   1
_chemical_formula_structural   Al2GaSn(PPd6)2
_chemical_formula_sum   'Al2 Ga1 Sn1 P2 Pd12'
_cell_volume   274.70974055
_cell_formula_units_Z   1
loop_
 _symmetry_equiv_pos_site_id
 _symmetry_equiv_pos_as_xyz
  1  'x, y, z'
loop_
 _atom_site_type_symbol
 _atom_site_label
 _atom_site_symmetry_multiplicity
 _atom_site_fract_x
 _atom_site_fract_y
 _atom_site_fract_z
 _atom_site_occupancy
  Al  Al0  1  0.000000  0.497233  0.838598  1
  Al  Al1  1  0.000000  0.002592  0.328914  1
  Ga  Ga2  1  0.000000  0.501443  0.165887  1
  Sn  Sn3  1  0.000000  0.998866  0.666717  1
  P  P4  1  0.500000  0.998153  0.005365  1
  P  P5  1  0.500000  0.502123  0.494729  1
  Pd  Pd6  1  0.000000  0.747454  0.002565  1
  Pd  Pd7  1  0.000000  0.249470  0.493963  1
  Pd  Pd8  1  0.000000  0.617446  0.625562  1
  Pd  Pd9  1  0.000000  0.129066  0.127533  1
  Pd  Pd10  1  0.000000  0.127738  0.879606  1
  Pd  Pd11  1  0.000000  0.627201  0.369602  1
  Pd  Pd12  1  0.500000  0.893232  0.485913  1
  Pd  Pd13  1  0.500000  0.401738  0.000141  1
  Pd  Pd14  1  0.500000  0.781790  0.809401  1
  Pd  Pd15  1  0.500000  0.300510  0.298745  1
  Pd  Pd16  1  0.500000  0.317007  0.705838  1
  Pd  Pd17  1  0.500000  0.807138  0.200923  1
