# generated using pymatgen
data_V11FeSi3P
_symmetry_space_group_name_H-M   'P 1'
_cell_length_a   4.65727700
_cell_length_b   4.65735100
_cell_length_c   9.28995100
_cell_angle_alpha   90.00000000
_cell_angle_beta   90.00000000
_cell_angle_gamma   90.00000000
_symmetry_Int_Tables_number   1
_chemical_formula_structural   V11FeSi3P
_chemical_formula_sum   'V11 Fe1 Si3 P1'
_cell_volume   201.50436677
_cell_formula_units_Z   1
loop_
 _symmetry_equiv_pos_site_id
 _symmetry_equiv_pos_as_xyz
  1  'x, y, z'
loop_
 _atom_site_type_symbol
 _atom_site_label
 _atom_site_symmetry_multiplicity
 _atom_site_fract_x
 _atom_site_fract_y
 _atom_site_fract_z
 _atom_site_occupancy
  V  V0  1  0.002154  0.500000  0.127127  1
  V  V1  1  0.999144  0.500000  0.622964  1
  V  V2  1  0.499218  0.252224  0.750162  1
  V  V3  1  0.499218  0.252224  0.249838  1
  V  V4  1  0.749441  0.000000  0.000000  1
  V  V5  1  0.002154  0.500000  0.872873  1
  V  V6  1  0.999144  0.500000  0.377036  1
  V  V7  1  0.499218  0.747776  0.750162  1
  V  V8  1  0.499218  0.747776  0.249838  1
  V  V9  1  0.253478  0.000000  0.000000  1
  V  V10  1  0.250696  0.000000  0.500000  1
  Fe  Fe11  1  0.746741  0.000000  0.500000  1
  Si  Si12  1  0.498066  0.500000  0.500000  1
  Si  Si13  1  0.001704  0.000000  0.748675  1
  Si  Si14  1  0.001704  0.000000  0.251325  1
  P  P15  1  0.498701  0.500000  0.000000  1
