# generated using pymatgen
data_Ti6CBr12
_symmetry_space_group_name_H-M   'P 1'
_cell_length_a   8.57433545
_cell_length_b   8.57433536
_cell_length_c   8.57433677
_cell_angle_alpha   106.71316790
_cell_angle_beta   106.71317208
_cell_angle_gamma   106.71316874
_symmetry_Int_Tables_number   1
_chemical_formula_structural   Ti6CBr12
_chemical_formula_sum   'Ti6 C1 Br12'
_cell_volume   529.03930154
_cell_formula_units_Z   1
loop_
 _symmetry_equiv_pos_site_id
 _symmetry_equiv_pos_as_xyz
  1  'x, y, z'
loop_
 _atom_site_type_symbol
 _atom_site_label
 _atom_site_symmetry_multiplicity
 _atom_site_fract_x
 _atom_site_fract_y
 _atom_site_fract_z
 _atom_site_occupancy
  Ti  Ti0  1  0.913860  0.973545  0.737754  1
  Ti  Ti1  1  0.737754  0.913860  0.973545  1
  Ti  Ti2  1  0.973545  0.737754  0.913860  1
  Ti  Ti3  1  0.086140  0.026455  0.262246  1
  Ti  Ti4  1  0.262246  0.086140  0.026455  1
  Ti  Ti5  1  0.026455  0.262246  0.086140  1
  C  C6  1  0.000000  0.000000  0.000000  1
  Br  Br7  1  0.420273  0.130926  0.349449  1
  Br  Br8  1  0.130926  0.349450  0.420273  1
  Br  Br9  1  0.650551  0.579727  0.869074  1
  Br  Br10  1  0.579727  0.869074  0.650551  1
  Br  Br11  1  0.869074  0.650551  0.579727  1
  Br  Br12  1  0.349449  0.420273  0.130926  1
  Br  Br13  1  0.786597  0.925180  0.292531  1
  Br  Br14  1  0.292531  0.786597  0.925180  1
  Br  Br15  1  0.925180  0.292531  0.786597  1
  Br  Br16  1  0.213403  0.074820  0.707469  1
  Br  Br17  1  0.707469  0.213403  0.074820  1
  Br  Br18  1  0.074820  0.707469  0.213403  1
