# generated using pymatgen
data_Dy2Ho10GaCo4Pb
_symmetry_space_group_name_H-M   'P 1'
_cell_length_a   8.31531592
_cell_length_b   8.31766596
_cell_length_c   8.31766618
_cell_angle_alpha   112.02925224
_cell_angle_beta   109.25329981
_cell_angle_gamma   107.17862743
_symmetry_Int_Tables_number   1
_chemical_formula_structural   Dy2Ho10GaCo4Pb
_chemical_formula_sum   'Dy2 Ho10 Ga1 Co4 Pb1'
_cell_volume   441.99278062
_cell_formula_units_Z   1
loop_
 _symmetry_equiv_pos_site_id
 _symmetry_equiv_pos_as_xyz
  1  'x, y, z'
loop_
 _atom_site_type_symbol
 _atom_site_label
 _atom_site_symmetry_multiplicity
 _atom_site_fract_x
 _atom_site_fract_y
 _atom_site_fract_z
 _atom_site_occupancy
  Dy  Dy0  1  0.968893  0.267317  0.701577  1
  Dy  Dy1  1  0.031107  0.732683  0.298423  1
  Ho  Ho2  1  0.675217  0.860141  0.184783  1
  Ho  Ho3  1  0.324783  0.509567  0.184924  1
  Ho  Ho4  1  0.324783  0.139859  0.815217  1
  Ho  Ho5  1  0.675217  0.490433  0.815076  1
  Ho  Ho6  1  0.565708  0.267307  0.298401  1
  Ho  Ho7  1  0.434292  0.732693  0.701599  1
  Ho  Ho8  1  0.179373  0.780295  0.959575  1
  Ho  Ho9  1  0.820627  0.780202  0.600923  1
  Ho  Ho10  1  0.179373  0.219798  0.399077  1
  Ho  Ho11  1  0.820627  0.219705  0.040425  1
  Ga  Ga12  1  0.000000  0.500000  0.500000  1
  Co  Co13  1  0.114416  0.114364  0.000053  1
  Co  Co14  1  0.885584  0.885636  0.999947  1
  Co  Co15  1  0.661603  0.499967  0.161636  1
  Co  Co16  1  0.338397  0.500033  0.838364  1
  Pb  Pb17  1  0.500000  0.000000  0.500000  1
