# generated using pymatgen
data_Lu2SiB2Ir3Ru2
_symmetry_space_group_name_H-M   'P 1'
_cell_length_a   9.49200209
_cell_length_b   9.47991910
_cell_length_c   3.05067000
_cell_angle_alpha   90.00000000
_cell_angle_beta   90.00000000
_cell_angle_gamma   89.98383067
_symmetry_Int_Tables_number   1
_chemical_formula_structural   Lu2SiB2Ir3Ru2
_chemical_formula_sum   'Lu4 Si2 B4 Ir6 Ru4'
_cell_volume   274.50968425
_cell_formula_units_Z   2
loop_
 _symmetry_equiv_pos_site_id
 _symmetry_equiv_pos_as_xyz
  1  'x, y, z'
loop_
 _atom_site_type_symbol
 _atom_site_label
 _atom_site_symmetry_multiplicity
 _atom_site_fract_x
 _atom_site_fract_y
 _atom_site_fract_z
 _atom_site_occupancy
  Lu  Lu0  1  0.175352  0.670360  0.000000  1
  Lu  Lu1  1  0.673959  0.821523  0.000000  1
  Lu  Lu2  1  0.326041  0.178477  0.000000  1
  Lu  Lu3  1  0.824648  0.329640  0.000000  1
  Si  Si4  1  0.000000  0.000000  0.000000  1
  Si  Si5  1  0.500000  0.500000  0.000000  1
  B  B6  1  0.378776  0.877673  0.000000  1
  B  B7  1  0.873545  0.618417  0.000000  1
  B  B8  1  0.126455  0.381583  0.000000  1
  B  B9  1  0.621224  0.122327  0.000000  1
  Ir  Ir10  1  0.570714  0.285654  0.500000  1
  Ir  Ir11  1  0.429286  0.714347  0.500000  1
  Ir  Ir12  1  0.932085  0.787999  0.500000  1
  Ir  Ir13  1  0.788159  0.068245  0.500000  1
  Ir  Ir14  1  0.211840  0.931755  0.500000  1
  Ir  Ir15  1  0.067915  0.212000  0.500000  1
  Ru  Ru16  1  0.000000  0.500000  0.500000  1
  Ru  Ru17  1  0.500000  0.000000  0.500000  1
  Ru  Ru18  1  0.290120  0.431359  0.500000  1
  Ru  Ru19  1  0.709881  0.568641  0.500000  1
