# generated using pymatgen
data_Ho2Co5Ni5As6
_symmetry_space_group_name_H-M   'P 1'
_cell_length_a   3.81129200
_cell_length_b   10.68617200
_cell_length_c   12.25516900
_cell_angle_alpha   90.00000000
_cell_angle_beta   90.00000000
_cell_angle_gamma   90.00000000
_symmetry_Int_Tables_number   1
_chemical_formula_structural   Ho2Co5Ni5As6
_chemical_formula_sum   'Ho4 Co10 Ni10 As12'
_cell_volume   499.13001638
_cell_formula_units_Z   2
loop_
 _symmetry_equiv_pos_site_id
 _symmetry_equiv_pos_as_xyz
  1  'x, y, z'
loop_
 _atom_site_type_symbol
 _atom_site_label
 _atom_site_symmetry_multiplicity
 _atom_site_fract_x
 _atom_site_fract_y
 _atom_site_fract_z
 _atom_site_occupancy
  Ho  Ho0  1  0.250000  0.581107  0.703738  1
  Ho  Ho1  1  0.250000  0.918893  0.203738  1
  Ho  Ho2  1  0.750000  0.420100  0.297203  1
  Ho  Ho3  1  0.750000  0.079900  0.797203  1
  Co  Co4  1  0.750000  0.783136  0.821489  1
  Co  Co5  1  0.750000  0.716864  0.321489  1
  Co  Co6  1  0.250000  0.881799  0.696027  1
  Co  Co7  1  0.250000  0.618201  0.196027  1
  Co  Co8  1  0.750000  0.117184  0.303500  1
  Co  Co9  1  0.750000  0.382816  0.803500  1
  Co  Co10  1  0.250000  0.469483  0.932725  1
  Co  Co11  1  0.250000  0.030517  0.432725  1
  Co  Co12  1  0.750000  0.530326  0.067937  1
  Co  Co13  1  0.750000  0.969674  0.567937  1
  Ni  Ni14  1  0.250000  0.708700  0.991082  1
  Ni  Ni15  1  0.250000  0.791300  0.491082  1
  Ni  Ni16  1  0.750000  0.289189  0.007304  1
  Ni  Ni17  1  0.750000  0.210811  0.507304  1
  Ni  Ni18  1  0.250000  0.410048  0.486338  1
  Ni  Ni19  1  0.250000  0.089952  0.986338  1
  Ni  Ni20  1  0.750000  0.591618  0.513660  1
  Ni  Ni21  1  0.750000  0.908382  0.013660  1
  Ni  Ni22  1  0.250000  0.216451  0.178792  1
  Ni  Ni23  1  0.250000  0.283549  0.678792  1
  As  As24  1  0.250000  0.418323  0.114796  1
  As  As25  1  0.250000  0.081677  0.614796  1
  As  As26  1  0.750000  0.583764  0.885407  1
  As  As27  1  0.750000  0.916236  0.385407  1
  As  As28  1  0.250000  0.269683  0.870099  1
  As  As29  1  0.250000  0.230317  0.370099  1
  As  As30  1  0.750000  0.730522  0.131654  1
  As  As31  1  0.750000  0.769478  0.631654  1
  As  As32  1  0.250000  0.605510  0.387190  1
  As  As33  1  0.250000  0.894490  0.887190  1
  As  As34  1  0.750000  0.398526  0.611055  1
  As  As35  1  0.750000  0.101474  0.111055  1
