# generated using pymatgen
data_YbHo3VRe3B16
_symmetry_space_group_name_H-M   'P 1'
_cell_length_a   3.56816400
_cell_length_b   5.97100204
_cell_length_c   11.54521566
_cell_angle_alpha   90.15211388
_cell_angle_beta   90.00000000
_cell_angle_gamma   90.00000000
_symmetry_Int_Tables_number   1
_chemical_formula_structural   YbHo3VRe3B16
_chemical_formula_sum   'Yb1 Ho3 V1 Re3 B16'
_cell_volume   245.97589302
_cell_formula_units_Z   1
loop_
 _symmetry_equiv_pos_site_id
 _symmetry_equiv_pos_as_xyz
  1  'x, y, z'
loop_
 _atom_site_type_symbol
 _atom_site_label
 _atom_site_symmetry_multiplicity
 _atom_site_fract_x
 _atom_site_fract_y
 _atom_site_fract_z
 _atom_site_occupancy
  Yb  Yb0  1  0.500000  0.125883  0.648355  1
  Ho  Ho1  1  0.500000  0.875316  0.352535  1
  Ho  Ho2  1  0.500000  0.627454  0.846761  1
  Ho  Ho3  1  0.500000  0.372218  0.153580  1
  V  V4  1  0.500000  0.372389  0.417614  1
  Re  Re5  1  0.500000  0.133543  0.914632  1
  Re  Re6  1  0.500000  0.866881  0.085181  1
  Re  Re7  1  0.500000  0.627586  0.583127  1
  B  B8  1  0.000000  0.477228  0.692057  1
  B  B9  1  0.000000  0.523502  0.307617  1
  B  B10  1  0.000000  0.976456  0.806809  1
  B  B11  1  0.000000  0.024082  0.193303  1
  B  B12  1  0.000000  0.284579  0.813348  1
  B  B13  1  0.000000  0.714795  0.186334  1
  B  B14  1  0.000000  0.785874  0.684392  1
  B  B15  1  0.000000  0.213196  0.315348  1
  B  B16  1  0.000000  0.364805  0.968493  1
  B  B17  1  0.000000  0.635263  0.031554  1
  B  B18  1  0.000000  0.864918  0.532360  1
  B  B19  1  0.000000  0.134816  0.466879  1
  B  B20  1  0.000000  0.385125  0.546722  1
  B  B21  1  0.000000  0.613426  0.452899  1
  B  B22  1  0.000000  0.886619  0.952143  1
  B  B23  1  0.000000  0.114048  0.047954  1
