# generated using pymatgen
data_Fe3Si3BW6
_symmetry_space_group_name_H-M   'P 1'
_cell_length_a   7.78582783
_cell_length_b   7.78582740
_cell_length_c   7.74417500
_cell_angle_alpha   60.17679908
_cell_angle_beta   60.17680088
_cell_angle_gamma   60.33042623
_symmetry_Int_Tables_number   1
_chemical_formula_structural   Fe3Si3BW6
_chemical_formula_sum   'Fe6 Si6 B2 W12'
_cell_volume   333.65968875
_cell_formula_units_Z   2
loop_
 _symmetry_equiv_pos_site_id
 _symmetry_equiv_pos_as_xyz
  1  'x, y, z'
loop_
 _atom_site_type_symbol
 _atom_site_label
 _atom_site_symmetry_multiplicity
 _atom_site_fract_x
 _atom_site_fract_y
 _atom_site_fract_z
 _atom_site_occupancy
  Fe  Fe0  1  0.335795  0.335795  0.994728  1
  Fe  Fe1  1  0.130849  0.130849  0.614772  1
  Fe  Fe2  1  0.914205  0.914205  0.916319  1
  Fe  Fe3  1  0.125000  0.625000  0.134231  1
  Fe  Fe4  1  0.119151  0.119151  0.126470  1
  Fe  Fe5  1  0.625000  0.125000  0.134231  1
  Si  Si6  1  0.915636  0.242889  0.915964  1
  Si  Si7  1  0.334364  0.007111  0.324488  1
  Si  Si8  1  0.334602  0.334602  0.330031  1
  Si  Si9  1  0.007111  0.334364  0.324488  1
  Si  Si10  1  0.915398  0.915398  0.249237  1
  Si  Si11  1  0.242889  0.915636  0.915964  1
  B  B12  1  0.747474  0.747474  0.755200  1
  B  B13  1  0.502526  0.502526  0.500147  1
  W  W14  1  0.299779  0.698546  0.700110  1
  W  W15  1  0.304500  0.304500  0.698829  1
  W  W16  1  0.551226  0.945689  0.553984  1
  W  W17  1  0.945689  0.551226  0.553984  1
  W  W18  1  0.551454  0.950221  0.948435  1
  W  W19  1  0.698774  0.304311  0.300900  1
  W  W20  1  0.950221  0.551454  0.948435  1
  W  W21  1  0.304311  0.698774  0.300900  1
  W  W22  1  0.549139  0.549139  0.950968  1
  W  W23  1  0.698546  0.299779  0.700110  1
  W  W24  1  0.700861  0.700861  0.299248  1
  W  W25  1  0.945500  0.945500  0.557829  1
