# generated using pymatgen
data_Pr2Ga2IrPt
_symmetry_space_group_name_H-M   'P 1'
_cell_length_a   4.50207400
_cell_length_b   7.13653000
_cell_length_c   7.89831400
_cell_angle_alpha   90.00000000
_cell_angle_beta   90.00000000
_cell_angle_gamma   90.00000000
_symmetry_Int_Tables_number   1
_chemical_formula_structural   Pr2Ga2IrPt
_chemical_formula_sum   'Pr4 Ga4 Ir2 Pt2'
_cell_volume   253.76640088
_cell_formula_units_Z   2
loop_
 _symmetry_equiv_pos_site_id
 _symmetry_equiv_pos_as_xyz
  1  'x, y, z'
loop_
 _atom_site_type_symbol
 _atom_site_label
 _atom_site_symmetry_multiplicity
 _atom_site_fract_x
 _atom_site_fract_y
 _atom_site_fract_z
 _atom_site_occupancy
  Pr  Pr0  1  0.250000  0.029430  0.686536  1
  Pr  Pr1  1  0.250000  0.529430  0.813464  1
  Pr  Pr2  1  0.750000  0.976771  0.307053  1
  Pr  Pr3  1  0.750000  0.476771  0.192947  1
  Ga  Ga4  1  0.250000  0.154760  0.074031  1
  Ga  Ga5  1  0.250000  0.654760  0.425969  1
  Ga  Ga6  1  0.750000  0.839838  0.933046  1
  Ga  Ga7  1  0.750000  0.339838  0.566954  1
  Ir  Ir8  1  0.250000  0.280214  0.392222  1
  Ir  Ir9  1  0.250000  0.780214  0.107778  1
  Pt  Pt10  1  0.750000  0.718987  0.608925  1
  Pt  Pt11  1  0.750000  0.218987  0.891075  1
