# generated using pymatgen
data_Y9Th(SiSn3)2
_symmetry_space_group_name_H-M   'P 1'
_cell_length_a   9.28455000
_cell_length_b   9.29119393
_cell_length_c   6.48207900
_cell_angle_alpha   90.00000000
_cell_angle_beta   90.00000000
_cell_angle_gamma   119.97634822
_symmetry_Int_Tables_number   1
_chemical_formula_structural   Y9Th(SiSn3)2
_chemical_formula_sum   'Y9 Th1 Si2 Sn6'
_cell_volume   484.37396549
_cell_formula_units_Z   1
loop_
 _symmetry_equiv_pos_site_id
 _symmetry_equiv_pos_as_xyz
  1  'x, y, z'
loop_
 _atom_site_type_symbol
 _atom_site_label
 _atom_site_symmetry_multiplicity
 _atom_site_fract_x
 _atom_site_fract_y
 _atom_site_fract_z
 _atom_site_occupancy
  Y  Y0  1  0.998429  0.744142  0.750000  1
  Y  Y1  1  0.254287  0.255858  0.750000  1
  Y  Y2  1  0.333713  0.666804  0.500342  1
  Y  Y3  1  0.666910  0.333196  0.500342  1
  Y  Y4  1  0.751988  0.750488  0.250000  1
  Y  Y5  1  0.743124  0.000000  0.750000  1
  Y  Y6  1  0.001500  0.249512  0.250000  1
  Y  Y7  1  0.333713  0.666804  0.999658  1
  Y  Y8  1  0.666910  0.333196  0.999658  1
  Th  Th9  1  0.250369  0.000000  0.250000  1
  Si  Si10  1  0.997656  0.000000  0.987100  1
  Si  Si11  1  0.997656  0.000000  0.512900  1
  Sn  Sn12  1  0.607079  0.607099  0.750000  1
  Sn  Sn13  1  0.999980  0.392901  0.750000  1
  Sn  Sn14  1  0.390501  0.000000  0.750000  1
  Sn  Sn15  1  0.610265  0.000000  0.250000  1
  Sn  Sn16  1  0.397685  0.399448  0.250000  1
  Sn  Sn17  1  0.998237  0.600552  0.250000  1
