# generated using pymatgen
data_CaYb(Ga3Te5)4
_symmetry_space_group_name_H-M   'P 1'
_cell_length_a   10.53323358
_cell_length_b   10.51978845
_cell_length_c   10.39120900
_cell_angle_alpha   90.01271208
_cell_angle_beta   90.19592661
_cell_angle_gamma   89.14389609
_symmetry_Int_Tables_number   1
_chemical_formula_structural   CaYb(Ga3Te5)4
_chemical_formula_sum   'Ca1 Yb1 Ga12 Te20'
_cell_volume   1151.28745951
_cell_formula_units_Z   1
loop_
 _symmetry_equiv_pos_site_id
 _symmetry_equiv_pos_as_xyz
  1  'x, y, z'
loop_
 _atom_site_type_symbol
 _atom_site_label
 _atom_site_symmetry_multiplicity
 _atom_site_fract_x
 _atom_site_fract_y
 _atom_site_fract_z
 _atom_site_occupancy
  Ca  Ca0  1  0.997019  0.745212  0.252272  1
  Yb  Yb1  1  0.254625  0.003118  0.747871  1
  Ga  Ga2  1  0.159482  0.429976  0.122067  1
  Ga  Ga3  1  0.432276  0.127661  0.160424  1
  Ga  Ga4  1  0.348284  0.747201  0.166994  1
  Ga  Ga5  1  0.658189  0.833323  0.254156  1
  Ga  Ga6  1  0.746744  0.166939  0.336140  1
  Ga  Ga7  1  0.123858  0.161902  0.425792  1
  Ga  Ga8  1  0.837908  0.876337  0.574860  1
  Ga  Ga9  1  0.833301  0.253310  0.663910  1
  Ga  Ga10  1  0.167096  0.341010  0.746064  1
  Ga  Ga11  1  0.252540  0.652531  0.832468  1
  Ga  Ga12  1  0.872560  0.567633  0.839403  1
  Ga  Ga13  1  0.569422  0.840952  0.877486  1
  Te  Te14  1  0.172355  0.828915  0.999503  1
  Te  Te15  1  0.572493  0.671126  0.069974  1
  Te  Te16  1  0.919182  0.500234  0.083240  1
  Te  Te17  1  0.823903  0.995403  0.165183  1
  Te  Te18  1  0.176344  0.174589  0.171092  1
  Te  Te19  1  0.562374  0.314209  0.256357  1
  Te  Te20  1  0.247439  0.571717  0.314084  1
  Te  Te21  1  0.430620  0.930632  0.326268  1
  Te  Te22  1  0.928060  0.323011  0.429892  1
  Te  Te23  1  0.756161  0.684486  0.433940  1
  Te  Te24  1  0.080072  0.919823  0.500960  1
  Te  Te25  1  0.315807  0.243456  0.566760  1
  Te  Te26  1  0.677010  0.072186  0.570143  1
  Te  Te27  1  0.069159  0.569052  0.673712  1
  Te  Te28  1  0.427568  0.753521  0.685304  1
  Te  Te29  1  0.686154  0.437465  0.743319  1
  Te  Te30  1  0.005410  0.174583  0.834422  1
  Te  Te31  1  0.824830  0.823708  0.829422  1
  Te  Te32  1  0.498576  0.081282  0.916512  1
  Te  Te33  1  0.328899  0.427771  0.930007  1
