# generated using pymatgen
data_DyLuTcC2
_symmetry_space_group_name_H-M   'P 1'
_cell_length_a   5.03543500
_cell_length_b   6.54883500
_cell_length_c   9.73727100
_cell_angle_alpha   90.00000000
_cell_angle_beta   90.00000000
_cell_angle_gamma   90.00000000
_symmetry_Int_Tables_number   1
_chemical_formula_structural   DyLuTcC2
_chemical_formula_sum   'Dy4 Lu4 Tc4 C8'
_cell_volume   321.09851697
_cell_formula_units_Z   4
loop_
 _symmetry_equiv_pos_site_id
 _symmetry_equiv_pos_as_xyz
  1  'x, y, z'
loop_
 _atom_site_type_symbol
 _atom_site_label
 _atom_site_symmetry_multiplicity
 _atom_site_fract_x
 _atom_site_fract_y
 _atom_site_fract_z
 _atom_site_occupancy
  Dy  Dy0  1  0.250000  0.465901  0.214463  1
  Dy  Dy1  1  0.250000  0.965901  0.285537  1
  Dy  Dy2  1  0.750000  0.534099  0.785537  1
  Dy  Dy3  1  0.750000  0.034099  0.714463  1
  Lu  Lu4  1  0.250000  0.827691  0.941101  1
  Lu  Lu5  1  0.250000  0.327691  0.558899  1
  Lu  Lu6  1  0.750000  0.172309  0.058899  1
  Lu  Lu7  1  0.750000  0.672309  0.441101  1
  Tc  Tc8  1  0.250000  0.280635  0.867462  1
  Tc  Tc9  1  0.250000  0.780635  0.632538  1
  Tc  Tc10  1  0.750000  0.719365  0.132538  1
  Tc  Tc11  1  0.750000  0.219365  0.367462  1
  C  C12  1  0.250000  0.049875  0.739730  1
  C  C13  1  0.250000  0.549875  0.760270  1
  C  C14  1  0.750000  0.950125  0.260270  1
  C  C15  1  0.750000  0.450125  0.239730  1
  C  C16  1  0.250000  0.670938  0.448943  1
  C  C17  1  0.250000  0.170938  0.051057  1
  C  C18  1  0.750000  0.329062  0.551057  1
  C  C19  1  0.750000  0.829062  0.948943  1
