# generated using pymatgen
data_Ho9Er(Bi2Pt)2
_symmetry_space_group_name_H-M   'P 1'
_cell_length_a   8.03754007
_cell_length_b   9.02777107
_cell_length_c   12.33599800
_cell_angle_alpha   90.00000000
_cell_angle_beta   90.00000000
_cell_angle_gamma   90.01466481
_symmetry_Int_Tables_number   1
_chemical_formula_structural   Ho9Er(Bi2Pt)2
_chemical_formula_sum   'Ho18 Er2 Bi8 Pt4'
_cell_volume   895.11320619
_cell_formula_units_Z   2
loop_
 _symmetry_equiv_pos_site_id
 _symmetry_equiv_pos_as_xyz
  1  'x, y, z'
loop_
 _atom_site_type_symbol
 _atom_site_label
 _atom_site_symmetry_multiplicity
 _atom_site_fract_x
 _atom_site_fract_y
 _atom_site_fract_z
 _atom_site_occupancy
  Ho  Ho0  1  0.165770  0.749957  0.210735  1
  Ho  Ho1  1  0.334230  0.750043  0.710735  1
  Ho  Ho2  1  0.834128  0.249981  0.789252  1
  Ho  Ho3  1  0.665872  0.250019  0.289252  1
  Ho  Ho4  1  0.453033  0.749939  0.999927  1
  Ho  Ho5  1  0.046967  0.750061  0.499927  1
  Ho  Ho6  1  0.547224  0.250089  0.000117  1
  Ho  Ho7  1  0.952776  0.249911  0.500117  1
  Ho  Ho8  1  0.627976  0.750050  0.303394  1
  Ho  Ho9  1  0.872024  0.749950  0.803394  1
  Ho  Ho10  1  0.372163  0.249995  0.696566  1
  Ho  Ho11  1  0.127837  0.250005  0.196566  1
  Ho  Ho12  1  0.177814  0.048204  0.933504  1
  Ho  Ho13  1  0.322186  0.451796  0.433504  1
  Ho  Ho14  1  0.177678  0.451796  0.933557  1
  Ho  Ho15  1  0.322322  0.048204  0.433557  1
  Ho  Ho16  1  0.822202  0.951743  0.066519  1
  Ho  Ho17  1  0.677798  0.548257  0.566519  1
  Er  Er18  1  0.822772  0.548419  0.066378  1
  Er  Er19  1  0.677228  0.951581  0.566378  1
  Bi  Bi20  1  0.932356  0.509429  0.326786  1
  Bi  Bi21  1  0.567644  0.990571  0.826786  1
  Bi  Bi22  1  0.067463  0.009378  0.673120  1
  Bi  Bi23  1  0.432537  0.490622  0.173120  1
  Bi  Bi24  1  0.067609  0.490621  0.673143  1
  Bi  Bi25  1  0.432391  0.009379  0.173143  1
  Bi  Bi26  1  0.932433  0.990586  0.326855  1
  Bi  Bi27  1  0.567567  0.509414  0.826855  1
  Pt  Pt28  1  0.418587  0.750187  0.487560  1
  Pt  Pt29  1  0.081413  0.749813  0.987560  1
  Pt  Pt30  1  0.581858  0.249648  0.512588  1
  Pt  Pt31  1  0.918142  0.250352  0.012588  1
