# generated using pymatgen
data_YbDy2(SiIr2)3
_symmetry_space_group_name_H-M   'P 1'
_cell_length_a   5.57088700
_cell_length_b   5.57056880
_cell_length_c   15.12370300
_cell_angle_alpha   90.00000000
_cell_angle_beta   90.00000000
_cell_angle_gamma   120.00111276
_symmetry_Int_Tables_number   1
_chemical_formula_structural   YbDy2(SiIr2)3
_chemical_formula_sum   'Yb2 Dy4 Si6 Ir12'
_cell_volume   406.45062313
_cell_formula_units_Z   2
loop_
 _symmetry_equiv_pos_site_id
 _symmetry_equiv_pos_as_xyz
  1  'x, y, z'
loop_
 _atom_site_type_symbol
 _atom_site_label
 _atom_site_symmetry_multiplicity
 _atom_site_fract_x
 _atom_site_fract_y
 _atom_site_fract_z
 _atom_site_occupancy
  Yb  Yb0  1  0.333333  0.666667  0.750000  1
  Yb  Yb1  1  0.666667  0.333333  0.250000  1
  Dy  Dy2  1  0.333332  0.666666  0.542862  1
  Dy  Dy3  1  0.666668  0.333334  0.457138  1
  Dy  Dy4  1  0.666668  0.333334  0.042862  1
  Dy  Dy5  1  0.333332  0.666666  0.957138  1
  Si  Si6  1  0.000003  0.000004  0.250000  1
  Si  Si7  1  0.999997  0.999996  0.750000  1
  Si  Si8  1  0.333329  0.666661  0.250000  1
  Si  Si9  1  0.666671  0.333339  0.750000  1
  Si  Si10  1  0.000000  0.000000  0.000000  1
  Si  Si11  1  0.000000  0.000000  0.500000  1
  Ir  Ir12  1  0.167691  0.335381  0.129558  1
  Ir  Ir13  1  0.832309  0.664619  0.870442  1
  Ir  Ir14  1  0.664618  0.832310  0.129558  1
  Ir  Ir15  1  0.832309  0.664619  0.629558  1
  Ir  Ir16  1  0.335382  0.167690  0.870442  1
  Ir  Ir17  1  0.167691  0.335381  0.370442  1
  Ir  Ir18  1  0.167691  0.832310  0.129558  1
  Ir  Ir19  1  0.335382  0.167690  0.629558  1
  Ir  Ir20  1  0.832309  0.167690  0.870442  1
  Ir  Ir21  1  0.664618  0.832310  0.370442  1
  Ir  Ir22  1  0.832309  0.167690  0.629558  1
  Ir  Ir23  1  0.167691  0.832310  0.370442  1
