# generated using pymatgen
data_CaYU4O12
_symmetry_space_group_name_H-M   'P 1'
_cell_length_a   6.63244162
_cell_length_b   6.63244080
_cell_length_c   6.52373862
_cell_angle_alpha   80.25697876
_cell_angle_beta   80.25698525
_cell_angle_gamma   119.98797250
_symmetry_Int_Tables_number   1
_chemical_formula_structural   CaYU4O12
_chemical_formula_sum   'Ca1 Y1 U4 O12'
_cell_volume   233.89330285
_cell_formula_units_Z   1
loop_
 _symmetry_equiv_pos_site_id
 _symmetry_equiv_pos_as_xyz
  1  'x, y, z'
loop_
 _atom_site_type_symbol
 _atom_site_label
 _atom_site_symmetry_multiplicity
 _atom_site_fract_x
 _atom_site_fract_y
 _atom_site_fract_z
 _atom_site_occupancy
  Ca  Ca0  1  0.500083  0.499917  0.500000  1
  Y  Y1  1  0.833002  0.166998  0.500000  1
  U  U2  1  0.167072  0.832928  0.500000  1
  U  U3  1  0.666399  0.333601  0.000000  1
  U  U4  1  0.999712  0.000288  0.000000  1
  U  U5  1  0.333839  0.666161  0.000000  1
  O  O6  1  0.110693  0.101868  0.642411  1
  O  O7  1  0.702480  0.040405  0.887433  1
  O  O8  1  0.959595  0.297520  0.112567  1
  O  O9  1  0.364917  0.363591  0.896383  1
  O  O10  1  0.042673  0.706064  0.884633  1
  O  O11  1  0.536175  0.197696  0.358727  1
  O  O12  1  0.898132  0.889307  0.357589  1
  O  O13  1  0.445098  0.792517  0.640999  1
  O  O14  1  0.636409  0.635083  0.103617  1
  O  O15  1  0.293936  0.957327  0.115367  1
  O  O16  1  0.802304  0.463825  0.641273  1
  O  O17  1  0.207483  0.554902  0.359001  1
