# generated using pymatgen
data_Pr8Te(IrO8)3
_symmetry_space_group_name_H-M   'P 1'
_cell_length_a   5.50308208
_cell_length_b   9.48679030
_cell_length_c   10.27589897
_cell_angle_alpha   89.84763140
_cell_angle_beta   89.87896138
_cell_angle_gamma   90.00916968
_symmetry_Int_Tables_number   1
_chemical_formula_structural   Pr8Te(IrO8)3
_chemical_formula_sum   'Pr8 Te1 Ir3 O24'
_cell_volume   536.46649834
_cell_formula_units_Z   1
loop_
 _symmetry_equiv_pos_site_id
 _symmetry_equiv_pos_as_xyz
  1  'x, y, z'
loop_
 _atom_site_type_symbol
 _atom_site_label
 _atom_site_symmetry_multiplicity
 _atom_site_fract_x
 _atom_site_fract_y
 _atom_site_fract_z
 _atom_site_occupancy
  Pr  Pr0  1  0.033961  0.218690  0.132028  1
  Pr  Pr1  1  0.468122  0.782027  0.635822  1
  Pr  Pr2  1  0.966448  0.720494  0.364949  1
  Pr  Pr3  1  0.534968  0.283993  0.864913  1
  Pr  Pr4  1  0.024656  0.101544  0.539103  1
  Pr  Pr5  1  0.475947  0.898520  0.038123  1
  Pr  Pr6  1  0.976033  0.604154  0.964060  1
  Pr  Pr7  1  0.524863  0.394594  0.456947  1
  Te  Te8  1  0.042314  0.494880  0.643750  1
  Ir  Ir9  1  0.543969  0.003343  0.356965  1
  Ir  Ir10  1  0.956825  0.997477  0.857519  1
  Ir  Ir11  1  0.456648  0.503636  0.142302  1
  O  O12  1  0.432073  0.147810  0.478606  1
  O  O13  1  0.068141  0.851882  0.979459  1
  O  O14  1  0.565994  0.649999  0.021164  1
  O  O15  1  0.929749  0.350526  0.522369  1
  O  O16  1  0.723009  0.388110  0.066168  1
  O  O17  1  0.779638  0.610801  0.565375  1
  O  O18  1  0.279402  0.885916  0.434948  1
  O  O19  1  0.222483  0.113353  0.933801  1
  O  O20  1  0.250512  0.413230  0.006140  1
  O  O21  1  0.248381  0.584825  0.507424  1
  O  O22  1  0.751567  0.912320  0.493243  1
  O  O23  1  0.749103  0.088450  0.993721  1
  O  O24  1  0.188432  0.632504  0.180436  1
  O  O25  1  0.309443  0.363200  0.675842  1
  O  O26  1  0.811801  0.134016  0.321394  1
  O  O27  1  0.687675  0.867781  0.821999  1
  O  O28  1  0.336472  0.056407  0.216073  1
  O  O29  1  0.164084  0.944284  0.716181  1
  O  O30  1  0.662503  0.557240  0.283984  1
  O  O31  1  0.836200  0.445991  0.788336  1
  O  O32  1  0.321838  0.360624  0.255940  1
  O  O33  1  0.177196  0.637268  0.757189  1
  O  O34  1  0.678906  0.862783  0.241625  1
  O  O35  1  0.820644  0.137326  0.742105  1
