# generated using pymatgen
data_Yb2YHoB16
_symmetry_space_group_name_H-M   'P 1'
_cell_length_a   7.11063890
_cell_length_b   7.11795290
_cell_length_c   4.03132500
_cell_angle_alpha   90.00000000
_cell_angle_beta   90.00000000
_cell_angle_gamma   90.05768803
_symmetry_Int_Tables_number   1
_chemical_formula_structural   Yb2YHoB16
_chemical_formula_sum   'Yb2 Y1 Ho1 B16'
_cell_volume   204.03812605
_cell_formula_units_Z   1
loop_
 _symmetry_equiv_pos_site_id
 _symmetry_equiv_pos_as_xyz
  1  'x, y, z'
loop_
 _atom_site_type_symbol
 _atom_site_label
 _atom_site_symmetry_multiplicity
 _atom_site_fract_x
 _atom_site_fract_y
 _atom_site_fract_z
 _atom_site_occupancy
  Yb  Yb0  1  0.183643  0.683645  0.000000  1
  Yb  Yb1  1  0.683399  0.816485  0.000000  1
  Y  Y2  1  0.817429  0.316995  0.000000  1
  Ho  Ho3  1  0.317201  0.183112  0.000000  1
  B  B4  1  0.324378  0.461586  0.500000  1
  B  B5  1  0.675983  0.537664  0.500000  1
  B  B6  1  0.537237  0.324186  0.500000  1
  B  B7  1  0.461960  0.675664  0.500000  1
  B  B8  1  0.999758  0.998150  0.203128  1
  B  B9  1  0.499160  0.501683  0.796865  1
  B  B10  1  0.999758  0.998150  0.796872  1
  B  B11  1  0.499160  0.501683  0.203135  1
  B  B12  1  0.586231  0.086791  0.500000  1
  B  B13  1  0.086454  0.413296  0.500000  1
  B  B14  1  0.913682  0.586149  0.500000  1
  B  B15  1  0.413405  0.913898  0.500000  1
  B  B16  1  0.038276  0.175694  0.500000  1
  B  B17  1  0.176342  0.962836  0.500000  1
  B  B18  1  0.824511  0.037919  0.500000  1
  B  B19  1  0.962032  0.824415  0.500000  1
