# generated using pymatgen
data_TbDyY4(Si3Ru)8
_symmetry_space_group_name_H-M   'P 1'
_cell_length_a   10.12595417
_cell_length_b   10.12595441
_cell_length_c   8.14466501
_cell_angle_alpha   90.06423838
_cell_angle_beta   89.93576270
_cell_angle_gamma   132.61223120
_symmetry_Int_Tables_number   1
_chemical_formula_structural   TbDyY4(Si3Ru)8
_chemical_formula_sum   'Tb1 Dy1 Y4 Si24 Ru8'
_cell_volume   614.60297045
_cell_formula_units_Z   1
loop_
 _symmetry_equiv_pos_site_id
 _symmetry_equiv_pos_as_xyz
  1  'x, y, z'
loop_
 _atom_site_type_symbol
 _atom_site_label
 _atom_site_symmetry_multiplicity
 _atom_site_fract_x
 _atom_site_fract_y
 _atom_site_fract_z
 _atom_site_occupancy
  Tb  Tb0  1  0.497371  0.997371  0.250000  1
  Dy  Dy1  1  0.002408  0.502408  0.750000  1
  Y  Y2  1  0.499963  0.500016  0.500011  1
  Y  Y3  1  0.000016  0.999963  0.999989  1
  Y  Y4  1  0.502165  0.002165  0.750000  1
  Y  Y5  1  0.997890  0.497890  0.250000  1
  Si  Si6  1  0.793877  0.205312  0.500288  1
  Si  Si7  1  0.294645  0.706040  0.999984  1
  Si  Si8  1  0.206040  0.794645  0.500016  1
  Si  Si9  1  0.705312  0.293877  0.999712  1
  Si  Si10  1  0.332580  0.332301  0.833290  1
  Si  Si11  1  0.667444  0.667671  0.166786  1
  Si  Si12  1  0.167671  0.167444  0.333214  1
  Si  Si13  1  0.832301  0.832580  0.666710  1
  Si  Si14  1  0.122019  0.887617  0.727596  1
  Si  Si15  1  0.114057  0.879502  0.271656  1
  Si  Si16  1  0.611738  0.377301  0.227975  1
  Si  Si17  1  0.620897  0.386767  0.771882  1
  Si  Si18  1  0.877301  0.111738  0.272025  1
  Si  Si19  1  0.886767  0.120897  0.728118  1
  Si  Si20  1  0.387617  0.622019  0.772404  1
  Si  Si21  1  0.379502  0.614057  0.228344  1
  Si  Si22  1  0.345709  0.111663  0.504131  1
  Si  Si23  1  0.889333  0.656459  0.496387  1
  Si  Si24  1  0.388287  0.154287  0.004626  1
  Si  Si25  1  0.843662  0.610733  0.995569  1
  Si  Si26  1  0.654287  0.888287  0.495374  1
  Si  Si27  1  0.110733  0.343662  0.504431  1
  Si  Si28  1  0.611663  0.845709  0.995869  1
  Si  Si29  1  0.156459  0.389333  0.003613  1
  Ru  Ru30  1  0.670931  0.333287  0.500045  1
  Ru  Ru31  1  0.166721  0.829141  0.999076  1
  Ru  Ru32  1  0.329141  0.666721  0.500924  1
  Ru  Ru33  1  0.833287  0.170931  0.999955  1
  Ru  Ru34  1  0.126099  0.125565  0.626835  1
  Ru  Ru35  1  0.874386  0.874158  0.372999  1
  Ru  Ru36  1  0.374158  0.374386  0.127001  1
  Ru  Ru37  1  0.625565  0.626099  0.873165  1
