# generated using pymatgen
data_DyTm3(Rh2O7)2
_symmetry_space_group_name_H-M   'P 1'
_cell_length_a   7.18401346
_cell_length_b   7.18109537
_cell_length_c   7.18401400
_cell_angle_alpha   59.98655441
_cell_angle_beta   59.99999751
_cell_angle_gamma   59.98655524
_symmetry_Int_Tables_number   1
_chemical_formula_structural   DyTm3(Rh2O7)2
_chemical_formula_sum   'Dy1 Tm3 Rh4 O14'
_cell_volume   262.01231649
_cell_formula_units_Z   1
loop_
 _symmetry_equiv_pos_site_id
 _symmetry_equiv_pos_as_xyz
  1  'x, y, z'
loop_
 _atom_site_type_symbol
 _atom_site_label
 _atom_site_symmetry_multiplicity
 _atom_site_fract_x
 _atom_site_fract_y
 _atom_site_fract_z
 _atom_site_occupancy
  Dy  Dy0  1  0.125000  0.625000  0.125000  1
  Tm  Tm1  1  0.125000  0.125000  0.125000  1
  Tm  Tm2  1  0.625000  0.125000  0.125000  1
  Tm  Tm3  1  0.125000  0.125000  0.625000  1
  Rh  Rh4  1  0.625000  0.625000  0.625000  1
  Rh  Rh5  1  0.625000  0.625000  0.125000  1
  Rh  Rh6  1  0.125000  0.625000  0.625000  1
  Rh  Rh7  1  0.625000  0.125000  0.625000  1
  O  O8  1  0.251484  0.245549  0.251484  1
  O  O9  1  0.286099  0.716101  0.286099  1
  O  O10  1  0.963708  0.964308  0.535993  1
  O  O11  1  0.535993  0.964308  0.535993  1
  O  O12  1  0.711701  0.716101  0.286099  1
  O  O13  1  0.963901  0.533899  0.538299  1
  O  O14  1  0.714007  0.285692  0.714007  1
  O  O15  1  0.286292  0.285692  0.714007  1
  O  O16  1  0.714007  0.285692  0.286292  1
  O  O17  1  0.286099  0.716101  0.711701  1
  O  O18  1  0.963901  0.533899  0.963901  1
  O  O19  1  0.538299  0.533899  0.963901  1
  O  O20  1  0.998516  0.004451  0.998516  1
  O  O21  1  0.535993  0.964308  0.963708  1
