# generated using pymatgen
data_YU(FeB4)2
_symmetry_space_group_name_H-M   'P 1'
_cell_length_a   3.37164900
_cell_length_b   5.88243100
_cell_length_c   11.37736501
_cell_angle_alpha   89.99661751
_cell_angle_beta   90.00000000
_cell_angle_gamma   90.00000000
_symmetry_Int_Tables_number   1
_chemical_formula_structural   YU(FeB4)2
_chemical_formula_sum   'Y2 U2 Fe4 B16'
_cell_volume   225.65288432
_cell_formula_units_Z   2
loop_
 _symmetry_equiv_pos_site_id
 _symmetry_equiv_pos_as_xyz
  1  'x, y, z'
loop_
 _atom_site_type_symbol
 _atom_site_label
 _atom_site_symmetry_multiplicity
 _atom_site_fract_x
 _atom_site_fract_y
 _atom_site_fract_z
 _atom_site_occupancy
  Y  Y0  1  0.000000  0.626788  0.351075  1
  Y  Y1  1  0.000000  0.373212  0.648925  1
  U  U2  1  0.000000  0.126715  0.150812  1
  U  U3  1  0.000000  0.873285  0.849188  1
  Fe  Fe4  1  0.000000  0.634690  0.088871  1
  Fe  Fe5  1  0.000000  0.365310  0.911129  1
  Fe  Fe6  1  0.000000  0.132488  0.408483  1
  Fe  Fe7  1  0.000000  0.867512  0.591517  1
  B  B8  1  0.500000  0.783982  0.184458  1
  B  B9  1  0.500000  0.216018  0.815542  1
  B  B10  1  0.500000  0.281759  0.314626  1
  B  B11  1  0.500000  0.718241  0.685374  1
  B  B12  1  0.500000  0.864310  0.033770  1
  B  B13  1  0.500000  0.135690  0.966230  1
  B  B14  1  0.500000  0.360195  0.467543  1
  B  B15  1  0.500000  0.639805  0.532457  1
  B  B16  1  0.500000  0.887980  0.454650  1
  B  B17  1  0.500000  0.112020  0.545350  1
  B  B18  1  0.500000  0.386995  0.045931  1
  B  B19  1  0.500000  0.613005  0.954069  1
  B  B20  1  0.500000  0.975881  0.309439  1
  B  B21  1  0.500000  0.024119  0.690561  1
  B  B22  1  0.500000  0.475563  0.190132  1
  B  B23  1  0.500000  0.524437  0.809868  1
