# generated using pymatgen
data_Y2Lu3CoRu
_symmetry_space_group_name_H-M   'P 1'
_cell_length_a   6.23443995
_cell_length_b   7.10669414
_cell_length_c   8.38898978
_cell_angle_alpha   96.95757627
_cell_angle_beta   112.69812757
_cell_angle_gamma   89.81975541
_symmetry_Int_Tables_number   1
_chemical_formula_structural   Y2Lu3CoRu
_chemical_formula_sum   'Y4 Lu6 Co2 Ru2'
_cell_volume   339.98701602
_cell_formula_units_Z   2
loop_
 _symmetry_equiv_pos_site_id
 _symmetry_equiv_pos_as_xyz
  1  'x, y, z'
loop_
 _atom_site_type_symbol
 _atom_site_label
 _atom_site_symmetry_multiplicity
 _atom_site_fract_x
 _atom_site_fract_y
 _atom_site_fract_z
 _atom_site_occupancy
  Y  Y0  1  0.527711  0.086668  0.811755  1
  Y  Y1  1  0.472289  0.913332  0.188245  1
  Y  Y2  1  0.706365  0.420325  0.194296  1
  Y  Y3  1  0.293635  0.579675  0.805704  1
  Lu  Lu4  1  0.291588  0.319208  0.431840  1
  Lu  Lu5  1  0.708412  0.680792  0.568160  1
  Lu  Lu6  1  0.860136  0.186747  0.565436  1
  Lu  Lu7  1  0.139864  0.813253  0.434564  1
  Lu  Lu8  1  0.076993  0.259908  0.000686  1
  Lu  Lu9  1  0.923007  0.740092  0.999314  1
  Co  Co10  1  0.318937  0.576319  0.229562  1
  Co  Co11  1  0.681063  0.423681  0.770438  1
  Ru  Ru12  1  0.096318  0.927627  0.783032  1
  Ru  Ru13  1  0.903682  0.072373  0.216968  1
