# generated using pymatgen
data_Nb4AlSe8
_symmetry_space_group_name_H-M   'P 1'
_cell_length_a   7.02082000
_cell_length_b   7.02081959
_cell_length_c   12.80710200
_cell_angle_alpha   90.00000000
_cell_angle_beta   90.00000000
_cell_angle_gamma   120.00000194
_symmetry_Int_Tables_number   1
_chemical_formula_structural   Nb4AlSe8
_chemical_formula_sum   'Nb8 Al2 Se16'
_cell_volume   546.71015841
_cell_formula_units_Z   2
loop_
 _symmetry_equiv_pos_site_id
 _symmetry_equiv_pos_as_xyz
  1  'x, y, z'
loop_
 _atom_site_type_symbol
 _atom_site_label
 _atom_site_symmetry_multiplicity
 _atom_site_fract_x
 _atom_site_fract_y
 _atom_site_fract_z
 _atom_site_occupancy
  Nb  Nb0  1  0.000000  0.000000  0.250000  1
  Nb  Nb1  1  0.000000  0.000000  0.750000  1
  Nb  Nb2  1  0.507411  0.014821  0.250000  1
  Nb  Nb3  1  0.985179  0.492589  0.250000  1
  Nb  Nb4  1  0.507411  0.492589  0.250000  1
  Nb  Nb5  1  0.492589  0.985179  0.750000  1
  Nb  Nb6  1  0.014821  0.507411  0.750000  1
  Nb  Nb7  1  0.492589  0.507411  0.750000  1
  Al  Al8  1  0.000000  0.000000  0.500000  1
  Al  Al9  1  0.000000  0.000000  0.000000  1
  Se  Se10  1  0.333333  0.666667  0.883629  1
  Se  Se11  1  0.666667  0.333333  0.116371  1
  Se  Se12  1  0.666667  0.333333  0.383629  1
  Se  Se13  1  0.333333  0.666667  0.616371  1
  Se  Se14  1  0.830769  0.661539  0.880106  1
  Se  Se15  1  0.338461  0.169231  0.880106  1
  Se  Se16  1  0.830769  0.169231  0.880106  1
  Se  Se17  1  0.169231  0.338461  0.119894  1
  Se  Se18  1  0.661539  0.830769  0.119894  1
  Se  Se19  1  0.169231  0.830769  0.119894  1
  Se  Se20  1  0.169231  0.338461  0.380106  1
  Se  Se21  1  0.661539  0.830769  0.380106  1
  Se  Se22  1  0.169231  0.830769  0.380106  1
  Se  Se23  1  0.830769  0.661539  0.619894  1
  Se  Se24  1  0.338461  0.169231  0.619894  1
  Se  Se25  1  0.830769  0.169231  0.619894  1
