# generated using pymatgen
data_Mg4Al3GePt4
_symmetry_space_group_name_H-M   'P 1'
_cell_length_a   6.49486200
_cell_length_b   4.07939000
_cell_length_c   7.81889725
_cell_angle_alpha   90.00000000
_cell_angle_beta   89.58006291
_cell_angle_gamma   90.00000000
_symmetry_Int_Tables_number   1
_chemical_formula_structural   Mg4Al3GePt4
_chemical_formula_sum   'Mg4 Al3 Ge1 Pt4'
_cell_volume   207.15670544
_cell_formula_units_Z   1
loop_
 _symmetry_equiv_pos_site_id
 _symmetry_equiv_pos_as_xyz
  1  'x, y, z'
loop_
 _atom_site_type_symbol
 _atom_site_label
 _atom_site_symmetry_multiplicity
 _atom_site_fract_x
 _atom_site_fract_y
 _atom_site_fract_z
 _atom_site_occupancy
  Mg  Mg0  1  0.971005  0.750001  0.168826  1
  Mg  Mg1  1  0.465849  0.750001  0.332832  1
  Mg  Mg2  1  0.533268  0.250001  0.666006  1
  Mg  Mg3  1  0.029415  0.250001  0.831797  1
  Al  Al4  1  0.650350  0.250001  0.053677  1
  Al  Al5  1  0.148514  0.250001  0.446831  1
  Al  Al6  1  0.853851  0.750001  0.552185  1
  Ge  Ge7  1  0.347752  0.750001  0.945276  1
  Pt  Pt8  1  0.273290  0.250001  0.138242  1
  Pt  Pt9  1  0.771869  0.250001  0.364400  1
  Pt  Pt10  1  0.226393  0.750001  0.635426  1
  Pt  Pt11  1  0.728441  0.750001  0.864504  1
