# generated using pymatgen
data_Nb11Os10W9
_symmetry_space_group_name_H-M   'P 1'
_cell_length_a   9.85739879
_cell_length_b   9.87395578
_cell_length_c   5.06946100
_cell_angle_alpha   90.00000000
_cell_angle_beta   90.00000000
_cell_angle_gamma   90.06894194
_symmetry_Int_Tables_number   1
_chemical_formula_structural   Nb11Os10W9
_chemical_formula_sum   'Nb11 Os10 W9'
_cell_volume   493.41798634
_cell_formula_units_Z   1
loop_
 _symmetry_equiv_pos_site_id
 _symmetry_equiv_pos_as_xyz
  1  'x, y, z'
loop_
 _atom_site_type_symbol
 _atom_site_label
 _atom_site_symmetry_multiplicity
 _atom_site_fract_x
 _atom_site_fract_y
 _atom_site_fract_z
 _atom_site_occupancy
  Nb  Nb0  1  0.102828  0.897100  0.500000  1
  Nb  Nb1  1  0.897111  0.102602  0.500000  1
  Nb  Nb2  1  0.397509  0.397936  0.000000  1
  Nb  Nb3  1  0.602650  0.605772  0.000000  1
  Nb  Nb4  1  0.369733  0.962739  0.500000  1
  Nb  Nb5  1  0.629433  0.038219  0.500000  1
  Nb  Nb6  1  0.130379  0.462132  0.000000  1
  Nb  Nb7  1  0.869472  0.537728  0.000000  1
  Nb  Nb8  1  0.962085  0.369752  0.500000  1
  Nb  Nb9  1  0.037697  0.630402  0.500000  1
  Nb  Nb10  1  0.463129  0.127020  0.000000  1
  Os  Os11  1  0.500071  0.500640  0.500000  1
  Os  Os12  1  0.000265  0.999796  0.000000  1
  Os  Os13  1  0.431944  0.241887  0.500000  1
  Os  Os14  1  0.567700  0.760079  0.500000  1
  Os  Os15  1  0.068159  0.741844  0.000000  1
  Os  Os16  1  0.930899  0.257426  0.000000  1
  Os  Os17  1  0.241870  0.431963  0.500000  1
  Os  Os18  1  0.757850  0.568883  0.500000  1
  Os  Os19  1  0.740229  0.065895  0.000000  1
  Os  Os20  1  0.260279  0.930975  0.000000  1
  W  W21  1  0.538566  0.868548  0.000000  1
  W  W22  1  0.319844  0.681650  0.249136  1
  W  W23  1  0.680997  0.318607  0.249071  1
  W  W24  1  0.181416  0.181028  0.749384  1
  W  W25  1  0.817814  0.819047  0.749560  1
  W  W26  1  0.680997  0.318607  0.750929  1
  W  W27  1  0.319844  0.681650  0.750864  1
  W  W28  1  0.817814  0.819047  0.250440  1
  W  W29  1  0.181416  0.181028  0.250616  1
