# generated using pymatgen
data_Dy2TmU3(Ni3Sb4)2
_symmetry_space_group_name_H-M   'P 1'
_cell_length_a   8.16527046
_cell_length_b   8.16631217
_cell_length_c   8.16631268
_cell_angle_alpha   109.03761686
_cell_angle_beta   109.63392317
_cell_angle_gamma   109.74823403
_symmetry_Int_Tables_number   1
_chemical_formula_structural   Dy2TmU3(Ni3Sb4)2
_chemical_formula_sum   'Dy2 Tm1 U3 Ni6 Sb8'
_cell_volume   419.13456553
_cell_formula_units_Z   1
loop_
 _symmetry_equiv_pos_site_id
 _symmetry_equiv_pos_as_xyz
  1  'x, y, z'
loop_
 _atom_site_type_symbol
 _atom_site_label
 _atom_site_symmetry_multiplicity
 _atom_site_fract_x
 _atom_site_fract_y
 _atom_site_fract_z
 _atom_site_occupancy
  Dy  Dy0  1  0.874866  0.249324  0.124680  1
  Dy  Dy1  1  0.625134  0.749814  0.374458  1
  Tm  Tm2  1  0.250000  0.126351  0.876351  1
  U  U3  1  0.750000  0.373190  0.623190  1
  U  U4  1  0.122209  0.873108  0.249404  1
  U  U5  1  0.377791  0.627197  0.750899  1
  Ni  Ni6  1  0.379163  0.251080  0.621425  1
  Ni  Ni7  1  0.120837  0.742261  0.871917  1
  Ni  Ni8  1  0.250000  0.627981  0.377981  1
  Ni  Ni9  1  0.750000  0.870080  0.120080  1
  Ni  Ni10  1  0.630257  0.376430  0.264032  1
  Ni  Ni11  1  0.869743  0.133775  0.746173  1
  Sb  Sb12  1  0.658383  0.496465  0.000739  1
  Sb  Sb13  1  0.499738  0.998070  0.661229  1
  Sb  Sb14  1  0.000262  0.661490  0.498332  1
  Sb  Sb15  1  0.841617  0.842355  0.838082  1
  Sb  Sb16  1  0.499953  0.001608  0.159821  1
  Sb  Sb17  1  0.162112  0.500587  0.001075  1
  Sb  Sb18  1  0.000047  0.159867  0.501655  1
  Sb  Sb19  1  0.337888  0.338965  0.338476  1
