# generated using pymatgen
data_Na3In3PdAu2
_symmetry_space_group_name_H-M   'P 1'
_cell_length_a   7.64186245
_cell_length_b   7.64300820
_cell_length_c   4.07114600
_cell_angle_alpha   90.00000000
_cell_angle_beta   90.00000000
_cell_angle_gamma   120.00495045
_symmetry_Int_Tables_number   1
_chemical_formula_structural   Na3In3PdAu2
_chemical_formula_sum   'Na3 In3 Pd1 Au2'
_cell_volume   205.91556907
_cell_formula_units_Z   1
loop_
 _symmetry_equiv_pos_site_id
 _symmetry_equiv_pos_as_xyz
  1  'x, y, z'
loop_
 _atom_site_type_symbol
 _atom_site_label
 _atom_site_symmetry_multiplicity
 _atom_site_fract_x
 _atom_site_fract_y
 _atom_site_fract_z
 _atom_site_occupancy
  Na  Na0  1  0.000000  0.597782  0.000000  1
  Na  Na1  1  0.402002  0.402232  0.000000  1
  Na  Na2  1  0.597998  0.000230  0.000000  1
  In  In3  1  0.742665  0.742288  0.500000  1
  In  In4  1  0.000000  0.257820  0.500000  1
  In  In5  1  0.257335  0.999623  0.500000  1
  Pd  Pd6  1  0.000000  0.999938  0.000000  1
  Au  Au7  1  0.333475  0.666782  0.500000  1
  Au  Au8  1  0.666525  0.333306  0.500000  1
