# generated using pymatgen
data_SrGa6PtAu3
_symmetry_space_group_name_H-M   'P 1'
_cell_length_a   7.66239300
_cell_length_b   7.66239103
_cell_length_c   4.10712100
_cell_angle_alpha   90.00000000
_cell_angle_beta   90.00000000
_cell_angle_gamma   120.00000421
_symmetry_Int_Tables_number   1
_chemical_formula_structural   SrGa6PtAu3
_chemical_formula_sum   'Sr1 Ga6 Pt1 Au3'
_cell_volume   208.83190252
_cell_formula_units_Z   1
loop_
 _symmetry_equiv_pos_site_id
 _symmetry_equiv_pos_as_xyz
  1  'x, y, z'
loop_
 _atom_site_type_symbol
 _atom_site_label
 _atom_site_symmetry_multiplicity
 _atom_site_fract_x
 _atom_site_fract_y
 _atom_site_fract_z
 _atom_site_occupancy
  Sr  Sr0  1  0.000000  0.000000  0.000000  1
  Ga  Ga1  1  0.941525  0.470763  0.000000  1
  Ga  Ga2  1  0.204063  0.795937  0.500000  1
  Ga  Ga3  1  0.529237  0.058475  0.000000  1
  Ga  Ga4  1  0.529237  0.470763  0.000000  1
  Ga  Ga5  1  0.204063  0.408124  0.500000  1
  Ga  Ga6  1  0.591876  0.795937  0.500000  1
  Pt  Pt7  1  0.333333  0.666667  0.000000  1
  Au  Au8  1  0.399347  0.199673  0.500000  1
  Au  Au9  1  0.800327  0.199673  0.500000  1
  Au  Au10  1  0.800327  0.600653  0.500000  1
