# generated using pymatgen
data_TbY6Sn23Rh6
_symmetry_space_group_name_H-M   'P 1'
_cell_length_a   9.87013200
_cell_length_b   9.87013332
_cell_length_c   10.12946800
_cell_angle_alpha   90.00000000
_cell_angle_beta   90.00000000
_cell_angle_gamma   120.00000227
_symmetry_Int_Tables_number   1
_chemical_formula_structural   TbY6Sn23Rh6
_chemical_formula_sum   'Tb1 Y6 Sn23 Rh6'
_cell_volume   854.60068852
_cell_formula_units_Z   1
loop_
 _symmetry_equiv_pos_site_id
 _symmetry_equiv_pos_as_xyz
  1  'x, y, z'
loop_
 _atom_site_type_symbol
 _atom_site_label
 _atom_site_symmetry_multiplicity
 _atom_site_fract_x
 _atom_site_fract_y
 _atom_site_fract_z
 _atom_site_occupancy
  Tb  Tb0  1  0.000000  0.000000  0.000000  1
  Y  Y1  1  0.044257  0.522129  0.307937  1
  Y  Y2  1  0.477871  0.955743  0.307937  1
  Y  Y3  1  0.477871  0.522129  0.307937  1
  Y  Y4  1  0.955743  0.477871  0.692063  1
  Y  Y5  1  0.522129  0.044257  0.692063  1
  Y  Y6  1  0.522129  0.477871  0.692063  1
  Sn  Sn7  1  0.000000  0.000000  0.500000  1
  Sn  Sn8  1  0.119159  0.880841  0.279606  1
  Sn  Sn9  1  0.761682  0.880841  0.279606  1
  Sn  Sn10  1  0.119159  0.238318  0.279606  1
  Sn  Sn11  1  0.880841  0.119159  0.720394  1
  Sn  Sn12  1  0.238318  0.119159  0.720394  1
  Sn  Sn13  1  0.880841  0.761682  0.720394  1
  Sn  Sn14  1  0.351070  0.000000  0.000000  1
  Sn  Sn15  1  0.648930  0.648930  0.000000  1
  Sn  Sn16  1  0.000000  0.351070  0.000000  1
  Sn  Sn17  1  0.351070  0.351070  0.000000  1
  Sn  Sn18  1  0.000000  0.648930  0.000000  1
  Sn  Sn19  1  0.648930  0.000000  0.000000  1
  Sn  Sn20  1  0.779075  0.558150  0.454400  1
  Sn  Sn21  1  0.779075  0.220925  0.454400  1
  Sn  Sn22  1  0.441850  0.220925  0.454400  1
  Sn  Sn23  1  0.220925  0.441850  0.545600  1
  Sn  Sn24  1  0.220925  0.779075  0.545600  1
  Sn  Sn25  1  0.558150  0.779075  0.545600  1
  Sn  Sn26  1  0.666667  0.333333  0.181543  1
  Sn  Sn27  1  0.333333  0.666667  0.818457  1
  Sn  Sn28  1  0.666667  0.333333  0.882369  1
  Sn  Sn29  1  0.333333  0.666667  0.117631  1
  Rh  Rh30  1  0.168393  0.831607  0.802369  1
  Rh  Rh31  1  0.663214  0.831607  0.802369  1
  Rh  Rh32  1  0.168393  0.336786  0.802369  1
  Rh  Rh33  1  0.831607  0.168393  0.197631  1
  Rh  Rh34  1  0.336786  0.168393  0.197631  1
  Rh  Rh35  1  0.831607  0.663214  0.197631  1
