# generated using pymatgen
data_Cs6SmLuBr12
_symmetry_space_group_name_H-M   'P 1'
_cell_length_a   10.00796370
_cell_length_b   10.00487268
_cell_length_c   8.30208600
_cell_angle_alpha   90.00000000
_cell_angle_beta   90.00000000
_cell_angle_gamma   90.06666094
_symmetry_Int_Tables_number   1
_chemical_formula_structural   Cs6SmLuBr12
_chemical_formula_sum   'Cs6 Sm1 Lu1 Br12'
_cell_volume   831.27404737
_cell_formula_units_Z   1
loop_
 _symmetry_equiv_pos_site_id
 _symmetry_equiv_pos_as_xyz
  1  'x, y, z'
loop_
 _atom_site_type_symbol
 _atom_site_label
 _atom_site_symmetry_multiplicity
 _atom_site_fract_x
 _atom_site_fract_y
 _atom_site_fract_z
 _atom_site_occupancy
  Cs  Cs0  1  0.000000  0.000000  0.500000  1
  Cs  Cs1  1  0.000000  0.000000  0.000000  1
  Cs  Cs2  1  0.236245  0.584023  0.500000  1
  Cs  Cs3  1  0.763755  0.415977  0.500000  1
  Cs  Cs4  1  0.416351  0.233849  0.000000  1
  Cs  Cs5  1  0.583649  0.766151  0.000000  1
  Sm  Sm6  1  0.000000  0.500000  0.000000  1
  Lu  Lu7  1  0.500000  0.000000  0.500000  1
  Br  Br8  1  0.688558  0.056571  0.736252  1
  Br  Br9  1  0.311442  0.943429  0.736252  1
  Br  Br10  1  0.941346  0.695749  0.244831  1
  Br  Br11  1  0.058654  0.304251  0.244831  1
  Br  Br12  1  0.311442  0.943429  0.263748  1
  Br  Br13  1  0.688558  0.056571  0.263748  1
  Br  Br14  1  0.058654  0.304251  0.755169  1
  Br  Br15  1  0.941346  0.695749  0.755169  1
  Br  Br16  1  0.569179  0.733755  0.500000  1
  Br  Br17  1  0.430821  0.266245  0.500000  1
  Br  Br18  1  0.276456  0.571641  0.000000  1
  Br  Br19  1  0.723544  0.428359  0.000000  1
