# generated using pymatgen
data_La6MgCd22Ge
_symmetry_space_group_name_H-M   'P 1'
_cell_length_a   10.20045325
_cell_length_b   10.20045189
_cell_length_c   10.20045400
_cell_angle_alpha   59.99999965
_cell_angle_beta   60.00000404
_cell_angle_gamma   60.00000018
_symmetry_Int_Tables_number   1
_chemical_formula_structural   La6MgCd22Ge
_chemical_formula_sum   'La6 Mg1 Cd22 Ge1'
_cell_volume   750.48738777
_cell_formula_units_Z   1
loop_
 _symmetry_equiv_pos_site_id
 _symmetry_equiv_pos_as_xyz
  1  'x, y, z'
loop_
 _atom_site_type_symbol
 _atom_site_label
 _atom_site_symmetry_multiplicity
 _atom_site_fract_x
 _atom_site_fract_y
 _atom_site_fract_z
 _atom_site_occupancy
  La  La0  1  0.709925  0.290075  0.290075  1
  La  La1  1  0.290075  0.709925  0.709925  1
  La  La2  1  0.290075  0.709925  0.290075  1
  La  La3  1  0.709925  0.290075  0.709925  1
  La  La4  1  0.290075  0.290075  0.709925  1
  La  La5  1  0.709925  0.709925  0.290075  1
  Mg  Mg6  1  0.000000  0.000000  0.000000  1
  Cd  Cd7  1  0.122062  0.122062  0.122062  1
  Cd  Cd8  1  0.877938  0.877938  0.877938  1
  Cd  Cd9  1  0.122062  0.122062  0.633814  1
  Cd  Cd10  1  0.122062  0.633814  0.122062  1
  Cd  Cd11  1  0.877938  0.877938  0.366186  1
  Cd  Cd12  1  0.877938  0.366186  0.877938  1
  Cd  Cd13  1  0.633814  0.122062  0.122062  1
  Cd  Cd14  1  0.366186  0.877938  0.877938  1
  Cd  Cd15  1  0.500000  0.000000  0.000000  1
  Cd  Cd16  1  0.000000  0.500000  0.500000  1
  Cd  Cd17  1  0.000000  0.500000  0.000000  1
  Cd  Cd18  1  0.500000  0.000000  0.500000  1
  Cd  Cd19  1  0.000000  0.000000  0.500000  1
  Cd  Cd20  1  0.500000  0.500000  0.000000  1
  Cd  Cd21  1  0.332524  0.332524  0.332524  1
  Cd  Cd22  1  0.667476  0.667476  0.667476  1
  Cd  Cd23  1  0.332524  0.332524  0.002427  1
  Cd  Cd24  1  0.332524  0.002427  0.332524  1
  Cd  Cd25  1  0.667476  0.667476  0.997573  1
  Cd  Cd26  1  0.667476  0.997573  0.667476  1
  Cd  Cd27  1  0.002427  0.332524  0.332524  1
  Cd  Cd28  1  0.997573  0.667476  0.667476  1
  Ge  Ge29  1  0.500000  0.500000  0.500000  1
