# generated using pymatgen
data_TiNbCo9W
_symmetry_space_group_name_H-M   'P 1'
_cell_length_a   6.86865984
_cell_length_b   6.86865980
_cell_length_c   6.86865956
_cell_angle_alpha   43.76416035
_cell_angle_beta   43.76415871
_cell_angle_gamma   43.76416569
_symmetry_Int_Tables_number   1
_chemical_formula_structural   TiNbCo9W
_chemical_formula_sum   'Ti1 Nb1 Co9 W1'
_cell_volume   140.74859114
_cell_formula_units_Z   1
loop_
 _symmetry_equiv_pos_site_id
 _symmetry_equiv_pos_as_xyz
  1  'x, y, z'
loop_
 _atom_site_type_symbol
 _atom_site_label
 _atom_site_symmetry_multiplicity
 _atom_site_fract_x
 _atom_site_fract_y
 _atom_site_fract_z
 _atom_site_occupancy
  Ti  Ti0  1  0.781021  0.781021  0.781021  1
  Nb  Nb1  1  0.000253  0.000253  0.000253  1
  Co  Co2  1  0.285894  0.762446  0.285894  1
  Co  Co3  1  0.762446  0.285894  0.285894  1
  Co  Co4  1  0.285894  0.285894  0.762446  1
  Co  Co5  1  0.714097  0.239050  0.714097  1
  Co  Co6  1  0.239050  0.714097  0.714097  1
  Co  Co7  1  0.714097  0.714097  0.239050  1
  Co  Co8  1  0.001036  0.498651  0.498651  1
  Co  Co9  1  0.498651  0.498651  0.001036  1
  Co  Co10  1  0.498651  0.001036  0.498651  1
  W  W11  1  0.218909  0.218909  0.218909  1
