# generated using pymatgen
data_V3Cr2B4W
_symmetry_space_group_name_H-M   'P 1'
_cell_length_a   5.68145700
_cell_length_b   5.68145772
_cell_length_c   3.05200600
_cell_angle_alpha   90.00000000
_cell_angle_beta   90.00000000
_cell_angle_gamma   90.51970182
_symmetry_Int_Tables_number   1
_chemical_formula_structural   V3Cr2B4W
_chemical_formula_sum   'V3 Cr2 B4 W1'
_cell_volume   98.51152001
_cell_formula_units_Z   1
loop_
 _symmetry_equiv_pos_site_id
 _symmetry_equiv_pos_as_xyz
  1  'x, y, z'
loop_
 _atom_site_type_symbol
 _atom_site_label
 _atom_site_symmetry_multiplicity
 _atom_site_fract_x
 _atom_site_fract_y
 _atom_site_fract_z
 _atom_site_occupancy
  V  V0  1  0.320105  0.820105  0.500000  1
  V  V1  1  0.178923  0.323389  0.500000  1
  V  V2  1  0.823389  0.678923  0.500000  1
  Cr  Cr3  1  0.497219  0.504317  0.000000  1
  Cr  Cr4  1  0.004317  0.997219  0.000000  1
  B  B5  1  0.113542  0.613542  0.000000  1
  B  B6  1  0.891626  0.391626  0.000000  1
  B  B7  1  0.611911  0.880515  0.000000  1
  B  B8  1  0.380515  0.111911  0.000000  1
  W  W9  1  0.678453  0.178453  0.500000  1
