# generated using pymatgen
data_Y6Ho2Ti12Si15Sn
_symmetry_space_group_name_H-M   'P 1'
_cell_length_a   7.11207954
_cell_length_b   7.07512530
_cell_length_c   13.03254902
_cell_angle_alpha   89.99137655
_cell_angle_beta   89.73820595
_cell_angle_gamma   89.93745443
_symmetry_Int_Tables_number   1
_chemical_formula_structural   Y6Ho2Ti12Si15Sn
_chemical_formula_sum   'Y6 Ho2 Ti12 Si15 Sn1'
_cell_volume   655.77568735
_cell_formula_units_Z   1
loop_
 _symmetry_equiv_pos_site_id
 _symmetry_equiv_pos_as_xyz
  1  'x, y, z'
loop_
 _atom_site_type_symbol
 _atom_site_label
 _atom_site_symmetry_multiplicity
 _atom_site_fract_x
 _atom_site_fract_y
 _atom_site_fract_z
 _atom_site_occupancy
  Y  Y0  1  0.343188  0.999594  0.461683  1
  Y  Y1  1  0.505330  0.835195  0.718004  1
  Y  Y2  1  0.502407  0.159924  0.216535  1
  Y  Y3  1  0.840941  0.497129  0.282395  1
  Y  Y4  1  0.159125  0.510037  0.786012  1
  Y  Y5  1  0.661313  0.996195  0.968639  1
  Ho  Ho6  1  0.992882  0.348597  0.527770  1
  Ho  Ho7  1  0.999014  0.658918  0.034264  1
  Ti  Ti8  1  0.325778  0.326776  0.001094  1
  Ti  Ti9  1  0.173962  0.825878  0.249634  1
  Ti  Ti10  1  0.816611  0.175447  0.751869  1
  Ti  Ti11  1  0.673071  0.673034  0.499516  1
  Ti  Ti12  1  0.152187  0.007813  0.883370  1
  Ti  Ti13  1  0.491717  0.650551  0.126828  1
  Ti  Ti14  1  0.515790  0.353791  0.626425  1
  Ti  Ti15  1  0.654156  0.492794  0.875482  1
  Ti  Ti16  1  0.347533  0.509441  0.372877  1
  Ti  Ti17  1  0.847362  0.991746  0.375956  1
  Ti  Ti18  1  0.009872  0.151570  0.123334  1
  Ti  Ti19  1  0.979490  0.835380  0.618831  1
  Si  Si20  1  0.370558  0.702648  0.936382  1
  Si  Si21  1  0.628677  0.297376  0.433365  1
  Si  Si22  1  0.703740  0.370222  0.065951  1
  Si  Si23  1  0.296683  0.629991  0.565285  1
  Si  Si24  1  0.797870  0.869600  0.184371  1
  Si  Si25  1  0.129740  0.202779  0.314752  1
  Si  Si26  1  0.870607  0.799810  0.815894  1
  Si  Si27  1  0.291254  0.951451  0.066630  1
  Si  Si28  1  0.549507  0.788951  0.313546  1
  Si  Si29  1  0.459125  0.211102  0.819859  1
  Si  Si30  1  0.793575  0.544767  0.686607  1
  Si  Si31  1  0.209499  0.452783  0.185009  1
  Si  Si32  1  0.707970  0.048842  0.564377  1
  Si  Si33  1  0.952386  0.291298  0.935539  1
  Si  Si34  1  0.048250  0.710993  0.433150  1
  Sn  Sn35  1  0.198828  0.127577  0.678763  1
