# generated using pymatgen
data_LiSmInPt3
_symmetry_space_group_name_H-M   'P 1'
_cell_length_a   5.50659908
_cell_length_b   5.50659959
_cell_length_c   5.21922618
_cell_angle_alpha   58.16126615
_cell_angle_beta   58.16127038
_cell_angle_gamma   60.00000044
_symmetry_Int_Tables_number   1
_chemical_formula_structural   LiSmInPt3
_chemical_formula_sum   'Li1 Sm1 In1 Pt3'
_cell_volume   108.69548026
_cell_formula_units_Z   1
loop_
 _symmetry_equiv_pos_site_id
 _symmetry_equiv_pos_as_xyz
  1  'x, y, z'
loop_
 _atom_site_type_symbol
 _atom_site_label
 _atom_site_symmetry_multiplicity
 _atom_site_fract_x
 _atom_site_fract_y
 _atom_site_fract_z
 _atom_site_occupancy
  Li  Li0  1  0.621776  0.621776  0.134672  1
  Sm  Sm1  1  0.005350  0.005350  0.983950  1
  In  In2  1  0.255030  0.255030  0.234909  1
  Pt  Pt3  1  0.622663  0.122517  0.632156  1
  Pt  Pt4  1  0.122517  0.622663  0.632156  1
  Pt  Pt5  1  0.622663  0.622663  0.632156  1
