# generated using pymatgen
data_Nd4Ga24Pd5Pt4
_symmetry_space_group_name_H-M   'P 1'
_cell_length_a   7.56055540
_cell_length_b   7.61123736
_cell_length_c   13.49440524
_cell_angle_alpha   84.94491677
_cell_angle_beta   100.42881074
_cell_angle_gamma   119.49418501
_symmetry_Int_Tables_number   1
_chemical_formula_structural   Nd4Ga24Pd5Pt4
_chemical_formula_sum   'Nd4 Ga24 Pd5 Pt4'
_cell_volume   664.73708820
_cell_formula_units_Z   1
loop_
 _symmetry_equiv_pos_site_id
 _symmetry_equiv_pos_as_xyz
  1  'x, y, z'
loop_
 _atom_site_type_symbol
 _atom_site_label
 _atom_site_symmetry_multiplicity
 _atom_site_fract_x
 _atom_site_fract_y
 _atom_site_fract_z
 _atom_site_occupancy
  Nd  Nd0  1  0.437906  0.830812  0.811243  1
  Nd  Nd1  1  0.562094  0.169188  0.188757  1
  Nd  Nd2  1  0.770105  0.502684  0.811609  1
  Nd  Nd3  1  0.229895  0.497316  0.188391  1
  Ga  Ga4  1  0.478553  0.166250  0.940695  1
  Ga  Ga5  1  0.521447  0.833750  0.059305  1
  Ga  Ga6  1  0.021810  0.168574  0.558397  1
  Ga  Ga7  1  0.978190  0.831426  0.441603  1
  Ga  Ga8  1  0.354795  0.833064  0.556125  1
  Ga  Ga9  1  0.645205  0.166936  0.443875  1
  Ga  Ga10  1  0.616603  0.834334  0.326956  1
  Ga  Ga11  1  0.383397  0.165666  0.673044  1
  Ga  Ga12  1  0.058162  0.495292  0.671391  1
  Ga  Ga13  1  0.941838  0.504708  0.328609  1
  Ga  Ga14  1  0.729079  0.837065  0.670949  1
  Ga  Ga15  1  0.270921  0.162935  0.329051  1
  Ga  Ga16  1  0.145663  0.499276  0.941289  1
  Ga  Ga17  1  0.854337  0.500724  0.058711  1
  Ga  Ga18  1  0.814975  0.833113  0.947734  1
  Ga  Ga19  1  0.185025  0.166887  0.052266  1
  Ga  Ga20  1  0.315216  0.501579  0.443460  1
  Ga  Ga21  1  0.684784  0.498421  0.556540  1
  Ga  Ga22  1  0.100297  0.835793  0.182386  1
  Ga  Ga23  1  0.899703  0.164207  0.817614  1
  Ga  Ga24  1  0.305915  0.367641  0.816720  1
  Ga  Ga25  1  0.694085  0.632359  0.183280  1
  Ga  Ga26  1  0.103062  0.961992  0.816936  1
  Ga  Ga27  1  0.896938  0.038008  0.183064  1
  Pd  Pd28  1  0.383730  0.502184  0.637145  1
  Pd  Pd29  1  0.616270  0.497816  0.362855  1
  Pd  Pd30  1  0.170429  0.830205  0.999399  1
  Pd  Pd31  1  0.829571  0.169795  0.000601  1
  Pd  Pd32  1  0.500000  0.500000  0.000000  1
  Pt  Pt33  1  0.292261  0.833065  0.362107  1
  Pt  Pt34  1  0.707739  0.166935  0.637893  1
  Pt  Pt35  1  0.048160  0.829785  0.635606  1
  Pt  Pt36  1  0.951840  0.170215  0.364394  1
