# generated using pymatgen
data_HoV9S16
_symmetry_space_group_name_H-M   'P 1'
_cell_length_a   6.37725200
_cell_length_b   6.37725316
_cell_length_c   12.34327100
_cell_angle_alpha   90.00000000
_cell_angle_beta   90.00000000
_cell_angle_gamma   120.00000436
_symmetry_Int_Tables_number   1
_chemical_formula_structural   HoV9S16
_chemical_formula_sum   'Ho1 V9 S16'
_cell_volume   434.73851052
_cell_formula_units_Z   1
loop_
 _symmetry_equiv_pos_site_id
 _symmetry_equiv_pos_as_xyz
  1  'x, y, z'
loop_
 _atom_site_type_symbol
 _atom_site_label
 _atom_site_symmetry_multiplicity
 _atom_site_fract_x
 _atom_site_fract_y
 _atom_site_fract_z
 _atom_site_occupancy
  Ho  Ho0  1  0.000000  0.000000  0.000000  1
  V  V1  1  0.000000  0.000000  0.263771  1
  V  V2  1  0.000000  0.000000  0.736229  1
  V  V3  1  0.506457  0.012913  0.266148  1
  V  V4  1  0.493543  0.987087  0.733852  1
  V  V5  1  0.987087  0.493543  0.266148  1
  V  V6  1  0.012913  0.506457  0.733852  1
  V  V7  1  0.506457  0.493543  0.266148  1
  V  V8  1  0.493543  0.506457  0.733852  1
  V  V9  1  0.000000  0.000000  0.500000  1
  S  S10  1  0.333333  0.666667  0.613036  1
  S  S11  1  0.666667  0.333333  0.386964  1
  S  S12  1  0.666667  0.333333  0.142548  1
  S  S13  1  0.333333  0.666667  0.857452  1
  S  S14  1  0.171699  0.343398  0.147731  1
  S  S15  1  0.828301  0.656602  0.852269  1
  S  S16  1  0.656602  0.828301  0.147731  1
  S  S17  1  0.832852  0.665704  0.618397  1
  S  S18  1  0.343398  0.171699  0.852269  1
  S  S19  1  0.167148  0.334296  0.381603  1
  S  S20  1  0.171699  0.828301  0.147731  1
  S  S21  1  0.334296  0.167148  0.618397  1
  S  S22  1  0.828301  0.171699  0.852269  1
  S  S23  1  0.665704  0.832852  0.381603  1
  S  S24  1  0.832852  0.167148  0.618397  1
  S  S25  1  0.167148  0.832852  0.381603  1
