# generated using pymatgen
data_DyYZr2IrPt
_symmetry_space_group_name_H-M   'P 1'
_cell_length_a   4.69993100
_cell_length_b   7.12301300
_cell_length_c   8.20088500
_cell_angle_alpha   90.00000000
_cell_angle_beta   90.00000000
_cell_angle_gamma   90.00000000
_symmetry_Int_Tables_number   1
_chemical_formula_structural   DyYZr2IrPt
_chemical_formula_sum   'Dy2 Y2 Zr4 Ir2 Pt2'
_cell_volume   274.54651856
_cell_formula_units_Z   2
loop_
 _symmetry_equiv_pos_site_id
 _symmetry_equiv_pos_as_xyz
  1  'x, y, z'
loop_
 _atom_site_type_symbol
 _atom_site_label
 _atom_site_symmetry_multiplicity
 _atom_site_fract_x
 _atom_site_fract_y
 _atom_site_fract_z
 _atom_site_occupancy
  Dy  Dy0  1  0.250000  0.984419  0.324350  1
  Dy  Dy1  1  0.250000  0.484419  0.175650  1
  Y  Y2  1  0.750000  0.016642  0.678586  1
  Y  Y3  1  0.750000  0.516642  0.821414  1
  Zr  Zr4  1  0.250000  0.352850  0.575082  1
  Zr  Zr5  1  0.250000  0.852850  0.924918  1
  Zr  Zr6  1  0.750000  0.642524  0.417602  1
  Zr  Zr7  1  0.750000  0.142524  0.082398  1
  Ir  Ir8  1  0.750000  0.772517  0.090537  1
  Ir  Ir9  1  0.750000  0.272517  0.409463  1
  Pt  Pt10  1  0.250000  0.231046  0.906301  1
  Pt  Pt11  1  0.250000  0.731046  0.593699  1
