# generated using pymatgen
data_Li2PrErPd2
_symmetry_space_group_name_H-M   'P 1'
_cell_length_a   4.07250500
_cell_length_b   7.21370008
_cell_length_c   8.54094190
_cell_angle_alpha   91.36196297
_cell_angle_beta   90.00000000
_cell_angle_gamma   90.00000000
_symmetry_Int_Tables_number   1
_chemical_formula_structural   Li2PrErPd2
_chemical_formula_sum   'Li4 Pr2 Er2 Pd4'
_cell_volume   250.84345007
_cell_formula_units_Z   2
loop_
 _symmetry_equiv_pos_site_id
 _symmetry_equiv_pos_as_xyz
  1  'x, y, z'
loop_
 _atom_site_type_symbol
 _atom_site_label
 _atom_site_symmetry_multiplicity
 _atom_site_fract_x
 _atom_site_fract_y
 _atom_site_fract_z
 _atom_site_occupancy
  Li  Li0  1  0.250000  0.364089  0.556170  1
  Li  Li1  1  0.750000  0.119723  0.057585  1
  Li  Li2  1  0.250000  0.880277  0.942415  1
  Li  Li3  1  0.750000  0.635911  0.443830  1
  Pr  Pr4  1  0.250000  0.455220  0.187380  1
  Pr  Pr5  1  0.750000  0.544780  0.812620  1
  Er  Er6  1  0.250000  0.952552  0.322887  1
  Er  Er7  1  0.750000  0.047448  0.677113  1
  Pd  Pd8  1  0.750000  0.232004  0.382020  1
  Pd  Pd9  1  0.250000  0.242074  0.870523  1
  Pd  Pd10  1  0.750000  0.757926  0.129477  1
  Pd  Pd11  1  0.250000  0.767996  0.617980  1
