# generated using pymatgen
data_LiMn3Al2(B2Rh5)2
_symmetry_space_group_name_H-M   'P 1'
_cell_length_a   9.33362240
_cell_length_b   9.33362240
_cell_length_c   2.91042400
_cell_angle_alpha   90.00000000
_cell_angle_beta   90.00000000
_cell_angle_gamma   90.39837420
_symmetry_Int_Tables_number   1
_chemical_formula_structural   LiMn3Al2(B2Rh5)2
_chemical_formula_sum   'Li1 Mn3 Al2 B4 Rh10'
_cell_volume   253.53984459
_cell_formula_units_Z   1
loop_
 _symmetry_equiv_pos_site_id
 _symmetry_equiv_pos_as_xyz
  1  'x, y, z'
loop_
 _atom_site_type_symbol
 _atom_site_label
 _atom_site_symmetry_multiplicity
 _atom_site_fract_x
 _atom_site_fract_y
 _atom_site_fract_z
 _atom_site_occupancy
  Li  Li0  1  0.823439  0.323439  0.000000  1
  Mn  Mn1  1  0.324594  0.177995  0.000000  1
  Mn  Mn2  1  0.677995  0.824594  0.000000  1
  Mn  Mn3  1  0.176026  0.676026  0.000000  1
  Al  Al4  1  0.999161  0.001118  0.000000  1
  Al  Al5  1  0.501118  0.499161  0.000000  1
  B  B6  1  0.630740  0.130740  0.000000  1
  B  B7  1  0.123160  0.373079  0.000000  1
  B  B8  1  0.873079  0.623160  0.000000  1
  B  B9  1  0.373620  0.873620  0.000000  1
  Rh  Rh10  1  0.076842  0.212131  0.500000  1
  Rh  Rh11  1  0.213389  0.928117  0.500000  1
  Rh  Rh12  1  0.784234  0.065394  0.500000  1
  Rh  Rh13  1  0.931008  0.785460  0.500000  1
  Rh  Rh14  1  0.428117  0.713389  0.500000  1
  Rh  Rh15  1  0.565394  0.284234  0.500000  1
  Rh  Rh16  1  0.712131  0.576842  0.500000  1
  Rh  Rh17  1  0.285460  0.431008  0.500000  1
  Rh  Rh18  1  0.499548  0.999548  0.500000  1
  Rh  Rh19  1  0.000945  0.500945  0.500000  1
