# generated using pymatgen
data_DyLuInGa2
_symmetry_space_group_name_H-M   'P 1'
_cell_length_a   7.16480318
_cell_length_b   7.16480318
_cell_length_c   4.39908500
_cell_angle_alpha   90.00000000
_cell_angle_beta   90.00000000
_cell_angle_gamma   89.02530149
_symmetry_Int_Tables_number   1
_chemical_formula_structural   DyLuInGa2
_chemical_formula_sum   'Dy2 Lu2 In2 Ga4'
_cell_volume   225.79173374
_cell_formula_units_Z   2
loop_
 _symmetry_equiv_pos_site_id
 _symmetry_equiv_pos_as_xyz
  1  'x, y, z'
loop_
 _atom_site_type_symbol
 _atom_site_label
 _atom_site_symmetry_multiplicity
 _atom_site_fract_x
 _atom_site_fract_y
 _atom_site_fract_z
 _atom_site_occupancy
  Dy  Dy0  1  0.672516  0.172516  0.500000  1
  Dy  Dy1  1  0.327484  0.827484  0.500000  1
  Lu  Lu2  1  0.170560  0.329440  0.500000  1
  Lu  Lu3  1  0.829440  0.670560  0.500000  1
  In  In4  1  0.500000  0.500000  0.000000  1
  In  In5  1  0.000000  0.000000  0.000000  1
  Ga  Ga6  1  0.125040  0.625040  0.000000  1
  Ga  Ga7  1  0.874960  0.374960  0.000000  1
  Ga  Ga8  1  0.628543  0.871457  0.000000  1
  Ga  Ga9  1  0.371457  0.128543  0.000000  1
