# generated using pymatgen
data_Tm8Ga(Pd3Pt5)3
_symmetry_space_group_name_H-M   'P 1'
_cell_length_a   8.33738736
_cell_length_b   8.33738672
_cell_length_c   8.33738700
_cell_angle_alpha   90.01689175
_cell_angle_beta   90.01689175
_cell_angle_gamma   89.98311015
_symmetry_Int_Tables_number   1
_chemical_formula_structural   Tm8Ga(Pd3Pt5)3
_chemical_formula_sum   'Tm8 Ga1 Pd9 Pt15'
_cell_volume   579.54855895
_cell_formula_units_Z   1
loop_
 _symmetry_equiv_pos_site_id
 _symmetry_equiv_pos_as_xyz
  1  'x, y, z'
loop_
 _atom_site_type_symbol
 _atom_site_label
 _atom_site_symmetry_multiplicity
 _atom_site_fract_x
 _atom_site_fract_y
 _atom_site_fract_z
 _atom_site_occupancy
  Tm  Tm0  1  0.252123  0.252123  0.747877  1
  Tm  Tm1  1  0.252021  0.747942  0.252058  1
  Tm  Tm2  1  0.747942  0.252021  0.252058  1
  Tm  Tm3  1  0.747942  0.747942  0.747979  1
  Tm  Tm4  1  0.748146  0.748146  0.251854  1
  Tm  Tm5  1  0.747909  0.252156  0.747844  1
  Tm  Tm6  1  0.252156  0.747909  0.747844  1
  Tm  Tm7  1  0.252156  0.252156  0.252091  1
  Ga  Ga8  1  0.000166  0.000166  0.999834  1
  Pd  Pd9  1  0.499729  0.499729  0.252963  1
  Pd  Pd10  1  0.499729  0.747037  0.500271  1
  Pd  Pd11  1  0.747037  0.499729  0.500271  1
  Pd  Pd12  1  0.999912  0.999912  0.708239  1
  Pd  Pd13  1  0.999912  0.291761  0.000088  1
  Pd  Pd14  1  0.291761  0.999912  0.000088  1
  Pd  Pd15  1  0.999876  0.999876  0.291389  1
  Pd  Pd16  1  0.999876  0.708611  0.000124  1
  Pd  Pd17  1  0.708611  0.999876  0.000124  1
  Pt  Pt18  1  0.499617  0.499617  0.747106  1
  Pt  Pt19  1  0.499617  0.252894  0.500383  1
  Pt  Pt20  1  0.252894  0.499617  0.500383  1
  Pt  Pt21  1  0.000150  0.500091  0.740266  1
  Pt  Pt22  1  0.500091  0.259734  0.999850  1
  Pt  Pt23  1  0.259734  0.000150  0.499909  1
  Pt  Pt24  1  0.000150  0.259734  0.499909  1
  Pt  Pt25  1  0.500091  0.000150  0.740266  1
  Pt  Pt26  1  0.259734  0.500091  0.999850  1
  Pt  Pt27  1  0.000266  0.500072  0.259878  1
  Pt  Pt28  1  0.500072  0.740122  0.999734  1
  Pt  Pt29  1  0.000266  0.740122  0.499928  1
  Pt  Pt30  1  0.500072  0.000266  0.259878  1
  Pt  Pt31  1  0.740122  0.000266  0.499928  1
  Pt  Pt32  1  0.740122  0.500072  0.999734  1
