# generated using pymatgen
data_LaTbTh7Se17
_symmetry_space_group_name_H-M   'P 1'
_cell_length_a   8.49383157
_cell_length_b   8.47979933
_cell_length_c   11.24713000
_cell_angle_alpha   80.63323778
_cell_angle_beta   80.61848926
_cell_angle_gamma   65.18031533
_symmetry_Int_Tables_number   1
_chemical_formula_structural   LaTbTh7Se17
_chemical_formula_sum   'La1 Tb1 Th7 Se17'
_cell_volume   721.39059326
_cell_formula_units_Z   1
loop_
 _symmetry_equiv_pos_site_id
 _symmetry_equiv_pos_as_xyz
  1  'x, y, z'
loop_
 _atom_site_type_symbol
 _atom_site_label
 _atom_site_symmetry_multiplicity
 _atom_site_fract_x
 _atom_site_fract_y
 _atom_site_fract_z
 _atom_site_occupancy
  La  La0  1  0.810797  0.305578  0.299797  1
  Tb  Tb1  1  0.998421  0.002077  0.001910  1
  Th  Th2  1  0.303347  0.812866  0.298765  1
  Th  Th3  1  0.186591  0.696869  0.699291  1
  Th  Th4  1  0.697416  0.187739  0.699599  1
  Th  Th5  1  0.206340  0.204380  0.537870  1
  Th  Th6  1  0.793751  0.792179  0.461551  1
  Th  Th7  1  0.681198  0.682693  0.980641  1
  Th  Th8  1  0.315673  0.319709  0.021133  1
  Se  Se9  1  0.825298  0.430888  0.538376  1
  Se  Se10  1  0.431588  0.819741  0.533261  1
  Se  Se11  1  0.178254  0.566607  0.467548  1
  Se  Se12  1  0.569030  0.171969  0.472041  1
  Se  Se13  1  0.943316  0.338231  0.033135  1
  Se  Se14  1  0.335095  0.944899  0.035825  1
  Se  Se15  1  0.057227  0.666286  0.959904  1
  Se  Se16  1  0.663547  0.059853  0.961410  1
  Se  Se17  1  0.218613  0.202752  0.277392  1
  Se  Se18  1  0.790852  0.791636  0.723585  1
  Se  Se19  1  0.066141  0.062580  0.760960  1
  Se  Se20  1  0.942537  0.925999  0.240569  1
  Se  Se21  1  0.304705  0.304132  0.752070  1
  Se  Se22  1  0.689032  0.706025  0.246148  1
  Se  Se23  1  0.519506  0.521629  0.831507  1
  Se  Se24  1  0.470197  0.488241  0.162502  1
  Se  Se25  1  0.001530  0.994445  0.503212  1
