# generated using pymatgen
data_La5Ga2GeP9Ir19
_symmetry_space_group_name_H-M   'P 1'
_cell_length_a   12.95772454
_cell_length_b   12.97496175
_cell_length_c   4.05963000
_cell_angle_alpha   90.00000000
_cell_angle_beta   90.00000000
_cell_angle_gamma   120.20120334
_symmetry_Int_Tables_number   1
_chemical_formula_structural   La5Ga2GeP9Ir19
_chemical_formula_sum   'La5 Ga2 Ge1 P9 Ir19'
_cell_volume   589.88564175
_cell_formula_units_Z   1
loop_
 _symmetry_equiv_pos_site_id
 _symmetry_equiv_pos_as_xyz
  1  'x, y, z'
loop_
 _atom_site_type_symbol
 _atom_site_label
 _atom_site_symmetry_multiplicity
 _atom_site_fract_x
 _atom_site_fract_y
 _atom_site_fract_z
 _atom_site_occupancy
  La  La0  1  0.002229  0.816012  0.500000  1
  La  La1  1  0.183017  0.185374  0.500000  1
  La  La2  1  0.814084  0.996871  0.500000  1
  La  La3  1  0.333676  0.668010  0.000000  1
  La  La4  1  0.666577  0.332355  0.000000  1
  Ga  Ga5  1  0.517281  0.678757  0.500000  1
  Ga  Ga6  1  0.322623  0.840898  0.500000  1
  Ge  Ge7  1  0.161153  0.482099  0.500000  1
  P  P8  1  0.994613  0.179275  0.000000  1
  P  P9  1  0.819708  0.814004  0.000000  1
  P  P10  1  0.184931  0.005342  0.000000  1
  P  P11  1  0.480111  0.176293  0.500000  1
  P  P12  1  0.696037  0.518237  0.500000  1
  P  P13  1  0.823979  0.304806  0.500000  1
  P  P14  1  0.006055  0.640608  0.000000  1
  P  P15  1  0.360781  0.367602  0.000000  1
  P  P16  1  0.633455  0.993874  0.000000  1
  Ir  Ir17  1  0.988446  0.274767  0.500000  1
  Ir  Ir18  1  0.723268  0.710099  0.500000  1
  Ir  Ir19  1  0.286162  0.011986  0.500000  1
  Ir  Ir20  1  0.634873  0.807024  0.000000  1
  Ir  Ir21  1  0.192565  0.826916  0.000000  1
  Ir  Ir22  1  0.171820  0.366613  0.000000  1
  Ir  Ir23  1  0.380695  0.189056  0.000000  1
  Ir  Ir24  1  0.804993  0.617238  0.000000  1
  Ir  Ir25  1  0.812267  0.193779  0.000000  1
  Ir  Ir26  1  0.532307  0.884329  0.500000  1
  Ir  Ir27  1  0.118576  0.645131  0.500000  1
  Ir  Ir28  1  0.352110  0.469088  0.500000  1
  Ir  Ir29  1  0.498320  0.367983  0.500000  1
  Ir  Ir30  1  0.870188  0.502669  0.500000  1
  Ir  Ir31  1  0.632168  0.131092  0.500000  1
  Ir  Ir32  1  0.999438  0.999821  0.000000  1
  Ir  Ir33  1  0.003402  0.461629  0.000000  1
  Ir  Ir34  1  0.542400  0.545136  0.000000  1
  Ir  Ir35  1  0.455691  0.995224  0.000000  1
