# generated using pymatgen
data_HoEr7Ti3Si16W9
_symmetry_space_group_name_H-M   'P 1'
_cell_length_a   6.87999948
_cell_length_b   6.88011320
_cell_length_c   12.75835537
_cell_angle_alpha   89.98246291
_cell_angle_beta   90.00970790
_cell_angle_gamma   89.84099090
_symmetry_Int_Tables_number   1
_chemical_formula_structural   HoEr7Ti3Si16W9
_chemical_formula_sum   'Ho1 Er7 Ti3 Si16 W9'
_cell_volume   603.91662443
_cell_formula_units_Z   1
loop_
 _symmetry_equiv_pos_site_id
 _symmetry_equiv_pos_as_xyz
  1  'x, y, z'
loop_
 _atom_site_type_symbol
 _atom_site_label
 _atom_site_symmetry_multiplicity
 _atom_site_fract_x
 _atom_site_fract_y
 _atom_site_fract_z
 _atom_site_occupancy
  Ho  Ho0  1  0.339270  0.001885  0.468645  1
  Er  Er1  1  0.497299  0.838135  0.719364  1
  Er  Er2  1  0.499159  0.161856  0.217555  1
  Er  Er3  1  0.838193  0.497299  0.280663  1
  Er  Er4  1  0.161857  0.499183  0.782433  1
  Er  Er5  1  0.659949  0.999574  0.968907  1
  Er  Er6  1  0.001687  0.339461  0.531271  1
  Er  Er7  1  0.999584  0.659964  0.031105  1
  Ti  Ti8  1  0.170210  0.831618  0.248531  1
  Ti  Ti9  1  0.831635  0.170246  0.751440  1
  Ti  Ti10  1  0.668936  0.668907  0.500021  1
  Si  Si11  1  0.200690  0.130182  0.682751  1
  Si  Si12  1  0.372437  0.698912  0.932844  1
  Si  Si13  1  0.629894  0.298764  0.432895  1
  Si  Si14  1  0.698918  0.372431  0.067133  1
  Si  Si15  1  0.298539  0.629390  0.567205  1
  Si  Si16  1  0.796857  0.870889  0.183312  1
  Si  Si17  1  0.129864  0.200945  0.317205  1
  Si  Si18  1  0.870900  0.796799  0.816684  1
  Si  Si19  1  0.289625  0.962741  0.062404  1
  Si  Si20  1  0.539715  0.792376  0.313820  1
  Si  Si21  1  0.459203  0.208415  0.814218  1
  Si  Si22  1  0.792577  0.539598  0.686068  1
  Si  Si23  1  0.208399  0.459257  0.185766  1
  Si  Si24  1  0.709057  0.040937  0.564127  1
  Si  Si25  1  0.962730  0.289643  0.937609  1
  Si  Si26  1  0.040677  0.708572  0.435935  1
  W  W27  1  0.331549  0.331569  0.999995  1
  W  W28  1  0.157897  0.002205  0.873463  1
  W  W29  1  0.495181  0.664988  0.124465  1
  W  W30  1  0.505399  0.340596  0.624772  1
  W  W31  1  0.665023  0.495201  0.875482  1
  W  W32  1  0.340472  0.505222  0.375327  1
  W  W33  1  0.840127  0.994336  0.374226  1
  W  W34  1  0.002162  0.157901  0.126497  1
  W  W35  1  0.994332  0.840007  0.625863  1
