# generated using pymatgen
data_Er20Bi5Pt4Pb3
_symmetry_space_group_name_H-M   'P 1'
_cell_length_a   7.95758913
_cell_length_b   9.01855660
_cell_length_c   12.32993106
_cell_angle_alpha   90.15859691
_cell_angle_beta   90.01271767
_cell_angle_gamma   90.01667876
_symmetry_Int_Tables_number   1
_chemical_formula_structural   Er20Bi5Pt4Pb3
_chemical_formula_sum   'Er20 Bi5 Pt4 Pb3'
_cell_volume   884.86598913
_cell_formula_units_Z   1
loop_
 _symmetry_equiv_pos_site_id
 _symmetry_equiv_pos_as_xyz
  1  'x, y, z'
loop_
 _atom_site_type_symbol
 _atom_site_label
 _atom_site_symmetry_multiplicity
 _atom_site_fract_x
 _atom_site_fract_y
 _atom_site_fract_z
 _atom_site_occupancy
  Er  Er0  1  0.666397  0.754272  0.711412  1
  Er  Er1  1  0.332629  0.247996  0.289528  1
  Er  Er2  1  0.165857  0.245504  0.787524  1
  Er  Er3  1  0.835833  0.752126  0.211583  1
  Er  Er4  1  0.129659  0.754693  0.802082  1
  Er  Er5  1  0.873549  0.247389  0.198442  1
  Er  Er6  1  0.630434  0.245554  0.698293  1
  Er  Er7  1  0.367111  0.752809  0.302997  1
  Er  Er8  1  0.547095  0.752507  0.998887  1
  Er  Er9  1  0.450722  0.247697  0.998076  1
  Er  Er10  1  0.046459  0.245156  0.499814  1
  Er  Er11  1  0.952745  0.754808  0.500146  1
  Er  Er12  1  0.822735  0.455700  0.932671  1
  Er  Er13  1  0.177673  0.544139  0.067133  1
  Er  Er14  1  0.322431  0.543342  0.567289  1
  Er  Er15  1  0.176435  0.956200  0.068401  1
  Er  Er16  1  0.676860  0.456250  0.432943  1
  Er  Er17  1  0.822666  0.042774  0.929352  1
  Er  Er18  1  0.680467  0.042638  0.434368  1
  Er  Er19  1  0.320877  0.957655  0.568685  1
  Bi  Bi20  1  0.066422  0.509298  0.328214  1
  Bi  Bi21  1  0.566988  0.010451  0.172901  1
  Bi  Bi22  1  0.933879  0.491098  0.672386  1
  Bi  Bi23  1  0.566565  0.490420  0.172429  1
  Bi  Bi24  1  0.433567  0.509305  0.826767  1
  Pt  Pt25  1  0.926681  0.749209  0.989525  1
  Pt  Pt26  1  0.073505  0.250709  0.010674  1
  Pt  Pt27  1  0.428037  0.250509  0.510694  1
  Pt  Pt28  1  0.571734  0.749267  0.488961  1
  Pb  Pb29  1  0.933704  0.009106  0.672482  1
  Pb  Pb30  1  0.066192  0.990813  0.327070  1
  Pb  Pb31  1  0.434091  0.990607  0.828273  1
