# generated using pymatgen
data_K4Zr6FeCl18
_symmetry_space_group_name_H-M   'P 1'
_cell_length_a   10.12535932
_cell_length_b   10.26037085
_cell_length_c   10.35435892
_cell_angle_alpha   118.46719571
_cell_angle_beta   100.20054655
_cell_angle_gamma   103.68863700
_symmetry_Int_Tables_number   1
_chemical_formula_structural   K4Zr6FeCl18
_chemical_formula_sum   'K4 Zr6 Fe1 Cl18'
_cell_volume   864.25030803
_cell_formula_units_Z   1
loop_
 _symmetry_equiv_pos_site_id
 _symmetry_equiv_pos_as_xyz
  1  'x, y, z'
loop_
 _atom_site_type_symbol
 _atom_site_label
 _atom_site_symmetry_multiplicity
 _atom_site_fract_x
 _atom_site_fract_y
 _atom_site_fract_z
 _atom_site_occupancy
  K  K0  1  0.652239  0.537119  0.226775  1
  K  K1  1  0.347761  0.462881  0.773225  1
  K  K2  1  0.686437  0.225090  0.563455  1
  K  K3  1  0.313563  0.774910  0.436545  1
  Zr  Zr4  1  0.159155  0.059766  0.243969  1
  Zr  Zr5  1  0.840845  0.940234  0.756031  1
  Zr  Zr6  1  0.852791  0.133624  0.140058  1
  Zr  Zr7  1  0.147209  0.866376  0.859942  1
  Zr  Zr8  1  0.152440  0.252093  0.046683  1
  Zr  Zr9  1  0.847560  0.747907  0.953317  1
  Fe  Fe10  1  0.000000  0.000000  0.000000  1
  Cl  Cl11  1  0.008630  0.409965  0.197775  1
  Cl  Cl12  1  0.991370  0.590035  0.802225  1
  Cl  Cl13  1  0.327209  0.333033  0.310464  1
  Cl  Cl14  1  0.672791  0.666967  0.689536  1
  Cl  Cl15  1  0.327782  0.524794  0.102052  1
  Cl  Cl16  1  0.672218  0.475206  0.897948  1
  Cl  Cl17  1  0.005503  0.796123  0.210252  1
  Cl  Cl18  1  0.994497  0.203877  0.789748  1
  Cl  Cl19  1  0.701379  0.281189  0.293892  1
  Cl  Cl20  1  0.298621  0.718811  0.706108  1
  Cl  Cl21  1  0.315477  0.126895  0.902211  1
  Cl  Cl22  1  0.684523  0.873105  0.097789  1
  Cl  Cl23  1  0.014678  0.204291  0.407776  1
  Cl  Cl24  1  0.985322  0.795709  0.592224  1
  Cl  Cl25  1  0.319818  0.920880  0.109946  1
  Cl  Cl26  1  0.680182  0.079120  0.890054  1
  Cl  Cl27  1  0.338669  0.122258  0.506009  1
  Cl  Cl28  1  0.661331  0.877742  0.493991  1
