# generated using pymatgen
data_Sm5P12Pd2Ru17
_symmetry_space_group_name_H-M   'P 1'
_cell_length_a   12.59923556
_cell_length_b   12.72308180
_cell_length_c   4.00894300
_cell_angle_alpha   90.00000000
_cell_angle_beta   90.00000000
_cell_angle_gamma   120.32569851
_symmetry_Int_Tables_number   1
_chemical_formula_structural   Sm5P12Pd2Ru17
_chemical_formula_sum   'Sm5 P12 Pd2 Ru17'
_cell_volume   554.70530268
_cell_formula_units_Z   1
loop_
 _symmetry_equiv_pos_site_id
 _symmetry_equiv_pos_as_xyz
  1  'x, y, z'
loop_
 _atom_site_type_symbol
 _atom_site_label
 _atom_site_symmetry_multiplicity
 _atom_site_fract_x
 _atom_site_fract_y
 _atom_site_fract_z
 _atom_site_occupancy
  Sm  Sm0  1  0.182437  0.181929  0.500000  1
  Sm  Sm1  1  0.817563  0.999493  0.500000  1
  Sm  Sm2  1  0.000000  0.816182  0.500000  1
  Sm  Sm3  1  0.328474  0.664193  0.000000  1
  Sm  Sm4  1  0.671526  0.335718  0.000000  1
  P  P5  1  0.811185  0.812423  0.000000  1
  P  P6  1  0.188815  0.001237  0.000000  1
  P  P7  1  0.000000  0.184333  0.000000  1
  P  P8  1  0.169966  0.476489  0.500000  1
  P  P9  1  0.518715  0.699749  0.500000  1
  P  P10  1  0.298829  0.822634  0.500000  1
  P  P11  1  0.701171  0.523806  0.500000  1
  P  P12  1  0.830034  0.306523  0.500000  1
  P  P13  1  0.481285  0.181035  0.500000  1
  P  P14  1  0.367516  0.367168  0.000000  1
  P  P15  1  0.632484  0.999652  0.000000  1
  P  P16  1  0.000000  0.624605  0.000000  1
  Pd  Pd17  1  0.552752  0.553032  0.000000  1
  Pd  Pd18  1  0.447248  0.000280  0.000000  1
  Ru  Ru19  1  0.000000  0.444433  0.000000  1
  Ru  Ru20  1  0.711095  0.712917  0.500000  1
  Ru  Ru21  1  0.288905  0.001822  0.500000  1
  Ru  Ru22  1  0.000000  0.283155  0.500000  1
  Ru  Ru23  1  0.184866  0.377265  0.000000  1
  Ru  Ru24  1  0.618318  0.805265  0.000000  1
  Ru  Ru25  1  0.192189  0.815347  0.000000  1
  Ru  Ru26  1  0.807811  0.623158  0.000000  1
  Ru  Ru27  1  0.815134  0.192398  0.000000  1
  Ru  Ru28  1  0.381682  0.186947  0.000000  1
  Ru  Ru29  1  0.366011  0.493160  0.500000  1
  Ru  Ru30  1  0.507754  0.878098  0.500000  1
  Ru  Ru31  1  0.123333  0.631712  0.500000  1
  Ru  Ru32  1  0.876667  0.508379  0.500000  1
  Ru  Ru33  1  0.633989  0.127149  0.500000  1
  Ru  Ru34  1  0.492246  0.370344  0.500000  1
  Ru  Ru35  1  0.000000  0.997968  0.000000  1
