# generated using pymatgen
data_DyTmLu14(In3Co)2
_symmetry_space_group_name_H-M   'P 1'
_cell_length_a   10.15902400
_cell_length_b   10.15978587
_cell_length_c   6.89145600
_cell_angle_alpha   89.99981052
_cell_angle_beta   90.00000000
_cell_angle_gamma   119.99752595
_symmetry_Int_Tables_number   1
_chemical_formula_structural   DyTmLu14(In3Co)2
_chemical_formula_sum   'Dy1 Tm1 Lu14 In6 Co2'
_cell_volume   616.01173669
_cell_formula_units_Z   1
loop_
 _symmetry_equiv_pos_site_id
 _symmetry_equiv_pos_as_xyz
  1  'x, y, z'
loop_
 _atom_site_type_symbol
 _atom_site_label
 _atom_site_symmetry_multiplicity
 _atom_site_fract_x
 _atom_site_fract_y
 _atom_site_fract_z
 _atom_site_occupancy
  Dy  Dy0  1  0.000013  0.000025  0.001082  1
  Tm  Tm1  1  0.533982  0.067964  0.512561  1
  Lu  Lu2  1  0.931761  0.465922  0.512748  1
  Lu  Lu3  1  0.534161  0.465922  0.512748  1
  Lu  Lu4  1  0.465625  0.931251  0.012776  1
  Lu  Lu5  1  0.068581  0.534260  0.012820  1
  Lu  Lu6  1  0.465679  0.534260  0.012820  1
  Lu  Lu7  1  0.179312  0.358625  0.719442  1
  Lu  Lu8  1  0.641596  0.820546  0.719654  1
  Lu  Lu9  1  0.178950  0.820546  0.719654  1
  Lu  Lu10  1  0.820701  0.641402  0.220716  1
  Lu  Lu11  1  0.358346  0.179386  0.220429  1
  Lu  Lu12  1  0.821039  0.179386  0.220429  1
  Lu  Lu13  1  0.666798  0.333595  0.903131  1
  Lu  Lu14  1  0.333204  0.666409  0.403987  1
  Lu  Lu15  1  0.000009  0.000017  0.500756  1
  In  In16  1  0.836627  0.673254  0.758294  1
  In  In17  1  0.326482  0.163390  0.758528  1
  In  In18  1  0.836909  0.163390  0.758528  1
  In  In19  1  0.163278  0.326556  0.261744  1
  In  In20  1  0.673432  0.836720  0.261637  1
  In  In21  1  0.163289  0.836720  0.261637  1
  Co  Co22  1  0.666882  0.333762  0.288089  1
  Co  Co23  1  0.333346  0.666692  0.789988  1
