# generated using pymatgen
data_Li7Tc13Ge16
_symmetry_space_group_name_H-M   'P 1'
_cell_length_a   6.52151757
_cell_length_b   6.78883200
_cell_length_c   12.47914373
_cell_angle_alpha   89.80562365
_cell_angle_beta   90.10403450
_cell_angle_gamma   90.17359719
_symmetry_Int_Tables_number   1
_chemical_formula_structural   Li7Tc13Ge16
_chemical_formula_sum   'Li7 Tc13 Ge16'
_cell_volume   552.48859490
_cell_formula_units_Z   1
loop_
 _symmetry_equiv_pos_site_id
 _symmetry_equiv_pos_as_xyz
  1  'x, y, z'
loop_
 _atom_site_type_symbol
 _atom_site_label
 _atom_site_symmetry_multiplicity
 _atom_site_fract_x
 _atom_site_fract_y
 _atom_site_fract_z
 _atom_site_occupancy
  Li  Li0  1  0.974119  0.819882  0.917257  1
  Li  Li1  1  0.530826  0.320899  0.082580  1
  Li  Li2  1  0.026056  0.178639  0.416209  1
  Li  Li3  1  0.521164  0.332925  0.417585  1
  Li  Li4  1  0.026284  0.171454  0.084100  1
  Li  Li5  1  0.473112  0.667845  0.920940  1
  Li  Li6  1  0.966203  0.821574  0.584268  1
  Tc  Tc7  1  0.672562  0.148873  0.628106  1
  Tc  Tc8  1  0.174443  0.345861  0.869911  1
  Tc  Tc9  1  0.327317  0.842217  0.129113  1
  Tc  Tc10  1  0.823136  0.657893  0.370681  1
  Tc  Tc11  1  0.331559  0.843011  0.371733  1
  Tc  Tc12  1  0.829925  0.657720  0.128786  1
  Tc  Tc13  1  0.668441  0.154390  0.869560  1
  Tc  Tc14  1  0.169580  0.340210  0.626386  1
  Tc  Tc15  1  0.491469  0.709323  0.585664  1
  Tc  Tc16  1  0.840038  0.492891  0.747789  1
  Tc  Tc17  1  0.337861  0.001251  0.750593  1
  Tc  Tc18  1  0.161335  0.503308  0.252507  1
  Tc  Tc19  1  0.660575  0.993168  0.249269  1
  Ge  Ge20  1  0.682346  0.966838  0.453955  1
  Ge  Ge21  1  0.180443  0.533296  0.046745  1
  Ge  Ge22  1  0.317881  0.035828  0.954236  1
  Ge  Ge23  1  0.804458  0.463854  0.544808  1
  Ge  Ge24  1  0.317356  0.041706  0.542141  1
  Ge  Ge25  1  0.822212  0.460155  0.954596  1
  Ge  Ge26  1  0.679861  0.962424  0.044000  1
  Ge  Ge27  1  0.181582  0.539062  0.457483  1
  Ge  Ge28  1  0.475101  0.394790  0.745227  1
  Ge  Ge29  1  0.975982  0.107654  0.752522  1
  Ge  Ge30  1  0.525167  0.603416  0.246701  1
  Ge  Ge31  1  0.026454  0.892882  0.250280  1
  Ge  Ge32  1  0.683315  0.827641  0.755516  1
  Ge  Ge33  1  0.184096  0.668887  0.748181  1
  Ge  Ge34  1  0.319258  0.168475  0.250757  1
  Ge  Ge35  1  0.818485  0.329761  0.249817  1
