# generated using pymatgen
data_TmLu(BiRh)2
_symmetry_space_group_name_H-M   'P 1'
_cell_length_a   4.67042000
_cell_length_b   6.63186100
_cell_length_c   9.34188700
_cell_angle_alpha   90.00000000
_cell_angle_beta   90.00000000
_cell_angle_gamma   90.00000000
_symmetry_Int_Tables_number   1
_chemical_formula_structural   TmLu(BiRh)2
_chemical_formula_sum   'Tm2 Lu2 Bi4 Rh4'
_cell_volume   289.35164933
_cell_formula_units_Z   2
loop_
 _symmetry_equiv_pos_site_id
 _symmetry_equiv_pos_as_xyz
  1  'x, y, z'
loop_
 _atom_site_type_symbol
 _atom_site_label
 _atom_site_symmetry_multiplicity
 _atom_site_fract_x
 _atom_site_fract_y
 _atom_site_fract_z
 _atom_site_occupancy
  Tm  Tm0  1  0.500002  0.495952  0.124187  1
  Tm  Tm1  1  0.000000  0.995951  0.875812  1
  Lu  Lu2  1  0.000000  0.004310  0.374547  1
  Lu  Lu3  1  0.500002  0.504309  0.625453  1
  Bi  Bi4  1  0.500002  0.997469  0.126320  1
  Bi  Bi5  1  0.000000  0.502895  0.375955  1
  Bi  Bi6  1  0.500002  0.002894  0.624043  1
  Bi  Bi7  1  0.000000  0.497470  0.873679  1
  Rh  Rh8  1  0.000000  0.747846  0.126319  1
  Rh  Rh9  1  0.500002  0.251524  0.376491  1
  Rh  Rh10  1  0.000000  0.751523  0.623509  1
  Rh  Rh11  1  0.500002  0.247847  0.873680  1
