# generated using pymatgen
data_La20CoRe3Sb8
_symmetry_space_group_name_H-M   'P 1'
_cell_length_a   8.44854723
_cell_length_b   9.27323800
_cell_length_c   12.87033066
_cell_angle_alpha   90.00000000
_cell_angle_beta   90.17854663
_cell_angle_gamma   90.00000000
_symmetry_Int_Tables_number   1
_chemical_formula_structural   La20CoRe3Sb8
_chemical_formula_sum   'La20 Co1 Re3 Sb8'
_cell_volume   1008.32616915
_cell_formula_units_Z   1
loop_
 _symmetry_equiv_pos_site_id
 _symmetry_equiv_pos_as_xyz
  1  'x, y, z'
loop_
 _atom_site_type_symbol
 _atom_site_label
 _atom_site_symmetry_multiplicity
 _atom_site_fract_x
 _atom_site_fract_y
 _atom_site_fract_z
 _atom_site_occupancy
  La  La0  1  0.152487  0.750000  0.203110  1
  La  La1  1  0.654820  0.250000  0.291809  1
  La  La2  1  0.848672  0.250000  0.795543  1
  La  La3  1  0.349486  0.750000  0.702535  1
  La  La4  1  0.447335  0.750000  0.995927  1
  La  La5  1  0.948695  0.250000  0.502275  1
  La  La6  1  0.547396  0.250000  0.003102  1
  La  La7  1  0.044265  0.750000  0.497526  1
  La  La8  1  0.626234  0.750000  0.301862  1
  La  La9  1  0.125188  0.250000  0.195647  1
  La  La10  1  0.375994  0.250000  0.697944  1
  La  La11  1  0.874749  0.750000  0.805672  1
  La  La12  1  0.819376  0.966275  0.064977  1
  La  La13  1  0.320288  0.031507  0.435714  1
  La  La14  1  0.182935  0.470542  0.935781  1
  La  La15  1  0.680648  0.533804  0.564870  1
  La  La16  1  0.182935  0.029458  0.935781  1
  La  La17  1  0.680648  0.966196  0.564870  1
  La  La18  1  0.819376  0.533725  0.064977  1
  La  La19  1  0.320288  0.468493  0.435714  1
  Co  Co20  1  0.079911  0.750000  0.987798  1
  Re  Re21  1  0.413380  0.750000  0.483977  1
  Re  Re22  1  0.919851  0.250000  0.015633  1
  Re  Re23  1  0.583471  0.250000  0.516869  1
  Sb  Sb24  1  0.927157  0.993649  0.326799  1
  Sb  Sb25  1  0.427296  0.004542  0.171667  1
  Sb  Sb26  1  0.072438  0.495002  0.673649  1
  Sb  Sb27  1  0.573893  0.506307  0.827929  1
  Sb  Sb28  1  0.072438  0.004998  0.673649  1
  Sb  Sb29  1  0.573893  0.993693  0.827929  1
  Sb  Sb30  1  0.927157  0.506351  0.326799  1
  Sb  Sb31  1  0.427296  0.495458  0.171667  1
