# generated using pymatgen
data_DyY4Lu5(Si5Ir2)4
_symmetry_space_group_name_H-M   'P 1'
_cell_length_a   12.59024208
_cell_length_b   12.59024204
_cell_length_c   4.23566000
_cell_angle_alpha   90.00000000
_cell_angle_beta   90.00000000
_cell_angle_gamma   89.98315291
_symmetry_Int_Tables_number   1
_chemical_formula_structural   DyY4Lu5(Si5Ir2)4
_chemical_formula_sum   'Dy1 Y4 Lu5 Si20 Ir8'
_cell_volume   671.41220668
_cell_formula_units_Z   1
loop_
 _symmetry_equiv_pos_site_id
 _symmetry_equiv_pos_as_xyz
  1  'x, y, z'
loop_
 _atom_site_type_symbol
 _atom_site_label
 _atom_site_symmetry_multiplicity
 _atom_site_fract_x
 _atom_site_fract_y
 _atom_site_fract_z
 _atom_site_occupancy
  Dy  Dy0  1  0.823445  0.676555  0.500000  1
  Y  Y1  1  0.883746  0.383523  0.500000  1
  Y  Y2  1  0.116477  0.616254  0.500000  1
  Y  Y3  1  0.383844  0.116156  0.500000  1
  Y  Y4  1  0.615705  0.884295  0.500000  1
  Lu  Lu5  1  0.499892  0.500173  0.000000  1
  Lu  Lu6  1  0.999827  0.000108  0.000000  1
  Lu  Lu7  1  0.676333  0.175593  0.500000  1
  Lu  Lu8  1  0.324407  0.823667  0.500000  1
  Lu  Lu9  1  0.176165  0.323835  0.500000  1
  Si  Si10  1  0.566155  0.066609  0.000000  1
  Si  Si11  1  0.433391  0.933845  0.000000  1
  Si  Si12  1  0.066744  0.433256  0.000000  1
  Si  Si13  1  0.934309  0.565691  0.000000  1
  Si  Si14  1  0.662232  0.701204  0.000000  1
  Si  Si15  1  0.336613  0.298959  0.000000  1
  Si  Si16  1  0.163998  0.799356  0.000000  1
  Si  Si17  1  0.836669  0.201165  0.000000  1
  Si  Si18  1  0.298835  0.663331  0.000000  1
  Si  Si19  1  0.700644  0.336002  0.000000  1
  Si  Si20  1  0.201041  0.163387  0.000000  1
  Si  Si21  1  0.798796  0.837768  0.000000  1
  Si  Si22  1  0.654057  0.502011  0.500000  1
  Si  Si23  1  0.345224  0.496052  0.500000  1
  Si  Si24  1  0.154253  0.995960  0.500000  1
  Si  Si25  1  0.845163  0.003385  0.500000  1
  Si  Si26  1  0.496615  0.654837  0.500000  1
  Si  Si27  1  0.504040  0.345747  0.500000  1
  Si  Si28  1  0.003948  0.154776  0.500000  1
  Si  Si29  1  0.997989  0.845943  0.500000  1
  Ir  Ir30  1  0.743757  0.521030  0.000000  1
  Ir  Ir31  1  0.255418  0.477532  0.000000  1
  Ir  Ir32  1  0.244835  0.978076  0.000000  1
  Ir  Ir33  1  0.755107  0.023031  0.000000  1
  Ir  Ir34  1  0.476969  0.744893  0.000000  1
  Ir  Ir35  1  0.521924  0.255165  0.000000  1
  Ir  Ir36  1  0.022468  0.244582  0.000000  1
  Ir  Ir37  1  0.978970  0.756243  0.000000  1
