# generated using pymatgen
data_DyScSb5
_symmetry_space_group_name_H-M   'P 1'
_cell_length_a   4.20011700
_cell_length_b   13.06565950
_cell_length_c   14.22545731
_cell_angle_alpha   78.96384427
_cell_angle_beta   90.00000000
_cell_angle_gamma   90.00000000
_symmetry_Int_Tables_number   1
_chemical_formula_structural   DyScSb5
_chemical_formula_sum   'Dy4 Sc4 Sb20'
_cell_volume   766.21769424
_cell_formula_units_Z   4
loop_
 _symmetry_equiv_pos_site_id
 _symmetry_equiv_pos_as_xyz
  1  'x, y, z'
loop_
 _atom_site_type_symbol
 _atom_site_label
 _atom_site_symmetry_multiplicity
 _atom_site_fract_x
 _atom_site_fract_y
 _atom_site_fract_z
 _atom_site_occupancy
  Dy  Dy0  1  0.250000  0.668889  0.576387  1
  Dy  Dy1  1  0.750000  0.331111  0.423613  1
  Dy  Dy2  1  0.250000  0.953494  0.354841  1
  Dy  Dy3  1  0.750000  0.046506  0.645159  1
  Sc  Sc4  1  0.250000  0.396361  0.773026  1
  Sc  Sc5  1  0.750000  0.603639  0.226974  1
  Sc  Sc6  1  0.250000  0.657662  0.858814  1
  Sc  Sc7  1  0.750000  0.342338  0.141186  1
  Sb  Sb8  1  0.250000  0.147865  0.780761  1
  Sb  Sb9  1  0.750000  0.852135  0.219239  1
  Sb  Sb10  1  0.250000  0.143100  0.483029  1
  Sb  Sb11  1  0.750000  0.856900  0.516971  1
  Sb  Sb12  1  0.250000  0.163121  0.161097  1
  Sb  Sb13  1  0.750000  0.836879  0.838903  1
  Sb  Sb14  1  0.250000  0.422189  0.975304  1
  Sb  Sb15  1  0.750000  0.577811  0.024696  1
  Sb  Sb16  1  0.750000  0.028188  0.913411  1
  Sb  Sb17  1  0.250000  0.971812  0.086589  1
  Sb  Sb18  1  0.750000  0.142881  0.315627  1
  Sb  Sb19  1  0.250000  0.857119  0.684373  1
  Sb  Sb20  1  0.750000  0.279879  0.936601  1
  Sb  Sb21  1  0.250000  0.720121  0.063399  1
  Sb  Sb22  1  0.750000  0.289333  0.659106  1
  Sb  Sb23  1  0.250000  0.710667  0.340894  1
  Sb  Sb24  1  0.750000  0.573283  0.741347  1
  Sb  Sb25  1  0.250000  0.426717  0.258653  1
  Sb  Sb26  1  0.750000  0.570666  0.443691  1
  Sb  Sb27  1  0.250000  0.429334  0.556309  1
