# generated using pymatgen
data_VOsI18
_symmetry_space_group_name_H-M   'P 1'
_cell_length_a   10.06425069
_cell_length_b   10.06425110
_cell_length_c   10.06425273
_cell_angle_alpha   94.55979871
_cell_angle_beta   94.55980352
_cell_angle_gamma   94.55980585
_symmetry_Int_Tables_number   1
_chemical_formula_structural   VOsI18
_chemical_formula_sum   'V1 Os1 I18'
_cell_volume   1009.17186694
_cell_formula_units_Z   1
loop_
 _symmetry_equiv_pos_site_id
 _symmetry_equiv_pos_as_xyz
  1  'x, y, z'
loop_
 _atom_site_type_symbol
 _atom_site_label
 _atom_site_symmetry_multiplicity
 _atom_site_fract_x
 _atom_site_fract_y
 _atom_site_fract_z
 _atom_site_occupancy
  V  V0  1  0.000000  0.000000  0.000000  1
  Os  Os1  1  0.500000  0.500000  0.500000  1
  I  I2  1  0.735172  0.135776  0.613466  1
  I  I3  1  0.972198  0.010967  0.726690  1
  I  I4  1  0.613466  0.735172  0.135776  1
  I  I5  1  0.989033  0.273310  0.027802  1
  I  I6  1  0.726690  0.972198  0.010967  1
  I  I7  1  0.010967  0.726690  0.972198  1
  I  I8  1  0.027802  0.989033  0.273310  1
  I  I9  1  0.864224  0.386534  0.264828  1
  I  I10  1  0.273310  0.027802  0.989033  1
  I  I11  1  0.264828  0.864224  0.386534  1
  I  I12  1  0.135776  0.613466  0.735172  1
  I  I13  1  0.386534  0.264828  0.864224  1
  I  I14  1  0.767612  0.535054  0.497884  1
  I  I15  1  0.535054  0.497884  0.767612  1
  I  I16  1  0.232388  0.464946  0.502116  1
  I  I17  1  0.464946  0.502116  0.232388  1
  I  I18  1  0.497884  0.767612  0.535054  1
  I  I19  1  0.502116  0.232388  0.464946  1
