# generated using pymatgen
data_CsRbAs2RuRh
_symmetry_space_group_name_H-M   'P 1'
_cell_length_a   4.14752100
_cell_length_b   4.15695700
_cell_length_c   11.84076300
_cell_angle_alpha   90.00000000
_cell_angle_beta   90.00000000
_cell_angle_gamma   90.00000000
_symmetry_Int_Tables_number   1
_chemical_formula_structural   CsRbAs2RuRh
_chemical_formula_sum   'Cs1 Rb1 As2 Ru1 Rh1'
_cell_volume   204.14738174
_cell_formula_units_Z   1
loop_
 _symmetry_equiv_pos_site_id
 _symmetry_equiv_pos_as_xyz
  1  'x, y, z'
loop_
 _atom_site_type_symbol
 _atom_site_label
 _atom_site_symmetry_multiplicity
 _atom_site_fract_x
 _atom_site_fract_y
 _atom_site_fract_z
 _atom_site_occupancy
  Cs  Cs0  1  0.000000  0.500000  0.286326  1
  Rb  Rb1  1  0.500000  0.000000  0.724360  1
  As  As2  1  0.500000  0.000000  0.107418  1
  As  As3  1  0.000000  0.500000  0.887165  1
  Ru  Ru4  1  0.500000  0.500000  0.997804  1
  Rh  Rh5  1  0.000000  0.000000  0.996928  1
