# generated using pymatgen
data_CsP2OsRh
_symmetry_space_group_name_H-M   'P 1'
_cell_length_a   7.78027698
_cell_length_b   7.78027754
_cell_length_c   7.78027633
_cell_angle_alpha   150.19962275
_cell_angle_beta   150.19962920
_cell_angle_gamma   42.64845170
_symmetry_Int_Tables_number   1
_chemical_formula_structural   CsP2OsRh
_chemical_formula_sum   'Cs1 P2 Os1 Rh1'
_cell_volume   116.03022091
_cell_formula_units_Z   1
loop_
 _symmetry_equiv_pos_site_id
 _symmetry_equiv_pos_as_xyz
  1  'x, y, z'
loop_
 _atom_site_type_symbol
 _atom_site_label
 _atom_site_symmetry_multiplicity
 _atom_site_fract_x
 _atom_site_fract_y
 _atom_site_fract_z
 _atom_site_occupancy
  Cs  Cs0  1  0.000000  0.000000  0.000000  1
  P  P1  1  0.334461  0.334461  0.000000  1
  P  P2  1  0.665539  0.665539  0.000000  1
  Os  Os3  1  0.750000  0.250000  0.500000  1
  Rh  Rh4  1  0.250000  0.750000  0.500000  1
