# generated using pymatgen
data_DyPu3(NbN2)4
_symmetry_space_group_name_H-M   'P 1'
_cell_length_a   3.29624500
_cell_length_b   5.68935725
_cell_length_c   10.98298745
_cell_angle_alpha   89.96666245
_cell_angle_beta   90.00000000
_cell_angle_gamma   90.00000000
_symmetry_Int_Tables_number   1
_chemical_formula_structural   DyPu3(NbN2)4
_chemical_formula_sum   'Dy1 Pu3 Nb4 N8'
_cell_volume   205.96958924
_cell_formula_units_Z   1
loop_
 _symmetry_equiv_pos_site_id
 _symmetry_equiv_pos_as_xyz
  1  'x, y, z'
loop_
 _atom_site_type_symbol
 _atom_site_label
 _atom_site_symmetry_multiplicity
 _atom_site_fract_x
 _atom_site_fract_y
 _atom_site_fract_z
 _atom_site_occupancy
  Dy  Dy0  1  0.250000  0.082575  0.642120  1
  Pu  Pu1  1  0.250000  0.580273  0.859808  1
  Pu  Pu2  1  0.750000  0.418499  0.140054  1
  Pu  Pu3  1  0.750000  0.920580  0.359575  1
  Nb  Nb4  1  0.250000  0.917651  0.103449  1
  Nb  Nb5  1  0.750000  0.081087  0.895158  1
  Nb  Nb6  1  0.750000  0.583018  0.603861  1
  Nb  Nb7  1  0.250000  0.418298  0.396478  1
  N  N8  1  0.250000  0.655952  0.244300  1
  N  N9  1  0.750000  0.343994  0.755219  1
  N  N10  1  0.750000  0.840870  0.744968  1
  N  N11  1  0.250000  0.155195  0.256125  1
  N  N12  1  0.250000  0.752421  0.506234  1
  N  N13  1  0.750000  0.250934  0.493301  1
  N  N14  1  0.750000  0.744949  0.005511  1
  N  N15  1  0.250000  0.253703  0.993839  1
