# generated using pymatgen
data_ThFeAs2Pd
_symmetry_space_group_name_H-M   'P 1'
_cell_length_a   4.30715200
_cell_length_b   4.30715200
_cell_length_c   9.58084900
_cell_angle_alpha   90.00000000
_cell_angle_beta   90.00000000
_cell_angle_gamma   90.00000000
_symmetry_Int_Tables_number   1
_chemical_formula_structural   ThFeAs2Pd
_chemical_formula_sum   'Th2 Fe2 As4 Pd2'
_cell_volume   177.73967928
_cell_formula_units_Z   2
loop_
 _symmetry_equiv_pos_site_id
 _symmetry_equiv_pos_as_xyz
  1  'x, y, z'
loop_
 _atom_site_type_symbol
 _atom_site_label
 _atom_site_symmetry_multiplicity
 _atom_site_fract_x
 _atom_site_fract_y
 _atom_site_fract_z
 _atom_site_occupancy
  Th  Th0  1  0.000000  0.500000  0.738112  1
  Th  Th1  1  0.500000  0.000000  0.261888  1
  Fe  Fe2  1  0.000000  0.500000  0.394665  1
  Fe  Fe3  1  0.500000  0.000000  0.605335  1
  As  As4  1  0.500000  0.000000  0.844460  1
  As  As5  1  0.000000  0.500000  0.155540  1
  As  As6  1  0.000000  0.000000  0.500000  1
  As  As7  1  0.500000  0.500000  0.500000  1
  Pd  Pd8  1  0.500000  0.500000  0.000000  1
  Pd  Pd9  1  0.000000  0.000000  0.000000  1
