# generated using pymatgen
data_La11Nd(CoGe2)4
_symmetry_space_group_name_H-M   'P 1'
_cell_length_a   4.31243100
_cell_length_b   11.68552415
_cell_length_c   12.14547879
_cell_angle_alpha   90.21756075
_cell_angle_beta   90.00000000
_cell_angle_gamma   90.00000000
_symmetry_Int_Tables_number   1
_chemical_formula_structural   La11Nd(CoGe2)4
_chemical_formula_sum   'La11 Nd1 Co4 Ge8'
_cell_volume   612.04290224
_cell_formula_units_Z   1
loop_
 _symmetry_equiv_pos_site_id
 _symmetry_equiv_pos_as_xyz
  1  'x, y, z'
loop_
 _atom_site_type_symbol
 _atom_site_label
 _atom_site_symmetry_multiplicity
 _atom_site_fract_x
 _atom_site_fract_y
 _atom_site_fract_z
 _atom_site_occupancy
  La  La0  1  0.250000  0.369729  0.054862  1
  La  La1  1  0.750000  0.628817  0.944673  1
  La  La2  1  0.750000  0.872105  0.444638  1
  La  La3  1  0.250000  0.128698  0.556830  1
  La  La4  1  0.250000  0.699943  0.222484  1
  La  La5  1  0.750000  0.298553  0.777311  1
  La  La6  1  0.750000  0.199888  0.276723  1
  La  La7  1  0.250000  0.800478  0.722166  1
  La  La8  1  0.250000  0.444643  0.382066  1
  La  La9  1  0.750000  0.555302  0.617986  1
  La  La10  1  0.750000  0.944290  0.117525  1
  Nd  Nd11  1  0.250000  0.054509  0.883315  1
  Co  Co12  1  0.250000  0.134848  0.130570  1
  Co  Co13  1  0.750000  0.863863  0.868718  1
  Co  Co14  1  0.750000  0.636273  0.368392  1
  Co  Co15  1  0.250000  0.364872  0.631215  1
  Ge  Ge16  1  0.250000  0.685555  0.475128  1
  Ge  Ge17  1  0.750000  0.314437  0.524458  1
  Ge  Ge18  1  0.750000  0.183287  0.022513  1
  Ge  Ge19  1  0.250000  0.817141  0.974181  1
  Ge  Ge20  1  0.250000  0.005144  0.301433  1
  Ge  Ge21  1  0.750000  0.997810  0.702811  1
  Ge  Ge22  1  0.750000  0.504762  0.198495  1
  Ge  Ge23  1  0.250000  0.495052  0.801508  1
