# generated using pymatgen
data_NdSm3(Re2Si)8
_symmetry_space_group_name_H-M   'P 1'
_cell_length_a   4.15342300
_cell_length_b   7.34425530
_cell_length_c   15.46440723
_cell_angle_alpha   90.05532445
_cell_angle_beta   90.00000000
_cell_angle_gamma   90.00000000
_symmetry_Int_Tables_number   1
_chemical_formula_structural   NdSm3(Re2Si)8
_chemical_formula_sum   'Nd1 Sm3 Re16 Si8'
_cell_volume   471.72294829
_cell_formula_units_Z   1
loop_
 _symmetry_equiv_pos_site_id
 _symmetry_equiv_pos_as_xyz
  1  'x, y, z'
loop_
 _atom_site_type_symbol
 _atom_site_label
 _atom_site_symmetry_multiplicity
 _atom_site_fract_x
 _atom_site_fract_y
 _atom_site_fract_z
 _atom_site_occupancy
  Nd  Nd0  1  0.500000  0.922551  0.618780  1
  Sm  Sm1  1  0.000000  0.577537  0.118914  1
  Sm  Sm2  1  0.000000  0.420852  0.881988  1
  Sm  Sm3  1  0.500000  0.079297  0.380728  1
  Re  Re4  1  0.000000  0.139553  0.051858  1
  Re  Re5  1  0.000000  0.859485  0.948622  1
  Re  Re6  1  0.500000  0.641656  0.447376  1
  Re  Re7  1  0.500000  0.363251  0.550963  1
  Re  Re8  1  0.000000  0.733574  0.321580  1
  Re  Re9  1  0.000000  0.268939  0.678822  1
  Re  Re10  1  0.500000  0.232819  0.177806  1
  Re  Re11  1  0.500000  0.766171  0.822357  1
  Re  Re12  1  0.000000  0.431479  0.416927  1
  Re  Re13  1  0.000000  0.570003  0.581091  1
  Re  Re14  1  0.500000  0.929900  0.082381  1
  Re  Re15  1  0.500000  0.068428  0.918572  1
  Re  Re16  1  0.000000  0.986285  0.205586  1
  Re  Re17  1  0.000000  0.011782  0.794508  1
  Re  Re18  1  0.500000  0.486565  0.293931  1
  Re  Re19  1  0.500000  0.510430  0.706495  1
  Si  Si20  1  0.000000  0.832521  0.475997  1
  Si  Si21  1  0.000000  0.172420  0.523118  1
  Si  Si22  1  0.500000  0.330868  0.023357  1
  Si  Si23  1  0.500000  0.668210  0.977075  1
  Si  Si24  1  0.000000  0.288769  0.272103  1
  Si  Si25  1  0.000000  0.708035  0.727637  1
  Si  Si26  1  0.500000  0.788614  0.227352  1
  Si  Si27  1  0.500000  0.210003  0.774076  1
