# generated using pymatgen
data_Dy3Zr(Al3Co)6
_symmetry_space_group_name_H-M   'P 1'
_cell_length_a   7.37181000
_cell_length_b   7.36203377
_cell_length_c   9.25968700
_cell_angle_alpha   90.00000000
_cell_angle_beta   90.00000000
_cell_angle_gamma   119.28179508
_symmetry_Int_Tables_number   1
_chemical_formula_structural   Dy3Zr(Al3Co)6
_chemical_formula_sum   'Dy3 Zr1 Al18 Co6'
_cell_volume   438.32540018
_cell_formula_units_Z   1
loop_
 _symmetry_equiv_pos_site_id
 _symmetry_equiv_pos_as_xyz
  1  'x, y, z'
loop_
 _atom_site_type_symbol
 _atom_site_label
 _atom_site_symmetry_multiplicity
 _atom_site_fract_x
 _atom_site_fract_y
 _atom_site_fract_z
 _atom_site_occupancy
  Dy  Dy0  1  0.006820  0.326470  0.750000  1
  Dy  Dy1  1  0.672097  0.993317  0.250000  1
  Dy  Dy2  1  0.327703  0.007805  0.750000  1
  Zr  Zr3  1  0.994743  0.672798  0.250000  1
  Al  Al4  1  0.121505  0.118282  0.250000  1
  Al  Al5  1  0.873970  0.872671  0.750000  1
  Al  Al6  1  0.332686  0.332872  0.538939  1
  Al  Al7  1  0.670569  0.668427  0.047888  1
  Al  Al8  1  0.332686  0.332872  0.961061  1
  Al  Al9  1  0.670569  0.668427  0.452112  1
  Al  Al10  1  0.334592  0.555833  0.250000  1
  Al  Al11  1  0.661433  0.446991  0.750000  1
  Al  Al12  1  0.561364  0.344856  0.250000  1
  Al  Al13  1  0.445247  0.660117  0.750000  1
  Al  Al14  1  0.997152  0.337919  0.075116  1
  Al  Al15  1  0.002535  0.665060  0.567087  1
  Al  Al16  1  0.332611  0.994980  0.424909  1
  Al  Al17  1  0.664285  0.001022  0.929360  1
  Al  Al18  1  0.002535  0.665060  0.932913  1
  Al  Al19  1  0.997152  0.337919  0.424884  1
  Al  Al20  1  0.664285  0.001022  0.570640  1
  Al  Al21  1  0.332611  0.994980  0.075091  1
  Co  Co22  1  0.999824  0.999305  0.000979  1
  Co  Co23  1  0.999824  0.999305  0.499021  1
  Co  Co24  1  0.671950  0.329512  0.001165  1
  Co  Co25  1  0.328653  0.671335  0.498226  1
  Co  Co26  1  0.328653  0.671335  0.001774  1
  Co  Co27  1  0.671950  0.329512  0.498835  1
