# generated using pymatgen
data_Tb15HoMgAg3Ir4
_symmetry_space_group_name_H-M   'P 1'
_cell_length_a   9.55853667
_cell_length_b   9.59836343
_cell_length_c   9.59836349
_cell_angle_alpha   60.50591489
_cell_angle_beta   60.49948045
_cell_angle_gamma   60.49948319
_symmetry_Int_Tables_number   1
_chemical_formula_structural   Tb15HoMgAg3Ir4
_chemical_formula_sum   'Tb15 Ho1 Mg1 Ag3 Ir4'
_cell_volume   629.74757843
_cell_formula_units_Z   1
loop_
 _symmetry_equiv_pos_site_id
 _symmetry_equiv_pos_as_xyz
  1  'x, y, z'
loop_
 _atom_site_type_symbol
 _atom_site_label
 _atom_site_symmetry_multiplicity
 _atom_site_fract_x
 _atom_site_fract_y
 _atom_site_fract_z
 _atom_site_occupancy
  Tb  Tb0  1  0.814590  0.187296  0.187296  1
  Tb  Tb1  1  0.064066  0.437374  0.061429  1
  Tb  Tb2  1  0.059945  0.646574  0.646574  1
  Tb  Tb3  1  0.650075  0.651806  0.651806  1
  Tb  Tb4  1  0.064066  0.061429  0.437374  1
  Tb  Tb5  1  0.191409  0.810552  0.189651  1
  Tb  Tb6  1  0.813965  0.812643  0.186953  1
  Tb  Tb7  1  0.813965  0.186953  0.812643  1
  Tb  Tb8  1  0.437297  0.062212  0.437642  1
  Tb  Tb9  1  0.437297  0.437642  0.062212  1
  Tb  Tb10  1  0.435886  0.063045  0.063045  1
  Tb  Tb11  1  0.065022  0.437390  0.437390  1
  Tb  Tb12  1  0.191409  0.189651  0.810552  1
  Tb  Tb13  1  0.650372  0.651552  0.046135  1
  Tb  Tb14  1  0.650372  0.046135  0.651552  1
  Ho  Ho15  1  0.190091  0.810857  0.810857  1
  Mg  Mg16  1  0.711345  0.429376  0.429376  1
  Ag  Ag17  1  0.417667  0.415169  0.750544  1
  Ag  Ag18  1  0.417667  0.750544  0.415169  1
  Ag  Ag19  1  0.417649  0.415390  0.415390  1
  Ir  Ir20  1  0.859593  0.856108  0.426639  1
  Ir  Ir21  1  0.859593  0.426639  0.856108  1
  Ir  Ir22  1  0.861617  0.856377  0.856377  1
  Ir  Ir23  1  0.425046  0.857287  0.857287  1
