# generated using pymatgen
data_Rb4PbSe4
_symmetry_space_group_name_H-M   'P 1'
_cell_length_a   8.77210700
_cell_length_b   10.88068600
_cell_length_c   15.56841800
_cell_angle_alpha   90.00000000
_cell_angle_beta   90.00000000
_cell_angle_gamma   90.00000000
_symmetry_Int_Tables_number   1
_chemical_formula_structural   Rb4PbSe4
_chemical_formula_sum   'Rb16 Pb4 Se16'
_cell_volume   1485.95165979
_cell_formula_units_Z   4
loop_
 _symmetry_equiv_pos_site_id
 _symmetry_equiv_pos_as_xyz
  1  'x, y, z'
loop_
 _atom_site_type_symbol
 _atom_site_label
 _atom_site_symmetry_multiplicity
 _atom_site_fract_x
 _atom_site_fract_y
 _atom_site_fract_z
 _atom_site_occupancy
  Rb  Rb0  1  0.000000  0.000000  0.000000  1
  Rb  Rb1  1  0.500000  0.000000  0.500000  1
  Rb  Rb2  1  0.000000  0.500000  0.000000  1
  Rb  Rb3  1  0.500000  0.500000  0.500000  1
  Rb  Rb4  1  0.984621  0.750000  0.423762  1
  Rb  Rb5  1  0.484621  0.250000  0.076238  1
  Rb  Rb6  1  0.015379  0.250000  0.576238  1
  Rb  Rb7  1  0.515379  0.750000  0.923762  1
  Rb  Rb8  1  0.842996  0.049616  0.271729  1
  Rb  Rb9  1  0.342996  0.950384  0.228271  1
  Rb  Rb10  1  0.157004  0.549616  0.728271  1
  Rb  Rb11  1  0.657004  0.450384  0.771729  1
  Rb  Rb12  1  0.157004  0.950384  0.728271  1
  Rb  Rb13  1  0.657004  0.049616  0.771729  1
  Rb  Rb14  1  0.842996  0.450384  0.271729  1
  Rb  Rb15  1  0.342996  0.549616  0.228271  1
  Pb  Pb16  1  0.760379  0.750000  0.665331  1
  Pb  Pb17  1  0.239621  0.250000  0.334669  1
  Pb  Pb18  1  0.739621  0.750000  0.165331  1
  Pb  Pb19  1  0.260379  0.250000  0.834669  1
  Se  Se20  1  0.955452  0.250000  0.827056  1
  Se  Se21  1  0.544548  0.250000  0.327056  1
  Se  Se22  1  0.455452  0.750000  0.672944  1
  Se  Se23  1  0.044548  0.750000  0.172944  1
  Se  Se24  1  0.643319  0.550405  0.084252  1
  Se  Se25  1  0.143319  0.449595  0.415748  1
  Se  Se26  1  0.356681  0.050405  0.915748  1
  Se  Se27  1  0.856681  0.949595  0.584252  1
  Se  Se28  1  0.356681  0.449595  0.915748  1
  Se  Se29  1  0.856681  0.550405  0.584252  1
  Se  Se30  1  0.643319  0.949595  0.084252  1
  Se  Se31  1  0.143319  0.050405  0.415748  1
  Se  Se32  1  0.622275  0.750000  0.325113  1
  Se  Se33  1  0.122275  0.250000  0.174887  1
  Se  Se34  1  0.377725  0.250000  0.674887  1
  Se  Se35  1  0.877725  0.750000  0.825113  1
