# generated using pymatgen
data_Dy2HoMoO7
_symmetry_space_group_name_H-M   'P 1'
_cell_length_a   6.47033149
_cell_length_b   6.47033121
_cell_length_c   7.45490317
_cell_angle_alpha   90.01831884
_cell_angle_beta   90.01832136
_cell_angle_gamma   108.62939736
_symmetry_Int_Tables_number   1
_chemical_formula_structural   Dy2HoMoO7
_chemical_formula_sum   'Dy4 Ho2 Mo2 O14'
_cell_volume   295.74823477
_cell_formula_units_Z   2
loop_
 _symmetry_equiv_pos_site_id
 _symmetry_equiv_pos_as_xyz
  1  'x, y, z'
loop_
 _atom_site_type_symbol
 _atom_site_label
 _atom_site_symmetry_multiplicity
 _atom_site_fract_x
 _atom_site_fract_y
 _atom_site_fract_z
 _atom_site_occupancy
  Dy  Dy0  1  0.465991  0.465604  0.000455  1
  Dy  Dy1  1  0.534396  0.534009  0.499545  1
  Dy  Dy2  1  0.999435  0.464716  0.744732  1
  Dy  Dy3  1  0.535284  0.000565  0.755268  1
  Ho  Ho4  1  0.000739  0.536761  0.239941  1
  Ho  Ho5  1  0.463239  0.999261  0.260059  1
  Mo  Mo6  1  0.000688  0.001084  0.499531  1
  Mo  Mo7  1  0.998916  0.999312  0.000469  1
  O  O8  1  0.925262  0.074738  0.750000  1
  O  O9  1  0.637551  0.362449  0.750000  1
  O  O10  1  0.313379  0.057359  0.537762  1
  O  O11  1  0.942641  0.686621  0.962238  1
  O  O12  1  0.631313  0.368687  0.250000  1
  O  O13  1  0.917889  0.674468  0.524810  1
  O  O14  1  0.325532  0.082111  0.975190  1
  O  O15  1  0.085173  0.330987  0.024688  1
  O  O16  1  0.669013  0.914827  0.475312  1
  O  O17  1  0.369624  0.630376  0.750000  1
  O  O18  1  0.694168  0.947668  0.042775  1
  O  O19  1  0.052332  0.305832  0.457225  1
  O  O20  1  0.361453  0.638547  0.250000  1
  O  O21  1  0.075982  0.924018  0.250000  1
