# generated using pymatgen
data_Tm20Fe3CoBi8
_symmetry_space_group_name_H-M   'P 1'
_cell_length_a   7.82461449
_cell_length_b   8.84464100
_cell_length_c   12.25881977
_cell_angle_alpha   90.00000000
_cell_angle_beta   90.04046265
_cell_angle_gamma   90.00000000
_symmetry_Int_Tables_number   1
_chemical_formula_structural   Tm20Fe3CoBi8
_chemical_formula_sum   'Tm20 Fe3 Co1 Bi8'
_cell_volume   848.38251804
_cell_formula_units_Z   1
loop_
 _symmetry_equiv_pos_site_id
 _symmetry_equiv_pos_as_xyz
  1  'x, y, z'
loop_
 _atom_site_type_symbol
 _atom_site_label
 _atom_site_symmetry_multiplicity
 _atom_site_fract_x
 _atom_site_fract_y
 _atom_site_fract_z
 _atom_site_occupancy
  Tm  Tm0  1  0.346186  0.750000  0.701615  1
  Tm  Tm1  1  0.653827  0.250000  0.299163  1
  Tm  Tm2  1  0.846694  0.250000  0.798505  1
  Tm  Tm3  1  0.152450  0.750000  0.199689  1
  Tm  Tm4  1  0.885858  0.750000  0.813635  1
  Tm  Tm5  1  0.113555  0.250000  0.186329  1
  Tm  Tm6  1  0.385817  0.250000  0.686230  1
  Tm  Tm7  1  0.615250  0.750000  0.314076  1
  Tm  Tm8  1  0.672646  0.535377  0.562716  1
  Tm  Tm9  1  0.325193  0.459349  0.436183  1
  Tm  Tm10  1  0.172567  0.462451  0.937531  1
  Tm  Tm11  1  0.325193  0.040651  0.436183  1
  Tm  Tm12  1  0.826916  0.537292  0.062456  1
  Tm  Tm13  1  0.672646  0.964623  0.562716  1
  Tm  Tm14  1  0.826916  0.962708  0.062456  1
  Tm  Tm15  1  0.172567  0.037549  0.937531  1
  Tm  Tm16  1  0.058108  0.750000  0.496107  1
  Tm  Tm17  1  0.943367  0.250000  0.504365  1
  Tm  Tm18  1  0.559273  0.250000  0.004560  1
  Tm  Tm19  1  0.442219  0.750000  0.995537  1
  Fe  Fe20  1  0.069750  0.750000  0.991376  1
  Fe  Fe21  1  0.928605  0.250000  0.008316  1
  Fe  Fe22  1  0.569551  0.250000  0.507934  1
  Co  Co23  1  0.432768  0.750000  0.493149  1
  Bi  Bi24  1  0.569826  0.507919  0.827286  1
  Bi  Bi25  1  0.430276  0.492206  0.173134  1
  Bi  Bi26  1  0.070248  0.492277  0.673004  1
  Bi  Bi27  1  0.430276  0.007794  0.173134  1
  Bi  Bi28  1  0.930689  0.508350  0.327397  1
  Bi  Bi29  1  0.569826  0.992081  0.827286  1
  Bi  Bi30  1  0.930689  0.991650  0.327397  1
  Bi  Bi31  1  0.070248  0.007723  0.673004  1
