# generated using pymatgen
data_YP2Rh3
_symmetry_space_group_name_H-M   'P 1'
_cell_length_a   3.93331500
_cell_length_b   11.20650400
_cell_length_c   12.75826900
_cell_angle_alpha   90.00000000
_cell_angle_beta   90.00000000
_cell_angle_gamma   90.00000000
_symmetry_Int_Tables_number   1
_chemical_formula_structural   YP2Rh3
_chemical_formula_sum   'Y6 P12 Rh18'
_cell_volume   562.36804294
_cell_formula_units_Z   6
loop_
 _symmetry_equiv_pos_site_id
 _symmetry_equiv_pos_as_xyz
  1  'x, y, z'
loop_
 _atom_site_type_symbol
 _atom_site_label
 _atom_site_symmetry_multiplicity
 _atom_site_fract_x
 _atom_site_fract_y
 _atom_site_fract_z
 _atom_site_occupancy
  Y  Y0  1  0.000000  0.500000  0.520820  1
  Y  Y1  1  0.500000  0.000000  0.479180  1
  Y  Y2  1  0.500000  0.814530  0.205500  1
  Y  Y3  1  0.500000  0.185470  0.205500  1
  Y  Y4  1  0.000000  0.685470  0.794500  1
  Y  Y5  1  0.000000  0.314530  0.794500  1
  P  P6  1  0.500000  0.500000  0.877938  1
  P  P7  1  0.000000  0.000000  0.122062  1
  P  P8  1  0.500000  0.500000  0.351793  1
  P  P9  1  0.000000  0.000000  0.648207  1
  P  P10  1  0.500000  0.315164  0.618978  1
  P  P11  1  0.500000  0.684836  0.618978  1
  P  P12  1  0.000000  0.184836  0.381022  1
  P  P13  1  0.000000  0.815164  0.381022  1
  P  P14  1  0.500000  0.846745  0.892887  1
  P  P15  1  0.500000  0.153255  0.892887  1
  P  P16  1  0.000000  0.653255  0.107113  1
  P  P17  1  0.000000  0.346745  0.107113  1
  Rh  Rh18  1  0.500000  0.500000  0.169926  1
  Rh  Rh19  1  0.000000  0.000000  0.830074  1
  Rh  Rh20  1  0.500000  0.500000  0.700753  1
  Rh  Rh21  1  0.000000  0.000000  0.299247  1
  Rh  Rh22  1  0.000000  0.500000  0.978969  1
  Rh  Rh23  1  0.500000  0.000000  0.021031  1
  Rh  Rh24  1  0.500000  0.334199  0.993226  1
  Rh  Rh25  1  0.500000  0.665801  0.993226  1
  Rh  Rh26  1  0.000000  0.165801  0.006774  1
  Rh  Rh27  1  0.000000  0.834199  0.006774  1
  Rh  Rh28  1  0.500000  0.295581  0.431553  1
  Rh  Rh29  1  0.500000  0.704419  0.431553  1
  Rh  Rh30  1  0.000000  0.204419  0.568447  1
  Rh  Rh31  1  0.000000  0.795581  0.568447  1
  Rh  Rh32  1  0.500000  0.873368  0.710753  1
  Rh  Rh33  1  0.500000  0.126632  0.710753  1
  Rh  Rh34  1  0.000000  0.626632  0.289247  1
  Rh  Rh35  1  0.000000  0.373368  0.289247  1
