# generated using pymatgen
data_Ho4Co3SiI2
_symmetry_space_group_name_H-M   'P 1'
_cell_length_a   3.99082700
_cell_length_b   3.99082713
_cell_length_c   16.87566700
_cell_angle_alpha   90.00000000
_cell_angle_beta   90.00000000
_cell_angle_gamma   119.99999065
_symmetry_Int_Tables_number   1
_chemical_formula_structural   Ho4Co3SiI2
_chemical_formula_sum   'Ho4 Co3 Si1 I2'
_cell_volume   232.76487107
_cell_formula_units_Z   1
loop_
 _symmetry_equiv_pos_site_id
 _symmetry_equiv_pos_as_xyz
  1  'x, y, z'
loop_
 _atom_site_type_symbol
 _atom_site_label
 _atom_site_symmetry_multiplicity
 _atom_site_fract_x
 _atom_site_fract_y
 _atom_site_fract_z
 _atom_site_occupancy
  Ho  Ho0  1  0.000000  0.000000  0.102062  1
  Ho  Ho1  1  0.000000  0.000000  0.898092  1
  Ho  Ho2  1  0.000000  0.000000  0.604447  1
  Ho  Ho3  1  0.000000  0.000000  0.397611  1
  Co  Co4  1  0.666667  0.333333  0.494896  1
  Co  Co5  1  0.666667  0.333333  0.001422  1
  Co  Co6  1  0.333333  0.666667  0.998573  1
  Si  Si7  1  0.333333  0.666667  0.503579  1
  I  I8  1  0.333333  0.666667  0.250919  1
  I  I9  1  0.666667  0.333333  0.748400  1
