# generated using pymatgen
data_Li2Ca3Ce(ZnSi3)2
_symmetry_space_group_name_H-M   'P 1'
_cell_length_a   9.37024062
_cell_length_b   9.37023986
_cell_length_c   6.80667033
_cell_angle_alpha   89.52196695
_cell_angle_beta   90.47803241
_cell_angle_gamma   153.30258345
_symmetry_Int_Tables_number   1
_chemical_formula_structural   Li2Ca3Ce(ZnSi3)2
_chemical_formula_sum   'Li2 Ca3 Ce1 Zn2 Si6'
_cell_volume   268.49490357
_cell_formula_units_Z   1
loop_
 _symmetry_equiv_pos_site_id
 _symmetry_equiv_pos_as_xyz
  1  'x, y, z'
loop_
 _atom_site_type_symbol
 _atom_site_label
 _atom_site_symmetry_multiplicity
 _atom_site_fract_x
 _atom_site_fract_y
 _atom_site_fract_z
 _atom_site_occupancy
  Li  Li0  1  0.812671  0.187329  0.938864  1
  Li  Li1  1  0.186907  0.813093  0.437751  1
  Ca  Ca2  1  0.552192  0.447808  0.255703  1
  Ca  Ca3  1  0.655936  0.344064  0.744355  1
  Ca  Ca4  1  0.344268  0.655732  0.244012  1
  Ce  Ce5  1  0.447743  0.552257  0.753899  1
  Zn  Zn6  1  0.192569  0.807431  0.054428  1
  Zn  Zn7  1  0.808069  0.191931  0.555301  1
  Si  Si8  1  0.280532  0.719468  0.748843  1
  Si  Si9  1  0.722640  0.277360  0.247053  1
  Si  Si10  1  0.939295  0.060705  0.432061  1
  Si  Si11  1  0.054862  0.945138  0.583737  1
  Si  Si12  1  0.943300  0.056700  0.075988  1
  Si  Si13  1  0.059016  0.940984  0.928007  1
