# generated using pymatgen
data_Er3(In2Rh)2
_symmetry_space_group_name_H-M   'P 1'
_cell_length_a   7.93659900
_cell_length_b   7.93659844
_cell_length_c   3.69305400
_cell_angle_alpha   90.00000000
_cell_angle_beta   90.00000000
_cell_angle_gamma   119.99999815
_symmetry_Int_Tables_number   1
_chemical_formula_structural   Er3(In2Rh)2
_chemical_formula_sum   'Er3 In4 Rh2'
_cell_volume   201.45828997
_cell_formula_units_Z   1
loop_
 _symmetry_equiv_pos_site_id
 _symmetry_equiv_pos_as_xyz
  1  'x, y, z'
loop_
 _atom_site_type_symbol
 _atom_site_label
 _atom_site_symmetry_multiplicity
 _atom_site_fract_x
 _atom_site_fract_y
 _atom_site_fract_z
 _atom_site_occupancy
  Er  Er0  1  0.703538  0.957043  0.500000  1
  Er  Er1  1  0.253505  0.296462  0.500000  1
  Er  Er2  1  0.042957  0.746495  0.500000  1
  In  In3  1  0.928134  0.337464  0.000000  1
  In  In4  1  0.409331  0.071866  0.000000  1
  In  In5  1  0.662536  0.590669  0.000000  1
  In  In6  1  0.333333  0.666667  0.000000  1
  Rh  Rh7  1  0.666667  0.333333  0.500000  1
  Rh  Rh8  1  0.000000  0.000000  0.000000  1
