# generated using pymatgen
data_Cs2La5Nd5Os2Br17
_symmetry_space_group_name_H-M   'P 1'
_cell_length_a   9.65578029
_cell_length_b   11.31116643
_cell_length_c   11.33202417
_cell_angle_alpha   107.69545024
_cell_angle_beta   93.61036092
_cell_angle_gamma   93.59717374
_symmetry_Int_Tables_number   1
_chemical_formula_structural   Cs2La5Nd5Os2Br17
_chemical_formula_sum   'Cs2 La5 Nd5 Os2 Br17'
_cell_volume   1172.39136973
_cell_formula_units_Z   1
loop_
 _symmetry_equiv_pos_site_id
 _symmetry_equiv_pos_as_xyz
  1  'x, y, z'
loop_
 _atom_site_type_symbol
 _atom_site_label
 _atom_site_symmetry_multiplicity
 _atom_site_fract_x
 _atom_site_fract_y
 _atom_site_fract_z
 _atom_site_occupancy
  Cs  Cs0  1  0.000298  0.823219  0.178024  1
  Cs  Cs1  1  0.000041  0.178093  0.823010  1
  La  La2  1  0.574968  0.203600  0.505318  1
  La  La3  1  0.690203  0.570539  0.568797  1
  La  La4  1  0.174068  0.708791  0.707399  1
  La  La5  1  0.424265  0.482314  0.807011  1
  La  La6  1  0.559304  0.835926  0.836125  1
  Nd  Nd7  1  0.437447  0.162805  0.164681  1
  Nd  Nd8  1  0.574375  0.505428  0.207130  1
  Nd  Nd9  1  0.832822  0.288607  0.287944  1
  Nd  Nd10  1  0.309217  0.439890  0.438780  1
  Nd  Nd11  1  0.424639  0.802159  0.483458  1
  Os  Os12  1  0.571361  0.356820  0.360935  1
  Os  Os13  1  0.428843  0.646586  0.647085  1
  Br  Br14  1  0.579784  0.683270  0.024153  1
  Br  Br15  1  0.712803  0.068297  0.067814  1
  Br  Br16  1  0.853724  0.447909  0.122045  1
  Br  Br17  1  0.136389  0.208511  0.207517  1
  Br  Br18  1  0.287021  0.604634  0.257066  1
  Br  Br19  1  0.418456  0.977531  0.306745  1
  Br  Br20  1  0.709961  0.744259  0.392948  1
  Br  Br21  1  0.861110  0.120951  0.444017  1
  Br  Br22  1  0.000412  0.496855  0.496338  1
  Br  Br23  1  0.147516  0.881142  0.544889  1
  Br  Br24  1  0.280551  0.258120  0.602317  1
  Br  Br25  1  0.576954  0.019158  0.679118  1
  Br  Br26  1  0.716111  0.396674  0.745050  1
  Br  Br27  1  0.869603  0.795382  0.794472  1
  Br  Br28  1  0.141682  0.548452  0.881761  1
  Br  Br29  1  0.284320  0.934236  0.933662  1
  Br  Br30  1  0.421755  0.309843  0.984391  1
