# generated using pymatgen
data_Ce3Ho13Cd4NiOs3
_symmetry_space_group_name_H-M   'P 1'
_cell_length_a   9.48837909
_cell_length_b   9.66174536
_cell_length_c   9.66880965
_cell_angle_alpha   59.92248237
_cell_angle_beta   59.63509845
_cell_angle_gamma   59.67084519
_symmetry_Int_Tables_number   1
_chemical_formula_structural   Ce3Ho13Cd4NiOs3
_chemical_formula_sum   'Ce3 Ho13 Cd4 Ni1 Os3'
_cell_volume   623.09623604
_cell_formula_units_Z   1
loop_
 _symmetry_equiv_pos_site_id
 _symmetry_equiv_pos_as_xyz
  1  'x, y, z'
loop_
 _atom_site_type_symbol
 _atom_site_label
 _atom_site_symmetry_multiplicity
 _atom_site_fract_x
 _atom_site_fract_y
 _atom_site_fract_z
 _atom_site_occupancy
  Ce  Ce0  1  0.344416  0.346918  0.346972  1
  Ce  Ce1  1  0.348130  0.346939  0.957728  1
  Ce  Ce2  1  0.348182  0.957804  0.346847  1
  Ho  Ho3  1  0.951569  0.349899  0.349956  1
  Ho  Ho4  1  0.809546  0.189477  0.189546  1
  Ho  Ho5  1  0.183597  0.812069  0.812082  1
  Ho  Ho6  1  0.186176  0.812757  0.190756  1
  Ho  Ho7  1  0.812233  0.188718  0.810363  1
  Ho  Ho8  1  0.186203  0.190775  0.812706  1
  Ho  Ho9  1  0.812296  0.810214  0.188786  1
  Ho  Ho10  1  0.937233  0.563368  0.563370  1
  Ho  Ho11  1  0.557260  0.938475  0.938503  1
  Ho  Ho12  1  0.555680  0.939343  0.566312  1
  Ho  Ho13  1  0.937810  0.560570  0.939558  1
  Ho  Ho14  1  0.555733  0.566331  0.939384  1
  Ho  Ho15  1  0.937858  0.939578  0.560581  1
  Cd  Cd16  1  0.579860  0.580370  0.580311  1
  Cd  Cd17  1  0.579634  0.581572  0.255735  1
  Cd  Cd18  1  0.579757  0.255780  0.581430  1
  Cd  Cd19  1  0.254442  0.581219  0.580996  1
  Ni  Ni20  1  0.576324  0.140508  0.140614  1
  Os  Os21  1  0.152196  0.139711  0.139733  1
  Os  Os22  1  0.156934  0.137956  0.569650  1
  Os  Os23  1  0.156933  0.569652  0.138078  1
