# generated using pymatgen
data_Zr6Ta3Al13Co2Ru5
_symmetry_space_group_name_H-M   'P 1'
_cell_length_a   8.74967486
_cell_length_b   8.74967550
_cell_length_c   8.81712001
_cell_angle_alpha   59.62243244
_cell_angle_beta   59.62243244
_cell_angle_gamma   60.14150230
_symmetry_Int_Tables_number   1
_chemical_formula_structural   Zr6Ta3Al13Co2Ru5
_chemical_formula_sum   'Zr6 Ta3 Al13 Co2 Ru5'
_cell_volume   475.06200107
_cell_formula_units_Z   1
loop_
 _symmetry_equiv_pos_site_id
 _symmetry_equiv_pos_as_xyz
  1  'x, y, z'
loop_
 _atom_site_type_symbol
 _atom_site_label
 _atom_site_symmetry_multiplicity
 _atom_site_fract_x
 _atom_site_fract_y
 _atom_site_fract_z
 _atom_site_occupancy
  Zr  Zr0  1  0.691472  0.691472  0.304988  1
  Zr  Zr1  1  0.301175  0.696948  0.302875  1
  Zr  Zr2  1  0.696948  0.301175  0.302875  1
  Zr  Zr3  1  0.310357  0.310357  0.689600  1
  Zr  Zr4  1  0.698808  0.295536  0.699926  1
  Zr  Zr5  1  0.295536  0.698808  0.699926  1
  Ta  Ta6  1  0.881883  0.881883  0.355648  1
  Ta  Ta7  1  0.882910  0.356631  0.879859  1
  Ta  Ta8  1  0.356631  0.882910  0.879859  1
  Al  Al9  1  0.882449  0.882449  0.884621  1
  Al  Al10  1  0.116681  0.116681  0.644528  1
  Al  Al11  1  0.115763  0.644741  0.118840  1
  Al  Al12  1  0.644741  0.115763  0.118840  1
  Al  Al13  1  0.120060  0.120060  0.120459  1
  Al  Al14  1  0.666082  0.666082  0.006777  1
  Al  Al15  1  0.673748  0.006857  0.661737  1
  Al  Al16  1  0.006857  0.673748  0.661737  1
  Al  Al17  1  0.661160  0.661160  0.662750  1
  Al  Al18  1  0.335562  0.335562  0.997267  1
  Al  Al19  1  0.328823  0.994561  0.338723  1
  Al  Al20  1  0.994561  0.328823  0.338723  1
  Al  Al21  1  0.333504  0.333504  0.333604  1
  Co  Co22  1  0.004189  0.004189  0.003745  1
  Co  Co23  1  0.998706  0.998706  0.490649  1
  Ru  Ru24  1  0.501118  0.998468  0.503456  1
  Ru  Ru25  1  0.998468  0.501118  0.503456  1
  Ru  Ru26  1  0.502235  0.502235  0.999514  1
  Ru  Ru27  1  0.999555  0.500019  0.997508  1
  Ru  Ru28  1  0.500019  0.999555  0.997508  1
