# generated using pymatgen
data_Zr6Ga6PdPt2Rh3
_symmetry_space_group_name_H-M   'P 1'
_cell_length_a   7.30619300
_cell_length_b   7.30619434
_cell_length_c   6.86224100
_cell_angle_alpha   90.00000000
_cell_angle_beta   90.00000000
_cell_angle_gamma   119.99999847
_symmetry_Int_Tables_number   1
_chemical_formula_structural   Zr6Ga6PdPt2Rh3
_chemical_formula_sum   'Zr6 Ga6 Pd1 Pt2 Rh3'
_cell_volume   317.23344314
_cell_formula_units_Z   1
loop_
 _symmetry_equiv_pos_site_id
 _symmetry_equiv_pos_as_xyz
  1  'x, y, z'
loop_
 _atom_site_type_symbol
 _atom_site_label
 _atom_site_symmetry_multiplicity
 _atom_site_fract_x
 _atom_site_fract_y
 _atom_site_fract_z
 _atom_site_occupancy
  Zr  Zr0  1  0.402240  0.395957  0.750000  1
  Zr  Zr1  1  0.993718  0.597760  0.750000  1
  Zr  Zr2  1  0.604043  0.006282  0.750000  1
  Zr  Zr3  1  0.612765  0.010464  0.250000  1
  Zr  Zr4  1  0.989536  0.602300  0.250000  1
  Zr  Zr5  1  0.397700  0.387235  0.250000  1
  Ga  Ga6  1  0.269934  0.000372  0.001869  1
  Ga  Ga7  1  0.730439  0.730066  0.001869  1
  Ga  Ga8  1  0.999628  0.269561  0.001869  1
  Ga  Ga9  1  0.730439  0.730066  0.498131  1
  Ga  Ga10  1  0.269934  0.000372  0.498131  1
  Ga  Ga11  1  0.999628  0.269561  0.498131  1
  Pd  Pd12  1  0.000000  0.000000  0.750000  1
  Pt  Pt13  1  0.333333  0.666667  0.497062  1
  Pt  Pt14  1  0.333333  0.666667  0.002938  1
  Rh  Rh15  1  0.666667  0.333333  0.995692  1
  Rh  Rh16  1  0.666667  0.333333  0.504308  1
  Rh  Rh17  1  0.000000  0.000000  0.250000  1
