# generated using pymatgen
data_DyZr7(Nb3Ge4)4
_symmetry_space_group_name_H-M   'P 1'
_cell_length_a   6.89022337
_cell_length_b   7.02833955
_cell_length_c   13.41979443
_cell_angle_alpha   90.07485909
_cell_angle_beta   89.92863061
_cell_angle_gamma   90.01153253
_symmetry_Int_Tables_number   1
_chemical_formula_structural   DyZr7(Nb3Ge4)4
_chemical_formula_sum   'Dy1 Zr7 Nb12 Ge16'
_cell_volume   649.87702434
_cell_formula_units_Z   1
loop_
 _symmetry_equiv_pos_site_id
 _symmetry_equiv_pos_as_xyz
  1  'x, y, z'
loop_
 _atom_site_type_symbol
 _atom_site_label
 _atom_site_symmetry_multiplicity
 _atom_site_fract_x
 _atom_site_fract_y
 _atom_site_fract_z
 _atom_site_occupancy
  Dy  Dy0  1  0.994439  0.173048  0.091811  1
  Zr  Zr1  1  0.493574  0.326784  0.092051  1
  Zr  Zr2  1  0.990519  0.175377  0.407456  1
  Zr  Zr3  1  0.508440  0.674690  0.591657  1
  Zr  Zr4  1  0.008756  0.822666  0.905491  1
  Zr  Zr5  1  0.508762  0.675813  0.906666  1
  Zr  Zr6  1  0.009031  0.825808  0.591755  1
  Zr  Zr7  1  0.491611  0.324838  0.409170  1
  Nb  Nb8  1  0.662825  0.008688  0.749216  1
  Nb  Nb9  1  0.162787  0.492959  0.749832  1
  Nb  Nb10  1  0.337574  0.990905  0.251801  1
  Nb  Nb11  1  0.836477  0.508870  0.252405  1
  Nb  Nb12  1  0.839321  0.334007  0.624346  1
  Nb  Nb13  1  0.339012  0.166246  0.875139  1
  Nb  Nb14  1  0.160917  0.665925  0.125491  1
  Nb  Nb15  1  0.659147  0.831764  0.376112  1
  Nb  Nb16  1  0.160895  0.666830  0.376836  1
  Nb  Nb17  1  0.658025  0.831377  0.125602  1
  Nb  Nb18  1  0.836640  0.335998  0.874273  1
  Nb  Nb19  1  0.339627  0.166206  0.624623  1
  Ge  Ge20  1  0.804165  0.648108  0.748986  1
  Ge  Ge21  1  0.304870  0.852636  0.749581  1
  Ge  Ge22  1  0.197653  0.353760  0.251677  1
  Ge  Ge23  1  0.693248  0.147818  0.250903  1
  Ge  Ge24  1  0.536487  0.385864  0.749545  1
  Ge  Ge25  1  0.036780  0.115322  0.750239  1
  Ge  Ge26  1  0.462362  0.613802  0.250680  1
  Ge  Ge27  1  0.961961  0.883068  0.251255  1
  Ge  Ge28  1  0.681428  0.039217  0.539585  1
  Ge  Ge29  1  0.181982  0.463649  0.958611  1
  Ge  Ge30  1  0.325038  0.957120  0.038744  1
  Ge  Ge31  1  0.819646  0.538893  0.460736  1
  Ge  Ge32  1  0.318425  0.961876  0.460521  1
  Ge  Ge33  1  0.818229  0.542300  0.038734  1
  Ge  Ge34  1  0.678627  0.037913  0.958504  1
  Ge  Ge35  1  0.180720  0.459855  0.539966  1
