# generated using pymatgen
data_Ho2Pa(Ga2Co3)3
_symmetry_space_group_name_H-M   'P 1'
_cell_length_a   8.90112200
_cell_length_b   8.90112133
_cell_length_c   3.88989500
_cell_angle_alpha   90.00000000
_cell_angle_beta   90.00000000
_cell_angle_gamma   120.00000249
_symmetry_Int_Tables_number   1
_chemical_formula_structural   Ho2Pa(Ga2Co3)3
_chemical_formula_sum   'Ho2 Pa1 Ga6 Co9'
_cell_volume   266.90577693
_cell_formula_units_Z   1
loop_
 _symmetry_equiv_pos_site_id
 _symmetry_equiv_pos_as_xyz
  1  'x, y, z'
loop_
 _atom_site_type_symbol
 _atom_site_label
 _atom_site_symmetry_multiplicity
 _atom_site_fract_x
 _atom_site_fract_y
 _atom_site_fract_z
 _atom_site_occupancy
  Ho  Ho0  1  0.666667  0.333333  0.500000  1
  Ho  Ho1  1  0.333333  0.666667  0.500000  1
  Pa  Pa2  1  0.000000  0.000000  0.000000  1
  Ga  Ga3  1  0.677869  0.677869  0.500000  1
  Ga  Ga4  1  0.322131  0.000000  0.500000  1
  Ga  Ga5  1  0.000000  0.322131  0.500000  1
  Ga  Ga6  1  0.322131  0.322131  0.500000  1
  Ga  Ga7  1  0.677869  0.000000  0.500000  1
  Ga  Ga8  1  0.000000  0.677869  0.500000  1
  Co  Co9  1  0.500000  0.500000  0.000000  1
  Co  Co10  1  0.500000  0.000000  0.000000  1
  Co  Co11  1  0.000000  0.500000  0.000000  1
  Co  Co12  1  0.827543  0.172457  0.000000  1
  Co  Co13  1  0.827543  0.655086  0.000000  1
  Co  Co14  1  0.344914  0.172457  0.000000  1
  Co  Co15  1  0.172457  0.827543  0.000000  1
  Co  Co16  1  0.655086  0.827543  0.000000  1
  Co  Co17  1  0.172457  0.344914  0.000000  1
