# generated using pymatgen
data_BeV7(TcOs)4
_symmetry_space_group_name_H-M   'P 1'
_cell_length_a   6.01491000
_cell_length_b   4.24875200
_cell_length_c   8.48570400
_cell_angle_alpha   90.00000000
_cell_angle_beta   89.99977091
_cell_angle_gamma   90.00000000
_symmetry_Int_Tables_number   1
_chemical_formula_structural   BeV7(TcOs)4
_chemical_formula_sum   'Be1 V7 Tc4 Os4'
_cell_volume   216.85947100
_cell_formula_units_Z   1
loop_
 _symmetry_equiv_pos_site_id
 _symmetry_equiv_pos_as_xyz
  1  'x, y, z'
loop_
 _atom_site_type_symbol
 _atom_site_label
 _atom_site_symmetry_multiplicity
 _atom_site_fract_x
 _atom_site_fract_y
 _atom_site_fract_z
 _atom_site_occupancy
  Be  Be0  1  0.999987  0.750001  0.124985  1
  V  V1  1  0.499881  0.750001  0.125006  1
  V  V2  1  0.999744  0.250001  0.366894  1
  V  V3  1  0.499847  0.250001  0.373664  1
  V  V4  1  0.501373  0.750001  0.624992  1
  V  V5  1  0.001908  0.750001  0.625006  1
  V  V6  1  0.499833  0.250001  0.876338  1
  V  V7  1  0.999731  0.250001  0.883112  1
  Tc  Tc8  1  0.751331  0.250001  0.125004  1
  Tc  Tc9  1  0.248990  0.750001  0.374605  1
  Tc  Tc10  1  0.750163  0.250001  0.624998  1
  Tc  Tc11  1  0.248983  0.750001  0.875395  1
  Os  Os12  1  0.246185  0.250001  0.125003  1
  Os  Os13  1  0.751181  0.750001  0.374241  1
  Os  Os14  1  0.249699  0.250001  0.624999  1
  Os  Os15  1  0.751163  0.750001  0.875759  1
