# generated using pymatgen
data_Er3TmAl18ZnIr5
_symmetry_space_group_name_H-M   'P 1'
_cell_length_a   7.57318691
_cell_length_b   7.57493817
_cell_length_c   9.41537429
_cell_angle_alpha   90.03745596
_cell_angle_beta   90.05207976
_cell_angle_gamma   119.60290988
_symmetry_Int_Tables_number   1
_chemical_formula_structural   Er3TmAl18ZnIr5
_chemical_formula_sum   'Er3 Tm1 Al18 Zn1 Ir5'
_cell_volume   469.62299283
_cell_formula_units_Z   1
loop_
 _symmetry_equiv_pos_site_id
 _symmetry_equiv_pos_as_xyz
  1  'x, y, z'
loop_
 _atom_site_type_symbol
 _atom_site_label
 _atom_site_symmetry_multiplicity
 _atom_site_fract_x
 _atom_site_fract_y
 _atom_site_fract_z
 _atom_site_occupancy
  Er  Er0  1  0.996422  0.675093  0.250174  1
  Er  Er1  1  0.003946  0.324628  0.749847  1
  Er  Er2  1  0.674120  0.995374  0.250060  1
  Tm  Tm3  1  0.324915  0.004734  0.750000  1
  Al  Al4  1  0.134282  0.133849  0.255566  1
  Al  Al5  1  0.864772  0.865638  0.744124  1
  Al  Al6  1  0.001776  0.344057  0.079971  1
  Al  Al7  1  0.999061  0.656179  0.920121  1
  Al  Al8  1  0.001505  0.665165  0.572720  1
  Al  Al9  1  0.335367  0.999376  0.428287  1
  Al  Al10  1  0.999095  0.335373  0.427265  1
  Al  Al11  1  0.663916  0.000818  0.572308  1
  Al  Al12  1  0.655309  0.998449  0.920087  1
  Al  Al13  1  0.344011  0.002029  0.079119  1
  Al  Al14  1  0.332365  0.332253  0.552206  1
  Al  Al15  1  0.667558  0.667362  0.447818  1
  Al  Al16  1  0.659305  0.659059  0.059990  1
  Al  Al17  1  0.341621  0.341473  0.940339  1
  Al  Al18  1  0.339620  0.550526  0.251285  1
  Al  Al19  1  0.661225  0.448795  0.748726  1
  Al  Al20  1  0.551344  0.339311  0.251427  1
  Al  Al21  1  0.447960  0.659679  0.748569  1
  Zn  Zn22  1  0.999937  0.000061  0.999736  1
  Ir  Ir23  1  0.672327  0.328105  0.999830  1
  Ir  Ir24  1  0.328202  0.672430  0.999843  1
  Ir  Ir25  1  0.328430  0.671727  0.500095  1
  Ir  Ir26  1  0.671593  0.328450  0.500333  1
  Ir  Ir27  1  0.000017  0.000005  0.500151  1
