# generated using pymatgen
data_Zr6Al4ZnCoC2
_symmetry_space_group_name_H-M   'P 1'
_cell_length_a   8.65401135
_cell_length_b   8.66346613
_cell_length_c   8.66347178
_cell_angle_alpha   60.07835615
_cell_angle_beta   60.03521185
_cell_angle_gamma   60.03517101
_symmetry_Int_Tables_number   1
_chemical_formula_structural   Zr6Al4ZnCoC2
_chemical_formula_sum   'Zr12 Al8 Zn2 Co2 C4'
_cell_volume   459.80501855
_cell_formula_units_Z   2
loop_
 _symmetry_equiv_pos_site_id
 _symmetry_equiv_pos_as_xyz
  1  'x, y, z'
loop_
 _atom_site_type_symbol
 _atom_site_label
 _atom_site_symmetry_multiplicity
 _atom_site_fract_x
 _atom_site_fract_y
 _atom_site_fract_z
 _atom_site_occupancy
  Zr  Zr0  1  0.561848  0.939725  0.556202  1
  Zr  Zr1  1  0.308420  0.691573  0.691573  1
  Zr  Zr2  1  0.689786  0.310211  0.310211  1
  Zr  Zr3  1  0.307766  0.693806  0.310276  1
  Zr  Zr4  1  0.688152  0.693798  0.310275  1
  Zr  Zr5  1  0.307766  0.310276  0.693806  1
  Zr  Zr6  1  0.561848  0.556202  0.939725  1
  Zr  Zr7  1  0.941580  0.558427  0.558427  1
  Zr  Zr8  1  0.560214  0.939789  0.939789  1
  Zr  Zr9  1  0.942234  0.939724  0.556194  1
  Zr  Zr10  1  0.688152  0.310275  0.693798  1
  Zr  Zr11  1  0.942234  0.556194  0.939724  1
  Al  Al12  1  0.904137  0.928922  0.928922  1
  Al  Al13  1  0.011986  0.321076  0.321076  1
  Al  Al14  1  0.337586  0.009104  0.315729  1
  Al  Al15  1  0.337586  0.315729  0.009103  1
  Al  Al16  1  0.912414  0.240896  0.934271  1
  Al  Al17  1  0.912414  0.934271  0.240897  1
  Al  Al18  1  0.238015  0.928924  0.928924  1
  Al  Al19  1  0.345863  0.321078  0.321078  1
  Zn  Zn20  1  0.125000  0.625000  0.125000  1
  Zn  Zn21  1  0.125000  0.125000  0.625000  1
  Co  Co22  1  0.125000  0.125000  0.125000  1
  Co  Co23  1  0.625000  0.125000  0.125000  1
  C  C24  1  0.625000  0.625000  0.625000  1
  C  C25  1  0.125000  0.625000  0.625000  1
  C  C26  1  0.625000  0.125000  0.625000  1
  C  C27  1  0.625000  0.625000  0.125000  1
