# generated using pymatgen
data_Nd5Mg2P12Ru17
_symmetry_space_group_name_H-M   'P 1'
_cell_length_a   12.84360100
_cell_length_b   12.69327037
_cell_length_c   4.02185400
_cell_angle_alpha   90.00000000
_cell_angle_beta   90.00000000
_cell_angle_gamma   120.39256162
_symmetry_Int_Tables_number   1
_chemical_formula_structural   Nd5Mg2P12Ru17
_chemical_formula_sum   'Nd5 Mg2 P12 Ru17'
_cell_volume   565.56913134
_cell_formula_units_Z   1
loop_
 _symmetry_equiv_pos_site_id
 _symmetry_equiv_pos_as_xyz
  1  'x, y, z'
loop_
 _atom_site_type_symbol
 _atom_site_label
 _atom_site_symmetry_multiplicity
 _atom_site_fract_x
 _atom_site_fract_y
 _atom_site_fract_z
 _atom_site_occupancy
  Nd  Nd0  1  0.999082  0.180583  0.500000  1
  Nd  Nd1  1  0.818500  0.819417  0.500000  1
  Nd  Nd2  1  0.182885  0.000000  0.500000  1
  Nd  Nd3  1  0.664274  0.326787  0.000000  1
  Nd  Nd4  1  0.337486  0.673213  0.000000  1
  Mg  Mg5  1  0.000171  0.562565  0.000000  1
  Mg  Mg6  1  0.437606  0.437435  0.000000  1
  P  P7  1  0.999791  0.809995  0.000000  1
  P  P8  1  0.189796  0.190005  0.000000  1
  P  P9  1  0.813984  0.000000  0.000000  1
  P  P10  1  0.691543  0.168608  0.500000  1
  P  P11  1  0.818298  0.517949  0.500000  1
  P  P12  1  0.477123  0.298933  0.500000  1
  P  P13  1  0.178190  0.701067  0.500000  1
  P  P14  1  0.522935  0.831392  0.500000  1
  P  P15  1  0.300350  0.482051  0.500000  1
  P  P16  1  0.000579  0.364016  0.000000  1
  P  P17  1  0.636563  0.635984  0.000000  1
  P  P18  1  0.378362  0.000000  0.000000  1
  Ru  Ru19  1  0.556637  0.000000  0.000000  1
  Ru  Ru20  1  0.999260  0.714081  0.500000  1
  Ru  Ru21  1  0.285179  0.285919  0.500000  1
  Ru  Ru22  1  0.714620  0.000000  0.500000  1
  Ru  Ru23  1  0.806122  0.183547  0.000000  1
  Ru  Ru24  1  0.814572  0.617456  0.000000  1
  Ru  Ru25  1  0.378144  0.192372  0.000000  1
  Ru  Ru26  1  0.185772  0.807628  0.000000  1
  Ru  Ru27  1  0.622575  0.816453  0.000000  1
  Ru  Ru28  1  0.197116  0.382544  0.000000  1
  Ru  Ru29  1  0.873902  0.364869  0.500000  1
  Ru  Ru30  1  0.630593  0.512313  0.500000  1
  Ru  Ru31  1  0.490212  0.122264  0.500000  1
  Ru  Ru32  1  0.367948  0.877736  0.500000  1
  Ru  Ru33  1  0.509033  0.635131  0.500000  1
  Ru  Ru34  1  0.118280  0.487687  0.500000  1
  Ru  Ru35  1  0.002516  0.000000  0.000000  1
