# generated using pymatgen
data_SrLa5TbOsI12
_symmetry_space_group_name_H-M   'P 1'
_cell_length_a   10.11843378
_cell_length_b   10.15021414
_cell_length_c   10.24644523
_cell_angle_alpha   106.11223094
_cell_angle_beta   106.74669232
_cell_angle_gamma   106.56038229
_symmetry_Int_Tables_number   1
_chemical_formula_structural   SrLa5TbOsI12
_chemical_formula_sum   'Sr1 La5 Tb1 Os1 I12'
_cell_volume   888.68379214
_cell_formula_units_Z   1
loop_
 _symmetry_equiv_pos_site_id
 _symmetry_equiv_pos_as_xyz
  1  'x, y, z'
loop_
 _atom_site_type_symbol
 _atom_site_label
 _atom_site_symmetry_multiplicity
 _atom_site_fract_x
 _atom_site_fract_y
 _atom_site_fract_z
 _atom_site_occupancy
  Sr  Sr0  1  0.497748  0.499125  0.500735  1
  La  La1  1  0.297783  0.023983  0.098671  1
  La  La2  1  0.095856  0.295607  0.021162  1
  La  La3  1  0.976470  0.899262  0.685253  1
  La  La4  1  0.704053  0.977549  0.907057  1
  La  La5  1  0.904615  0.704494  0.977397  1
  Tb  Tb6  1  0.024239  0.098196  0.299399  1
  Os  Os7  1  0.001356  0.000521  0.000047  1
  I  I8  1  0.541975  0.622295  0.850052  1
  I  I9  1  0.853194  0.544417  0.626050  1
  I  I10  1  0.622637  0.853536  0.546725  1
  I  I11  1  0.458823  0.377791  0.152267  1
  I  I12  1  0.138739  0.441855  0.373355  1
  I  I13  1  0.362483  0.144660  0.454175  1
  I  I14  1  0.072803  0.225198  0.673958  1
  I  I15  1  0.694352  0.077336  0.234575  1
  I  I16  1  0.228360  0.679613  0.075992  1
  I  I17  1  0.929823  0.787136  0.320078  1
  I  I18  1  0.322476  0.927019  0.777689  1
  I  I19  1  0.772216  0.320407  0.925363  1
