# generated using pymatgen
data_NaPr3CCl6
_symmetry_space_group_name_H-M   'P 1'
_cell_length_a   9.08379010
_cell_length_b   8.80713290
_cell_length_c   9.53475486
_cell_angle_alpha   67.92770347
_cell_angle_beta   84.05196979
_cell_angle_gamma   87.35340054
_symmetry_Int_Tables_number   1
_chemical_formula_structural   NaPr3CCl6
_chemical_formula_sum   'Na2 Pr6 C2 Cl12'
_cell_volume   703.06813608
_cell_formula_units_Z   2
loop_
 _symmetry_equiv_pos_site_id
 _symmetry_equiv_pos_as_xyz
  1  'x, y, z'
loop_
 _atom_site_type_symbol
 _atom_site_label
 _atom_site_symmetry_multiplicity
 _atom_site_fract_x
 _atom_site_fract_y
 _atom_site_fract_z
 _atom_site_occupancy
  Na  Na0  1  0.377116  0.034553  0.346864  1
  Na  Na1  1  0.622883  0.965441  0.653135  1
  Pr  Pr2  1  0.909672  0.730315  0.005676  1
  Pr  Pr3  1  0.090329  0.269691  0.994321  1
  Pr  Pr4  1  0.738638  0.102186  0.002117  1
  Pr  Pr5  1  0.261365  0.897819  0.997881  1
  Pr  Pr6  1  0.973952  0.852061  0.341307  1
  Pr  Pr7  1  0.026048  0.147935  0.658693  1
  C  C8  1  0.005908  0.032239  0.920001  1
  C  C9  1  0.994094  0.967764  0.080001  1
  Cl  Cl10  1  0.094327  0.165122  0.329910  1
  Cl  Cl11  1  0.905670  0.834874  0.670092  1
  Cl  Cl12  1  0.194257  0.589912  0.998222  1
  Cl  Cl13  1  0.805741  0.410089  0.001785  1
  Cl  Cl14  1  0.398575  0.177314  0.018425  1
  Cl  Cl15  1  0.601425  0.822691  0.981577  1
  Cl  Cl16  1  0.675694  0.997206  0.338469  1
  Cl  Cl17  1  0.324304  0.002790  0.661530  1
  Cl  Cl18  1  0.276149  0.762627  0.320749  1
  Cl  Cl19  1  0.723850  0.237369  0.679249  1
  Cl  Cl20  1  0.866645  0.570520  0.325453  1
  Cl  Cl21  1  0.133356  0.429482  0.674541  1
