# generated using pymatgen
data_Sm5P4(Pt4Rh)3
_symmetry_space_group_name_H-M   'P 1'
_cell_length_a   4.07375500
_cell_length_b   4.10021100
_cell_length_c   25.78188200
_cell_angle_alpha   90.00000000
_cell_angle_beta   90.00000000
_cell_angle_gamma   90.00000000
_symmetry_Int_Tables_number   1
_chemical_formula_structural   Sm5P4(Pt4Rh)3
_chemical_formula_sum   'Sm5 P4 Pt12 Rh3'
_cell_volume   430.64135103
_cell_formula_units_Z   1
loop_
 _symmetry_equiv_pos_site_id
 _symmetry_equiv_pos_as_xyz
  1  'x, y, z'
loop_
 _atom_site_type_symbol
 _atom_site_label
 _atom_site_symmetry_multiplicity
 _atom_site_fract_x
 _atom_site_fract_y
 _atom_site_fract_z
 _atom_site_occupancy
  Sm  Sm0  1  0.000000  0.000000  0.898383  1
  Sm  Sm1  1  0.000000  0.000000  0.098448  1
  Sm  Sm2  1  0.000000  0.000000  0.313341  1
  Sm  Sm3  1  0.000000  0.000000  0.500940  1
  Sm  Sm4  1  0.000000  0.000000  0.690890  1
  P  P5  1  0.500000  0.500000  0.156562  1
  P  P6  1  0.500000  0.500000  0.369389  1
  P  P7  1  0.500000  0.500000  0.631913  1
  P  P8  1  0.500000  0.500000  0.840425  1
  Pt  Pt9  1  0.500000  0.500000  0.927430  1
  Pt  Pt10  1  0.500000  0.500000  0.069867  1
  Pt  Pt11  1  0.500000  0.500000  0.281020  1
  Pt  Pt12  1  0.500000  0.500000  0.500690  1
  Pt  Pt13  1  0.500000  0.500000  0.719945  1
  Pt  Pt14  1  0.500000  0.000000  0.998801  1
  Pt  Pt15  1  0.500000  0.000000  0.204294  1
  Pt  Pt16  1  0.500000  0.000000  0.415372  1
  Pt  Pt17  1  0.500000  0.000000  0.586202  1
  Pt  Pt18  1  0.500000  0.000000  0.794679  1
  Pt  Pt19  1  0.000000  0.500000  0.998735  1
  Pt  Pt20  1  0.000000  0.500000  0.204472  1
  Rh  Rh21  1  0.000000  0.500000  0.414407  1
  Rh  Rh22  1  0.000000  0.500000  0.587357  1
  Rh  Rh23  1  0.000000  0.500000  0.796438  1
