# generated using pymatgen
data_Gd4Cd2Si3Ge
_symmetry_space_group_name_H-M   'P 1'
_cell_length_a   7.23034800
_cell_length_b   7.23034824
_cell_length_c   4.23578200
_cell_angle_alpha   90.00000000
_cell_angle_beta   90.00000000
_cell_angle_gamma   90.13217028
_symmetry_Int_Tables_number   1
_chemical_formula_structural   Gd4Cd2Si3Ge
_chemical_formula_sum   'Gd4 Cd2 Si3 Ge1'
_cell_volume   221.43734232
_cell_formula_units_Z   1
loop_
 _symmetry_equiv_pos_site_id
 _symmetry_equiv_pos_as_xyz
  1  'x, y, z'
loop_
 _atom_site_type_symbol
 _atom_site_label
 _atom_site_symmetry_multiplicity
 _atom_site_fract_x
 _atom_site_fract_y
 _atom_site_fract_z
 _atom_site_occupancy
  Gd  Gd0  1  0.680052  0.177580  0.500000  1
  Gd  Gd1  1  0.322420  0.819948  0.500000  1
  Gd  Gd2  1  0.175967  0.324033  0.500000  1
  Gd  Gd3  1  0.822710  0.677290  0.500000  1
  Cd  Cd4  1  0.501407  0.502971  0.000000  1
  Cd  Cd5  1  0.997029  0.998593  0.000000  1
  Si  Si6  1  0.116102  0.616685  0.000000  1
  Si  Si7  1  0.883315  0.383898  0.000000  1
  Si  Si8  1  0.619852  0.880148  0.000000  1
  Ge  Ge9  1  0.381148  0.118852  0.000000  1
