# generated using pymatgen
data_HoMgBPd6
_symmetry_space_group_name_H-M   'P 1'
_cell_length_a   5.83941052
_cell_length_b   5.83941073
_cell_length_c   5.83941100
_cell_angle_alpha   60.00000411
_cell_angle_beta   60.00000293
_cell_angle_gamma   59.99999986
_symmetry_Int_Tables_number   1
_chemical_formula_structural   HoMgBPd6
_chemical_formula_sum   'Ho1 Mg1 B1 Pd6'
_cell_volume   140.79657792
_cell_formula_units_Z   1
loop_
 _symmetry_equiv_pos_site_id
 _symmetry_equiv_pos_as_xyz
  1  'x, y, z'
loop_
 _atom_site_type_symbol
 _atom_site_label
 _atom_site_symmetry_multiplicity
 _atom_site_fract_x
 _atom_site_fract_y
 _atom_site_fract_z
 _atom_site_occupancy
  Ho  Ho0  1  0.750000  0.750000  0.750000  1
  Mg  Mg1  1  0.250000  0.250000  0.250000  1
  B  B2  1  0.499999  0.499999  0.499999  1
  Pd  Pd3  1  0.756154  0.243845  0.243845  1
  Pd  Pd4  1  0.243845  0.756154  0.243845  1
  Pd  Pd5  1  0.756154  0.756154  0.243845  1
  Pd  Pd6  1  0.243845  0.243845  0.756154  1
  Pd  Pd7  1  0.756154  0.243845  0.756154  1
  Pd  Pd8  1  0.243845  0.756154  0.756154  1
