# generated using pymatgen
data_B2PdPtRh2
_symmetry_space_group_name_H-M   'P 1'
_cell_length_a   6.71970958
_cell_length_b   6.10362717
_cell_length_c   5.52177148
_cell_angle_alpha   70.41950193
_cell_angle_beta   58.84718927
_cell_angle_gamma   50.61247461
_symmetry_Int_Tables_number   1
_chemical_formula_structural   B2PdPtRh2
_chemical_formula_sum   'B4 Pd2 Pt2 Rh4'
_cell_volume   149.78507537
_cell_formula_units_Z   2
loop_
 _symmetry_equiv_pos_site_id
 _symmetry_equiv_pos_as_xyz
  1  'x, y, z'
loop_
 _atom_site_type_symbol
 _atom_site_label
 _atom_site_symmetry_multiplicity
 _atom_site_fract_x
 _atom_site_fract_y
 _atom_site_fract_z
 _atom_site_occupancy
  B  B0  1  0.048026  0.989440  0.559743  1
  B  B1  1  0.685127  0.862793  0.206551  1
  B  B2  1  0.387207  0.564873  0.004469  1
  B  B3  1  0.260560  0.201974  0.847210  1
  Pd  Pd4  1  0.868433  0.367460  0.293658  1
  Pd  Pd5  1  0.882540  0.381567  0.779549  1
  Pt  Pt6  1  0.962198  0.776044  0.377530  1
  Pt  Pt7  1  0.473956  0.287802  0.365773  1
  Rh  Rh8  1  0.091159  0.644436  0.861088  1
  Rh  Rh9  1  0.391350  0.850919  0.155138  1
  Rh  Rh10  1  0.605564  0.158841  0.846683  1
  Rh  Rh11  1  0.399081  0.858650  0.647407  1
