# generated using pymatgen
data_MgMn3Zn2(B2Rh5)2
_symmetry_space_group_name_H-M   'P 1'
_cell_length_a   9.36746813
_cell_length_b   9.36746813
_cell_length_c   2.92990000
_cell_angle_alpha   90.00000000
_cell_angle_beta   90.00000000
_cell_angle_gamma   89.69067782
_symmetry_Int_Tables_number   1
_chemical_formula_structural   MgMn3Zn2(B2Rh5)2
_chemical_formula_sum   'Mg1 Mn3 Zn2 B4 Rh10'
_cell_volume   257.09339364
_cell_formula_units_Z   1
loop_
 _symmetry_equiv_pos_site_id
 _symmetry_equiv_pos_as_xyz
  1  'x, y, z'
loop_
 _atom_site_type_symbol
 _atom_site_label
 _atom_site_symmetry_multiplicity
 _atom_site_fract_x
 _atom_site_fract_y
 _atom_site_fract_z
 _atom_site_occupancy
  Mg  Mg0  1  0.824008  0.324008  0.000000  1
  Mn  Mn1  1  0.323393  0.177157  0.000000  1
  Mn  Mn2  1  0.677157  0.823393  0.000000  1
  Mn  Mn3  1  0.177617  0.677617  0.000000  1
  Zn  Zn4  1  0.999867  0.000452  0.000000  1
  Zn  Zn5  1  0.500452  0.499867  0.000000  1
  B  B6  1  0.626580  0.126580  0.000000  1
  B  B7  1  0.127599  0.372037  0.000000  1
  B  B8  1  0.872037  0.627599  0.000000  1
  B  B9  1  0.371975  0.871975  0.000000  1
  Rh  Rh10  1  0.075418  0.214750  0.500000  1
  Rh  Rh11  1  0.215705  0.929060  0.500000  1
  Rh  Rh12  1  0.782002  0.065926  0.500000  1
  Rh  Rh13  1  0.929696  0.784619  0.500000  1
  Rh  Rh14  1  0.429060  0.715705  0.500000  1
  Rh  Rh15  1  0.565926  0.282002  0.500000  1
  Rh  Rh16  1  0.714750  0.575418  0.500000  1
  Rh  Rh17  1  0.284619  0.429696  0.500000  1
  Rh  Rh18  1  0.499078  0.999078  0.500000  1
  Rh  Rh19  1  0.003062  0.503062  0.500000  1
