# generated using pymatgen
data_Ti17Nb2Si16W
_symmetry_space_group_name_H-M   'P 1'
_cell_length_a   6.70610421
_cell_length_b   6.70610466
_cell_length_c   12.25000356
_cell_angle_alpha   90.00166250
_cell_angle_beta   89.99833539
_cell_angle_gamma   89.95838639
_symmetry_Int_Tables_number   1
_chemical_formula_structural   Ti17Nb2Si16W
_chemical_formula_sum   'Ti17 Nb2 Si16 W1'
_cell_volume   550.90501349
_cell_formula_units_Z   1
loop_
 _symmetry_equiv_pos_site_id
 _symmetry_equiv_pos_as_xyz
  1  'x, y, z'
loop_
 _atom_site_type_symbol
 _atom_site_label
 _atom_site_symmetry_multiplicity
 _atom_site_fract_x
 _atom_site_fract_y
 _atom_site_fract_z
 _atom_site_occupancy
  Ti  Ti0  1  0.995186  0.149583  0.621433  1
  Ti  Ti1  1  0.350815  0.494703  0.871548  1
  Ti  Ti2  1  0.648814  0.504870  0.371368  1
  Ti  Ti3  1  0.494703  0.350815  0.128452  1
  Ti  Ti4  1  0.504870  0.648814  0.628632  1
  Ti  Ti5  1  0.005934  0.850691  0.120988  1
  Ti  Ti6  1  0.149583  0.995186  0.378567  1
  Ti  Ti7  1  0.850691  0.005934  0.879012  1
  Ti  Ti8  1  0.003768  0.345058  0.219723  1
  Ti  Ti9  1  0.156365  0.503935  0.469058  1
  Ti  Ti10  1  0.842559  0.495894  0.969682  1
  Ti  Ti11  1  0.503935  0.156365  0.530942  1
  Ti  Ti12  1  0.495894  0.842559  0.030318  1
  Ti  Ti13  1  0.996179  0.656751  0.719751  1
  Ti  Ti14  1  0.345058  0.003768  0.780277  1
  Ti  Ti15  1  0.656751  0.996179  0.280249  1
  Ti  Ti16  1  0.829686  0.829686  0.500000  1
  Nb  Nb17  1  0.328455  0.671016  0.249794  1
  Nb  Nb18  1  0.671016  0.328455  0.750206  1
  Si  Si19  1  0.047295  0.300513  0.813175  1
  Si  Si20  1  0.197148  0.542772  0.061683  1
  Si  Si21  1  0.803197  0.456969  0.561161  1
  Si  Si22  1  0.542772  0.197148  0.938317  1
  Si  Si23  1  0.456969  0.803197  0.438839  1
  Si  Si24  1  0.952323  0.699907  0.314248  1
  Si  Si25  1  0.300513  0.047295  0.186825  1
  Si  Si26  1  0.699907  0.952323  0.685752  1
  Si  Si27  1  0.292189  0.358824  0.671562  1
  Si  Si28  1  0.141673  0.794577  0.921655  1
  Si  Si29  1  0.857527  0.205011  0.422862  1
  Si  Si30  1  0.794577  0.141673  0.078345  1
  Si  Si31  1  0.205011  0.857527  0.577138  1
  Si  Si32  1  0.707983  0.641199  0.172113  1
  Si  Si33  1  0.358824  0.292189  0.328438  1
  Si  Si34  1  0.641199  0.707983  0.827887  1
  W  W35  1  0.170629  0.170629  0.000000  1
