# generated using pymatgen
data_Lu2Ni7AgB2
_symmetry_space_group_name_H-M   'P 1'
_cell_length_a   4.95363245
_cell_length_b   4.95110254
_cell_length_c   14.02847900
_cell_angle_alpha   90.00000000
_cell_angle_beta   90.00000000
_cell_angle_gamma   120.21194712
_symmetry_Int_Tables_number   1
_chemical_formula_structural   Lu2Ni7AgB2
_chemical_formula_sum   'Lu4 Ni14 Ag2 B4'
_cell_volume   297.32773361
_cell_formula_units_Z   2
loop_
 _symmetry_equiv_pos_site_id
 _symmetry_equiv_pos_as_xyz
  1  'x, y, z'
loop_
 _atom_site_type_symbol
 _atom_site_label
 _atom_site_symmetry_multiplicity
 _atom_site_fract_x
 _atom_site_fract_y
 _atom_site_fract_z
 _atom_site_occupancy
  Lu  Lu0  1  0.666706  0.333349  0.472063  1
  Lu  Lu1  1  0.333294  0.666651  0.972063  1
  Lu  Lu2  1  0.333380  0.666636  0.740876  1
  Lu  Lu3  1  0.666620  0.333364  0.240876  1
  Ni  Ni4  1  0.999962  0.000003  0.001093  1
  Ni  Ni5  1  0.000038  0.999997  0.501093  1
  Ni  Ni6  1  0.165333  0.330912  0.147663  1
  Ni  Ni7  1  0.834667  0.669088  0.647663  1
  Ni  Ni8  1  0.669020  0.834586  0.147641  1
  Ni  Ni9  1  0.165329  0.834577  0.147612  1
  Ni  Ni10  1  0.834671  0.165423  0.647612  1
  Ni  Ni11  1  0.330980  0.165414  0.647641  1
  Ni  Ni12  1  0.833427  0.666794  0.853175  1
  Ni  Ni13  1  0.833298  0.166482  0.853216  1
  Ni  Ni14  1  0.333165  0.166605  0.853183  1
  Ni  Ni15  1  0.666835  0.833395  0.353183  1
  Ni  Ni16  1  0.166702  0.833518  0.353216  1
  Ni  Ni17  1  0.166573  0.333206  0.353175  1
  Ag  Ag18  1  0.333389  0.666622  0.530190  1
  Ag  Ag19  1  0.666611  0.333378  0.030190  1
  B  B20  1  0.333284  0.666737  0.250182  1
  B  B21  1  0.666716  0.333263  0.750182  1
  B  B22  1  0.999983  0.000051  0.253106  1
  B  B23  1  0.000017  0.999949  0.753106  1
