# generated using pymatgen
data_Nd3YIn2Ir2Au
_symmetry_space_group_name_H-M   'P 1'
_cell_length_a   7.80570615
_cell_length_b   7.68367574
_cell_length_c   4.21706400
_cell_angle_alpha   90.00000000
_cell_angle_beta   90.00000000
_cell_angle_gamma   119.09361851
_symmetry_Int_Tables_number   1
_chemical_formula_structural   Nd3YIn2Ir2Au
_chemical_formula_sum   'Nd3 Y1 In2 Ir2 Au1'
_cell_volume   221.01236552
_cell_formula_units_Z   1
loop_
 _symmetry_equiv_pos_site_id
 _symmetry_equiv_pos_as_xyz
  1  'x, y, z'
loop_
 _atom_site_type_symbol
 _atom_site_label
 _atom_site_symmetry_multiplicity
 _atom_site_fract_x
 _atom_site_fract_y
 _atom_site_fract_z
 _atom_site_occupancy
  Nd  Nd0  1  0.984114  0.609549  0.500000  1
  Nd  Nd1  1  0.582261  0.001266  0.500000  1
  Nd  Nd2  1  0.436515  0.400822  0.500000  1
  Y  Y3  1  0.994526  0.235406  0.000000  1
  In  In4  1  0.253441  0.006811  0.000000  1
  In  In5  1  0.749037  0.755068  0.000000  1
  Ir  Ir6  1  0.000658  0.997593  0.500000  1
  Ir  Ir7  1  0.672495  0.332780  0.000000  1
  Au  Au8  1  0.326955  0.660704  0.000000  1
