# generated using pymatgen
data_Co2TeMoO7
_symmetry_space_group_name_H-M   'P 1'
_cell_length_a   8.65785200
_cell_length_b   5.25225197
_cell_length_c   7.36780649
_cell_angle_alpha   79.64795073
_cell_angle_beta   90.00000000
_cell_angle_gamma   90.00000000
_symmetry_Int_Tables_number   1
_chemical_formula_structural   Co2TeMoO7
_chemical_formula_sum   'Co4 Te2 Mo2 O14'
_cell_volume   329.58420863
_cell_formula_units_Z   2
loop_
 _symmetry_equiv_pos_site_id
 _symmetry_equiv_pos_as_xyz
  1  'x, y, z'
loop_
 _atom_site_type_symbol
 _atom_site_label
 _atom_site_symmetry_multiplicity
 _atom_site_fract_x
 _atom_site_fract_y
 _atom_site_fract_z
 _atom_site_occupancy
  Co  Co0  1  0.467803  0.943272  0.517844  1
  Co  Co1  1  0.967803  0.056728  0.482156  1
  Co  Co2  1  0.632513  0.525119  0.242907  1
  Co  Co3  1  0.132513  0.474881  0.757093  1
  Te  Te4  1  0.757161  0.505678  0.643553  1
  Te  Te5  1  0.257161  0.494322  0.356447  1
  Mo  Mo6  1  0.466594  0.084744  0.980859  1
  Mo  Mo7  1  0.966594  0.915256  0.019141  1
  O  O8  1  0.944831  0.702639  0.628511  1
  O  O9  1  0.444831  0.297361  0.371489  1
  O  O10  1  0.651037  0.745212  0.455414  1
  O  O11  1  0.151037  0.254788  0.544586  1
  O  O12  1  0.446467  0.794108  0.159351  1
  O  O13  1  0.946467  0.205892  0.840649  1
  O  O14  1  0.796748  0.310969  0.452614  1
  O  O15  1  0.296748  0.689031  0.547386  1
  O  O16  1  0.610355  0.296456  0.045284  1
  O  O17  1  0.110355  0.703544  0.954716  1
  O  O18  1  0.287636  0.253133  0.940111  1
  O  O19  1  0.787636  0.746867  0.059889  1
  O  O20  1  0.529216  0.001098  0.766095  1
  O  O21  1  0.029216  0.998902  0.233905  1
