# generated using pymatgen
data_Ac2Zn19Pd3
_symmetry_space_group_name_H-M   'P 1'
_cell_length_a   8.41424551
_cell_length_b   8.43470025
_cell_length_c   8.41451973
_cell_angle_alpha   99.28196952
_cell_angle_beta   100.26789029
_cell_angle_gamma   131.18752016
_symmetry_Int_Tables_number   1
_chemical_formula_structural   Ac2Zn19Pd3
_chemical_formula_sum   'Ac2 Zn19 Pd3'
_cell_volume   409.71442978
_cell_formula_units_Z   1
loop_
 _symmetry_equiv_pos_site_id
 _symmetry_equiv_pos_as_xyz
  1  'x, y, z'
loop_
 _atom_site_type_symbol
 _atom_site_label
 _atom_site_symmetry_multiplicity
 _atom_site_fract_x
 _atom_site_fract_y
 _atom_site_fract_z
 _atom_site_occupancy
  Ac  Ac0  1  0.998541  0.999943  0.001405  1
  Ac  Ac1  1  0.251459  0.750057  0.498595  1
  Zn  Zn2  1  0.758148  0.262610  0.504565  1
  Zn  Zn3  1  0.491852  0.487390  0.995435  1
  Zn  Zn4  1  0.625000  0.875000  0.250000  1
  Zn  Zn5  1  0.187131  0.515241  0.080993  1
  Zn  Zn6  1  0.183977  0.101350  0.669464  1
  Zn  Zn7  1  0.766967  0.936665  0.585358  1
  Zn  Zn8  1  0.764871  0.182287  0.829528  1
  Zn  Zn9  1  0.434244  0.515313  0.328183  1
  Zn  Zn10  1  0.431932  0.101340  0.917393  1
  Zn  Zn11  1  0.351277  0.936599  0.169565  1
  Zn  Zn12  1  0.352752  0.182320  0.417497  1
  Zn  Zn13  1  0.062869  0.234759  0.419007  1
  Zn  Zn14  1  0.066023  0.648650  0.830536  1
  Zn  Zn15  1  0.483033  0.813335  0.914642  1
  Zn  Zn16  1  0.485129  0.567713  0.670472  1
  Zn  Zn17  1  0.815756  0.234687  0.171817  1
  Zn  Zn18  1  0.818068  0.648660  0.582607  1
  Zn  Zn19  1  0.898723  0.813401  0.330435  1
  Zn  Zn20  1  0.897248  0.567680  0.082503  1
  Pd  Pd21  1  0.125000  0.375000  0.750000  1
  Pd  Pd22  1  0.625000  0.375000  0.750000  1
  Pd  Pd23  1  0.625000  0.375000  0.250000  1
