# generated using pymatgen
data_Nd3Ho5(HgRh)2
_symmetry_space_group_name_H-M   'P 1'
_cell_length_a   9.68839285
_cell_length_b   9.68839340
_cell_length_c   9.68839300
_cell_angle_alpha   59.99999796
_cell_angle_beta   59.99999608
_cell_angle_gamma   59.99999927
_symmetry_Int_Tables_number   1
_chemical_formula_structural   Nd3Ho5(HgRh)2
_chemical_formula_sum   'Nd6 Ho10 Hg4 Rh4'
_cell_volume   643.04332316
_cell_formula_units_Z   2
loop_
 _symmetry_equiv_pos_site_id
 _symmetry_equiv_pos_as_xyz
  1  'x, y, z'
loop_
 _atom_site_type_symbol
 _atom_site_label
 _atom_site_symmetry_multiplicity
 _atom_site_fract_x
 _atom_site_fract_y
 _atom_site_fract_z
 _atom_site_occupancy
  Nd  Nd0  1  0.189341  0.810659  0.810659  1
  Nd  Nd1  1  0.810659  0.189341  0.189341  1
  Nd  Nd2  1  0.810659  0.189341  0.810659  1
  Nd  Nd3  1  0.189341  0.810659  0.189341  1
  Nd  Nd4  1  0.810659  0.810659  0.189341  1
  Nd  Nd5  1  0.189341  0.189341  0.810659  1
  Ho  Ho6  1  0.599551  0.599551  0.599551  1
  Ho  Ho7  1  0.599551  0.599551  0.201349  1
  Ho  Ho8  1  0.599551  0.201349  0.599551  1
  Ho  Ho9  1  0.201349  0.599551  0.599551  1
  Ho  Ho10  1  0.062755  0.437245  0.437245  1
  Ho  Ho11  1  0.437245  0.062755  0.062755  1
  Ho  Ho12  1  0.437245  0.062755  0.437245  1
  Ho  Ho13  1  0.062755  0.437245  0.062755  1
  Ho  Ho14  1  0.437245  0.437245  0.062755  1
  Ho  Ho15  1  0.062755  0.062755  0.437245  1
  Hg  Hg16  1  0.832610  0.832610  0.832610  1
  Hg  Hg17  1  0.832610  0.832610  0.502170  1
  Hg  Hg18  1  0.832610  0.502170  0.832610  1
  Hg  Hg19  1  0.502170  0.832610  0.832610  1
  Rh  Rh20  1  0.392282  0.392282  0.392282  1
  Rh  Rh21  1  0.392282  0.392282  0.823155  1
  Rh  Rh22  1  0.392282  0.823155  0.392282  1
  Rh  Rh23  1  0.823155  0.392282  0.392282  1
