# generated using pymatgen
data_PuTh(PbCl6)2
_symmetry_space_group_name_H-M   'P 1'
_cell_length_a   6.86293400
_cell_length_b   6.86293288
_cell_length_c   12.88525700
_cell_angle_alpha   90.00000000
_cell_angle_beta   90.00000000
_cell_angle_gamma   119.99999533
_symmetry_Int_Tables_number   1
_chemical_formula_structural   PuTh(PbCl6)2
_chemical_formula_sum   'Pu1 Th1 Pb2 Cl12'
_cell_volume   525.58542245
_cell_formula_units_Z   1
loop_
 _symmetry_equiv_pos_site_id
 _symmetry_equiv_pos_as_xyz
  1  'x, y, z'
loop_
 _atom_site_type_symbol
 _atom_site_label
 _atom_site_symmetry_multiplicity
 _atom_site_fract_x
 _atom_site_fract_y
 _atom_site_fract_z
 _atom_site_occupancy
  Pu  Pu0  1  0.000000  0.000000  0.000000  1
  Th  Th1  1  0.000000  0.000000  0.500000  1
  Pb  Pb2  1  0.666667  0.333333  0.754002  1
  Pb  Pb3  1  0.333333  0.666667  0.245998  1
  Cl  Cl4  1  0.673572  0.990185  0.621156  1
  Cl  Cl5  1  0.326428  0.009815  0.378844  1
  Cl  Cl6  1  0.009815  0.683386  0.621156  1
  Cl  Cl7  1  0.685065  0.694191  0.882614  1
  Cl  Cl8  1  0.990185  0.316614  0.378844  1
  Cl  Cl9  1  0.314935  0.305809  0.117386  1
  Cl  Cl10  1  0.316614  0.326428  0.621156  1
  Cl  Cl11  1  0.009126  0.314935  0.882614  1
  Cl  Cl12  1  0.683386  0.673572  0.378844  1
  Cl  Cl13  1  0.990874  0.685065  0.117386  1
  Cl  Cl14  1  0.305809  0.990874  0.882614  1
  Cl  Cl15  1  0.694191  0.009126  0.117386  1
