# generated using pymatgen
data_Sc8TaNb10Si16W
_symmetry_space_group_name_H-M   'P 1'
_cell_length_a   6.69352509
_cell_length_b   6.88572630
_cell_length_c   13.12837100
_cell_angle_alpha   90.00000000
_cell_angle_beta   90.00000000
_cell_angle_gamma   89.97394701
_symmetry_Int_Tables_number   1
_chemical_formula_structural   Sc8TaNb10Si16W
_chemical_formula_sum   'Sc8 Ta1 Nb10 Si16 W1'
_cell_volume   605.08369101
_cell_formula_units_Z   1
loop_
 _symmetry_equiv_pos_site_id
 _symmetry_equiv_pos_as_xyz
  1  'x, y, z'
loop_
 _atom_site_type_symbol
 _atom_site_label
 _atom_site_symmetry_multiplicity
 _atom_site_fract_x
 _atom_site_fract_y
 _atom_site_fract_z
 _atom_site_occupancy
  Sc  Sc0  1  0.500660  0.674217  0.595031  1
  Sc  Sc1  1  0.000336  0.825306  0.905272  1
  Sc  Sc2  1  0.500466  0.325141  0.094762  1
  Sc  Sc3  1  0.000646  0.174172  0.405239  1
  Sc  Sc4  1  0.500466  0.325141  0.405238  1
  Sc  Sc5  1  0.000646  0.174172  0.094761  1
  Sc  Sc6  1  0.500660  0.674217  0.904969  1
  Sc  Sc7  1  0.000336  0.825306  0.594728  1
  Ta  Ta8  1  0.338003  0.006504  0.750000  1
  Nb  Nb9  1  0.663041  0.174143  0.624469  1
  Nb  Nb10  1  0.163980  0.325493  0.875021  1
  Nb  Nb11  1  0.335490  0.827459  0.125637  1
  Nb  Nb12  1  0.836079  0.673704  0.374276  1
  Nb  Nb13  1  0.335490  0.827459  0.374363  1
  Nb  Nb14  1  0.836079  0.673704  0.125724  1
  Nb  Nb15  1  0.663041  0.174143  0.875531  1
  Nb  Nb16  1  0.163980  0.325493  0.624979  1
  Nb  Nb17  1  0.837906  0.494940  0.750000  1
  Nb  Nb18  1  0.162343  0.505808  0.250000  1
  Si  Si19  1  0.668610  0.966964  0.458865  1
  Si  Si20  1  0.168828  0.532964  0.039543  1
  Si  Si21  1  0.330827  0.032563  0.960557  1
  Si  Si22  1  0.831313  0.467156  0.539470  1
  Si  Si23  1  0.330827  0.032563  0.539443  1
  Si  Si24  1  0.831313  0.467156  0.960530  1
  Si  Si25  1  0.668610  0.966964  0.041135  1
  Si  Si26  1  0.168828  0.532964  0.460457  1
  Si  Si27  1  0.460591  0.387529  0.750000  1
  Si  Si28  1  0.959353  0.113114  0.750000  1
  Si  Si29  1  0.540066  0.613370  0.250000  1
  Si  Si30  1  0.035671  0.889993  0.250000  1
  Si  Si31  1  0.704594  0.861461  0.750000  1
  Si  Si32  1  0.204823  0.639892  0.750000  1
  Si  Si33  1  0.299728  0.138961  0.250000  1
  Si  Si34  1  0.795134  0.355963  0.250000  1
  W  W35  1  0.661231  0.993899  0.250000  1
