# generated using pymatgen
data_Er6Th2SiPt24
_symmetry_space_group_name_H-M   'P 1'
_cell_length_a   8.35470175
_cell_length_b   8.35470150
_cell_length_c   8.35470100
_cell_angle_alpha   89.97568186
_cell_angle_beta   89.97568186
_cell_angle_gamma   89.97567839
_symmetry_Int_Tables_number   1
_chemical_formula_structural   Er6Th2SiPt24
_chemical_formula_sum   'Er6 Th2 Si1 Pt24'
_cell_volume   583.16665531
_cell_formula_units_Z   1
loop_
 _symmetry_equiv_pos_site_id
 _symmetry_equiv_pos_as_xyz
  1  'x, y, z'
loop_
 _atom_site_type_symbol
 _atom_site_label
 _atom_site_symmetry_multiplicity
 _atom_site_fract_x
 _atom_site_fract_y
 _atom_site_fract_z
 _atom_site_occupancy
  Er  Er0  1  0.746654  0.746654  0.253275  1
  Er  Er1  1  0.746654  0.253275  0.746654  1
  Er  Er2  1  0.253346  0.253346  0.746725  1
  Er  Er3  1  0.253346  0.746725  0.253346  1
  Er  Er4  1  0.253275  0.746654  0.746654  1
  Er  Er5  1  0.746725  0.253346  0.253346  1
  Th  Th6  1  0.254035  0.254035  0.254035  1
  Th  Th7  1  0.745965  0.745965  0.745965  1
  Si  Si8  1  0.000000  0.000000  0.000000  1
  Pt  Pt9  1  0.257599  0.500910  0.998263  1
  Pt  Pt10  1  0.742401  0.499090  0.001737  1
  Pt  Pt11  1  0.998263  0.257599  0.500910  1
  Pt  Pt12  1  0.500910  0.257599  0.998263  1
  Pt  Pt13  1  0.001737  0.742401  0.499090  1
  Pt  Pt14  1  0.499090  0.742401  0.001737  1
  Pt  Pt15  1  0.500910  0.998263  0.257599  1
  Pt  Pt16  1  0.257599  0.998263  0.500910  1
  Pt  Pt17  1  0.499090  0.001737  0.742401  1
  Pt  Pt18  1  0.742401  0.001737  0.499090  1
  Pt  Pt19  1  0.998263  0.500910  0.257599  1
  Pt  Pt20  1  0.001737  0.499090  0.742401  1
  Pt  Pt21  1  0.252183  0.502019  0.502019  1
  Pt  Pt22  1  0.747817  0.497981  0.497981  1
  Pt  Pt23  1  0.502019  0.252183  0.502019  1
  Pt  Pt24  1  0.497981  0.747817  0.497981  1
  Pt  Pt25  1  0.502019  0.502019  0.252183  1
  Pt  Pt26  1  0.497981  0.497981  0.747817  1
  Pt  Pt27  1  0.281287  0.997553  0.997553  1
  Pt  Pt28  1  0.718713  0.002447  0.002447  1
  Pt  Pt29  1  0.997553  0.281287  0.997553  1
  Pt  Pt30  1  0.002447  0.718713  0.002447  1
  Pt  Pt31  1  0.997553  0.997553  0.281287  1
  Pt  Pt32  1  0.002447  0.002447  0.718713  1
