# generated using pymatgen
data_TbY5Zr2(Co4P3)4
_symmetry_space_group_name_H-M   'P 1'
_cell_length_a   3.72678900
_cell_length_b   10.71171400
_cell_length_c   12.43467600
_cell_angle_alpha   90.00000000
_cell_angle_beta   90.00000000
_cell_angle_gamma   90.00000000
_symmetry_Int_Tables_number   1
_chemical_formula_structural   TbY5Zr2(Co4P3)4
_chemical_formula_sum   'Tb1 Y5 Zr2 Co16 P12'
_cell_volume   496.39597029
_cell_formula_units_Z   1
loop_
 _symmetry_equiv_pos_site_id
 _symmetry_equiv_pos_as_xyz
  1  'x, y, z'
loop_
 _atom_site_type_symbol
 _atom_site_label
 _atom_site_symmetry_multiplicity
 _atom_site_fract_x
 _atom_site_fract_y
 _atom_site_fract_z
 _atom_site_occupancy
  Tb  Tb0  1  0.500000  0.000000  0.470715  1
  Y  Y1  1  0.000000  0.500000  0.529181  1
  Y  Y2  1  0.500000  0.821453  0.204862  1
  Y  Y3  1  0.500000  0.178547  0.204862  1
  Y  Y4  1  0.000000  0.678466  0.795110  1
  Y  Y5  1  0.000000  0.321534  0.795110  1
  Zr  Zr6  1  0.500000  0.500000  0.158097  1
  Zr  Zr7  1  0.000000  0.000000  0.841859  1
  Co  Co8  1  0.500000  0.500000  0.703552  1
  Co  Co9  1  0.000000  0.000000  0.296474  1
  Co  Co10  1  0.000000  0.500000  0.985910  1
  Co  Co11  1  0.500000  0.000000  0.014065  1
  Co  Co12  1  0.500000  0.332062  0.992779  1
  Co  Co13  1  0.500000  0.667938  0.992779  1
  Co  Co14  1  0.000000  0.168030  0.007194  1
  Co  Co15  1  0.000000  0.831970  0.007194  1
  Co  Co16  1  0.500000  0.295238  0.433467  1
  Co  Co17  1  0.500000  0.704762  0.433467  1
  Co  Co18  1  0.000000  0.204810  0.566565  1
  Co  Co19  1  0.000000  0.795190  0.566565  1
  Co  Co20  1  0.500000  0.877801  0.701095  1
  Co  Co21  1  0.500000  0.122199  0.701095  1
  Co  Co22  1  0.000000  0.622160  0.298894  1
  Co  Co23  1  0.000000  0.377840  0.298894  1
  P  P24  1  0.500000  0.500000  0.883738  1
  P  P25  1  0.000000  0.000000  0.116281  1
  P  P26  1  0.500000  0.500000  0.362706  1
  P  P27  1  0.000000  0.000000  0.637366  1
  P  P28  1  0.500000  0.309620  0.615464  1
  P  P29  1  0.500000  0.690380  0.615464  1
  P  P30  1  0.000000  0.190465  0.384546  1
  P  P31  1  0.000000  0.809535  0.384546  1
  P  P32  1  0.500000  0.838406  0.894562  1
  P  P33  1  0.500000  0.161594  0.894562  1
  P  P34  1  0.000000  0.661591  0.105491  1
  P  P35  1  0.000000  0.338409  0.105491  1
