# generated using pymatgen
data_Dy20IrRu3Au8
_symmetry_space_group_name_H-M   'P 1'
_cell_length_a   11.29717300
_cell_length_b   11.29717300
_cell_length_c   6.34636200
_cell_angle_alpha   90.00000000
_cell_angle_beta   90.00000000
_cell_angle_gamma   90.00000000
_symmetry_Int_Tables_number   1
_chemical_formula_structural   Dy20IrRu3Au8
_chemical_formula_sum   'Dy20 Ir1 Ru3 Au8'
_cell_volume   809.96154416
_cell_formula_units_Z   1
loop_
 _symmetry_equiv_pos_site_id
 _symmetry_equiv_pos_as_xyz
  1  'x, y, z'
loop_
 _atom_site_type_symbol
 _atom_site_label
 _atom_site_symmetry_multiplicity
 _atom_site_fract_x
 _atom_site_fract_y
 _atom_site_fract_z
 _atom_site_occupancy
  Dy  Dy0  1  0.300581  0.082716  0.352300  1
  Dy  Dy1  1  0.301023  0.916929  0.852514  1
  Dy  Dy2  1  0.698977  0.083071  0.852514  1
  Dy  Dy3  1  0.699419  0.917284  0.352300  1
  Dy  Dy4  1  0.583071  0.801023  0.852514  1
  Dy  Dy5  1  0.582716  0.199419  0.352300  1
  Dy  Dy6  1  0.417284  0.800581  0.352300  1
  Dy  Dy7  1  0.416929  0.198977  0.852514  1
  Dy  Dy8  1  0.200499  0.416068  0.648504  1
  Dy  Dy9  1  0.200047  0.584222  0.146474  1
  Dy  Dy10  1  0.799953  0.415778  0.146474  1
  Dy  Dy11  1  0.799501  0.583932  0.648504  1
  Dy  Dy12  1  0.915778  0.700047  0.146474  1
  Dy  Dy13  1  0.916068  0.299501  0.648504  1
  Dy  Dy14  1  0.083932  0.700499  0.648504  1
  Dy  Dy15  1  0.084222  0.299953  0.146474  1
  Dy  Dy16  1  0.000000  0.000000  0.499073  1
  Dy  Dy17  1  0.000000  0.000000  0.999083  1
  Dy  Dy18  1  0.500000  0.500000  0.999083  1
  Dy  Dy19  1  0.500000  0.500000  0.499073  1
  Ir  Ir20  1  0.000000  0.500000  0.397632  1
  Ru  Ru21  1  0.500000  0.000000  0.105182  1
  Ru  Ru22  1  0.500000  0.000000  0.604791  1
  Ru  Ru23  1  0.000000  0.500000  0.896267  1
  Au  Au24  1  0.844260  0.155431  0.250238  1
  Au  Au25  1  0.844258  0.844651  0.749925  1
  Au  Au26  1  0.155742  0.155349  0.749925  1
  Au  Au27  1  0.155740  0.844569  0.250238  1
  Au  Au28  1  0.655349  0.344258  0.749925  1
  Au  Au29  1  0.655431  0.655740  0.250238  1
  Au  Au30  1  0.344569  0.344260  0.250238  1
  Au  Au31  1  0.344651  0.655742  0.749925  1
