# generated using pymatgen
data_Cs2Zn3GaSb4
_symmetry_space_group_name_H-M   'P 1'
_cell_length_a   9.04363783
_cell_length_b   9.04363772
_cell_length_c   6.18720400
_cell_angle_alpha   90.00000000
_cell_angle_beta   90.00000000
_cell_angle_gamma   140.71564160
_symmetry_Int_Tables_number   1
_chemical_formula_structural   Cs2Zn3GaSb4
_chemical_formula_sum   'Cs2 Zn3 Ga1 Sb4'
_cell_volume   320.40612099
_cell_formula_units_Z   1
loop_
 _symmetry_equiv_pos_site_id
 _symmetry_equiv_pos_as_xyz
  1  'x, y, z'
loop_
 _atom_site_type_symbol
 _atom_site_label
 _atom_site_symmetry_multiplicity
 _atom_site_fract_x
 _atom_site_fract_y
 _atom_site_fract_z
 _atom_site_occupancy
  Cs  Cs0  1  0.500000  0.000000  0.251970  1
  Cs  Cs1  1  0.000000  0.500000  0.748030  1
  Zn  Zn2  1  0.500000  0.500000  0.500000  1
  Zn  Zn3  1  0.500000  0.500000  0.000000  1
  Zn  Zn4  1  0.000000  0.000000  0.500000  1
  Ga  Ga5  1  0.000000  0.000000  0.000000  1
  Sb  Sb6  1  0.648189  0.849400  0.748694  1
  Sb  Sb7  1  0.150600  0.351811  0.251306  1
  Sb  Sb8  1  0.849400  0.648189  0.251306  1
  Sb  Sb9  1  0.351811  0.150600  0.748694  1
