# generated using pymatgen
data_Cs2KScSb2
_symmetry_space_group_name_H-M   'P 1'
_cell_length_a   10.27557103
_cell_length_b   10.27578523
_cell_length_c   10.27557143
_cell_angle_alpha   132.16362273
_cell_angle_beta   66.22909662
_cell_angle_gamma   137.03760072
_symmetry_Int_Tables_number   1
_chemical_formula_structural   Cs2KScSb2
_chemical_formula_sum   'Cs4 K2 Sc2 Sb4'
_cell_volume   539.69024304
_cell_formula_units_Z   2
loop_
 _symmetry_equiv_pos_site_id
 _symmetry_equiv_pos_as_xyz
  1  'x, y, z'
loop_
 _atom_site_type_symbol
 _atom_site_label
 _atom_site_symmetry_multiplicity
 _atom_site_fract_x
 _atom_site_fract_y
 _atom_site_fract_z
 _atom_site_occupancy
  Cs  Cs0  1  0.319550  0.762913  0.082405  1
  Cs  Cs1  1  0.180507  0.262912  0.443362  1
  Cs  Cs2  1  0.819493  0.737088  0.556637  1
  Cs  Cs3  1  0.680450  0.237088  0.917595  1
  K  K4  1  0.250009  0.250000  0.000009  1
  K  K5  1  0.749991  0.750000  0.999991  1
  Sc  Sc6  1  0.750103  0.250000  0.500104  1
  Sc  Sc7  1  0.249896  0.750000  0.499896  1
  Sb  Sb8  1  0.909389  0.308035  0.217568  1
  Sb  Sb9  1  0.590466  0.808035  0.398645  1
  Sb  Sb10  1  0.409535  0.191965  0.601356  1
  Sb  Sb11  1  0.090612  0.691965  0.782432  1
