# generated using pymatgen
data_TbHoP7(Rh3W)3
_symmetry_space_group_name_H-M   'P 1'
_cell_length_a   3.94547607
_cell_length_b   9.52233678
_cell_length_c   9.52199602
_cell_angle_alpha   119.99970480
_cell_angle_beta   90.00051046
_cell_angle_gamma   89.99787600
_symmetry_Int_Tables_number   1
_chemical_formula_structural   TbHoP7(Rh3W)3
_chemical_formula_sum   'Tb1 Ho1 P7 Rh9 W3'
_cell_volume   309.81530608
_cell_formula_units_Z   1
loop_
 _symmetry_equiv_pos_site_id
 _symmetry_equiv_pos_as_xyz
  1  'x, y, z'
loop_
 _atom_site_type_symbol
 _atom_site_label
 _atom_site_symmetry_multiplicity
 _atom_site_fract_x
 _atom_site_fract_y
 _atom_site_fract_z
 _atom_site_occupancy
  Tb  Tb0  1  0.262140  0.666657  0.333308  1
  Ho  Ho1  1  0.761798  0.333332  0.666687  1
  P  P2  1  0.261830  0.999987  0.999960  1
  P  P3  1  0.761761  0.881021  0.592205  1
  P  P4  1  0.761735  0.407791  0.288823  1
  P  P5  1  0.761740  0.711170  0.118931  1
  P  P6  1  0.261960  0.118795  0.413281  1
  P  P7  1  0.261963  0.586742  0.705538  1
  P  P8  1  0.261971  0.294505  0.881235  1
  Rh  Rh9  1  0.262050  0.886361  0.159917  1
  Rh  Rh10  1  0.262056  0.840056  0.726340  1
  Rh  Rh11  1  0.262052  0.273610  0.113702  1
  Rh  Rh12  1  0.761900  0.612943  0.560193  1
  Rh  Rh13  1  0.761888  0.439757  0.052720  1
  Rh  Rh14  1  0.761907  0.947204  0.387027  1
  Rh  Rh15  1  0.261727  0.369776  0.438932  1
  Rh  Rh16  1  0.261726  0.561131  0.930894  1
  Rh  Rh17  1  0.261728  0.069152  0.630244  1
  W  W18  1  0.762013  0.090249  0.869924  1
  W  W19  1  0.762017  0.130118  0.220432  1
  W  W20  1  0.762035  0.779644  0.909708  1
