# generated using pymatgen
data_Pr6Nd2GaPd24
_symmetry_space_group_name_H-M   'P 1'
_cell_length_a   8.52498800
_cell_length_b   8.52536800
_cell_length_c   8.52536800
_cell_angle_alpha   89.99861555
_cell_angle_beta   90.00000000
_cell_angle_gamma   90.00000000
_symmetry_Int_Tables_number   1
_chemical_formula_structural   Pr6Nd2GaPd24
_chemical_formula_sum   'Pr6 Nd2 Ga1 Pd24'
_cell_volume   619.61232127
_cell_formula_units_Z   1
loop_
 _symmetry_equiv_pos_site_id
 _symmetry_equiv_pos_as_xyz
  1  'x, y, z'
loop_
 _atom_site_type_symbol
 _atom_site_label
 _atom_site_symmetry_multiplicity
 _atom_site_fract_x
 _atom_site_fract_y
 _atom_site_fract_z
 _atom_site_occupancy
  Pr  Pr0  1  0.251638  0.251628  0.748372  1
  Pr  Pr1  1  0.251638  0.748372  0.251628  1
  Pr  Pr2  1  0.748405  0.251606  0.251606  1
  Pr  Pr3  1  0.748405  0.748394  0.748394  1
  Pr  Pr4  1  0.748324  0.748358  0.251642  1
  Pr  Pr5  1  0.748324  0.251642  0.748358  1
  Nd  Nd6  1  0.251656  0.748311  0.748311  1
  Nd  Nd7  1  0.251656  0.251689  0.251689  1
  Ga  Ga8  1  0.000076  0.000000  0.000000  1
  Pd  Pd9  1  0.499662  0.500424  0.746431  1
  Pd  Pd10  1  0.499662  0.253569  0.499576  1
  Pd  Pd11  1  0.253569  0.500000  0.500000  1
  Pd  Pd12  1  0.499662  0.499576  0.253569  1
  Pd  Pd13  1  0.499662  0.746431  0.500424  1
  Pd  Pd14  1  0.746431  0.500000  0.500000  1
  Pd  Pd15  1  0.000292  0.999657  0.706211  1
  Pd  Pd16  1  0.000292  0.293789  0.000343  1
  Pd  Pd17  1  0.293735  0.000000  0.000000  1
  Pd  Pd18  1  0.000292  0.000343  0.293789  1
  Pd  Pd19  1  0.000292  0.706211  0.999657  1
  Pd  Pd20  1  0.706152  0.000000  0.000000  1
  Pd  Pd21  1  0.000337  0.500377  0.739095  1
  Pd  Pd22  1  0.499700  0.260907  0.000406  1
  Pd  Pd23  1  0.260909  0.000000  0.500000  1
  Pd  Pd24  1  0.000337  0.260905  0.499623  1
  Pd  Pd25  1  0.499700  0.999594  0.739093  1
  Pd  Pd26  1  0.260909  0.500000  0.000000  1
  Pd  Pd27  1  0.000337  0.499623  0.260905  1
  Pd  Pd28  1  0.499700  0.739093  0.999594  1
  Pd  Pd29  1  0.000337  0.739095  0.500377  1
  Pd  Pd30  1  0.499700  0.000406  0.260907  1
  Pd  Pd31  1  0.739105  0.000000  0.500000  1
  Pd  Pd32  1  0.739105  0.500000  0.000000  1
