# generated using pymatgen
data_Pr7Nd(OsBr4)2
_symmetry_space_group_name_H-M   'P 1'
_cell_length_a   9.46219359
_cell_length_b   9.43503216
_cell_length_c   6.72595829
_cell_angle_alpha   89.35258351
_cell_angle_beta   89.51773297
_cell_angle_gamma   89.38499629
_symmetry_Int_Tables_number   1
_chemical_formula_structural   Pr7Nd(OsBr4)2
_chemical_formula_sum   'Pr7 Nd1 Os2 Br8'
_cell_volume   600.37374264
_cell_formula_units_Z   1
loop_
 _symmetry_equiv_pos_site_id
 _symmetry_equiv_pos_as_xyz
  1  'x, y, z'
loop_
 _atom_site_type_symbol
 _atom_site_label
 _atom_site_symmetry_multiplicity
 _atom_site_fract_x
 _atom_site_fract_y
 _atom_site_fract_z
 _atom_site_occupancy
  Pr  Pr0  1  0.249774  0.901500  0.007791  1
  Pr  Pr1  1  0.750243  0.099285  0.993107  1
  Pr  Pr2  1  0.098379  0.749661  0.494014  1
  Pr  Pr3  1  0.901214  0.250288  0.506873  1
  Pr  Pr4  1  0.751373  0.902942  0.505153  1
  Pr  Pr5  1  0.248678  0.096324  0.495860  1
  Pr  Pr6  1  0.096717  0.249426  0.995365  1
  Nd  Nd7  1  0.904018  0.753301  0.005746  1
  Os  Os8  1  0.997890  0.001902  0.249998  1
  Os  Os9  1  0.001758  0.997902  0.750834  1
  Br  Br10  1  0.410783  0.816412  0.438358  1
  Br  Br11  1  0.588717  0.181827  0.562767  1
  Br  Br12  1  0.179641  0.589339  0.062247  1
  Br  Br13  1  0.818154  0.412599  0.935398  1
  Br  Br14  1  0.408271  0.182268  0.065466  1
  Br  Br15  1  0.593964  0.815560  0.936191  1
  Br  Br16  1  0.817744  0.591476  0.429646  1
  Br  Br17  1  0.182681  0.407986  0.565187  1
