# generated using pymatgen
data_Ho2ScAl9Si3Os4
_symmetry_space_group_name_H-M   'P 1'
_cell_length_a   8.64161000
_cell_length_b   8.64651841
_cell_length_c   9.49935700
_cell_angle_alpha   90.00000000
_cell_angle_beta   90.00000000
_cell_angle_gamma   119.98122324
_symmetry_Int_Tables_number   1
_chemical_formula_structural   Ho2ScAl9Si3Os4
_chemical_formula_sum   'Ho4 Sc2 Al18 Si6 Os8'
_cell_volume   614.81281997
_cell_formula_units_Z   2
loop_
 _symmetry_equiv_pos_site_id
 _symmetry_equiv_pos_as_xyz
  1  'x, y, z'
loop_
 _atom_site_type_symbol
 _atom_site_label
 _atom_site_symmetry_multiplicity
 _atom_site_fract_x
 _atom_site_fract_y
 _atom_site_fract_z
 _atom_site_occupancy
  Ho  Ho0  1  0.611882  0.808574  0.250000  1
  Ho  Ho1  1  0.388118  0.191426  0.750000  1
  Ho  Ho2  1  0.196692  0.808574  0.250000  1
  Ho  Ho3  1  0.803308  0.191426  0.750000  1
  Sc  Sc4  1  0.197217  0.394433  0.250000  1
  Sc  Sc5  1  0.802783  0.605567  0.750000  1
  Al  Al6  1  0.164990  0.329980  0.576901  1
  Al  Al7  1  0.835010  0.670020  0.423099  1
  Al  Al8  1  0.670838  0.833272  0.578164  1
  Al  Al9  1  0.835010  0.670020  0.076901  1
  Al  Al10  1  0.329162  0.166728  0.421836  1
  Al  Al11  1  0.164990  0.329980  0.923099  1
  Al  Al12  1  0.162434  0.833272  0.578164  1
  Al  Al13  1  0.329162  0.166728  0.078164  1
  Al  Al14  1  0.837566  0.166728  0.421836  1
  Al  Al15  1  0.670838  0.833272  0.921836  1
  Al  Al16  1  0.837566  0.166728  0.078164  1
  Al  Al17  1  0.162434  0.833272  0.921836  1
  Al  Al18  1  0.875325  0.433892  0.250000  1
  Al  Al19  1  0.124675  0.566108  0.750000  1
  Al  Al20  1  0.558567  0.433892  0.250000  1
  Al  Al21  1  0.441433  0.566108  0.750000  1
  Al  Al22  1  0.005323  0.010646  0.250000  1
  Al  Al23  1  0.994677  0.989354  0.750000  1
  Si  Si24  1  0.331036  0.662072  0.042120  1
  Si  Si25  1  0.668964  0.337928  0.957880  1
  Si  Si26  1  0.668964  0.337928  0.542120  1
  Si  Si27  1  0.331036  0.662072  0.457880  1
  Si  Si28  1  0.563915  0.127833  0.250000  1
  Si  Si29  1  0.436085  0.872167  0.750000  1
  Os  Os30  1  0.500000  0.000000  0.000000  1
  Os  Os31  1  0.000000  0.500000  0.000000  1
  Os  Os32  1  0.500000  0.000000  0.500000  1
  Os  Os33  1  0.500000  0.500000  0.000000  1
  Os  Os34  1  0.000000  0.500000  0.500000  1
  Os  Os35  1  0.500000  0.500000  0.500000  1
  Os  Os36  1  0.000000  0.000000  0.000000  1
  Os  Os37  1  0.000000  0.000000  0.500000  1
