# generated using pymatgen
data_Nd2ErTm(B6Os)2
_symmetry_space_group_name_H-M   'P 1'
_cell_length_a   3.68730500
_cell_length_b   9.20554438
_cell_length_c   11.64170700
_cell_angle_alpha   90.01667700
_cell_angle_beta   90.00000000
_cell_angle_gamma   90.00000000
_symmetry_Int_Tables_number   1
_chemical_formula_structural   Nd2ErTm(B6Os)2
_chemical_formula_sum   'Nd4 Er2 Tm2 B24 Os4'
_cell_volume   395.16200882
_cell_formula_units_Z   2
loop_
 _symmetry_equiv_pos_site_id
 _symmetry_equiv_pos_as_xyz
  1  'x, y, z'
loop_
 _atom_site_type_symbol
 _atom_site_label
 _atom_site_symmetry_multiplicity
 _atom_site_fract_x
 _atom_site_fract_y
 _atom_site_fract_z
 _atom_site_occupancy
  Nd  Nd0  1  0.000000  0.322248  0.414375  1
  Nd  Nd1  1  0.000000  0.677752  0.585625  1
  Nd  Nd2  1  0.000000  0.821990  0.085583  1
  Nd  Nd3  1  0.000000  0.178010  0.914417  1
  Er  Er4  1  0.000000  0.944219  0.372374  1
  Er  Er5  1  0.000000  0.055781  0.627627  1
  Tm  Tm6  1  0.000000  0.444271  0.127332  1
  Tm  Tm7  1  0.000000  0.555729  0.872667  1
  B  B8  1  0.500000  0.556086  0.430146  1
  B  B9  1  0.500000  0.443914  0.569854  1
  B  B10  1  0.500000  0.056370  0.069611  1
  B  B11  1  0.500000  0.943630  0.930389  1
  B  B12  1  0.500000  0.749674  0.417105  1
  B  B13  1  0.500000  0.250326  0.582895  1
  B  B14  1  0.500000  0.250359  0.082670  1
  B  B15  1  0.500000  0.749641  0.917330  1
  B  B16  1  0.500000  0.790452  0.266649  1
  B  B17  1  0.500000  0.209548  0.733351  1
  B  B18  1  0.500000  0.291120  0.233021  1
  B  B19  1  0.500000  0.708879  0.766979  1
  B  B20  1  0.500000  0.629971  0.184882  1
  B  B21  1  0.500000  0.370029  0.815118  1
  B  B22  1  0.500000  0.130593  0.314712  1
  B  B23  1  0.500000  0.869407  0.685288  1
  B  B24  1  0.500000  0.985403  0.214167  1
  B  B25  1  0.500000  0.014597  0.785833  1
  B  B26  1  0.500000  0.484892  0.285365  1
  B  B27  1  0.500000  0.515108  0.714635  1
  B  B28  1  0.500000  0.601121  0.027680  1
  B  B29  1  0.500000  0.398879  0.972320  1
  B  B30  1  0.500000  0.102058  0.472117  1
  B  B31  1  0.500000  0.897942  0.527883  1
  Os  Os32  1  0.000000  0.638972  0.318868  1
  Os  Os33  1  0.000000  0.361028  0.681132  1
  Os  Os34  1  0.000000  0.139792  0.180656  1
  Os  Os35  1  0.000000  0.860208  0.819344  1
