# generated using pymatgen
data_Dy4Co9Si5
_symmetry_space_group_name_H-M   'P 1'
_cell_length_a   11.12841218
_cell_length_b   11.12841203
_cell_length_c   11.12841200
_cell_angle_alpha   27.31350920
_cell_angle_beta   27.31351064
_cell_angle_gamma   27.31351092
_symmetry_Int_Tables_number   1
_chemical_formula_structural   Dy4Co9Si5
_chemical_formula_sum   'Dy4 Co9 Si5'
_cell_volume   256.05221265
_cell_formula_units_Z   1
loop_
 _symmetry_equiv_pos_site_id
 _symmetry_equiv_pos_as_xyz
  1  'x, y, z'
loop_
 _atom_site_type_symbol
 _atom_site_label
 _atom_site_symmetry_multiplicity
 _atom_site_fract_x
 _atom_site_fract_y
 _atom_site_fract_z
 _atom_site_occupancy
  Dy  Dy0  1  0.948928  0.948928  0.948928  1
  Dy  Dy1  1  0.851170  0.851170  0.851170  1
  Dy  Dy2  1  0.148830  0.148830  0.148830  1
  Dy  Dy3  1  0.051072  0.051072  0.051072  1
  Co  Co4  1  0.608183  0.608183  0.108782  1
  Co  Co5  1  0.891218  0.391817  0.391817  1
  Co  Co6  1  0.500000  0.000000  0.500000  1
  Co  Co7  1  0.391817  0.891218  0.391817  1
  Co  Co8  1  0.500000  0.500000  0.000000  1
  Co  Co9  1  0.108782  0.608183  0.608183  1
  Co  Co10  1  0.000000  0.500000  0.500000  1
  Co  Co11  1  0.391817  0.391817  0.891218  1
  Co  Co12  1  0.608183  0.108782  0.608183  1
  Si  Si13  1  0.278585  0.278585  0.278585  1
  Si  Si14  1  0.500000  0.500000  0.500000  1
  Si  Si15  1  0.387857  0.387857  0.387857  1
  Si  Si16  1  0.721415  0.721415  0.721415  1
  Si  Si17  1  0.612143  0.612143  0.612143  1
