# generated using pymatgen
data_UCrF7
_symmetry_space_group_name_H-M   'P 1'
_cell_length_a   5.68832400
_cell_length_b   9.06640132
_cell_length_c   11.89577943
_cell_angle_alpha   61.34781921
_cell_angle_beta   90.00000000
_cell_angle_gamma   90.00000000
_symmetry_Int_Tables_number   1
_chemical_formula_structural   UCrF7
_chemical_formula_sum   'U4 Cr4 F28'
_cell_volume   538.37189735
_cell_formula_units_Z   4
loop_
 _symmetry_equiv_pos_site_id
 _symmetry_equiv_pos_as_xyz
  1  'x, y, z'
loop_
 _atom_site_type_symbol
 _atom_site_label
 _atom_site_symmetry_multiplicity
 _atom_site_fract_x
 _atom_site_fract_y
 _atom_site_fract_z
 _atom_site_occupancy
  U  U0  1  0.746937  0.801759  0.266330  1
  U  U1  1  0.246937  0.198241  0.233670  1
  U  U2  1  0.253063  0.198241  0.733670  1
  U  U3  1  0.753063  0.801759  0.766330  1
  Cr  Cr4  1  0.745228  0.270374  0.457804  1
  Cr  Cr5  1  0.245228  0.729626  0.042196  1
  Cr  Cr6  1  0.254772  0.729626  0.542196  1
  Cr  Cr7  1  0.754772  0.270374  0.957804  1
  F  F8  1  0.458744  0.711781  0.921966  1
  F  F9  1  0.958744  0.288219  0.578034  1
  F  F10  1  0.541256  0.288219  0.078034  1
  F  F11  1  0.041256  0.711781  0.421966  1
  F  F12  1  0.466009  0.279263  0.550441  1
  F  F13  1  0.966009  0.720737  0.949559  1
  F  F14  1  0.533991  0.720737  0.449559  1
  F  F15  1  0.033991  0.279263  0.050441  1
  F  F16  1  0.764281  0.514546  0.860158  1
  F  F17  1  0.264281  0.485454  0.639842  1
  F  F18  1  0.235719  0.485454  0.139842  1
  F  F19  1  0.735719  0.514546  0.360158  1
  F  F20  1  0.758235  0.028500  0.055619  1
  F  F21  1  0.258235  0.971500  0.444381  1
  F  F22  1  0.241765  0.971500  0.944381  1
  F  F23  1  0.741765  0.028500  0.555619  1
  F  F24  1  0.990296  0.732963  0.646163  1
  F  F25  1  0.490296  0.267037  0.853837  1
  F  F26  1  0.009704  0.267037  0.353837  1
  F  F27  1  0.509704  0.732963  0.146163  1
  F  F28  1  0.040645  0.744164  0.169743  1
  F  F29  1  0.540645  0.255836  0.330257  1
  F  F30  1  0.959355  0.255836  0.830257  1
  F  F31  1  0.459355  0.744164  0.669743  1
  F  F32  1  0.415385  0.975061  0.231267  1
  F  F33  1  0.915385  0.024939  0.268733  1
  F  F34  1  0.584615  0.024939  0.768733  1
  F  F35  1  0.084615  0.975061  0.731267  1
