# generated using pymatgen
data_Rb2Lu(IO3)5
_symmetry_space_group_name_H-M   'P 1'
_cell_length_a   8.20514500
_cell_length_b   8.28188347
_cell_length_c   12.35601400
_cell_angle_alpha   109.58079137
_cell_angle_beta   90.00000000
_cell_angle_gamma   90.00000000
_symmetry_Int_Tables_number   1
_chemical_formula_structural   Rb2Lu(IO3)5
_chemical_formula_sum   'Rb4 Lu2 I10 O30'
_cell_volume   791.08468171
_cell_formula_units_Z   2
loop_
 _symmetry_equiv_pos_site_id
 _symmetry_equiv_pos_as_xyz
  1  'x, y, z'
loop_
 _atom_site_type_symbol
 _atom_site_label
 _atom_site_symmetry_multiplicity
 _atom_site_fract_x
 _atom_site_fract_y
 _atom_site_fract_z
 _atom_site_occupancy
  Rb  Rb0  1  0.000000  0.649951  0.000000  1
  Rb  Rb1  1  0.000000  0.149951  0.000000  1
  Rb  Rb2  1  0.524355  0.386654  0.500000  1
  Rb  Rb3  1  0.475645  0.886654  0.500000  1
  Lu  Lu4  1  0.500000  0.727334  0.000000  1
  Lu  Lu5  1  0.500000  0.227334  0.000000  1
  I  I6  1  0.757957  0.746401  0.736724  1
  I  I7  1  0.242043  0.009677  0.263276  1
  I  I8  1  0.242043  0.246401  0.736724  1
  I  I9  1  0.757957  0.509677  0.263276  1
  I  I10  1  0.722887  0.998015  0.207175  1
  I  I11  1  0.277113  0.790842  0.792825  1
  I  I12  1  0.277113  0.498015  0.207175  1
  I  I13  1  0.722887  0.290842  0.792825  1
  I  I14  1  0.057951  0.443048  0.500000  1
  I  I15  1  0.942049  0.943048  0.500000  1
  O  O16  1  0.933816  0.985296  0.159321  1
  O  O17  1  0.066184  0.825975  0.840679  1
  O  O18  1  0.066184  0.485296  0.159321  1
  O  O19  1  0.933816  0.325975  0.840679  1
  O  O20  1  0.554925  0.735786  0.673570  1
  O  O21  1  0.445075  0.062217  0.326430  1
  O  O22  1  0.445075  0.235786  0.673570  1
  O  O23  1  0.554925  0.562217  0.326430  1
  O  O24  1  0.613605  0.017974  0.078016  1
  O  O25  1  0.386395  0.939958  0.921984  1
  O  O26  1  0.386395  0.517974  0.078016  1
  O  O27  1  0.613605  0.439958  0.921984  1
  O  O28  1  0.675191  0.764089  0.150648  1
  O  O29  1  0.324809  0.613442  0.849352  1
  O  O30  1  0.324809  0.264089  0.150648  1
  O  O31  1  0.675191  0.113442  0.849352  1
  O  O32  1  0.705926  0.741534  0.880176  1
  O  O33  1  0.294074  0.861358  0.119824  1
  O  O34  1  0.294074  0.241534  0.880176  1
  O  O35  1  0.705926  0.361358  0.119824  1
  O  O36  1  0.813434  0.519417  0.670960  1
  O  O37  1  0.186565  0.848456  0.329040  1
  O  O38  1  0.186565  0.019417  0.670960  1
  O  O39  1  0.813434  0.348456  0.329040  1
  O  O40  1  0.097453  0.222774  0.500000  1
  O  O41  1  0.902547  0.722774  0.500000  1
  O  O42  1  0.199330  0.553007  0.617111  1
  O  O43  1  0.800670  0.935895  0.382889  1
  O  O44  1  0.800670  0.053007  0.617111  1
  O  O45  1  0.199330  0.435895  0.382889  1
