# generated using pymatgen
data_LiNb2(SnRu2)3
_symmetry_space_group_name_H-M   'P 1'
_cell_length_a   4.50421000
_cell_length_b   6.35222201
_cell_length_c   13.44364302
_cell_angle_alpha   89.99517897
_cell_angle_beta   90.00025564
_cell_angle_gamma   90.00009609
_symmetry_Int_Tables_number   1
_chemical_formula_structural   LiNb2(SnRu2)3
_chemical_formula_sum   'Li2 Nb4 Sn6 Ru12'
_cell_volume   384.64604308
_cell_formula_units_Z   2
loop_
 _symmetry_equiv_pos_site_id
 _symmetry_equiv_pos_as_xyz
  1  'x, y, z'
loop_
 _atom_site_type_symbol
 _atom_site_label
 _atom_site_symmetry_multiplicity
 _atom_site_fract_x
 _atom_site_fract_y
 _atom_site_fract_z
 _atom_site_occupancy
  Li  Li0  1  0.999995  0.000076  0.999758  1
  Li  Li1  1  0.499899  0.499888  0.166947  1
  Nb  Nb2  1  0.999993  0.999976  0.322461  1
  Nb  Nb3  1  0.500005  0.500008  0.496094  1
  Nb  Nb4  1  0.000026  0.000008  0.670559  1
  Nb  Nb5  1  0.500010  0.500009  0.844216  1
  Sn  Sn6  1  0.999991  0.499997  0.006100  1
  Sn  Sn7  1  0.499989  0.999995  0.160507  1
  Sn  Sn8  1  0.999947  0.499979  0.324257  1
  Sn  Sn9  1  0.500008  0.000005  0.498959  1
  Sn  Sn10  1  0.000070  0.500004  0.667731  1
  Sn  Sn11  1  0.500015  0.000005  0.842385  1
  Ru  Ru12  1  0.500010  0.256258  0.998867  1
  Ru  Ru13  1  0.500001  0.743728  0.998879  1
  Ru  Ru14  1  0.999970  0.243769  0.167780  1
  Ru  Ru15  1  0.999964  0.756269  0.167791  1
  Ru  Ru16  1  0.499970  0.247485  0.337065  1
  Ru  Ru17  1  0.499967  0.752531  0.337066  1
  Ru  Ru18  1  0.000006  0.252374  0.500125  1
  Ru  Ru19  1  0.000006  0.747644  0.500120  1
  Ru  Ru20  1  0.500054  0.247606  0.666542  1
  Ru  Ru21  1  0.500048  0.752403  0.666543  1
  Ru  Ru22  1  0.000030  0.252417  0.829627  1
  Ru  Ru23  1  0.000029  0.747573  0.829625  1
