# generated using pymatgen
data_Zr4CoRe
_symmetry_space_group_name_H-M   'P 1'
_cell_length_a   8.73364660
_cell_length_b   8.73364661
_cell_length_c   8.73364700
_cell_angle_alpha   60.00000231
_cell_angle_beta   60.00000228
_cell_angle_gamma   60.00000593
_symmetry_Int_Tables_number   1
_chemical_formula_structural   Zr4CoRe
_chemical_formula_sum   'Zr16 Co4 Re4'
_cell_volume   471.05530699
_cell_formula_units_Z   4
loop_
 _symmetry_equiv_pos_site_id
 _symmetry_equiv_pos_as_xyz
  1  'x, y, z'
loop_
 _atom_site_type_symbol
 _atom_site_label
 _atom_site_symmetry_multiplicity
 _atom_site_fract_x
 _atom_site_fract_y
 _atom_site_fract_z
 _atom_site_occupancy
  Zr  Zr0  1  0.052654  0.649116  0.649116  1
  Zr  Zr1  1  0.649116  0.052654  0.649116  1
  Zr  Zr2  1  0.649116  0.649116  0.052654  1
  Zr  Zr3  1  0.649116  0.649116  0.649116  1
  Zr  Zr4  1  0.795893  0.795893  0.204107  1
  Zr  Zr5  1  0.204107  0.204107  0.795893  1
  Zr  Zr6  1  0.795893  0.204107  0.795893  1
  Zr  Zr7  1  0.204107  0.795893  0.204107  1
  Zr  Zr8  1  0.204107  0.795893  0.795893  1
  Zr  Zr9  1  0.795893  0.204107  0.204107  1
  Zr  Zr10  1  0.435186  0.435186  0.064814  1
  Zr  Zr11  1  0.064814  0.064814  0.435186  1
  Zr  Zr12  1  0.435186  0.064814  0.435186  1
  Zr  Zr13  1  0.064814  0.435186  0.064814  1
  Zr  Zr14  1  0.064814  0.435186  0.435186  1
  Zr  Zr15  1  0.435186  0.064814  0.064814  1
  Co  Co16  1  0.419819  0.860060  0.860060  1
  Co  Co17  1  0.860060  0.419819  0.860060  1
  Co  Co18  1  0.860060  0.860060  0.419819  1
  Co  Co19  1  0.860060  0.860060  0.860060  1
  Re  Re20  1  0.742490  0.419170  0.419170  1
  Re  Re21  1  0.419170  0.742490  0.419170  1
  Re  Re22  1  0.419170  0.419170  0.742490  1
  Re  Re23  1  0.419170  0.419170  0.419170  1
