# generated using pymatgen
data_Dy7Tm3(SiPb3)2
_symmetry_space_group_name_H-M   'P 1'
_cell_length_a   9.31082800
_cell_length_b   9.31082887
_cell_length_c   6.49204800
_cell_angle_alpha   90.00000000
_cell_angle_beta   90.00000000
_cell_angle_gamma   120.00000403
_symmetry_Int_Tables_number   1
_chemical_formula_structural   Dy7Tm3(SiPb3)2
_chemical_formula_sum   'Dy7 Tm3 Si2 Pb6'
_cell_volume   487.40388272
_cell_formula_units_Z   1
loop_
 _symmetry_equiv_pos_site_id
 _symmetry_equiv_pos_as_xyz
  1  'x, y, z'
loop_
 _atom_site_type_symbol
 _atom_site_label
 _atom_site_symmetry_multiplicity
 _atom_site_fract_x
 _atom_site_fract_y
 _atom_site_fract_z
 _atom_site_occupancy
  Dy  Dy0  1  0.666667  0.333333  0.500000  1
  Dy  Dy1  1  0.749978  0.750100  0.250183  1
  Dy  Dy2  1  0.249900  0.999878  0.250183  1
  Dy  Dy3  1  0.000122  0.250022  0.250183  1
  Dy  Dy4  1  0.249900  0.250022  0.749817  1
  Dy  Dy5  1  0.749978  0.999878  0.749817  1
  Dy  Dy6  1  0.000122  0.750100  0.749817  1
  Tm  Tm7  1  0.333333  0.666667  0.500000  1
  Tm  Tm8  1  0.333333  0.666667  0.000000  1
  Tm  Tm9  1  0.666667  0.333333  0.000000  1
  Si  Si10  1  0.000000  0.000000  0.500000  1
  Si  Si11  1  0.000000  0.000000  0.000000  1
  Pb  Pb12  1  0.392517  0.392868  0.249922  1
  Pb  Pb13  1  0.607132  0.999649  0.249922  1
  Pb  Pb14  1  0.000351  0.607483  0.249922  1
  Pb  Pb15  1  0.607132  0.607483  0.750078  1
  Pb  Pb16  1  0.392517  0.999649  0.750078  1
  Pb  Pb17  1  0.000351  0.392868  0.750078  1
