# generated using pymatgen
data_Gd3(In2Pd)2
_symmetry_space_group_name_H-M   'P 1'
_cell_length_a   7.87578800
_cell_length_b   7.87578845
_cell_length_c   3.85479100
_cell_angle_alpha   90.00000000
_cell_angle_beta   90.00000000
_cell_angle_gamma   119.99999812
_symmetry_Int_Tables_number   1
_chemical_formula_structural   Gd3(In2Pd)2
_chemical_formula_sum   'Gd3 In4 Pd2'
_cell_volume   207.07112147
_cell_formula_units_Z   1
loop_
 _symmetry_equiv_pos_site_id
 _symmetry_equiv_pos_as_xyz
  1  'x, y, z'
loop_
 _atom_site_type_symbol
 _atom_site_label
 _atom_site_symmetry_multiplicity
 _atom_site_fract_x
 _atom_site_fract_y
 _atom_site_fract_z
 _atom_site_occupancy
  Gd  Gd0  1  0.309987  0.255614  0.500000  1
  Gd  Gd1  1  0.744386  0.054372  0.500000  1
  Gd  Gd2  1  0.945628  0.690013  0.500000  1
  In  In3  1  0.075862  0.409476  0.000000  1
  In  In4  1  0.590524  0.666386  0.000000  1
  In  In5  1  0.333614  0.924138  0.000000  1
  In  In6  1  0.666667  0.333333  0.000000  1
  Pd  Pd7  1  0.333333  0.666667  0.500000  1
  Pd  Pd8  1  0.000000  0.000000  0.000000  1
