# generated using pymatgen
data_Pr16In4IrRu3
_symmetry_space_group_name_H-M   'P 1'
_cell_length_a   10.03387352
_cell_length_b   10.03761628
_cell_length_c   10.03761600
_cell_angle_alpha   60.00000093
_cell_angle_beta   59.98766100
_cell_angle_gamma   59.98766298
_symmetry_Int_Tables_number   1
_chemical_formula_structural   Pr16In4IrRu3
_chemical_formula_sum   'Pr16 In4 Ir1 Ru3'
_cell_volume   714.71644987
_cell_formula_units_Z   1
loop_
 _symmetry_equiv_pos_site_id
 _symmetry_equiv_pos_as_xyz
  1  'x, y, z'
loop_
 _atom_site_type_symbol
 _atom_site_label
 _atom_site_symmetry_multiplicity
 _atom_site_fract_x
 _atom_site_fract_y
 _atom_site_fract_z
 _atom_site_occupancy
  Pr  Pr0  1  0.345572  0.347590  0.347590  1
  Pr  Pr1  1  0.345572  0.347590  0.959245  1
  Pr  Pr2  1  0.345572  0.959245  0.347590  1
  Pr  Pr3  1  0.960896  0.346368  0.346368  1
  Pr  Pr4  1  0.810850  0.191311  0.191311  1
  Pr  Pr5  1  0.192012  0.808909  0.808909  1
  Pr  Pr6  1  0.192012  0.808909  0.190169  1
  Pr  Pr7  1  0.810850  0.191311  0.806530  1
  Pr  Pr8  1  0.192012  0.190169  0.808909  1
  Pr  Pr9  1  0.810850  0.806530  0.191311  1
  Pr  Pr10  1  0.939243  0.560737  0.560737  1
  Pr  Pr11  1  0.559262  0.939831  0.939831  1
  Pr  Pr12  1  0.559262  0.939831  0.561076  1
  Pr  Pr13  1  0.939243  0.560737  0.939283  1
  Pr  Pr14  1  0.559262  0.561076  0.939831  1
  Pr  Pr15  1  0.939243  0.939283  0.560737  1
  In  In16  1  0.580159  0.579924  0.579924  1
  In  In17  1  0.580159  0.579924  0.259992  1
  In  In18  1  0.580159  0.259992  0.579924  1
  In  In19  1  0.260340  0.579887  0.579887  1
  Ir  Ir20  1  0.579896  0.140035  0.140035  1
  Ru  Ru21  1  0.139190  0.138158  0.138158  1
  Ru  Ru22  1  0.139190  0.138158  0.584494  1
  Ru  Ru23  1  0.139190  0.584494  0.138158  1
