# generated using pymatgen
data_Eu3TcN3
_symmetry_space_group_name_H-M   'P 1'
_cell_length_a   7.54411700
_cell_length_b   7.54411778
_cell_length_c   5.20032600
_cell_angle_alpha   90.00000000
_cell_angle_beta   90.00000000
_cell_angle_gamma   120.00000216
_symmetry_Int_Tables_number   1
_chemical_formula_structural   Eu3TcN3
_chemical_formula_sum   'Eu6 Tc2 N6'
_cell_volume   256.31738689
_cell_formula_units_Z   2
loop_
 _symmetry_equiv_pos_site_id
 _symmetry_equiv_pos_as_xyz
  1  'x, y, z'
loop_
 _atom_site_type_symbol
 _atom_site_label
 _atom_site_symmetry_multiplicity
 _atom_site_fract_x
 _atom_site_fract_y
 _atom_site_fract_z
 _atom_site_occupancy
  Eu  Eu0  1  0.903066  0.636641  0.250000  1
  Eu  Eu1  1  0.733575  0.096934  0.250000  1
  Eu  Eu2  1  0.363359  0.266425  0.250000  1
  Eu  Eu3  1  0.096934  0.363359  0.750000  1
  Eu  Eu4  1  0.266425  0.903066  0.750000  1
  Eu  Eu5  1  0.636641  0.733575  0.750000  1
  Tc  Tc6  1  0.666667  0.333333  0.750000  1
  Tc  Tc7  1  0.333333  0.666667  0.250000  1
  N  N8  1  0.898466  0.601367  0.750000  1
  N  N9  1  0.702901  0.101534  0.750000  1
  N  N10  1  0.398633  0.297099  0.750000  1
  N  N11  1  0.101534  0.398633  0.250000  1
  N  N12  1  0.297099  0.898466  0.250000  1
  N  N13  1  0.601367  0.702901  0.250000  1
