# generated using pymatgen
data_YbDy2Er3(Si3Ru)8
_symmetry_space_group_name_H-M   'P 1'
_cell_length_a   10.13331325
_cell_length_b   10.13331330
_cell_length_c   8.13645700
_cell_angle_alpha   89.93920817
_cell_angle_beta   90.06079063
_cell_angle_gamma   132.65189831
_symmetry_Int_Tables_number   1
_chemical_formula_structural   YbDy2Er3(Si3Ru)8
_chemical_formula_sum   'Yb1 Dy2 Er3 Si24 Ru8'
_cell_volume   614.48461956
_cell_formula_units_Z   1
loop_
 _symmetry_equiv_pos_site_id
 _symmetry_equiv_pos_as_xyz
  1  'x, y, z'
loop_
 _atom_site_type_symbol
 _atom_site_label
 _atom_site_symmetry_multiplicity
 _atom_site_fract_x
 _atom_site_fract_y
 _atom_site_fract_z
 _atom_site_occupancy
  Yb  Yb0  1  0.497966  0.997966  0.250000  1
  Dy  Dy1  1  0.001450  0.501450  0.750000  1
  Dy  Dy2  1  0.502595  0.002595  0.750000  1
  Er  Er3  1  0.997340  0.497340  0.250000  1
  Er  Er4  1  0.499744  0.499655  0.499582  1
  Er  Er5  1  0.999655  0.999744  0.000418  1
  Si  Si6  1  0.388459  0.155098  0.003223  1
  Si  Si7  1  0.655098  0.888459  0.496777  1
  Si  Si8  1  0.111744  0.344762  0.505216  1
  Si  Si9  1  0.844762  0.611744  0.994784  1
  Si  Si10  1  0.611791  0.845691  0.994178  1
  Si  Si11  1  0.345691  0.111791  0.505822  1
  Si  Si12  1  0.888159  0.655414  0.494686  1
  Si  Si13  1  0.155414  0.388159  0.005314  1
  Si  Si14  1  0.613740  0.379310  0.228336  1
  Si  Si15  1  0.879310  0.113740  0.271664  1
  Si  Si16  1  0.888507  0.121839  0.727850  1
  Si  Si17  1  0.621839  0.388507  0.772150  1
  Si  Si18  1  0.388302  0.621673  0.771491  1
  Si  Si19  1  0.121673  0.888302  0.728509  1
  Si  Si20  1  0.704781  0.294231  0.001331  1
  Si  Si21  1  0.794231  0.204781  0.498669  1
  Si  Si22  1  0.295305  0.705723  0.000349  1
  Si  Si23  1  0.205723  0.795305  0.499651  1
  Si  Si24  1  0.166190  0.167506  0.333023  1
  Si  Si25  1  0.667506  0.666190  0.166977  1
  Si  Si26  1  0.332860  0.331708  0.833168  1
  Si  Si27  1  0.831708  0.832860  0.666832  1
  Si  Si28  1  0.376699  0.610974  0.228299  1
  Si  Si29  1  0.110974  0.876699  0.271701  1
  Ru  Ru30  1  0.625890  0.626656  0.873071  1
  Ru  Ru31  1  0.126656  0.125890  0.626929  1
  Ru  Ru32  1  0.873294  0.873321  0.372797  1
  Ru  Ru33  1  0.373321  0.373294  0.127203  1
  Ru  Ru34  1  0.329606  0.668878  0.500238  1
  Ru  Ru35  1  0.168878  0.829606  0.999762  1
  Ru  Ru36  1  0.670960  0.332181  0.501075  1
  Ru  Ru37  1  0.832181  0.170960  0.998925  1
