# generated using pymatgen
data_CaTb3(Rh2O7)2
_symmetry_space_group_name_H-M   'P 1'
_cell_length_a   7.24093657
_cell_length_b   7.24093645
_cell_length_c   7.24093750
_cell_angle_alpha   60.18742281
_cell_angle_beta   60.18742383
_cell_angle_gamma   60.18742141
_symmetry_Int_Tables_number   1
_chemical_formula_structural   CaTb3(Rh2O7)2
_chemical_formula_sum   'Ca1 Tb3 Rh4 O14'
_cell_volume   269.59302502
_cell_formula_units_Z   1
loop_
 _symmetry_equiv_pos_site_id
 _symmetry_equiv_pos_as_xyz
  1  'x, y, z'
loop_
 _atom_site_type_symbol
 _atom_site_label
 _atom_site_symmetry_multiplicity
 _atom_site_fract_x
 _atom_site_fract_y
 _atom_site_fract_z
 _atom_site_occupancy
  Ca  Ca0  1  0.625000  0.625000  0.625000  1
  Tb  Tb1  1  0.625000  0.625000  0.125000  1
  Tb  Tb2  1  0.625000  0.125000  0.625000  1
  Tb  Tb3  1  0.125000  0.625000  0.625000  1
  Rh  Rh4  1  0.125000  0.125000  0.125000  1
  Rh  Rh5  1  0.625000  0.125000  0.125000  1
  Rh  Rh6  1  0.125000  0.625000  0.125000  1
  Rh  Rh7  1  0.125000  0.125000  0.625000  1
  O  O8  1  0.051165  0.455964  0.455964  1
  O  O9  1  0.794036  0.794036  0.198835  1
  O  O10  1  0.791872  0.209393  0.209393  1
  O  O11  1  0.455964  0.051165  0.455964  1
  O  O12  1  0.040607  0.458128  0.040607  1
  O  O13  1  0.751818  0.751818  0.751818  1
  O  O14  1  0.040607  0.040607  0.458128  1
  O  O15  1  0.209393  0.791872  0.209393  1
  O  O16  1  0.209393  0.209393  0.791872  1
  O  O17  1  0.498182  0.498182  0.498182  1
  O  O18  1  0.794036  0.198835  0.794036  1
  O  O19  1  0.458128  0.040607  0.040607  1
  O  O20  1  0.455964  0.455964  0.051165  1
  O  O21  1  0.198835  0.794036  0.794036  1
