# generated using pymatgen
data_Ti2SiIr3Rh2
_symmetry_space_group_name_H-M   'P 1'
_cell_length_a   3.95226900
_cell_length_b   5.43366217
_cell_length_c   10.62173732
_cell_angle_alpha   90.02834104
_cell_angle_beta   90.00000000
_cell_angle_gamma   90.00000000
_symmetry_Int_Tables_number   1
_chemical_formula_structural   Ti2SiIr3Rh2
_chemical_formula_sum   'Ti4 Si2 Ir6 Rh4'
_cell_volume   228.10490963
_cell_formula_units_Z   2
loop_
 _symmetry_equiv_pos_site_id
 _symmetry_equiv_pos_as_xyz
  1  'x, y, z'
loop_
 _atom_site_type_symbol
 _atom_site_label
 _atom_site_symmetry_multiplicity
 _atom_site_fract_x
 _atom_site_fract_y
 _atom_site_fract_z
 _atom_site_occupancy
  Ti  Ti0  1  0.500000  0.324579  0.139535  1
  Ti  Ti1  1  0.500000  0.675393  0.859877  1
  Ti  Ti2  1  0.500000  0.824830  0.359980  1
  Ti  Ti3  1  0.500000  0.174649  0.642130  1
  Si  Si4  1  0.000000  0.000862  0.998051  1
  Si  Si5  1  0.000000  0.501366  0.499562  1
  Ir  Ir6  1  0.000000  0.071637  0.244262  1
  Ir  Ir7  1  0.000000  0.925382  0.757499  1
  Ir  Ir8  1  0.000000  0.571660  0.255984  1
  Ir  Ir9  1  0.500000  0.316120  0.393606  1
  Ir  Ir10  1  0.500000  0.683101  0.604824  1
  Ir  Ir11  1  0.500000  0.817253  0.106623  1
  Rh  Rh12  1  0.000000  0.004108  0.501530  1
  Rh  Rh13  1  0.000000  0.500379  0.999455  1
  Rh  Rh14  1  0.000000  0.425847  0.742278  1
  Rh  Rh15  1  0.500000  0.182835  0.894805  1
