# generated using pymatgen
data_Ti13Al9Fe7Pd
_symmetry_space_group_name_H-M   'P 1'
_cell_length_a   8.52718797
_cell_length_b   8.52718759
_cell_length_c   8.48905424
_cell_angle_alpha   59.93322391
_cell_angle_beta   59.93322781
_cell_angle_gamma   59.65043572
_symmetry_Int_Tables_number   1
_chemical_formula_structural   Ti13Al9Fe7Pd
_chemical_formula_sum   'Ti13 Al9 Fe7 Pd1'
_cell_volume   434.86927214
_cell_formula_units_Z   1
loop_
 _symmetry_equiv_pos_site_id
 _symmetry_equiv_pos_as_xyz
  1  'x, y, z'
loop_
 _atom_site_type_symbol
 _atom_site_label
 _atom_site_symmetry_multiplicity
 _atom_site_fract_x
 _atom_site_fract_y
 _atom_site_fract_z
 _atom_site_occupancy
  Ti  Ti0  1  0.209509  0.209509  0.799283  1
  Ti  Ti1  1  0.793884  0.212686  0.205478  1
  Ti  Ti2  1  0.212686  0.793884  0.205478  1
  Ti  Ti3  1  0.804478  0.804478  0.173679  1
  Ti  Ti4  1  0.182540  0.797410  0.805758  1
  Ti  Ti5  1  0.797410  0.182540  0.805758  1
  Ti  Ti6  1  0.382250  0.382250  0.379624  1
  Ti  Ti7  1  0.394815  0.855579  0.377956  1
  Ti  Ti8  1  0.855579  0.394815  0.377956  1
  Ti  Ti9  1  0.383234  0.383234  0.859442  1
  Ti  Ti10  1  0.841798  0.469608  0.839621  1
  Ti  Ti11  1  0.469608  0.841798  0.839621  1
  Ti  Ti12  1  0.836427  0.836427  0.466822  1
  Al  Al13  1  0.163667  0.163667  0.154421  1
  Al  Al14  1  0.162181  0.520788  0.162294  1
  Al  Al15  1  0.520788  0.162181  0.162294  1
  Al  Al16  1  0.163993  0.163993  0.529264  1
  Al  Al17  1  0.614966  0.614966  0.622291  1
  Al  Al18  1  0.611518  0.146769  0.620715  1
  Al  Al19  1  0.146769  0.611518  0.620715  1
  Al  Al20  1  0.617049  0.617049  0.144830  1
  Al  Al21  1  0.824276  0.824276  0.833244  1
  Fe  Fe22  1  0.497921  0.000692  0.004658  1
  Fe  Fe23  1  0.000692  0.497921  0.004658  1
  Fe  Fe24  1  0.501633  0.501633  0.000586  1
  Fe  Fe25  1  0.998333  0.503775  0.500656  1
  Fe  Fe26  1  0.503775  0.998333  0.500656  1
  Fe  Fe27  1  0.499766  0.499766  0.500322  1
  Fe  Fe28  1  0.005311  0.005311  0.002958  1
  Pd  Pd29  1  0.003147  0.003147  0.498964  1
