# generated using pymatgen
data_Ho12Tc3Pt
_symmetry_space_group_name_H-M   'P 1'
_cell_length_a   6.28758450
_cell_length_b   7.37505770
_cell_length_c   9.12467900
_cell_angle_alpha   90.00000000
_cell_angle_beta   90.00000000
_cell_angle_gamma   89.93818197
_symmetry_Int_Tables_number   1
_chemical_formula_structural   Ho12Tc3Pt
_chemical_formula_sum   'Ho12 Tc3 Pt1'
_cell_volume   423.12296735
_cell_formula_units_Z   1
loop_
 _symmetry_equiv_pos_site_id
 _symmetry_equiv_pos_as_xyz
  1  'x, y, z'
loop_
 _atom_site_type_symbol
 _atom_site_label
 _atom_site_symmetry_multiplicity
 _atom_site_fract_x
 _atom_site_fract_y
 _atom_site_fract_z
 _atom_site_occupancy
  Ho  Ho0  1  0.329328  0.676301  0.066965  1
  Ho  Ho1  1  0.165073  0.177498  0.436207  1
  Ho  Ho2  1  0.667790  0.318225  0.558917  1
  Ho  Ho3  1  0.837115  0.827041  0.940228  1
  Ho  Ho4  1  0.667790  0.318225  0.941083  1
  Ho  Ho5  1  0.837115  0.827041  0.559772  1
  Ho  Ho6  1  0.329328  0.676301  0.433035  1
  Ho  Ho7  1  0.165073  0.177498  0.063793  1
  Ho  Ho8  1  0.873095  0.543075  0.250000  1
  Ho  Ho9  1  0.623223  0.039043  0.250000  1
  Ho  Ho10  1  0.128495  0.455297  0.750000  1
  Ho  Ho11  1  0.371571  0.964436  0.750000  1
  Tc  Tc12  1  0.037798  0.885984  0.250000  1
  Tc  Tc13  1  0.464296  0.387338  0.250000  1
  Tc  Tc14  1  0.957108  0.113599  0.750000  1
  Pt  Pt15  1  0.545803  0.613096  0.750000  1
