# generated using pymatgen
data_Gd4Ho5Mg(SiB4)4
_symmetry_space_group_name_H-M   'P 1'
_cell_length_a   7.19456712
_cell_length_b   7.19635307
_cell_length_c   8.03422920
_cell_angle_alpha   90.01568573
_cell_angle_beta   90.02031182
_cell_angle_gamma   89.99511744
_symmetry_Int_Tables_number   1
_chemical_formula_structural   Gd4Ho5Mg(SiB4)4
_chemical_formula_sum   'Gd4 Ho5 Mg1 Si4 B16'
_cell_volume   415.96932318
_cell_formula_units_Z   1
loop_
 _symmetry_equiv_pos_site_id
 _symmetry_equiv_pos_as_xyz
  1  'x, y, z'
loop_
 _atom_site_type_symbol
 _atom_site_label
 _atom_site_symmetry_multiplicity
 _atom_site_fract_x
 _atom_site_fract_y
 _atom_site_fract_z
 _atom_site_occupancy
  Gd  Gd0  1  0.682877  0.180195  0.230625  1
  Gd  Gd1  1  0.317238  0.819731  0.769264  1
  Gd  Gd2  1  0.317166  0.819909  0.230529  1
  Gd  Gd3  1  0.819957  0.682450  0.230103  1
  Ho  Ho4  1  0.819735  0.681868  0.772883  1
  Ho  Ho5  1  0.682371  0.180467  0.772522  1
  Ho  Ho6  1  0.180215  0.317743  0.772801  1
  Ho  Ho7  1  0.179985  0.317887  0.227003  1
  Ho  Ho8  1  0.500124  0.499772  0.500438  1
  Mg  Mg9  1  0.999753  0.000593  0.501275  1
  Si  Si10  1  0.115136  0.613861  0.501612  1
  Si  Si11  1  0.884858  0.382668  0.502317  1
  Si  Si12  1  0.383452  0.116936  0.501639  1
  Si  Si13  1  0.616690  0.885831  0.502288  1
  B  B14  1  0.174293  0.039353  0.998980  1
  B  B15  1  0.825614  0.961714  0.998954  1
  B  B16  1  0.961484  0.174813  0.999070  1
  B  B17  1  0.327164  0.539133  0.999060  1
  B  B18  1  0.038485  0.826085  0.998934  1
  B  B19  1  0.672912  0.459796  0.999403  1
  B  B20  1  0.539615  0.672404  0.999183  1
  B  B21  1  0.460279  0.326693  0.999211  1
  B  B22  1  0.089622  0.588445  0.998809  1
  B  B23  1  0.910813  0.411293  0.999225  1
  B  B24  1  0.411473  0.089710  0.998862  1
  B  B25  1  0.588705  0.910534  0.998964  1
  B  B26  1  0.000335  0.000823  0.156766  1
  B  B27  1  0.999587  0.000523  0.841032  1
  B  B28  1  0.500547  0.499171  0.837013  1
  B  B29  1  0.499514  0.499600  0.161236  1
