# generated using pymatgen
data_Nd12OsPd2Ru
_symmetry_space_group_name_H-M   'P 1'
_cell_length_a   6.54258765
_cell_length_b   7.39075633
_cell_length_c   9.94918400
_cell_angle_alpha   90.00000000
_cell_angle_beta   90.00000000
_cell_angle_gamma   90.15155807
_symmetry_Int_Tables_number   1
_chemical_formula_structural   Nd12OsPd2Ru
_chemical_formula_sum   'Nd12 Os1 Pd2 Ru1'
_cell_volume   481.08783677
_cell_formula_units_Z   1
loop_
 _symmetry_equiv_pos_site_id
 _symmetry_equiv_pos_as_xyz
  1  'x, y, z'
loop_
 _atom_site_type_symbol
 _atom_site_label
 _atom_site_symmetry_multiplicity
 _atom_site_fract_x
 _atom_site_fract_y
 _atom_site_fract_z
 _atom_site_occupancy
  Nd  Nd0  1  0.327203  0.683090  0.059950  1
  Nd  Nd1  1  0.163509  0.171057  0.433200  1
  Nd  Nd2  1  0.664228  0.327916  0.565830  1
  Nd  Nd3  1  0.825344  0.817073  0.938699  1
  Nd  Nd4  1  0.664228  0.327916  0.934170  1
  Nd  Nd5  1  0.825344  0.817073  0.561301  1
  Nd  Nd6  1  0.327203  0.683090  0.440050  1
  Nd  Nd7  1  0.163509  0.171057  0.066800  1
  Nd  Nd8  1  0.872282  0.538141  0.250000  1
  Nd  Nd9  1  0.645019  0.026684  0.250000  1
  Nd  Nd10  1  0.143738  0.475531  0.750000  1
  Nd  Nd11  1  0.372422  0.961141  0.750000  1
  Os  Os12  1  0.565896  0.616295  0.750000  1
  Pd  Pd13  1  0.432756  0.387229  0.250000  1
  Pd  Pd14  1  0.938398  0.114261  0.750000  1
  Ru  Ru15  1  0.068922  0.882446  0.250000  1
