# generated using pymatgen
data_CeNd6SmSb20
_symmetry_space_group_name_H-M   'P 1'
_cell_length_a   4.24336500
_cell_length_b   13.50831476
_cell_length_c   15.16027607
_cell_angle_alpha   77.98038191
_cell_angle_beta   90.00000000
_cell_angle_gamma   90.00000000
_symmetry_Int_Tables_number   1
_chemical_formula_structural   CeNd6SmSb20
_chemical_formula_sum   'Ce1 Nd6 Sm1 Sb20'
_cell_volume   849.94618947
_cell_formula_units_Z   1
loop_
 _symmetry_equiv_pos_site_id
 _symmetry_equiv_pos_as_xyz
  1  'x, y, z'
loop_
 _atom_site_type_symbol
 _atom_site_label
 _atom_site_symmetry_multiplicity
 _atom_site_fract_x
 _atom_site_fract_y
 _atom_site_fract_z
 _atom_site_occupancy
  Ce  Ce0  1  0.250000  0.669682  0.574192  1
  Nd  Nd1  1  0.750000  0.329985  0.424872  1
  Nd  Nd2  1  0.250000  0.392732  0.772935  1
  Nd  Nd3  1  0.750000  0.605797  0.228751  1
  Nd  Nd4  1  0.250000  0.952079  0.359304  1
  Nd  Nd5  1  0.750000  0.049186  0.638739  1
  Nd  Nd6  1  0.250000  0.663846  0.856224  1
  Sm  Sm7  1  0.750000  0.337018  0.144455  1
  Sb  Sb8  1  0.250000  0.427114  0.554710  1
  Sb  Sb9  1  0.750000  0.573803  0.447598  1
  Sb  Sb10  1  0.250000  0.717179  0.060957  1
  Sb  Sb11  1  0.750000  0.281831  0.940807  1
  Sb  Sb12  1  0.250000  0.419832  0.976973  1
  Sb  Sb13  1  0.750000  0.579517  0.024334  1
  Sb  Sb14  1  0.250000  0.860404  0.678492  1
  Sb  Sb15  1  0.750000  0.140271  0.321144  1
  Sb  Sb16  1  0.250000  0.151472  0.176003  1
  Sb  Sb17  1  0.750000  0.851780  0.823131  1
  Sb  Sb18  1  0.250000  0.710151  0.352384  1
  Sb  Sb19  1  0.750000  0.289683  0.649405  1
  Sb  Sb20  1  0.250000  0.142970  0.779299  1
  Sb  Sb21  1  0.750000  0.856756  0.220849  1
  Sb  Sb22  1  0.250000  0.422377  0.265569  1
  Sb  Sb23  1  0.750000  0.578965  0.729052  1
  Sb  Sb24  1  0.250000  0.140400  0.478651  1
  Sb  Sb25  1  0.750000  0.852792  0.519869  1
  Sb  Sb26  1  0.250000  0.970805  0.105071  1
  Sb  Sb27  1  0.750000  0.031569  0.896228  1
