# generated using pymatgen
data_NdDy5Ir18
_symmetry_space_group_name_H-M   'P 1'
_cell_length_a   5.33024500
_cell_length_b   5.33024475
_cell_length_c   17.49142600
_cell_angle_alpha   90.00000000
_cell_angle_beta   90.00000000
_cell_angle_gamma   120.00000776
_symmetry_Int_Tables_number   1
_chemical_formula_structural   NdDy5Ir18
_chemical_formula_sum   'Nd1 Dy5 Ir18'
_cell_volume   430.37807355
_cell_formula_units_Z   1
loop_
 _symmetry_equiv_pos_site_id
 _symmetry_equiv_pos_as_xyz
  1  'x, y, z'
loop_
 _atom_site_type_symbol
 _atom_site_label
 _atom_site_symmetry_multiplicity
 _atom_site_fract_x
 _atom_site_fract_y
 _atom_site_fract_z
 _atom_site_occupancy
  Nd  Nd0  1  0.666667  0.333333  0.250000  1
  Dy  Dy1  1  0.333333  0.666667  0.541228  1
  Dy  Dy2  1  0.666667  0.333333  0.040374  1
  Dy  Dy3  1  0.666667  0.333333  0.459626  1
  Dy  Dy4  1  0.333333  0.666667  0.958772  1
  Dy  Dy5  1  0.333333  0.666667  0.750000  1
  Ir  Ir6  1  0.167161  0.334322  0.125955  1
  Ir  Ir7  1  0.832820  0.665642  0.626565  1
  Ir  Ir8  1  0.665678  0.832839  0.125955  1
  Ir  Ir9  1  0.167161  0.832839  0.125955  1
  Ir  Ir10  1  0.832820  0.167180  0.626565  1
  Ir  Ir11  1  0.334358  0.167180  0.626565  1
  Ir  Ir12  1  0.832820  0.665642  0.873435  1
  Ir  Ir13  1  0.832820  0.167180  0.873435  1
  Ir  Ir14  1  0.334358  0.167180  0.873435  1
  Ir  Ir15  1  0.665678  0.832839  0.374045  1
  Ir  Ir16  1  0.167161  0.832839  0.374045  1
  Ir  Ir17  1  0.167161  0.334322  0.374045  1
  Ir  Ir18  1  0.000000  0.000000  0.250000  1
  Ir  Ir19  1  0.000000  0.000000  0.750000  1
  Ir  Ir20  1  0.333333  0.666667  0.250000  1
  Ir  Ir21  1  0.666667  0.333333  0.750000  1
  Ir  Ir22  1  0.000000  0.000000  0.999730  1
  Ir  Ir23  1  0.000000  0.000000  0.500270  1
