# generated using pymatgen
data_Tm8Hf11Si16Hg
_symmetry_space_group_name_H-M   'P 1'
_cell_length_a   7.26234556
_cell_length_b   7.26234654
_cell_length_c   13.21148205
_cell_angle_alpha   89.78834498
_cell_angle_beta   90.21165356
_cell_angle_gamma   89.93934981
_symmetry_Int_Tables_number   1
_chemical_formula_structural   Tm8Hf11Si16Hg
_chemical_formula_sum   'Tm8 Hf11 Si16 Hg1'
_cell_volume   696.78571943
_cell_formula_units_Z   1
loop_
 _symmetry_equiv_pos_site_id
 _symmetry_equiv_pos_as_xyz
  1  'x, y, z'
loop_
 _atom_site_type_symbol
 _atom_site_label
 _atom_site_symmetry_multiplicity
 _atom_site_fract_x
 _atom_site_fract_y
 _atom_site_fract_z
 _atom_site_occupancy
  Tm  Tm0  1  0.997302  0.346898  0.212017  1
  Tm  Tm1  1  0.004285  0.656268  0.716096  1
  Tm  Tm2  1  0.154880  0.496262  0.465072  1
  Tm  Tm3  1  0.499371  0.846852  0.032983  1
  Tm  Tm4  1  0.846852  0.499371  0.967017  1
  Tm  Tm5  1  0.496262  0.154880  0.534928  1
  Tm  Tm6  1  0.346898  0.997302  0.787983  1
  Tm  Tm7  1  0.656268  0.004285  0.283904  1
  Hf  Hf8  1  0.824694  0.824694  0.500000  1
  Hf  Hf9  1  0.323215  0.676681  0.249999  1
  Hf  Hf10  1  0.676681  0.323215  0.750001  1
  Hf  Hf11  1  0.144306  0.998276  0.375307  1
  Hf  Hf12  1  0.856307  0.001588  0.878247  1
  Hf  Hf13  1  0.503778  0.646338  0.626301  1
  Hf  Hf14  1  0.356453  0.492237  0.877370  1
  Hf  Hf15  1  0.492237  0.356453  0.122630  1
  Hf  Hf16  1  0.646338  0.503778  0.373699  1
  Hf  Hf17  1  0.998276  0.144306  0.624693  1
  Hf  Hf18  1  0.001588  0.856307  0.121753  1
  Si  Si19  1  0.358353  0.295938  0.317732  1
  Si  Si20  1  0.641833  0.703884  0.820001  1
  Si  Si21  1  0.207041  0.858969  0.569429  1
  Si  Si22  1  0.131987  0.772928  0.925219  1
  Si  Si23  1  0.772928  0.131987  0.074781  1
  Si  Si24  1  0.858969  0.207041  0.430571  1
  Si  Si25  1  0.295938  0.358353  0.682268  1
  Si  Si26  1  0.703884  0.641833  0.179999  1
  Si  Si27  1  0.300064  0.048422  0.192203  1
  Si  Si28  1  0.703478  0.950879  0.686451  1
  Si  Si29  1  0.450469  0.796859  0.436125  1
  Si  Si30  1  0.209596  0.568857  0.064942  1
  Si  Si31  1  0.568857  0.209596  0.935058  1
  Si  Si32  1  0.796859  0.450469  0.563875  1
  Si  Si33  1  0.048422  0.300064  0.807797  1
  Si  Si34  1  0.950879  0.703478  0.313549  1
  Hg  Hg35  1  0.174450  0.174450  0.000000  1
