# generated using pymatgen
data_ErZr4Si7Pt9
_symmetry_space_group_name_H-M   'P 1'
_cell_length_a   10.03203800
_cell_length_b   10.03203734
_cell_length_c   3.99994200
_cell_angle_alpha   90.00000000
_cell_angle_beta   90.00000000
_cell_angle_gamma   120.00000217
_symmetry_Int_Tables_number   1
_chemical_formula_structural   ErZr4Si7Pt9
_chemical_formula_sum   'Er1 Zr4 Si7 Pt9'
_cell_volume   348.62828926
_cell_formula_units_Z   1
loop_
 _symmetry_equiv_pos_site_id
 _symmetry_equiv_pos_as_xyz
  1  'x, y, z'
loop_
 _atom_site_type_symbol
 _atom_site_label
 _atom_site_symmetry_multiplicity
 _atom_site_fract_x
 _atom_site_fract_y
 _atom_site_fract_z
 _atom_site_occupancy
  Er  Er0  1  0.333333  0.666667  0.500000  1
  Zr  Zr1  1  0.000000  0.000000  0.000000  1
  Zr  Zr2  1  0.893059  0.458328  0.500000  1
  Zr  Zr3  1  0.565269  0.106941  0.500000  1
  Zr  Zr4  1  0.541672  0.434731  0.500000  1
  Si  Si5  1  0.243398  0.192735  0.500000  1
  Si  Si6  1  0.807265  0.050664  0.500000  1
  Si  Si7  1  0.949336  0.756602  0.500000  1
  Si  Si8  1  0.558229  0.647638  0.000000  1
  Si  Si9  1  0.352362  0.910590  0.000000  1
  Si  Si10  1  0.089410  0.441771  0.000000  1
  Si  Si11  1  0.666667  0.333333  0.000000  1
  Pt  Pt12  1  0.216076  0.936183  0.500000  1
  Pt  Pt13  1  0.063817  0.279894  0.500000  1
  Pt  Pt14  1  0.720106  0.783924  0.500000  1
  Pt  Pt15  1  0.313805  0.416047  0.000000  1
  Pt  Pt16  1  0.583953  0.897759  0.000000  1
  Pt  Pt17  1  0.102241  0.686195  0.000000  1
  Pt  Pt18  1  0.382327  0.173923  0.000000  1
  Pt  Pt19  1  0.826077  0.208404  0.000000  1
  Pt  Pt20  1  0.791596  0.617673  0.000000  1
