# generated using pymatgen
data_Th2InHgRh
_symmetry_space_group_name_H-M   'P 1'
_cell_length_a   8.05076900
_cell_length_b   8.18202700
_cell_length_c   3.93556600
_cell_angle_alpha   90.00000000
_cell_angle_beta   90.00000000
_cell_angle_gamma   90.00000000
_symmetry_Int_Tables_number   1
_chemical_formula_structural   Th2InHgRh
_chemical_formula_sum   'Th4 In2 Hg2 Rh2'
_cell_volume   259.24206604
_cell_formula_units_Z   2
loop_
 _symmetry_equiv_pos_site_id
 _symmetry_equiv_pos_as_xyz
  1  'x, y, z'
loop_
 _atom_site_type_symbol
 _atom_site_label
 _atom_site_symmetry_multiplicity
 _atom_site_fract_x
 _atom_site_fract_y
 _atom_site_fract_z
 _atom_site_occupancy
  Th  Th0  1  0.180519  0.301908  0.500000  1
  Th  Th1  1  0.680519  0.198092  0.500000  1
  Th  Th2  1  0.822871  0.641687  0.500000  1
  Th  Th3  1  0.322871  0.858313  0.500000  1
  In  In4  1  0.996822  0.010464  0.000000  1
  In  In5  1  0.496822  0.489536  0.000000  1
  Hg  Hg6  1  0.136040  0.619724  0.000000  1
  Hg  Hg7  1  0.636040  0.880276  0.000000  1
  Rh  Rh8  1  0.363748  0.118868  0.000000  1
  Rh  Rh9  1  0.863748  0.381132  0.000000  1
