# generated using pymatgen
data_Ho17Th3Pb16
_symmetry_space_group_name_H-M   'P 1'
_cell_length_a   8.20100928
_cell_length_b   8.26441773
_cell_length_c   15.60706700
_cell_angle_alpha   90.02811262
_cell_angle_beta   90.30114448
_cell_angle_gamma   89.97573327
_symmetry_Int_Tables_number   1
_chemical_formula_structural   Ho17Th3Pb16
_chemical_formula_sum   'Ho17 Th3 Pb16'
_cell_volume   1057.77858170
_cell_formula_units_Z   1
loop_
 _symmetry_equiv_pos_site_id
 _symmetry_equiv_pos_as_xyz
  1  'x, y, z'
loop_
 _atom_site_type_symbol
 _atom_site_label
 _atom_site_symmetry_multiplicity
 _atom_site_fract_x
 _atom_site_fract_y
 _atom_site_fract_z
 _atom_site_occupancy
  Ho  Ho0  1  0.376837  0.840700  0.879594  1
  Ho  Ho1  1  0.874275  0.660429  0.621895  1
  Ho  Ho2  1  0.625568  0.158106  0.377190  1
  Ho  Ho3  1  0.123521  0.341547  0.121677  1
  Ho  Ho4  1  0.623077  0.156865  0.121513  1
  Ho  Ho5  1  0.125845  0.341726  0.377621  1
  Ho  Ho6  1  0.374842  0.842007  0.622001  1
  Ho  Ho7  1  0.877473  0.658439  0.878843  1
  Ho  Ho8  1  0.542079  0.326613  0.898348  1
  Ho  Ho9  1  0.039115  0.175172  0.601048  1
  Ho  Ho10  1  0.462266  0.674412  0.399163  1
  Ho  Ho11  1  0.959180  0.824176  0.102416  1
  Ho  Ho12  1  0.462184  0.673788  0.100589  1
  Ho  Ho13  1  0.207498  0.503402  0.750676  1
  Ho  Ho14  1  0.707200  0.997555  0.750131  1
  Ho  Ho15  1  0.791909  0.497474  0.249011  1
  Ho  Ho16  1  0.292660  0.002520  0.249122  1
  Th  Th17  1  0.968626  0.821168  0.401615  1
  Th  Th18  1  0.530777  0.323477  0.597326  1
  Th  Th19  1  0.034517  0.177976  0.901999  1
  Pb  Pb20  1  0.280768  0.027778  0.045298  1
  Pb  Pb21  1  0.783211  0.467978  0.455140  1
  Pb  Pb22  1  0.717952  0.969921  0.544584  1
  Pb  Pb23  1  0.223087  0.531033  0.956355  1
  Pb  Pb24  1  0.716330  0.964568  0.957280  1
  Pb  Pb25  1  0.212257  0.539292  0.541735  1
  Pb  Pb26  1  0.287130  0.038223  0.458206  1
  Pb  Pb27  1  0.781467  0.465900  0.042563  1
  Pb  Pb28  1  0.570520  0.628371  0.749705  1
  Pb  Pb29  1  0.070902  0.872539  0.750728  1
  Pb  Pb30  1  0.429339  0.372472  0.249578  1
  Pb  Pb31  1  0.928997  0.127522  0.250502  1
  Pb  Pb32  1  0.346896  0.151363  0.752344  1
  Pb  Pb33  1  0.847407  0.349509  0.746615  1
  Pb  Pb34  1  0.649419  0.845173  0.250170  1
  Pb  Pb35  1  0.154870  0.650805  0.247415  1
