# generated using pymatgen
data_ThCo2Si2Rh
_symmetry_space_group_name_H-M   'P 1'
_cell_length_a   6.53858365
_cell_length_b   6.53858194
_cell_length_c   6.53858300
_cell_angle_alpha   130.96267690
_cell_angle_beta   116.28438626
_cell_angle_gamma   84.35329270
_symmetry_Int_Tables_number   1
_chemical_formula_structural   ThCo2Si2Rh
_chemical_formula_sum   'Th2 Co4 Si4 Rh2'
_cell_volume   181.50654721
_cell_formula_units_Z   2
loop_
 _symmetry_equiv_pos_site_id
 _symmetry_equiv_pos_as_xyz
  1  'x, y, z'
loop_
 _atom_site_type_symbol
 _atom_site_label
 _atom_site_symmetry_multiplicity
 _atom_site_fract_x
 _atom_site_fract_y
 _atom_site_fract_z
 _atom_site_occupancy
  Th  Th0  1  0.750000  0.035271  0.285271  1
  Th  Th1  1  0.250000  0.964729  0.714729  1
  Co  Co2  1  0.215343  0.500000  0.715343  1
  Co  Co3  1  0.715343  0.000000  0.715343  1
  Co  Co4  1  0.784657  0.500000  0.284657  1
  Co  Co5  1  0.284657  0.000000  0.284657  1
  Si  Si6  1  0.568728  0.369584  0.800857  1
  Si  Si7  1  0.431272  0.630416  0.199143  1
  Si  Si8  1  0.068728  0.267871  0.199143  1
  Si  Si9  1  0.931272  0.732129  0.800857  1
  Rh  Rh10  1  0.500000  0.500000  0.500000  1
  Rh  Rh11  1  0.000000  0.500000  0.000000  1
