# generated using pymatgen
data_LuUGa3Tc
_symmetry_space_group_name_H-M   'P 1'
_cell_length_a   5.29113900
_cell_length_b   5.29113980
_cell_length_c   9.03239500
_cell_angle_alpha   90.00000000
_cell_angle_beta   90.00000000
_cell_angle_gamma   119.99998875
_symmetry_Int_Tables_number   1
_chemical_formula_structural   LuUGa3Tc
_chemical_formula_sum   'Lu2 U2 Ga6 Tc2'
_cell_volume   218.99389584
_cell_formula_units_Z   2
loop_
 _symmetry_equiv_pos_site_id
 _symmetry_equiv_pos_as_xyz
  1  'x, y, z'
loop_
 _atom_site_type_symbol
 _atom_site_label
 _atom_site_symmetry_multiplicity
 _atom_site_fract_x
 _atom_site_fract_y
 _atom_site_fract_z
 _atom_site_occupancy
  Lu  Lu0  1  0.666667  0.333333  0.936527  1
  Lu  Lu1  1  0.333333  0.666667  0.063473  1
  U  U2  1  0.333333  0.666667  0.466631  1
  U  U3  1  0.666667  0.333333  0.533369  1
  Ga  Ga4  1  0.834092  0.165908  0.243468  1
  Ga  Ga5  1  0.834092  0.668183  0.243468  1
  Ga  Ga6  1  0.331817  0.165908  0.243468  1
  Ga  Ga7  1  0.165908  0.834092  0.756532  1
  Ga  Ga8  1  0.165908  0.331817  0.756532  1
  Ga  Ga9  1  0.668183  0.834092  0.756532  1
  Tc  Tc10  1  0.000000  0.000000  0.500000  1
  Tc  Tc11  1  0.000000  0.000000  0.000000  1
