# generated using pymatgen
data_Tm12TcRu3
_symmetry_space_group_name_H-M   'P 1'
_cell_length_a   6.22078108
_cell_length_b   7.26855509
_cell_length_c   9.00456700
_cell_angle_alpha   90.00000000
_cell_angle_beta   90.00000000
_cell_angle_gamma   89.98193105
_symmetry_Int_Tables_number   1
_chemical_formula_structural   Tm12TcRu3
_chemical_formula_sum   'Tm12 Tc1 Ru3'
_cell_volume   407.15129133
_cell_formula_units_Z   1
loop_
 _symmetry_equiv_pos_site_id
 _symmetry_equiv_pos_as_xyz
  1  'x, y, z'
loop_
 _atom_site_type_symbol
 _atom_site_label
 _atom_site_symmetry_multiplicity
 _atom_site_fract_x
 _atom_site_fract_y
 _atom_site_fract_z
 _atom_site_occupancy
  Tm  Tm0  1  0.632302  0.040539  0.250000  1
  Tm  Tm1  1  0.367084  0.957723  0.750000  1
  Tm  Tm2  1  0.133204  0.458247  0.750000  1
  Tm  Tm3  1  0.870771  0.542030  0.250000  1
  Tm  Tm4  1  0.168108  0.176183  0.063966  1
  Tm  Tm5  1  0.831492  0.823602  0.936482  1
  Tm  Tm6  1  0.666717  0.324550  0.937407  1
  Tm  Tm7  1  0.831492  0.823602  0.563518  1
  Tm  Tm8  1  0.331461  0.675890  0.063618  1
  Tm  Tm9  1  0.168108  0.176183  0.436034  1
  Tm  Tm10  1  0.331461  0.675890  0.436382  1
  Tm  Tm11  1  0.666717  0.324550  0.562593  1
  Tc  Tc12  1  0.462728  0.384694  0.250000  1
  Ru  Ru13  1  0.538407  0.616987  0.750000  1
  Ru  Ru14  1  0.962469  0.115331  0.750000  1
  Ru  Ru15  1  0.037479  0.883999  0.250000  1
