# generated using pymatgen
data_Zr6Ti7Al9(CoIr3)2
_symmetry_space_group_name_H-M   'P 1'
_cell_length_a   8.86555426
_cell_length_b   8.86555258
_cell_length_c   8.86555360
_cell_angle_alpha   59.91952197
_cell_angle_beta   59.91953153
_cell_angle_gamma   59.91952876
_symmetry_Int_Tables_number   1
_chemical_formula_structural   Zr6Ti7Al9(CoIr3)2
_chemical_formula_sum   'Zr6 Ti7 Al9 Co2 Ir6'
_cell_volume   491.82325842
_cell_formula_units_Z   1
loop_
 _symmetry_equiv_pos_site_id
 _symmetry_equiv_pos_as_xyz
  1  'x, y, z'
loop_
 _atom_site_type_symbol
 _atom_site_label
 _atom_site_symmetry_multiplicity
 _atom_site_fract_x
 _atom_site_fract_y
 _atom_site_fract_z
 _atom_site_occupancy
  Zr  Zr0  1  0.201851  0.201851  0.797034  1
  Zr  Zr1  1  0.797034  0.201851  0.201851  1
  Zr  Zr2  1  0.201851  0.797034  0.201851  1
  Zr  Zr3  1  0.800404  0.800404  0.191819  1
  Zr  Zr4  1  0.191819  0.800404  0.800404  1
  Zr  Zr5  1  0.800404  0.191819  0.800404  1
  Ti  Ti6  1  0.380768  0.380768  0.380768  1
  Ti  Ti7  1  0.381429  0.857006  0.381429  1
  Ti  Ti8  1  0.857006  0.381429  0.381429  1
  Ti  Ti9  1  0.381429  0.381429  0.857006  1
  Ti  Ti10  1  0.833941  0.502136  0.833941  1
  Ti  Ti11  1  0.502136  0.833941  0.833941  1
  Ti  Ti12  1  0.833941  0.833941  0.502136  1
  Al  Al13  1  0.164377  0.164377  0.164377  1
  Al  Al14  1  0.166596  0.501412  0.166596  1
  Al  Al15  1  0.501412  0.166596  0.166596  1
  Al  Al16  1  0.166596  0.166596  0.501412  1
  Al  Al17  1  0.617168  0.617168  0.617168  1
  Al  Al18  1  0.616041  0.152178  0.616041  1
  Al  Al19  1  0.152178  0.616041  0.616041  1
  Al  Al20  1  0.616041  0.616041  0.152178  1
  Al  Al21  1  0.828775  0.828775  0.828775  1
  Co  Co22  1  0.501292  0.501292  0.501292  1
  Co  Co23  1  0.001408  0.001408  0.001408  1
  Ir  Ir24  1  0.002626  0.002626  0.497606  1
  Ir  Ir25  1  0.497606  0.002626  0.002626  1
  Ir  Ir26  1  0.002626  0.497606  0.002626  1
  Ir  Ir27  1  0.499857  0.499857  0.001532  1
  Ir  Ir28  1  0.001532  0.499857  0.499857  1
  Ir  Ir29  1  0.499857  0.001532  0.499857  1
