# generated using pymatgen
data_Ta9Al2Cu2Ge
_symmetry_space_group_name_H-M   'P 1'
_cell_length_a   9.84230259
_cell_length_b   9.84232468
_cell_length_c   9.84230328
_cell_angle_alpha   93.86177223
_cell_angle_beta   93.86241729
_cell_angle_gamma   149.91553604
_symmetry_Int_Tables_number   1
_chemical_formula_structural   Ta9Al2Cu2Ge
_chemical_formula_sum   'Ta18 Al4 Cu4 Ge2'
_cell_volume   461.55827859
_cell_formula_units_Z   2
loop_
 _symmetry_equiv_pos_site_id
 _symmetry_equiv_pos_as_xyz
  1  'x, y, z'
loop_
 _atom_site_type_symbol
 _atom_site_label
 _atom_site_symmetry_multiplicity
 _atom_site_fract_x
 _atom_site_fract_y
 _atom_site_fract_z
 _atom_site_occupancy
  Ta  Ta0  1  0.564949  0.792410  0.357362  1
  Ta  Ta1  1  0.084866  0.159368  0.244234  1
  Ta  Ta2  1  0.584866  0.340632  0.925498  1
  Ta  Ta3  1  0.659366  0.584865  0.244233  1
  Ta  Ta4  1  0.340634  0.415135  0.755767  1
  Ta  Ta5  1  0.792410  0.435049  0.227461  1
  Ta  Ta6  1  0.415134  0.659368  0.074502  1
  Ta  Ta7  1  0.159369  0.915135  0.074502  1
  Ta  Ta8  1  0.707589  0.935049  0.642639  1
  Ta  Ta9  1  0.435051  0.207590  0.642638  1
  Ta  Ta10  1  0.915134  0.840632  0.755766  1
  Ta  Ta11  1  0.064952  0.707590  0.772539  1
  Ta  Ta12  1  0.207590  0.564951  0.772539  1
  Ta  Ta13  1  0.250000  0.750000  0.500000  1
  Ta  Ta14  1  0.292411  0.064951  0.357361  1
  Ta  Ta15  1  0.750000  0.250000  0.500000  1
  Ta  Ta16  1  0.840631  0.084865  0.925498  1
  Ta  Ta17  1  0.935048  0.292410  0.227461  1
  Al  Al18  1  0.367808  0.867808  0.235620  1
  Al  Al19  1  0.867812  0.632192  0.500000  1
  Al  Al20  1  0.132188  0.367808  0.500000  1
  Al  Al21  1  0.632192  0.132192  0.764380  1
  Cu  Cu22  1  0.500000  0.000000  0.000000  1
  Cu  Cu23  1  0.000000  0.500000  0.000000  1
  Cu  Cu24  1  0.500000  0.500000  0.500000  1
  Cu  Cu25  1  0.000000  0.000000  0.500000  1
  Ge  Ge26  1  0.750004  0.750000  0.000004  1
  Ge  Ge27  1  0.249996  0.250000  0.999996  1
