# generated using pymatgen
data_Lu4ReB12Ir
_symmetry_space_group_name_H-M   'P 1'
_cell_length_a   3.60858000
_cell_length_b   9.03951038
_cell_length_c   11.41437107
_cell_angle_alpha   90.29211281
_cell_angle_beta   90.00000000
_cell_angle_gamma   90.00000000
_symmetry_Int_Tables_number   1
_chemical_formula_structural   Lu4ReB12Ir
_chemical_formula_sum   'Lu8 Re2 B24 Ir2'
_cell_volume   372.32962108
_cell_formula_units_Z   2
loop_
 _symmetry_equiv_pos_site_id
 _symmetry_equiv_pos_as_xyz
  1  'x, y, z'
loop_
 _atom_site_type_symbol
 _atom_site_label
 _atom_site_symmetry_multiplicity
 _atom_site_fract_x
 _atom_site_fract_y
 _atom_site_fract_z
 _atom_site_occupancy
  Lu  Lu0  1  0.000000  0.315674  0.409890  1
  Lu  Lu1  1  0.000000  0.684326  0.590110  1
  Lu  Lu2  1  0.000000  0.826007  0.081924  1
  Lu  Lu3  1  0.000000  0.173993  0.918076  1
  Lu  Lu4  1  0.000000  0.946681  0.372493  1
  Lu  Lu5  1  0.000000  0.053319  0.627507  1
  Lu  Lu6  1  0.000000  0.441945  0.125682  1
  Lu  Lu7  1  0.000000  0.558055  0.874318  1
  Re  Re8  1  0.000000  0.138905  0.180116  1
  Re  Re9  1  0.000000  0.861095  0.819884  1
  B  B10  1  0.500000  0.554156  0.434924  1
  B  B11  1  0.500000  0.445844  0.565076  1
  B  B12  1  0.500000  0.053239  0.066461  1
  B  B13  1  0.500000  0.946761  0.933539  1
  B  B14  1  0.500000  0.750738  0.421749  1
  B  B15  1  0.500000  0.249262  0.578251  1
  B  B16  1  0.500000  0.249457  0.079936  1
  B  B17  1  0.500000  0.750543  0.920064  1
  B  B18  1  0.500000  0.792437  0.265202  1
  B  B19  1  0.500000  0.207563  0.734798  1
  B  B20  1  0.500000  0.293901  0.235141  1
  B  B21  1  0.500000  0.706099  0.764859  1
  B  B22  1  0.500000  0.631673  0.183110  1
  B  B23  1  0.500000  0.368327  0.816890  1
  B  B24  1  0.500000  0.131600  0.315767  1
  B  B25  1  0.500000  0.868400  0.684233  1
  B  B26  1  0.500000  0.981685  0.213166  1
  B  B27  1  0.500000  0.018315  0.786834  1
  B  B28  1  0.500000  0.481596  0.287351  1
  B  B29  1  0.500000  0.518404  0.712649  1
  B  B30  1  0.500000  0.604654  0.029364  1
  B  B31  1  0.500000  0.395346  0.970636  1
  B  B32  1  0.500000  0.105427  0.471509  1
  B  B33  1  0.500000  0.894573  0.528491  1
  Ir  Ir34  1  0.000000  0.637284  0.322034  1
  Ir  Ir35  1  0.000000  0.362716  0.677966  1
