# generated using pymatgen
data_Rb4Na2TbHoSb4
_symmetry_space_group_name_H-M   'P 1'
_cell_length_a   11.36197246
_cell_length_b   11.36197085
_cell_length_c   7.49904800
_cell_angle_alpha   90.00000000
_cell_angle_beta   90.00000000
_cell_angle_gamma   98.42939274
_symmetry_Int_Tables_number   1
_chemical_formula_structural   Rb4Na2TbHoSb4
_chemical_formula_sum   'Rb8 Na4 Tb2 Ho2 Sb8'
_cell_volume   957.62713158
_cell_formula_units_Z   2
loop_
 _symmetry_equiv_pos_site_id
 _symmetry_equiv_pos_as_xyz
  1  'x, y, z'
loop_
 _atom_site_type_symbol
 _atom_site_label
 _atom_site_symmetry_multiplicity
 _atom_site_fract_x
 _atom_site_fract_y
 _atom_site_fract_z
 _atom_site_occupancy
  Rb  Rb0  1  0.070663  0.429337  0.250000  1
  Rb  Rb1  1  0.429337  0.070663  0.750000  1
  Rb  Rb2  1  0.929217  0.570783  0.750000  1
  Rb  Rb3  1  0.570783  0.929217  0.250000  1
  Rb  Rb4  1  0.676376  0.323707  0.215895  1
  Rb  Rb5  1  0.823624  0.176293  0.715895  1
  Rb  Rb6  1  0.323707  0.676376  0.784105  1
  Rb  Rb7  1  0.176293  0.823624  0.284105  1
  Na  Na8  1  0.382531  0.382531  0.000000  1
  Na  Na9  1  0.117469  0.117469  0.500000  1
  Na  Na10  1  0.617618  0.617618  0.000000  1
  Na  Na11  1  0.882382  0.882382  0.500000  1
  Tb  Tb12  1  0.131024  0.131024  0.000000  1
  Tb  Tb13  1  0.368976  0.368976  0.500000  1
  Ho  Ho14  1  0.868983  0.868983  0.000000  1
  Ho  Ho15  1  0.631017  0.631017  0.500000  1
  Sb  Sb16  1  0.846237  0.653762  0.250000  1
  Sb  Sb17  1  0.653762  0.846237  0.750000  1
  Sb  Sb18  1  0.152851  0.347148  0.750000  1
  Sb  Sb19  1  0.347148  0.152851  0.250000  1
  Sb  Sb20  1  0.898770  0.099894  0.211978  1
  Sb  Sb21  1  0.601230  0.400106  0.711978  1
  Sb  Sb22  1  0.099894  0.898770  0.788022  1
  Sb  Sb23  1  0.400106  0.601230  0.288022  1
