# generated using pymatgen
data_Pr2MgSi3P3Pd20
_symmetry_space_group_name_H-M   'P 1'
_cell_length_a   8.71884807
_cell_length_b   8.72081987
_cell_length_c   8.72543822
_cell_angle_alpha   59.96753704
_cell_angle_beta   59.98996392
_cell_angle_gamma   60.04252240
_symmetry_Int_Tables_number   1
_chemical_formula_structural   Pr2MgSi3P3Pd20
_chemical_formula_sum   'Pr2 Mg1 Si3 P3 Pd20'
_cell_volume   469.12476572
_cell_formula_units_Z   1
loop_
 _symmetry_equiv_pos_site_id
 _symmetry_equiv_pos_as_xyz
  1  'x, y, z'
loop_
 _atom_site_type_symbol
 _atom_site_label
 _atom_site_symmetry_multiplicity
 _atom_site_fract_x
 _atom_site_fract_y
 _atom_site_fract_z
 _atom_site_occupancy
  Pr  Pr0  1  0.249620  0.250380  0.249620  1
  Pr  Pr1  1  0.749620  0.750380  0.749620  1
  Mg  Mg2  1  0.001200  0.998800  0.001200  1
  Si  Si3  1  0.735930  0.264070  0.262637  1
  Si  Si4  1  0.262637  0.737363  0.735930  1
  Si  Si5  1  0.264058  0.735942  0.264058  1
  P  P6  1  0.736869  0.263131  0.736869  1
  P  P7  1  0.263313  0.264873  0.735127  1
  P  P8  1  0.735127  0.736687  0.263313  1
  Pd  Pd9  1  0.385503  0.385123  0.387379  1
  Pd  Pd10  1  0.614725  0.612988  0.613290  1
  Pd  Pd11  1  0.387012  0.385275  0.841005  1
  Pd  Pd12  1  0.387379  0.841997  0.385503  1
  Pd  Pd13  1  0.614877  0.614497  0.158003  1
  Pd  Pd14  1  0.613290  0.158995  0.614725  1
  Pd  Pd15  1  0.841005  0.386710  0.387012  1
  Pd  Pd16  1  0.158003  0.612621  0.614877  1
  Pd  Pd17  1  0.343685  0.002031  0.997969  1
  Pd  Pd18  1  0.657369  0.000070  0.999930  1
  Pd  Pd19  1  0.999930  0.342631  0.657369  1
  Pd  Pd20  1  0.997969  0.656315  0.343685  1
  Pd  Pd21  1  0.002706  0.343507  0.998449  1
  Pd  Pd22  1  0.656493  0.997294  0.344662  1
  Pd  Pd23  1  0.998449  0.655338  0.002706  1
  Pd  Pd24  1  0.344662  0.001551  0.656493  1
  Pd  Pd25  1  0.000129  0.999871  0.345347  1
  Pd  Pd26  1  0.997818  0.002182  0.655275  1
  Pd  Pd27  1  0.655275  0.344725  0.997818  1
  Pd  Pd28  1  0.345347  0.654653  0.000129  1
