# generated using pymatgen
data_Lu4Sc4B24Ir3Ru
_symmetry_space_group_name_H-M   'P 1'
_cell_length_a   3.52241000
_cell_length_b   8.95261342
_cell_length_c   11.30037553
_cell_angle_alpha   90.03495154
_cell_angle_beta   90.00000000
_cell_angle_gamma   90.00000000
_symmetry_Int_Tables_number   1
_chemical_formula_structural   Lu4Sc4B24Ir3Ru
_chemical_formula_sum   'Lu4 Sc4 B24 Ir3 Ru1'
_cell_volume   356.35473359
_cell_formula_units_Z   1
loop_
 _symmetry_equiv_pos_site_id
 _symmetry_equiv_pos_as_xyz
  1  'x, y, z'
loop_
 _atom_site_type_symbol
 _atom_site_label
 _atom_site_symmetry_multiplicity
 _atom_site_fract_x
 _atom_site_fract_y
 _atom_site_fract_z
 _atom_site_occupancy
  Lu  Lu0  1  0.500000  0.317909  0.412883  1
  Lu  Lu1  1  0.500000  0.681046  0.586383  1
  Lu  Lu2  1  0.500000  0.180814  0.914870  1
  Lu  Lu3  1  0.500000  0.820832  0.086612  1
  Sc  Sc4  1  0.500000  0.442371  0.124134  1
  Sc  Sc5  1  0.500000  0.555410  0.875941  1
  Sc  Sc6  1  0.500000  0.055176  0.623875  1
  Sc  Sc7  1  0.500000  0.947047  0.374805  1
  B  B8  1  0.000000  0.101625  0.472645  1
  B  B9  1  0.000000  0.898268  0.527736  1
  B  B10  1  0.000000  0.398480  0.972210  1
  B  B11  1  0.000000  0.601917  0.027543  1
  B  B12  1  0.000000  0.130073  0.317523  1
  B  B13  1  0.000000  0.869559  0.681285  1
  B  B14  1  0.000000  0.369712  0.818699  1
  B  B15  1  0.000000  0.630246  0.181461  1
  B  B16  1  0.000000  0.054768  0.065627  1
  B  B17  1  0.000000  0.945794  0.935160  1
  B  B18  1  0.000000  0.445345  0.564700  1
  B  B19  1  0.000000  0.554457  0.435132  1
  B  B20  1  0.000000  0.480964  0.285870  1
  B  B21  1  0.000000  0.519127  0.714147  1
  B  B22  1  0.000000  0.019137  0.785692  1
  B  B23  1  0.000000  0.981857  0.214218  1
  B  B24  1  0.000000  0.253233  0.080265  1
  B  B25  1  0.000000  0.746179  0.920807  1
  B  B26  1  0.000000  0.246240  0.579074  1
  B  B27  1  0.000000  0.753862  0.420740  1
  B  B28  1  0.000000  0.294899  0.235166  1
  B  B29  1  0.000000  0.704157  0.763969  1
  B  B30  1  0.000000  0.204321  0.736130  1
  B  B31  1  0.000000  0.795639  0.264467  1
  Ir  Ir32  1  0.500000  0.859747  0.819876  1
  Ir  Ir33  1  0.500000  0.359453  0.680413  1
  Ir  Ir34  1  0.500000  0.640265  0.319265  1
  Ru  Ru35  1  0.500000  0.140069  0.180677  1
