# generated using pymatgen
data_Ba5InOs3O16
_symmetry_space_group_name_H-M   'P 1'
_cell_length_a   6.03446303
_cell_length_b   6.03835603
_cell_length_c   10.53865139
_cell_angle_alpha   93.10916319
_cell_angle_beta   93.09120772
_cell_angle_gamma   89.88019957
_symmetry_Int_Tables_number   1
_chemical_formula_structural   Ba5InOs3O16
_chemical_formula_sum   'Ba5 In1 Os3 O16'
_cell_volume   382.88654751
_cell_formula_units_Z   1
loop_
 _symmetry_equiv_pos_site_id
 _symmetry_equiv_pos_as_xyz
  1  'x, y, z'
loop_
 _atom_site_type_symbol
 _atom_site_label
 _atom_site_symmetry_multiplicity
 _atom_site_fract_x
 _atom_site_fract_y
 _atom_site_fract_z
 _atom_site_occupancy
  Ba  Ba0  1  0.509395  0.027972  0.197217  1
  Ba  Ba1  1  0.028093  0.509049  0.197276  1
  Ba  Ba2  1  0.999988  0.000018  0.499986  1
  Ba  Ba3  1  0.971905  0.490957  0.802729  1
  Ba  Ba4  1  0.490612  0.972067  0.802799  1
  In  In5  1  0.499998  0.499995  0.999990  1
  Os  Os6  1  0.000002  0.999997  0.000027  1
  Os  Os7  1  0.564834  0.564697  0.393031  1
  Os  Os8  1  0.435182  0.435245  0.606956  1
  O  O9  1  0.764089  0.232197  0.999605  1
  O  O10  1  0.771869  0.768590  0.020025  1
  O  O11  1  0.040667  0.041816  0.176102  1
  O  O12  1  0.475898  0.474905  0.198195  1
  O  O13  1  0.763163  0.763448  0.330624  1
  O  O14  1  0.319758  0.746165  0.374061  1
  O  O15  1  0.747388  0.320560  0.374481  1
  O  O16  1  0.327855  0.326941  0.438767  1
  O  O17  1  0.672116  0.673049  0.561217  1
  O  O18  1  0.252668  0.679408  0.625491  1
  O  O19  1  0.680186  0.253842  0.625937  1
  O  O20  1  0.236865  0.236610  0.669335  1
  O  O21  1  0.524098  0.525099  0.801800  1
  O  O22  1  0.959340  0.958165  0.823930  1
  O  O23  1  0.228129  0.231411  0.980003  1
  O  O24  1  0.235902  0.767787  0.000427  1
