# generated using pymatgen
data_Rb8Sc2O7
_symmetry_space_group_name_H-M   'P 1'
_cell_length_a   18.25985700
_cell_length_b   7.13143175
_cell_length_c   7.17273473
_cell_angle_alpha   61.11555436
_cell_angle_beta   90.00000000
_cell_angle_gamma   90.00000000
_symmetry_Int_Tables_number   1
_chemical_formula_structural   Rb8Sc2O7
_chemical_formula_sum   'Rb16 Sc4 O14'
_cell_volume   817.82896635
_cell_formula_units_Z   2
loop_
 _symmetry_equiv_pos_site_id
 _symmetry_equiv_pos_as_xyz
  1  'x, y, z'
loop_
 _atom_site_type_symbol
 _atom_site_label
 _atom_site_symmetry_multiplicity
 _atom_site_fract_x
 _atom_site_fract_y
 _atom_site_fract_z
 _atom_site_occupancy
  Rb  Rb0  1  0.707768  0.551339  0.227599  1
  Rb  Rb1  1  0.584754  0.004085  0.639570  1
  Rb  Rb2  1  0.792232  0.051339  0.227599  1
  Rb  Rb3  1  0.292232  0.448661  0.772401  1
  Rb  Rb4  1  0.690691  0.454130  0.782185  1
  Rb  Rb5  1  0.415246  0.995915  0.360430  1
  Rb  Rb6  1  0.309309  0.545870  0.217815  1
  Rb  Rb7  1  0.505074  0.534122  0.234267  1
  Rb  Rb8  1  0.809309  0.954130  0.782185  1
  Rb  Rb9  1  0.994926  0.034122  0.234267  1
  Rb  Rb10  1  0.084754  0.495915  0.360430  1
  Rb  Rb11  1  0.005074  0.965878  0.765733  1
  Rb  Rb12  1  0.494926  0.465878  0.765733  1
  Rb  Rb13  1  0.915246  0.504085  0.639570  1
  Rb  Rb14  1  0.190691  0.045870  0.217815  1
  Rb  Rb15  1  0.207768  0.948661  0.772401  1
  Sc  Sc16  1  0.097328  0.500320  0.854602  1
  Sc  Sc17  1  0.402672  0.000320  0.854602  1
  Sc  Sc18  1  0.597328  0.999680  0.145398  1
  Sc  Sc19  1  0.902672  0.499680  0.145398  1
  O  O20  1  0.322028  0.002289  0.043670  1
  O  O21  1  0.399145  0.265550  0.570435  1
  O  O22  1  0.899145  0.234450  0.429565  1
  O  O23  1  0.100855  0.765550  0.570435  1
  O  O24  1  0.177972  0.502289  0.043670  1
  O  O25  1  0.394699  0.732106  0.830926  1
  O  O26  1  0.894699  0.767894  0.169074  1
  O  O27  1  0.600855  0.734450  0.429565  1
  O  O28  1  0.000000  0.500000  0.000000  1
  O  O29  1  0.605301  0.267894  0.169074  1
  O  O30  1  0.677972  0.997711  0.956330  1
  O  O31  1  0.822028  0.497711  0.956330  1
  O  O32  1  0.500000  0.000000  0.000000  1
  O  O33  1  0.105301  0.232106  0.830926  1
