# generated using pymatgen
data_Sc6GaSn6Ir5
_symmetry_space_group_name_H-M   'P 1'
_cell_length_a   7.54993300
_cell_length_b   7.54993294
_cell_length_c   7.16665600
_cell_angle_alpha   90.00000000
_cell_angle_beta   90.00000000
_cell_angle_gamma   119.99999586
_symmetry_Int_Tables_number   1
_chemical_formula_structural   Sc6GaSn6Ir5
_chemical_formula_sum   'Sc6 Ga1 Sn6 Ir5'
_cell_volume   353.78010025
_cell_formula_units_Z   1
loop_
 _symmetry_equiv_pos_site_id
 _symmetry_equiv_pos_as_xyz
  1  'x, y, z'
loop_
 _atom_site_type_symbol
 _atom_site_label
 _atom_site_symmetry_multiplicity
 _atom_site_fract_x
 _atom_site_fract_y
 _atom_site_fract_z
 _atom_site_occupancy
  Sc  Sc0  1  0.389896  0.994457  0.241102  1
  Sc  Sc1  1  0.604561  0.610104  0.241102  1
  Sc  Sc2  1  0.005543  0.395439  0.241102  1
  Sc  Sc3  1  0.372153  0.968868  0.759469  1
  Sc  Sc4  1  0.596715  0.627847  0.759469  1
  Sc  Sc5  1  0.031132  0.403285  0.759469  1
  Ga  Ga6  1  0.666667  0.333333  0.564393  1
  Sn  Sn7  1  0.290832  0.279459  0.998648  1
  Sn  Sn8  1  0.988625  0.709168  0.998648  1
  Sn  Sn9  1  0.001005  0.739984  0.496552  1
  Sn  Sn10  1  0.738978  0.998995  0.496552  1
  Sn  Sn11  1  0.260016  0.261022  0.496552  1
  Sn  Sn12  1  0.720541  0.011375  0.998648  1
  Ir  Ir13  1  0.000000  0.000000  0.769336  1
  Ir  Ir14  1  0.000000  0.000000  0.224720  1
  Ir  Ir15  1  0.666667  0.333333  0.954325  1
  Ir  Ir16  1  0.333333  0.666667  0.483707  1
  Ir  Ir17  1  0.333333  0.666667  0.016206  1
