# generated using pymatgen
data_K2BrOF5
_symmetry_space_group_name_H-M   'P 1'
_cell_length_a   6.46625734
_cell_length_b   6.46625729
_cell_length_c   8.19742547
_cell_angle_alpha   85.21383656
_cell_angle_beta   85.21383225
_cell_angle_gamma   83.33463781
_symmetry_Int_Tables_number   1
_chemical_formula_structural   K2BrOF5
_chemical_formula_sum   'K4 Br2 O2 F10'
_cell_volume   338.30780602
_cell_formula_units_Z   2
loop_
 _symmetry_equiv_pos_site_id
 _symmetry_equiv_pos_as_xyz
  1  'x, y, z'
loop_
 _atom_site_type_symbol
 _atom_site_label
 _atom_site_symmetry_multiplicity
 _atom_site_fract_x
 _atom_site_fract_y
 _atom_site_fract_z
 _atom_site_occupancy
  K  K0  1  0.313908  0.307004  0.029476  1
  K  K1  1  0.692996  0.686092  0.470524  1
  K  K2  1  0.686092  0.692996  0.970524  1
  K  K3  1  0.307004  0.313908  0.529476  1
  Br  Br4  1  0.816345  0.183655  0.250000  1
  Br  Br5  1  0.183655  0.816345  0.750000  1
  O  O6  1  0.004379  0.995621  0.250000  1
  O  O7  1  0.995621  0.004379  0.750000  1
  F  F8  1  0.880631  0.290070  0.022024  1
  F  F9  1  0.709930  0.119369  0.477976  1
  F  F10  1  0.119369  0.709930  0.977976  1
  F  F11  1  0.290070  0.880631  0.522024  1
  F  F12  1  0.990310  0.392383  0.319163  1
  F  F13  1  0.607617  0.009690  0.180837  1
  F  F14  1  0.009690  0.607617  0.680837  1
  F  F15  1  0.392383  0.990310  0.819163  1
  F  F16  1  0.538831  0.461169  0.250000  1
  F  F17  1  0.461169  0.538831  0.750000  1
