# generated using pymatgen
data_Ca2Tb2CdHg3
_symmetry_space_group_name_H-M   'P 1'
_cell_length_a   7.53589100
_cell_length_b   7.54791600
_cell_length_c   7.49548600
_cell_angle_alpha   90.00000000
_cell_angle_beta   89.99879872
_cell_angle_gamma   90.00000000
_symmetry_Int_Tables_number   1
_chemical_formula_structural   Ca2Tb2CdHg3
_chemical_formula_sum   'Ca4 Tb4 Cd2 Hg6'
_cell_volume   426.34528435
_cell_formula_units_Z   2
loop_
 _symmetry_equiv_pos_site_id
 _symmetry_equiv_pos_as_xyz
  1  'x, y, z'
loop_
 _atom_site_type_symbol
 _atom_site_label
 _atom_site_symmetry_multiplicity
 _atom_site_fract_x
 _atom_site_fract_y
 _atom_site_fract_z
 _atom_site_occupancy
  Ca  Ca0  1  0.747973  0.250000  0.998553  1
  Ca  Ca1  1  0.251053  0.750000  0.501449  1
  Ca  Ca2  1  0.748969  0.250000  0.501668  1
  Ca  Ca3  1  0.252042  0.750000  0.998287  1
  Tb  Tb4  1  0.252709  0.250000  0.998280  1
  Tb  Tb5  1  0.747293  0.750000  0.998293  1
  Tb  Tb6  1  0.748798  0.750000  0.501696  1
  Tb  Tb7  1  0.251204  0.250000  0.501731  1
  Cd  Cd8  1  0.000190  0.500137  0.248629  1
  Cd  Cd9  1  0.000190  0.999865  0.248629  1
  Hg  Hg10  1  0.500202  0.000118  0.251325  1
  Hg  Hg11  1  0.500202  0.499882  0.251325  1
  Hg  Hg12  1  0.499792  0.500122  0.748647  1
  Hg  Hg13  1  0.499792  0.999880  0.748647  1
  Hg  Hg14  1  0.999795  0.000116  0.751421  1
  Hg  Hg15  1  0.999795  0.499884  0.751421  1
