# generated using pymatgen
data_TbTh2Co9(NiB2)2
_symmetry_space_group_name_H-M   'P 1'
_cell_length_a   5.04757100
_cell_length_b   5.04671762
_cell_length_c   9.98117900
_cell_angle_alpha   89.99998407
_cell_angle_beta   90.00004320
_cell_angle_gamma   120.00560036
_symmetry_Int_Tables_number   1
_chemical_formula_structural   TbTh2Co9(NiB2)2
_chemical_formula_sum   'Tb1 Th2 Co9 Ni2 B4'
_cell_volume   220.18078031
_cell_formula_units_Z   1
loop_
 _symmetry_equiv_pos_site_id
 _symmetry_equiv_pos_as_xyz
  1  'x, y, z'
loop_
 _atom_site_type_symbol
 _atom_site_label
 _atom_site_symmetry_multiplicity
 _atom_site_fract_x
 _atom_site_fract_y
 _atom_site_fract_z
 _atom_site_occupancy
  Tb  Tb0  1  0.999996  0.000000  0.657813  1
  Th  Th1  1  0.999991  0.000000  0.996374  1
  Th  Th2  1  0.999994  0.000000  0.340764  1
  Co  Co3  1  0.499996  0.000000  0.501987  1
  Co  Co4  1  0.499996  0.500000  0.501991  1
  Co  Co5  1  0.999996  0.500000  0.501991  1
  Co  Co6  1  0.499993  0.000000  0.204319  1
  Co  Co7  1  0.499994  0.500000  0.204316  1
  Co  Co8  1  0.999994  0.500000  0.204316  1
  Co  Co9  1  0.499995  0.000000  0.794810  1
  Co  Co10  1  0.499996  0.500000  0.794777  1
  Co  Co11  1  0.999995  0.500000  0.794777  1
  Ni  Ni12  1  0.333288  0.666593  0.999103  1
  Ni  Ni13  1  0.666695  0.333407  0.999103  1
  B  B14  1  0.333366  0.666742  0.350610  1
  B  B15  1  0.666624  0.333258  0.350610  1
  B  B16  1  0.666643  0.333294  0.651170  1
  B  B17  1  0.333349  0.666706  0.651170  1
