# generated using pymatgen
data_Nd2Sm4Al19Si5Os8
_symmetry_space_group_name_H-M   'P 1'
_cell_length_a   8.76727200
_cell_length_b   8.75195501
_cell_length_c   9.67657500
_cell_angle_alpha   90.00000000
_cell_angle_beta   90.00000000
_cell_angle_gamma   120.05791803
_symmetry_Int_Tables_number   1
_chemical_formula_structural   Nd2Sm4Al19Si5Os8
_chemical_formula_sum   'Nd2 Sm4 Al19 Si5 Os8'
_cell_volume   642.64050723
_cell_formula_units_Z   1
loop_
 _symmetry_equiv_pos_site_id
 _symmetry_equiv_pos_as_xyz
  1  'x, y, z'
loop_
 _atom_site_type_symbol
 _atom_site_label
 _atom_site_symmetry_multiplicity
 _atom_site_fract_x
 _atom_site_fract_y
 _atom_site_fract_z
 _atom_site_occupancy
  Nd  Nd0  1  0.612292  0.807700  0.250000  1
  Nd  Nd1  1  0.195407  0.807700  0.250000  1
  Sm  Sm2  1  0.193270  0.386541  0.250000  1
  Sm  Sm3  1  0.807074  0.614148  0.750000  1
  Sm  Sm4  1  0.387543  0.194257  0.750000  1
  Sm  Sm5  1  0.806715  0.194257  0.750000  1
  Al  Al6  1  0.164900  0.329799  0.575977  1
  Al  Al7  1  0.834178  0.668357  0.424457  1
  Al  Al8  1  0.669694  0.835390  0.575175  1
  Al  Al9  1  0.834178  0.668357  0.075543  1
  Al  Al10  1  0.329236  0.166010  0.424806  1
  Al  Al11  1  0.164900  0.329799  0.924023  1
  Al  Al12  1  0.165696  0.835390  0.575175  1
  Al  Al13  1  0.329236  0.166010  0.075194  1
  Al  Al14  1  0.836772  0.166010  0.424806  1
  Al  Al15  1  0.669694  0.835390  0.924825  1
  Al  Al16  1  0.836772  0.166010  0.075194  1
  Al  Al17  1  0.165696  0.835390  0.924825  1
  Al  Al18  1  0.436775  0.873550  0.750000  1
  Al  Al19  1  0.870950  0.431392  0.250000  1
  Al  Al20  1  0.128889  0.565302  0.750000  1
  Al  Al21  1  0.560442  0.431392  0.250000  1
  Al  Al22  1  0.436411  0.565302  0.750000  1
  Al  Al23  1  0.000104  0.000208  0.250000  1
  Al  Al24  1  0.000713  0.001427  0.750000  1
  Si  Si25  1  0.332097  0.664194  0.032448  1
  Si  Si26  1  0.667273  0.334546  0.964387  1
  Si  Si27  1  0.667273  0.334546  0.535613  1
  Si  Si28  1  0.332097  0.664194  0.467552  1
  Si  Si29  1  0.564969  0.129937  0.250000  1
  Os  Os30  1  0.501301  0.002602  0.005301  1
  Os  Os31  1  0.998629  0.498445  0.000111  1
  Os  Os32  1  0.501301  0.002602  0.494699  1
  Os  Os33  1  0.499817  0.498445  0.000111  1
  Os  Os34  1  0.998629  0.498445  0.499889  1
  Os  Os35  1  0.499817  0.498445  0.499889  1
  Os  Os36  1  0.999628  0.999256  0.999789  1
  Os  Os37  1  0.999628  0.999256  0.500211  1
