# generated using pymatgen
data_ErSiPd4Pt
_symmetry_space_group_name_H-M   'P 1'
_cell_length_a   4.06830300
_cell_length_b   4.01783200
_cell_length_c   7.13122800
_cell_angle_alpha   90.00000000
_cell_angle_beta   90.00000000
_cell_angle_gamma   90.00000000
_symmetry_Int_Tables_number   1
_chemical_formula_structural   ErSiPd4Pt
_chemical_formula_sum   'Er1 Si1 Pd4 Pt1'
_cell_volume   116.56532698
_cell_formula_units_Z   1
loop_
 _symmetry_equiv_pos_site_id
 _symmetry_equiv_pos_as_xyz
  1  'x, y, z'
loop_
 _atom_site_type_symbol
 _atom_site_label
 _atom_site_symmetry_multiplicity
 _atom_site_fract_x
 _atom_site_fract_y
 _atom_site_fract_z
 _atom_site_occupancy
  Er  Er0  1  0.500000  0.500000  0.000662  1
  Si  Si1  1  0.000000  0.000000  0.498429  1
  Pd  Pd2  1  0.000000  0.000000  0.999988  1
  Pd  Pd3  1  0.500000  0.000000  0.700357  1
  Pd  Pd4  1  0.000000  0.500000  0.702070  1
  Pd  Pd5  1  0.500000  0.000000  0.299347  1
  Pt  Pt6  1  0.000000  0.500000  0.299149  1
