# generated using pymatgen
data_Tb3Tm4ThCdIn3Au8
_symmetry_space_group_name_H-M   'P 1'
_cell_length_a   8.01078500
_cell_length_b   8.01078532
_cell_length_c   7.38994900
_cell_angle_alpha   90.00000000
_cell_angle_beta   90.00000000
_cell_angle_gamma   90.07198822
_symmetry_Int_Tables_number   1
_chemical_formula_structural   Tb3Tm4ThCdIn3Au8
_chemical_formula_sum   'Tb3 Tm4 Th1 Cd1 In3 Au8'
_cell_volume   474.23244997
_cell_formula_units_Z   1
loop_
 _symmetry_equiv_pos_site_id
 _symmetry_equiv_pos_as_xyz
  1  'x, y, z'
loop_
 _atom_site_type_symbol
 _atom_site_label
 _atom_site_symmetry_multiplicity
 _atom_site_fract_x
 _atom_site_fract_y
 _atom_site_fract_z
 _atom_site_occupancy
  Tb  Tb0  1  0.162724  0.837023  0.499406  1
  Tb  Tb1  1  0.679195  0.679009  0.499866  1
  Tb  Tb2  1  0.320882  0.321030  0.499709  1
  Tm  Tm3  1  0.337595  0.341820  0.000490  1
  Tm  Tm4  1  0.658566  0.661554  0.000531  1
  Tm  Tm5  1  0.179708  0.819197  0.000489  1
  Tm  Tm6  1  0.822215  0.178353  0.000362  1
  Th  Th7  1  0.839366  0.161810  0.499954  1
  Cd  Cd8  1  0.497847  0.998221  0.249178  1
  In  In9  1  0.001740  0.502834  0.749960  1
  In  In10  1  0.497450  0.998566  0.748267  1
  In  In11  1  0.001505  0.502651  0.250500  1
  Au  Au12  1  0.626275  0.370337  0.257377  1
  Au  Au13  1  0.372140  0.630691  0.262407  1
  Au  Au14  1  0.131713  0.128044  0.777804  1
  Au  Au15  1  0.871142  0.869439  0.777402  1
  Au  Au16  1  0.371157  0.629478  0.737524  1
  Au  Au17  1  0.627222  0.372142  0.743107  1
  Au  Au18  1  0.868970  0.870714  0.223090  1
  Au  Au19  1  0.132589  0.127087  0.222576  1
