# generated using pymatgen
data_Ta12B12Os7Ru5
_symmetry_space_group_name_H-M   'P 1'
_cell_length_a   3.11086200
_cell_length_b   9.08302200
_cell_length_c   15.76867758
_cell_angle_alpha   89.90925190
_cell_angle_beta   90.00000000
_cell_angle_gamma   90.00000000
_symmetry_Int_Tables_number   1
_chemical_formula_structural   Ta12B12Os7Ru5
_chemical_formula_sum   'Ta12 B12 Os7 Ru5'
_cell_volume   445.55963624
_cell_formula_units_Z   1
loop_
 _symmetry_equiv_pos_site_id
 _symmetry_equiv_pos_as_xyz
  1  'x, y, z'
loop_
 _atom_site_type_symbol
 _atom_site_label
 _atom_site_symmetry_multiplicity
 _atom_site_fract_x
 _atom_site_fract_y
 _atom_site_fract_z
 _atom_site_occupancy
  Ta  Ta0  1  0.000000  0.800262  0.495828  1
  Ta  Ta1  1  0.000000  0.200572  0.504740  1
  Ta  Ta2  1  0.000000  0.299145  0.004631  1
  Ta  Ta3  1  0.000000  0.700506  0.995159  1
  Ta  Ta4  1  0.000000  0.516081  0.593920  1
  Ta  Ta5  1  0.000000  0.483841  0.406496  1
  Ta  Ta6  1  0.000000  0.016554  0.906109  1
  Ta  Ta7  1  0.000000  0.983340  0.093703  1
  Ta  Ta8  1  0.000000  0.688197  0.202544  1
  Ta  Ta9  1  0.000000  0.311602  0.797407  1
  Ta  Ta10  1  0.000000  0.188312  0.297663  1
  Ta  Ta11  1  0.000000  0.812572  0.702097  1
  B  B12  1  0.500000  0.605763  0.497115  1
  B  B13  1  0.500000  0.394627  0.503587  1
  B  B14  1  0.500000  0.105251  0.003166  1
  B  B15  1  0.500000  0.894638  0.996630  1
  B  B16  1  0.000000  0.610263  0.832114  1
  B  B17  1  0.000000  0.389732  0.167688  1
  B  B18  1  0.000000  0.109984  0.667599  1
  B  B19  1  0.000000  0.890352  0.332456  1
  B  B20  1  0.500000  0.714812  0.598155  1
  B  B21  1  0.500000  0.284369  0.402300  1
  B  B22  1  0.500000  0.215744  0.902176  1
  B  B23  1  0.500000  0.784328  0.097724  1
  Os  Os24  1  0.500000  0.719756  0.355077  1
  Os  Os25  1  0.500000  0.279953  0.645011  1
  Os  Os26  1  0.500000  0.219293  0.145519  1
  Os  Os27  1  0.500000  0.780520  0.854260  1
  Os  Os28  1  0.500000  0.516303  0.094566  1
  Os  Os29  1  0.500000  0.483564  0.905412  1
  Os  Os30  1  0.500000  0.016317  0.405505  1
  Ru  Ru31  1  0.500000  0.984569  0.594396  1
  Ru  Ru32  1  0.500000  0.561188  0.734022  1
  Ru  Ru33  1  0.500000  0.438527  0.265910  1
  Ru  Ru34  1  0.500000  0.060745  0.765103  1
  Ru  Ru35  1  0.500000  0.938418  0.234217  1
