# generated using pymatgen
data_Tm3MgIn2Ga2Ag
_symmetry_space_group_name_H-M   'P 1'
_cell_length_a   7.19329900
_cell_length_b   7.19691413
_cell_length_c   4.45914700
_cell_angle_alpha   90.00000000
_cell_angle_beta   90.00000000
_cell_angle_gamma   119.98338030
_symmetry_Int_Tables_number   1
_chemical_formula_structural   Tm3MgIn2Ga2Ag
_chemical_formula_sum   'Tm3 Mg1 In2 Ga2 Ag1'
_cell_volume   199.95375402
_cell_formula_units_Z   1
loop_
 _symmetry_equiv_pos_site_id
 _symmetry_equiv_pos_as_xyz
  1  'x, y, z'
loop_
 _atom_site_type_symbol
 _atom_site_label
 _atom_site_symmetry_multiplicity
 _atom_site_fract_x
 _atom_site_fract_y
 _atom_site_fract_z
 _atom_site_occupancy
  Tm  Tm0  1  0.001109  0.574249  0.000000  1
  Tm  Tm1  1  0.426860  0.425751  0.000000  1
  Tm  Tm2  1  0.573741  0.000000  0.000000  1
  Mg  Mg3  1  0.243906  0.000000  0.500000  1
  In  In4  1  0.001838  0.251514  0.500000  1
  In  In5  1  0.750324  0.748486  0.500000  1
  Ga  Ga6  1  0.662474  0.328133  0.500000  1
  Ga  Ga7  1  0.334340  0.671867  0.500000  1
  Ag  Ag8  1  0.005408  0.000000  0.000000  1
