# generated using pymatgen
data_NdLu3(Rh2O7)2
_symmetry_space_group_name_H-M   'P 1'
_cell_length_a   7.16431320
_cell_length_b   7.23519291
_cell_length_c   7.16431300
_cell_angle_alpha   60.32353692
_cell_angle_beta   59.99999630
_cell_angle_gamma   60.32353814
_symmetry_Int_Tables_number   1
_chemical_formula_structural   NdLu3(Rh2O7)2
_chemical_formula_sum   'Nd1 Lu3 Rh4 O14'
_cell_volume   263.87048514
_cell_formula_units_Z   1
loop_
 _symmetry_equiv_pos_site_id
 _symmetry_equiv_pos_as_xyz
  1  'x, y, z'
loop_
 _atom_site_type_symbol
 _atom_site_label
 _atom_site_symmetry_multiplicity
 _atom_site_fract_x
 _atom_site_fract_y
 _atom_site_fract_z
 _atom_site_occupancy
  Nd  Nd0  1  0.125000  0.625000  0.125000  1
  Lu  Lu1  1  0.125000  0.125000  0.125000  1
  Lu  Lu2  1  0.625000  0.125000  0.125000  1
  Lu  Lu3  1  0.125000  0.125000  0.625000  1
  Rh  Rh4  1  0.625000  0.625000  0.625000  1
  Rh  Rh5  1  0.625000  0.625000  0.125000  1
  Rh  Rh6  1  0.125000  0.625000  0.625000  1
  Rh  Rh7  1  0.625000  0.125000  0.625000  1
  O  O8  1  0.255117  0.234650  0.255117  1
  O  O9  1  0.287887  0.723747  0.287887  1
  O  O10  1  0.962672  0.964179  0.536575  1
  O  O11  1  0.536575  0.964179  0.536575  1
  O  O12  1  0.700479  0.723747  0.287887  1
  O  O13  1  0.962113  0.526253  0.549521  1
  O  O14  1  0.713425  0.285821  0.713425  1
  O  O15  1  0.287328  0.285821  0.713425  1
  O  O16  1  0.713425  0.285821  0.287328  1
  O  O17  1  0.287887  0.723747  0.700479  1
  O  O18  1  0.962113  0.526253  0.962113  1
  O  O19  1  0.549521  0.526253  0.962113  1
  O  O20  1  0.994883  0.015350  0.994883  1
  O  O21  1  0.536575  0.964179  0.962672  1
