# generated using pymatgen
data_Li8Tb7Ho(Sn3Sb)2
_symmetry_space_group_name_H-M   'P 1'
_cell_length_a   9.41461896
_cell_length_b   9.41738089
_cell_length_c   7.28045187
_cell_angle_alpha   89.99999974
_cell_angle_beta   90.07911532
_cell_angle_gamma   120.00970804
_symmetry_Int_Tables_number   1
_chemical_formula_structural   Li8Tb7Ho(Sn3Sb)2
_chemical_formula_sum   'Li8 Tb7 Ho1 Sn6 Sb2'
_cell_volume   558.95752216
_cell_formula_units_Z   1
loop_
 _symmetry_equiv_pos_site_id
 _symmetry_equiv_pos_as_xyz
  1  'x, y, z'
loop_
 _atom_site_type_symbol
 _atom_site_label
 _atom_site_symmetry_multiplicity
 _atom_site_fract_x
 _atom_site_fract_y
 _atom_site_fract_z
 _atom_site_occupancy
  Li  Li0  1  0.167241  0.333936  0.285390  1
  Li  Li1  1  0.167241  0.833306  0.285390  1
  Li  Li2  1  0.666127  0.833064  0.285561  1
  Li  Li3  1  0.832291  0.666132  0.786088  1
  Li  Li4  1  0.832291  0.166157  0.786088  1
  Li  Li5  1  0.334178  0.167089  0.787223  1
  Li  Li6  1  0.334284  0.667143  0.673719  1
  Li  Li7  1  0.666539  0.333270  0.175745  1
  Tb  Tb8  1  0.513694  0.023760  0.492063  1
  Tb  Tb9  1  0.513694  0.489933  0.492063  1
  Tb  Tb10  1  0.975622  0.487811  0.490951  1
  Tb  Tb11  1  0.490391  0.978395  0.995172  1
  Tb  Tb12  1  0.490391  0.511997  0.995172  1
  Tb  Tb13  1  0.019919  0.509961  0.996340  1
  Tb  Tb14  1  0.998147  0.999074  0.496883  1
  Ho  Ho15  1  0.997946  0.998973  0.002714  1
  Sn  Sn16  1  0.667100  0.833550  0.732352  1
  Sn  Sn17  1  0.834118  0.667123  0.231844  1
  Sn  Sn18  1  0.834118  0.166994  0.231844  1
  Sn  Sn19  1  0.332778  0.166388  0.231758  1
  Sn  Sn20  1  0.332647  0.666324  0.259998  1
  Sn  Sn21  1  0.667224  0.333611  0.760392  1
  Sb  Sb22  1  0.166008  0.333073  0.733610  1
  Sb  Sb23  1  0.166008  0.832936  0.733610  1
