# generated using pymatgen
data_LiY2Tm(B6Os)2
_symmetry_space_group_name_H-M   'P 1'
_cell_length_a   3.58699400
_cell_length_b   8.98637946
_cell_length_c   11.38031838
_cell_angle_alpha   89.85258240
_cell_angle_beta   90.00000000
_cell_angle_gamma   90.00000000
_symmetry_Int_Tables_number   1
_chemical_formula_structural   LiY2Tm(B6Os)2
_chemical_formula_sum   'Li2 Y4 Tm2 B24 Os4'
_cell_volume   366.83298386
_cell_formula_units_Z   2
loop_
 _symmetry_equiv_pos_site_id
 _symmetry_equiv_pos_as_xyz
  1  'x, y, z'
loop_
 _atom_site_type_symbol
 _atom_site_label
 _atom_site_symmetry_multiplicity
 _atom_site_fract_x
 _atom_site_fract_y
 _atom_site_fract_z
 _atom_site_occupancy
  Li  Li0  1  0.000000  0.944961  0.374893  1
  Li  Li1  1  0.000000  0.055039  0.625108  1
  Y  Y2  1  0.000000  0.317249  0.415641  1
  Y  Y3  1  0.000000  0.682751  0.584359  1
  Y  Y4  1  0.000000  0.824025  0.088092  1
  Y  Y5  1  0.000000  0.175975  0.911908  1
  Tm  Tm6  1  0.000000  0.442849  0.130860  1
  Tm  Tm7  1  0.000000  0.557151  0.869139  1
  B  B8  1  0.500000  0.555899  0.433381  1
  B  B9  1  0.500000  0.444101  0.566619  1
  B  B10  1  0.500000  0.053040  0.068494  1
  B  B11  1  0.500000  0.946960  0.931506  1
  B  B12  1  0.500000  0.759822  0.418349  1
  B  B13  1  0.500000  0.240178  0.581651  1
  B  B14  1  0.500000  0.248514  0.082712  1
  B  B15  1  0.500000  0.751486  0.917288  1
  B  B16  1  0.500000  0.796447  0.266462  1
  B  B17  1  0.500000  0.203553  0.733538  1
  B  B18  1  0.500000  0.288703  0.236884  1
  B  B19  1  0.500000  0.711296  0.763116  1
  B  B20  1  0.500000  0.632219  0.186517  1
  B  B21  1  0.500000  0.367781  0.813483  1
  B  B22  1  0.500000  0.122608  0.319827  1
  B  B23  1  0.500000  0.877392  0.680173  1
  B  B24  1  0.500000  0.979044  0.215523  1
  B  B25  1  0.500000  0.020956  0.784477  1
  B  B26  1  0.500000  0.482665  0.289140  1
  B  B27  1  0.500000  0.517335  0.710860  1
  B  B28  1  0.500000  0.602273  0.027813  1
  B  B29  1  0.500000  0.397727  0.972187  1
  B  B30  1  0.500000  0.091223  0.474276  1
  B  B31  1  0.500000  0.908777  0.525724  1
  Os  Os32  1  0.000000  0.643380  0.322765  1
  Os  Os33  1  0.000000  0.356620  0.677235  1
  Os  Os34  1  0.000000  0.134952  0.184313  1
  Os  Os35  1  0.000000  0.865048  0.815687  1
