# generated using pymatgen
data_Tb8Y4GaCo4Pd
_symmetry_space_group_name_H-M   'P 1'
_cell_length_a   8.33242588
_cell_length_b   8.33243208
_cell_length_c   8.33243406
_cell_angle_alpha   107.25962045
_cell_angle_beta   110.31307702
_cell_angle_gamma   110.86403979
_symmetry_Int_Tables_number   1
_chemical_formula_structural   Tb8Y4GaCo4Pd
_chemical_formula_sum   'Tb8 Y4 Ga1 Co4 Pd1'
_cell_volume   444.83448889
_cell_formula_units_Z   1
loop_
 _symmetry_equiv_pos_site_id
 _symmetry_equiv_pos_as_xyz
  1  'x, y, z'
loop_
 _atom_site_type_symbol
 _atom_site_label
 _atom_site_symmetry_multiplicity
 _atom_site_fract_x
 _atom_site_fract_y
 _atom_site_fract_z
 _atom_site_occupancy
  Tb  Tb0  1  0.697851  0.282380  0.980230  1
  Tb  Tb1  1  0.302149  0.717620  0.019770  1
  Tb  Tb2  1  0.697851  0.717620  0.415471  1
  Tb  Tb3  1  0.302149  0.282380  0.584529  1
  Tb  Tb4  1  0.802796  0.119107  0.316310  1
  Tb  Tb5  1  0.802796  0.486486  0.683690  1
  Tb  Tb6  1  0.197204  0.880893  0.683690  1
  Tb  Tb7  1  0.197204  0.513514  0.316310  1
  Y  Y8  1  0.605445  0.792811  0.812634  1
  Y  Y9  1  0.980179  0.792812  0.187367  1
  Y  Y10  1  0.019821  0.207188  0.812633  1
  Y  Y11  1  0.394555  0.207189  0.187366  1
  Ga  Ga12  1  0.500000  0.000000  0.500000  1
  Co  Co13  1  0.879111  0.500000  0.379111  1
  Co  Co14  1  0.120889  0.500000  0.620889  1
  Co  Co15  1  0.000000  0.112255  0.112255  1
  Co  Co16  1  0.000000  0.887745  0.887745  1
  Pd  Pd17  1  0.500000  0.500000  0.000000  1
