# generated using pymatgen
data_CeSm3Ho4(ReB6)4
_symmetry_space_group_name_H-M   'P 1'
_cell_length_a   3.71144600
_cell_length_b   9.20657945
_cell_length_c   11.62290200
_cell_angle_alpha   90.05038497
_cell_angle_beta   90.00000000
_cell_angle_gamma   90.00000000
_symmetry_Int_Tables_number   1
_chemical_formula_structural   CeSm3Ho4(ReB6)4
_chemical_formula_sum   'Ce1 Sm3 Ho4 Re4 B24'
_cell_volume   397.15118203
_cell_formula_units_Z   1
loop_
 _symmetry_equiv_pos_site_id
 _symmetry_equiv_pos_as_xyz
  1  'x, y, z'
loop_
 _atom_site_type_symbol
 _atom_site_label
 _atom_site_symmetry_multiplicity
 _atom_site_fract_x
 _atom_site_fract_y
 _atom_site_fract_z
 _atom_site_occupancy
  Ce  Ce0  1  0.000000  0.323271  0.414052  1
  Sm  Sm1  1  0.000000  0.677512  0.586148  1
  Sm  Sm2  1  0.000000  0.822959  0.085652  1
  Sm  Sm3  1  0.000000  0.176677  0.914029  1
  Ho  Ho4  1  0.000000  0.942581  0.369714  1
  Ho  Ho5  1  0.000000  0.056904  0.630437  1
  Ho  Ho6  1  0.000000  0.442927  0.129786  1
  Ho  Ho7  1  0.000000  0.557088  0.869579  1
  Re  Re8  1  0.000000  0.637644  0.320492  1
  Re  Re9  1  0.000000  0.361224  0.678676  1
  Re  Re10  1  0.000000  0.140136  0.181267  1
  Re  Re11  1  0.000000  0.861003  0.820076  1
  B  B12  1  0.500000  0.553439  0.431232  1
  B  B13  1  0.500000  0.445031  0.567982  1
  B  B14  1  0.500000  0.054447  0.068621  1
  B  B15  1  0.500000  0.946110  0.931747  1
  B  B16  1  0.500000  0.749491  0.416845  1
  B  B17  1  0.500000  0.250690  0.582497  1
  B  B18  1  0.500000  0.249415  0.083019  1
  B  B19  1  0.500000  0.750379  0.917046  1
  B  B20  1  0.500000  0.791295  0.266027  1
  B  B21  1  0.500000  0.208741  0.734064  1
  B  B22  1  0.500000  0.291534  0.234655  1
  B  B23  1  0.500000  0.708452  0.765733  1
  B  B24  1  0.500000  0.630090  0.185860  1
  B  B25  1  0.500000  0.370103  0.813879  1
  B  B26  1  0.500000  0.130899  0.314505  1
  B  B27  1  0.500000  0.869909  0.686011  1
  B  B28  1  0.500000  0.983728  0.212809  1
  B  B29  1  0.500000  0.016630  0.787324  1
  B  B30  1  0.500000  0.483222  0.287542  1
  B  B31  1  0.500000  0.516543  0.712931  1
  B  B32  1  0.500000  0.598072  0.027159  1
  B  B33  1  0.500000  0.401950  0.972470  1
  B  B34  1  0.500000  0.099006  0.472485  1
  B  B35  1  0.500000  0.900899  0.527647  1
