# generated using pymatgen
data_Ho5Er11In4(IrPd)2
_symmetry_space_group_name_H-M   'P 1'
_cell_length_a   9.61279343
_cell_length_b   9.63114401
_cell_length_c   9.62574039
_cell_angle_alpha   60.20844781
_cell_angle_beta   60.06359520
_cell_angle_gamma   60.07943354
_symmetry_Int_Tables_number   1
_chemical_formula_structural   Ho5Er11In4(IrPd)2
_chemical_formula_sum   'Ho5 Er11 In4 Ir2 Pd2'
_cell_volume   631.82411035
_cell_formula_units_Z   1
loop_
 _symmetry_equiv_pos_site_id
 _symmetry_equiv_pos_as_xyz
  1  'x, y, z'
loop_
 _atom_site_type_symbol
 _atom_site_label
 _atom_site_symmetry_multiplicity
 _atom_site_fract_x
 _atom_site_fract_y
 _atom_site_fract_z
 _atom_site_occupancy
  Ho  Ho0  1  0.062111  0.061798  0.434628  1
  Ho  Ho1  1  0.650165  0.056661  0.643374  1
  Ho  Ho2  1  0.185691  0.808570  0.194884  1
  Ho  Ho3  1  0.441881  0.061536  0.434352  1
  Ho  Ho4  1  0.185384  0.194957  0.808865  1
  Er  Er5  1  0.655433  0.648069  0.648318  1
  Er  Er6  1  0.047808  0.648323  0.648564  1
  Er  Er7  1  0.437948  0.062520  0.062226  1
  Er  Er8  1  0.650441  0.643095  0.056415  1
  Er  Er9  1  0.190853  0.808762  0.809130  1
  Er  Er10  1  0.810531  0.194898  0.809101  1
  Er  Er11  1  0.809940  0.190040  0.189618  1
  Er  Er12  1  0.810673  0.808777  0.194782  1
  Er  Er13  1  0.061868  0.438180  0.437721  1
  Er  Er14  1  0.441903  0.434690  0.061255  1
  Er  Er15  1  0.062027  0.434945  0.061493  1
  In  In16  1  0.750308  0.417013  0.416713  1
  In  In17  1  0.416548  0.417562  0.749433  1
  In  In18  1  0.416822  0.749003  0.417481  1
  In  In19  1  0.416095  0.416965  0.416709  1
  Ir  Ir20  1  0.856036  0.860236  0.427242  1
  Ir  Ir21  1  0.855650  0.427605  0.860659  1
  Pd  Pd22  1  0.854997  0.858085  0.858715  1
  Pd  Pd23  1  0.428892  0.857713  0.858324  1
