# generated using pymatgen
data_Tb3Dy9InCo4Ni
_symmetry_space_group_name_H-M   'P 1'
_cell_length_a   8.30468136
_cell_length_b   8.30170967
_cell_length_c   8.30171056
_cell_angle_alpha   110.61623438
_cell_angle_beta   110.72275307
_cell_angle_gamma   107.08649590
_symmetry_Int_Tables_number   1
_chemical_formula_structural   Tb3Dy9InCo4Ni
_chemical_formula_sum   'Tb3 Dy9 In1 Co4 Ni1'
_cell_volume   440.10055962
_cell_formula_units_Z   1
loop_
 _symmetry_equiv_pos_site_id
 _symmetry_equiv_pos_as_xyz
  1  'x, y, z'
loop_
 _atom_site_type_symbol
 _atom_site_label
 _atom_site_symmetry_multiplicity
 _atom_site_fract_x
 _atom_site_fract_y
 _atom_site_fract_z
 _atom_site_occupancy
  Tb  Tb0  1  0.405830  0.210917  0.194914  1
  Tb  Tb1  1  0.594557  0.789025  0.805531  1
  Tb  Tb2  1  0.016253  0.210948  0.805305  1
  Dy  Dy3  1  0.983989  0.788849  0.195140  1
  Dy  Dy4  1  0.185075  0.292699  0.478023  1
  Dy  Dy5  1  0.814624  0.706811  0.521171  1
  Dy  Dy6  1  0.185075  0.707053  0.892375  1
  Dy  Dy7  1  0.814624  0.293452  0.107813  1
  Dy  Dy8  1  0.315733  0.621346  0.305252  1
  Dy  Dy9  1  0.684487  0.379095  0.695095  1
  Dy  Dy10  1  0.315733  0.010481  0.694388  1
  Dy  Dy11  1  0.684487  0.989392  0.305391  1
  In  In12  1  0.500288  0.500198  0.000090  1
  Co  Co13  1  0.377636  0.999875  0.377761  1
  Co  Co14  1  0.621918  0.000139  0.621779  1
  Co  Co15  1  0.111757  0.612394  0.499363  1
  Co  Co16  1  0.887873  0.387791  0.500082  1
  Ni  Ni17  1  0.000061  0.999535  0.000526  1
