# generated using pymatgen
data_LuPa3Ge4IrPt3
_symmetry_space_group_name_H-M   'P 1'
_cell_length_a   4.36976900
_cell_length_b   6.98833167
_cell_length_c   7.65970846
_cell_angle_alpha   90.30039037
_cell_angle_beta   90.00000000
_cell_angle_gamma   90.00000000
_symmetry_Int_Tables_number   1
_chemical_formula_structural   LuPa3Ge4IrPt3
_chemical_formula_sum   'Lu1 Pa3 Ge4 Ir1 Pt3'
_cell_volume   233.90432909
_cell_formula_units_Z   1
loop_
 _symmetry_equiv_pos_site_id
 _symmetry_equiv_pos_as_xyz
  1  'x, y, z'
loop_
 _atom_site_type_symbol
 _atom_site_label
 _atom_site_symmetry_multiplicity
 _atom_site_fract_x
 _atom_site_fract_y
 _atom_site_fract_z
 _atom_site_occupancy
  Lu  Lu0  1  0.250000  0.506032  0.203843  1
  Pa  Pa1  1  0.750000  0.489347  0.791887  1
  Pa  Pa2  1  0.250000  0.009159  0.297575  1
  Pa  Pa3  1  0.750000  0.001654  0.701845  1
  Ge  Ge4  1  0.250000  0.681456  0.585906  1
  Ge  Ge5  1  0.250000  0.190368  0.915057  1
  Ge  Ge6  1  0.750000  0.315098  0.410336  1
  Ge  Ge7  1  0.750000  0.811086  0.090287  1
  Ir  Ir8  1  0.250000  0.272492  0.586674  1
  Pt  Pt9  1  0.250000  0.784442  0.914490  1
  Pt  Pt10  1  0.750000  0.716170  0.416830  1
  Pt  Pt11  1  0.750000  0.222694  0.085272  1
