# generated using pymatgen
data_Eu4GaPt3O14
_symmetry_space_group_name_H-M   'P 1'
_cell_length_a   7.35980249
_cell_length_b   7.33618764
_cell_length_c   7.33618800
_cell_angle_alpha   59.99999838
_cell_angle_beta   60.10608222
_cell_angle_gamma   60.10608213
_symmetry_Int_Tables_number   1
_chemical_formula_structural   Eu4GaPt3O14
_chemical_formula_sum   'Eu4 Ga1 Pt3 O14'
_cell_volume   280.53467118
_cell_formula_units_Z   1
loop_
 _symmetry_equiv_pos_site_id
 _symmetry_equiv_pos_as_xyz
  1  'x, y, z'
loop_
 _atom_site_type_symbol
 _atom_site_label
 _atom_site_symmetry_multiplicity
 _atom_site_fract_x
 _atom_site_fract_y
 _atom_site_fract_z
 _atom_site_occupancy
  Eu  Eu0  1  0.625000  0.125000  0.125000  1
  Eu  Eu1  1  0.125000  0.625000  0.125000  1
  Eu  Eu2  1  0.125000  0.125000  0.625000  1
  Eu  Eu3  1  0.125000  0.125000  0.125000  1
  Ga  Ga4  1  0.125000  0.625000  0.625000  1
  Pt  Pt5  1  0.625000  0.125000  0.625000  1
  Pt  Pt6  1  0.625000  0.625000  0.125000  1
  Pt  Pt7  1  0.625000  0.625000  0.625000  1
  O  O8  1  0.251411  0.249530  0.249530  1
  O  O9  1  0.998589  0.000470  0.000470  1
  O  O10  1  0.707391  0.710393  0.291108  1
  O  O11  1  0.291293  0.291632  0.708537  1
  O  O12  1  0.707391  0.291108  0.710393  1
  O  O13  1  0.291293  0.708537  0.291632  1
  O  O14  1  0.291293  0.708537  0.708537  1
  O  O15  1  0.707391  0.291108  0.291108  1
  O  O16  1  0.542609  0.539607  0.958892  1
  O  O17  1  0.958707  0.958368  0.541463  1
  O  O18  1  0.542609  0.958892  0.539607  1
  O  O19  1  0.958707  0.541463  0.958368  1
  O  O20  1  0.958707  0.541463  0.541463  1
  O  O21  1  0.542609  0.958892  0.958892  1
