# generated using pymatgen
data_Rb2LaCe(HgSe3)2
_symmetry_space_group_name_H-M   'P 1'
_cell_length_a   8.11302517
_cell_length_b   8.11302555
_cell_length_c   11.51086321
_cell_angle_alpha   90.16686897
_cell_angle_beta   89.83312997
_cell_angle_gamma   148.04393052
_symmetry_Int_Tables_number   1
_chemical_formula_structural   Rb2LaCe(HgSe3)2
_chemical_formula_sum   'Rb2 La1 Ce1 Hg2 Se6'
_cell_volume   401.00328289
_cell_formula_units_Z   1
loop_
 _symmetry_equiv_pos_site_id
 _symmetry_equiv_pos_as_xyz
  1  'x, y, z'
loop_
 _atom_site_type_symbol
 _atom_site_label
 _atom_site_symmetry_multiplicity
 _atom_site_fract_x
 _atom_site_fract_y
 _atom_site_fract_z
 _atom_site_occupancy
  Rb  Rb0  1  0.744098  0.255902  0.250042  1
  Rb  Rb1  1  0.255902  0.744098  0.749958  1
  La  La2  1  0.000000  0.000000  0.500000  1
  Ce  Ce3  1  0.000000  0.000000  0.000000  1
  Hg  Hg4  1  0.456971  0.543029  0.249678  1
  Hg  Hg5  1  0.543029  0.456971  0.750322  1
  Se  Se6  1  0.066020  0.933980  0.247766  1
  Se  Se7  1  0.933980  0.066020  0.752234  1
  Se  Se8  1  0.627839  0.372161  0.551763  1
  Se  Se9  1  0.625774  0.374226  0.949994  1
  Se  Se10  1  0.374226  0.625774  0.050006  1
  Se  Se11  1  0.372161  0.627839  0.448237  1
