# generated using pymatgen
data_Ta2TiRhS10
_symmetry_space_group_name_H-M   'P 1'
_cell_length_a   3.42936500
_cell_length_b   9.34356667
_cell_length_c   9.93549900
_cell_angle_alpha   67.29642276
_cell_angle_beta   90.00000000
_cell_angle_gamma   90.00000000
_symmetry_Int_Tables_number   1
_chemical_formula_structural   Ta2TiRhS10
_chemical_formula_sum   'Ta2 Ti1 Rh1 S10'
_cell_volume   293.68992371
_cell_formula_units_Z   1
loop_
 _symmetry_equiv_pos_site_id
 _symmetry_equiv_pos_as_xyz
  1  'x, y, z'
loop_
 _atom_site_type_symbol
 _atom_site_label
 _atom_site_symmetry_multiplicity
 _atom_site_fract_x
 _atom_site_fract_y
 _atom_site_fract_z
 _atom_site_occupancy
  Ta  Ta0  1  0.750000  0.295593  0.630937  1
  Ta  Ta1  1  0.250000  0.707926  0.363564  1
  Ti  Ti2  1  0.250000  0.448364  0.912658  1
  Rh  Rh3  1  0.750000  0.546844  0.112636  1
  S  S4  1  0.750000  0.512003  0.363705  1
  S  S5  1  0.250000  0.349898  0.161329  1
  S  S6  1  0.250000  0.494221  0.626907  1
  S  S7  1  0.750000  0.828757  0.478257  1
  S  S8  1  0.250000  0.177278  0.512143  1
  S  S9  1  0.250000  0.080497  0.737429  1
  S  S10  1  0.250000  0.729201  0.098149  1
  S  S11  1  0.750000  0.924155  0.253423  1
  S  S12  1  0.750000  0.263141  0.897057  1
  S  S13  1  0.750000  0.642123  0.851807  1
