# generated using pymatgen
data_DyY3Al2(HgPt2)2
_symmetry_space_group_name_H-M   'P 1'
_cell_length_a   4.20383300
_cell_length_b   7.17081525
_cell_length_c   8.39900867
_cell_angle_alpha   94.19487090
_cell_angle_beta   90.00000000
_cell_angle_gamma   90.00000000
_symmetry_Int_Tables_number   1
_chemical_formula_structural   DyY3Al2(HgPt2)2
_chemical_formula_sum   'Dy1 Y3 Al2 Hg2 Pt4'
_cell_volume   252.50907707
_cell_formula_units_Z   1
loop_
 _symmetry_equiv_pos_site_id
 _symmetry_equiv_pos_as_xyz
  1  'x, y, z'
loop_
 _atom_site_type_symbol
 _atom_site_label
 _atom_site_symmetry_multiplicity
 _atom_site_fract_x
 _atom_site_fract_y
 _atom_site_fract_z
 _atom_site_occupancy
  Dy  Dy0  1  0.250000  0.965878  0.314890  1
  Y  Y1  1  0.250000  0.460851  0.186766  1
  Y  Y2  1  0.750000  0.539471  0.812680  1
  Y  Y3  1  0.750000  0.033462  0.686106  1
  Al  Al4  1  0.750000  0.639298  0.437225  1
  Al  Al5  1  0.250000  0.359688  0.562453  1
  Hg  Hg6  1  0.250000  0.853061  0.932206  1
  Hg  Hg7  1  0.750000  0.146914  0.067648  1
  Pt  Pt8  1  0.250000  0.730016  0.592941  1
  Pt  Pt9  1  0.750000  0.269446  0.406140  1
  Pt  Pt10  1  0.750000  0.735062  0.148844  1
  Pt  Pt11  1  0.250000  0.266852  0.852101  1
