# generated using pymatgen
data_LiPr8SmSi6
_symmetry_space_group_name_H-M   'P 1'
_cell_length_a   7.71616683
_cell_length_b   7.71616536
_cell_length_c   8.95901694
_cell_angle_alpha   115.50798936
_cell_angle_beta   115.50797958
_cell_angle_gamma   90.00000671
_symmetry_Int_Tables_number   1
_chemical_formula_structural   LiPr8SmSi6
_chemical_formula_sum   'Li1 Pr8 Sm1 Si6'
_cell_volume   423.08207038
_cell_formula_units_Z   1
loop_
 _symmetry_equiv_pos_site_id
 _symmetry_equiv_pos_as_xyz
  1  'x, y, z'
loop_
 _atom_site_type_symbol
 _atom_site_label
 _atom_site_symmetry_multiplicity
 _atom_site_fract_x
 _atom_site_fract_y
 _atom_site_fract_z
 _atom_site_occupancy
  Li  Li0  1  0.500000  0.500000  0.000000  1
  Pr  Pr1  1  0.957952  0.816992  0.287599  1
  Pr  Pr2  1  0.329647  0.470608  0.287599  1
  Pr  Pr3  1  0.816992  0.329647  0.287599  1
  Pr  Pr4  1  0.470608  0.957952  0.287599  1
  Pr  Pr5  1  0.042048  0.183008  0.712401  1
  Pr  Pr6  1  0.670353  0.529392  0.712401  1
  Pr  Pr7  1  0.183008  0.670353  0.712401  1
  Pr  Pr8  1  0.529392  0.042048  0.712401  1
  Sm  Sm9  1  0.000000  0.000000  0.000000  1
  Si  Si10  1  0.764519  0.764519  0.529039  1
  Si  Si11  1  0.235481  0.235481  0.470961  1
  Si  Si12  1  0.615156  0.888033  0.000000  1
  Si  Si13  1  0.384844  0.111967  0.000000  1
  Si  Si14  1  0.888033  0.384844  0.000000  1
  Si  Si15  1  0.111967  0.615156  0.000000  1
