# generated using pymatgen
data_Tm3CoAgSn3Ir
_symmetry_space_group_name_H-M   'P 1'
_cell_length_a   7.62101900
_cell_length_b   7.62101920
_cell_length_c   3.74302500
_cell_angle_alpha   90.00000000
_cell_angle_beta   90.00000000
_cell_angle_gamma   120.00000347
_symmetry_Int_Tables_number   1
_chemical_formula_structural   Tm3CoAgSn3Ir
_chemical_formula_sum   'Tm3 Co1 Ag1 Sn3 Ir1'
_cell_volume   188.26927254
_cell_formula_units_Z   1
loop_
 _symmetry_equiv_pos_site_id
 _symmetry_equiv_pos_as_xyz
  1  'x, y, z'
loop_
 _atom_site_type_symbol
 _atom_site_label
 _atom_site_symmetry_multiplicity
 _atom_site_fract_x
 _atom_site_fract_y
 _atom_site_fract_z
 _atom_site_occupancy
  Tm  Tm0  1  0.385535  0.408473  0.500000  1
  Tm  Tm1  1  0.591527  0.977061  0.500000  1
  Tm  Tm2  1  0.022939  0.614465  0.500000  1
  Co  Co3  1  0.000000  0.000000  0.500000  1
  Ag  Ag4  1  0.666667  0.333333  0.000000  1
  Sn  Sn5  1  0.751080  0.745456  0.000000  1
  Sn  Sn6  1  0.254544  0.005624  0.000000  1
  Sn  Sn7  1  0.994376  0.248920  0.000000  1
  Ir  Ir8  1  0.333333  0.666667  0.000000  1
