# generated using pymatgen
data_LaY5(Si3Pt2)4
_symmetry_space_group_name_H-M   'P 1'
_cell_length_a   4.26223900
_cell_length_b   8.59059275
_cell_length_c   12.92308400
_cell_angle_alpha   80.09984348
_cell_angle_beta   90.00000000
_cell_angle_gamma   90.00000000
_symmetry_Int_Tables_number   1
_chemical_formula_structural   LaY5(Si3Pt2)4
_chemical_formula_sum   'La1 Y5 Si12 Pt8'
_cell_volume   466.13457832
_cell_formula_units_Z   1
loop_
 _symmetry_equiv_pos_site_id
 _symmetry_equiv_pos_as_xyz
  1  'x, y, z'
loop_
 _atom_site_type_symbol
 _atom_site_label
 _atom_site_symmetry_multiplicity
 _atom_site_fract_x
 _atom_site_fract_y
 _atom_site_fract_z
 _atom_site_occupancy
  La  La0  1  0.250000  0.076184  0.185491  1
  Y  Y1  1  0.250000  0.764878  0.440030  1
  Y  Y2  1  0.250000  0.583095  0.185983  1
  Y  Y3  1  0.750000  0.234229  0.560686  1
  Y  Y4  1  0.750000  0.414655  0.814799  1
  Y  Y5  1  0.750000  0.929182  0.816737  1
  Si  Si6  1  0.750000  0.587162  0.572026  1
  Si  Si7  1  0.750000  0.127721  0.002602  1
  Si  Si8  1  0.750000  0.871004  0.576358  1
  Si  Si9  1  0.250000  0.696213  0.712394  1
  Si  Si10  1  0.750000  0.305705  0.286515  1
  Si  Si11  1  0.750000  0.802381  0.276951  1
  Si  Si12  1  0.250000  0.873217  0.993340  1
  Si  Si13  1  0.250000  0.194149  0.722552  1
  Si  Si14  1  0.250000  0.380428  0.999306  1
  Si  Si15  1  0.250000  0.125232  0.429074  1
  Si  Si16  1  0.750000  0.623547  0.996147  1
  Si  Si17  1  0.250000  0.409592  0.426573  1
  Pt  Pt18  1  0.750000  0.357144  0.096060  1
  Pt  Pt19  1  0.250000  0.969769  0.626219  1
  Pt  Pt20  1  0.750000  0.847550  0.086434  1
  Pt  Pt21  1  0.750000  0.027190  0.381069  1
  Pt  Pt22  1  0.250000  0.649124  0.898844  1
  Pt  Pt23  1  0.250000  0.151614  0.910163  1
  Pt  Pt24  1  0.750000  0.532007  0.378429  1
  Pt  Pt25  1  0.250000  0.467029  0.625218  1
