# generated using pymatgen
data_Tb5Th3(CdRu)2
_symmetry_space_group_name_H-M   'P 1'
_cell_length_a   9.71168237
_cell_length_b   9.80879482
_cell_length_c   9.80879517
_cell_angle_alpha   59.34604916
_cell_angle_beta   60.32696194
_cell_angle_gamma   60.32696632
_symmetry_Int_Tables_number   1
_chemical_formula_structural   Tb5Th3(CdRu)2
_chemical_formula_sum   'Tb10 Th6 Cd4 Ru4'
_cell_volume   660.58148622
_cell_formula_units_Z   2
loop_
 _symmetry_equiv_pos_site_id
 _symmetry_equiv_pos_as_xyz
  1  'x, y, z'
loop_
 _atom_site_type_symbol
 _atom_site_label
 _atom_site_symmetry_multiplicity
 _atom_site_fract_x
 _atom_site_fract_y
 _atom_site_fract_z
 _atom_site_occupancy
  Tb  Tb0  1  0.440946  0.059054  0.440946  1
  Tb  Tb1  1  0.059054  0.440946  0.059054  1
  Tb  Tb2  1  0.440946  0.440946  0.059054  1
  Tb  Tb3  1  0.059054  0.059054  0.440946  1
  Tb  Tb4  1  0.184273  0.815727  0.815727  1
  Tb  Tb5  1  0.815727  0.184273  0.184273  1
  Tb  Tb6  1  0.812288  0.187712  0.812288  1
  Tb  Tb7  1  0.187712  0.812288  0.187712  1
  Tb  Tb8  1  0.812288  0.812288  0.187712  1
  Tb  Tb9  1  0.187712  0.187712  0.812288  1
  Th  Th10  1  0.593076  0.600289  0.600289  1
  Th  Th11  1  0.600289  0.593076  0.206348  1
  Th  Th12  1  0.600289  0.206348  0.593076  1
  Th  Th13  1  0.206348  0.600289  0.600289  1
  Th  Th14  1  0.064871  0.435129  0.435129  1
  Th  Th15  1  0.435129  0.064871  0.064871  1
  Cd  Cd16  1  0.833408  0.830510  0.830510  1
  Cd  Cd17  1  0.830510  0.833408  0.505571  1
  Cd  Cd18  1  0.830510  0.505571  0.833408  1
  Cd  Cd19  1  0.505571  0.830510  0.830510  1
  Ru  Ru20  1  0.378039  0.399052  0.399052  1
  Ru  Ru21  1  0.399052  0.378039  0.823858  1
  Ru  Ru22  1  0.399052  0.823858  0.378039  1
  Ru  Ru23  1  0.823858  0.399052  0.399052  1
