# generated using pymatgen
data_K2Hg7F16
_symmetry_space_group_name_H-M   'P 1'
_cell_length_a   7.06205862
_cell_length_b   7.01481887
_cell_length_c   10.44187100
_cell_angle_alpha   89.95634300
_cell_angle_beta   109.71501704
_cell_angle_gamma   120.03320333
_symmetry_Int_Tables_number   1
_chemical_formula_structural   K2Hg7F16
_chemical_formula_sum   'K2 Hg7 F16'
_cell_volume   412.51459133
_cell_formula_units_Z   1
loop_
 _symmetry_equiv_pos_site_id
 _symmetry_equiv_pos_as_xyz
  1  'x, y, z'
loop_
 _atom_site_type_symbol
 _atom_site_label
 _atom_site_symmetry_multiplicity
 _atom_site_fract_x
 _atom_site_fract_y
 _atom_site_fract_z
 _atom_site_occupancy
  K  K0  1  0.332066  0.666184  0.997550  1
  K  K1  1  0.667934  0.333816  0.002450  1
  Hg  Hg2  1  0.767544  0.244967  0.656592  1
  Hg  Hg3  1  0.410798  0.522877  0.656504  1
  Hg  Hg4  1  0.868611  0.111542  0.343218  1
  Hg  Hg5  1  0.000000  0.000000  0.000000  1
  Hg  Hg6  1  0.131389  0.888458  0.656782  1
  Hg  Hg7  1  0.589202  0.477123  0.343496  1
  Hg  Hg8  1  0.232456  0.755033  0.343408  1
  F  F9  1  0.147113  0.574284  0.720529  1
  F  F10  1  0.564807  0.150732  0.414566  1
  F  F11  1  0.634387  0.668401  0.885860  1
  F  F12  1  0.919072  0.252606  0.885423  1
  F  F13  1  0.264492  0.413572  0.413308  1
  F  F14  1  0.000444  0.151125  0.586176  1
  F  F15  1  0.782846  0.033081  0.113463  1
  F  F16  1  0.479200  0.239363  0.720630  1
  F  F17  1  0.520800  0.760637  0.279370  1
  F  F18  1  0.217154  0.966919  0.886537  1
  F  F19  1  0.999556  0.848875  0.413824  1
  F  F20  1  0.735508  0.586428  0.586692  1
  F  F21  1  0.080928  0.747394  0.114577  1
  F  F22  1  0.365613  0.331599  0.114140  1
  F  F23  1  0.435193  0.849268  0.585434  1
  F  F24  1  0.852887  0.425716  0.279471  1
