# generated using pymatgen
data_Hf6Nb4Ga2Si3Ge
_symmetry_space_group_name_H-M   'P 1'
_cell_length_a   7.86833748
_cell_length_b   7.88783567
_cell_length_c   5.39339700
_cell_angle_alpha   90.00000000
_cell_angle_beta   90.00000000
_cell_angle_gamma   120.18709365
_symmetry_Int_Tables_number   1
_chemical_formula_structural   Hf6Nb4Ga2Si3Ge
_chemical_formula_sum   'Hf6 Nb4 Ga2 Si3 Ge1'
_cell_volume   289.34234467
_cell_formula_units_Z   1
loop_
 _symmetry_equiv_pos_site_id
 _symmetry_equiv_pos_as_xyz
  1  'x, y, z'
loop_
 _atom_site_type_symbol
 _atom_site_label
 _atom_site_symmetry_multiplicity
 _atom_site_fract_x
 _atom_site_fract_y
 _atom_site_fract_z
 _atom_site_occupancy
  Hf  Hf0  1  0.750275  0.750493  0.250000  1
  Hf  Hf1  1  0.749392  0.002966  0.750000  1
  Hf  Hf2  1  0.997167  0.254154  0.250000  1
  Hf  Hf3  1  0.246581  0.249755  0.750000  1
  Hf  Hf4  1  0.249146  0.996790  0.250000  1
  Hf  Hf5  1  0.000405  0.743723  0.750000  1
  Nb  Nb6  1  0.673566  0.334701  0.001172  1
  Nb  Nb7  1  0.673566  0.334701  0.498828  1
  Nb  Nb8  1  0.329386  0.666084  0.498718  1
  Nb  Nb9  1  0.329386  0.666084  0.001282  1
  Ga  Ga10  1  0.395174  0.392764  0.250000  1
  Ga  Ga11  1  0.396259  0.002745  0.750000  1
  Si  Si12  1  0.603581  0.998844  0.250000  1
  Si  Si13  1  0.001637  0.394211  0.750000  1
  Si  Si14  1  0.000633  0.607558  0.250000  1
  Ge  Ge15  1  0.603849  0.604426  0.750000  1
