# generated using pymatgen
data_CeY7Si12(PtRh)2
_symmetry_space_group_name_H-M   'P 1'
_cell_length_a   8.18215500
_cell_length_b   8.18215877
_cell_length_c   8.02585900
_cell_angle_alpha   89.99997242
_cell_angle_beta   90.00012727
_cell_angle_gamma   119.99998396
_symmetry_Int_Tables_number   1
_chemical_formula_structural   CeY7Si12(PtRh)2
_chemical_formula_sum   'Ce1 Y7 Si12 Pt2 Rh2'
_cell_volume   465.32654989
_cell_formula_units_Z   1
loop_
 _symmetry_equiv_pos_site_id
 _symmetry_equiv_pos_as_xyz
  1  'x, y, z'
loop_
 _atom_site_type_symbol
 _atom_site_label
 _atom_site_symmetry_multiplicity
 _atom_site_fract_x
 _atom_site_fract_y
 _atom_site_fract_z
 _atom_site_occupancy
  Ce  Ce0  1  0.000002  0.999995  0.247730  1
  Y  Y1  1  0.000000  0.000000  0.751549  1
  Y  Y2  1  0.508876  0.491125  0.245972  1
  Y  Y3  1  0.508875  0.017752  0.245972  1
  Y  Y4  1  0.982248  0.491124  0.245971  1
  Y  Y5  1  0.490918  0.509083  0.753982  1
  Y  Y6  1  0.490919  0.981836  0.753983  1
  Y  Y7  1  0.018165  0.509083  0.753982  1
  Si  Si8  1  0.165466  0.834533  0.500317  1
  Si  Si9  1  0.165466  0.330932  0.500317  1
  Si  Si10  1  0.669068  0.834534  0.500315  1
  Si  Si11  1  0.834342  0.165659  0.499867  1
  Si  Si12  1  0.834341  0.668682  0.499869  1
  Si  Si13  1  0.331317  0.165659  0.499867  1
  Si  Si14  1  0.832750  0.167250  0.999470  1
  Si  Si15  1  0.832749  0.665500  0.999468  1
  Si  Si16  1  0.334500  0.167250  0.999470  1
  Si  Si17  1  0.166936  0.833063  0.000609  1
  Si  Si18  1  0.166936  0.333873  0.000609  1
  Si  Si19  1  0.666127  0.833063  0.000611  1
  Pt  Pt20  1  0.333333  0.666667  0.471624  1
  Pt  Pt21  1  0.666666  0.333333  0.532814  1
  Rh  Rh22  1  0.666666  0.333333  0.966404  1
  Rh  Rh23  1  0.333333  0.666667  0.029228  1
