# generated using pymatgen
data_FeNi3B4
_symmetry_space_group_name_H-M   'P 1'
_cell_length_a   2.97851400
_cell_length_b   3.93663696
_cell_length_c   5.47455596
_cell_angle_alpha   90.46612048
_cell_angle_beta   90.00000000
_cell_angle_gamma   90.00000000
_symmetry_Int_Tables_number   1
_chemical_formula_structural   FeNi3B4
_chemical_formula_sum   'Fe1 Ni3 B4'
_cell_volume   64.18884167
_cell_formula_units_Z   1
loop_
 _symmetry_equiv_pos_site_id
 _symmetry_equiv_pos_as_xyz
  1  'x, y, z'
loop_
 _atom_site_type_symbol
 _atom_site_label
 _atom_site_symmetry_multiplicity
 _atom_site_fract_x
 _atom_site_fract_y
 _atom_site_fract_z
 _atom_site_occupancy
  Fe  Fe0  1  0.250000  0.382521  0.677493  1
  Ni  Ni1  1  0.750000  0.622357  0.318039  1
  Ni  Ni2  1  0.750000  0.881424  0.824883  1
  Ni  Ni3  1  0.250000  0.116627  0.180260  1
  B  B4  1  0.250000  0.880666  0.535388  1
  B  B5  1  0.750000  0.123941  0.475357  1
  B  B6  1  0.750000  0.382063  0.960169  1
  B  B7  1  0.250000  0.610400  0.028411  1
