# generated using pymatgen
data_Tm4MnSi8Tc5
_symmetry_space_group_name_H-M   'P 1'
_cell_length_a   6.73150007
_cell_length_b   6.70169268
_cell_length_c   6.74021571
_cell_angle_alpha   70.01802128
_cell_angle_beta   90.10290768
_cell_angle_gamma   90.47008138
_symmetry_Int_Tables_number   1
_chemical_formula_structural   Tm4MnSi8Tc5
_chemical_formula_sum   'Tm4 Mn1 Si8 Tc5'
_cell_volume   285.75300236
_cell_formula_units_Z   1
loop_
 _symmetry_equiv_pos_site_id
 _symmetry_equiv_pos_as_xyz
  1  'x, y, z'
loop_
 _atom_site_type_symbol
 _atom_site_label
 _atom_site_symmetry_multiplicity
 _atom_site_fract_x
 _atom_site_fract_y
 _atom_site_fract_z
 _atom_site_occupancy
  Tm  Tm0  1  0.330189  0.559486  0.807316  1
  Tm  Tm1  1  0.830716  0.940449  0.194114  1
  Tm  Tm2  1  0.667359  0.444293  0.186918  1
  Tm  Tm3  1  0.168018  0.056850  0.809330  1
  Mn  Mn4  1  0.646752  0.259505  0.766248  1
  Si  Si5  1  0.554480  0.883636  0.895968  1
  Si  Si6  1  0.051470  0.622345  0.100709  1
  Si  Si7  1  0.453512  0.127402  0.094889  1
  Si  Si8  1  0.943826  0.371702  0.896569  1
  Si  Si9  1  0.139919  0.869799  0.487921  1
  Si  Si10  1  0.642777  0.623235  0.516881  1
  Si  Si11  1  0.855754  0.134289  0.515513  1
  Si  Si12  1  0.363474  0.366481  0.492392  1
  Tc  Tc13  1  0.499496  0.005923  0.500899  1
  Tc  Tc14  1  0.999139  0.492549  0.501075  1
  Tc  Tc15  1  0.849085  0.754249  0.761020  1
  Tc  Tc16  1  0.351370  0.743576  0.240458  1
  Tc  Tc17  1  0.152665  0.244232  0.231780  1
