# generated using pymatgen
data_Lu12Tc3Ag
_symmetry_space_group_name_H-M   'P 1'
_cell_length_a   6.18650164
_cell_length_b   7.35825116
_cell_length_c   8.98751700
_cell_angle_alpha   90.00000000
_cell_angle_beta   90.00000000
_cell_angle_gamma   89.90425777
_symmetry_Int_Tables_number   1
_chemical_formula_structural   Lu12Tc3Ag
_chemical_formula_sum   'Lu12 Tc3 Ag1'
_cell_volume   409.12767535
_cell_formula_units_Z   1
loop_
 _symmetry_equiv_pos_site_id
 _symmetry_equiv_pos_as_xyz
  1  'x, y, z'
loop_
 _atom_site_type_symbol
 _atom_site_label
 _atom_site_symmetry_multiplicity
 _atom_site_fract_x
 _atom_site_fract_y
 _atom_site_fract_z
 _atom_site_occupancy
  Lu  Lu0  1  0.329189  0.675909  0.069637  1
  Lu  Lu1  1  0.165468  0.176379  0.436571  1
  Lu  Lu2  1  0.666223  0.311339  0.554297  1
  Lu  Lu3  1  0.845328  0.832764  0.945380  1
  Lu  Lu4  1  0.666223  0.311339  0.945703  1
  Lu  Lu5  1  0.845328  0.832764  0.554620  1
  Lu  Lu6  1  0.329189  0.675909  0.430363  1
  Lu  Lu7  1  0.165468  0.176379  0.063429  1
  Lu  Lu8  1  0.872702  0.540397  0.250000  1
  Lu  Lu9  1  0.623576  0.038845  0.250000  1
  Lu  Lu10  1  0.119389  0.453415  0.750000  1
  Lu  Lu11  1  0.368244  0.976778  0.750000  1
  Tc  Tc12  1  0.037671  0.883784  0.250000  1
  Tc  Tc13  1  0.462990  0.384759  0.250000  1
  Tc  Tc14  1  0.955726  0.115541  0.750000  1
  Ag  Ag15  1  0.547286  0.613701  0.750000  1
