# generated using pymatgen
data_ErNp3Ga12Ir
_symmetry_space_group_name_H-M   'P 1'
_cell_length_a   7.40391525
_cell_length_b   7.40391504
_cell_length_c   7.40391505
_cell_angle_alpha   109.27744612
_cell_angle_beta   109.27744512
_cell_angle_gamma   109.27742998
_symmetry_Int_Tables_number   1
_chemical_formula_structural   ErNp3Ga12Ir
_chemical_formula_sum   'Er1 Np3 Ga12 Ir1'
_cell_volume   314.65858145
_cell_formula_units_Z   1
loop_
 _symmetry_equiv_pos_site_id
 _symmetry_equiv_pos_as_xyz
  1  'x, y, z'
loop_
 _atom_site_type_symbol
 _atom_site_label
 _atom_site_symmetry_multiplicity
 _atom_site_fract_x
 _atom_site_fract_y
 _atom_site_fract_z
 _atom_site_occupancy
  Er  Er0  1  0.500000  0.500000  0.500000  1
  Np  Np1  1  0.000000  0.000000  0.500000  1
  Np  Np2  1  0.000000  0.500000  0.000000  1
  Np  Np3  1  0.500000  0.000000  0.000000  1
  Ga  Ga4  1  0.750316  0.249684  0.500000  1
  Ga  Ga5  1  0.750316  0.500000  0.249684  1
  Ga  Ga6  1  0.500000  0.249684  0.750316  1
  Ga  Ga7  1  0.249684  0.500000  0.750316  1
  Ga  Ga8  1  0.249684  0.750316  0.500000  1
  Ga  Ga9  1  0.500000  0.750316  0.249684  1
  Ga  Ga10  1  0.708622  0.708622  0.002345  1
  Ga  Ga11  1  0.291378  0.997655  0.291378  1
  Ga  Ga12  1  0.997655  0.291378  0.291378  1
  Ga  Ga13  1  0.291378  0.291378  0.997655  1
  Ga  Ga14  1  0.708622  0.002345  0.708622  1
  Ga  Ga15  1  0.002345  0.708622  0.708622  1
  Ir  Ir16  1  0.000000  0.000000  0.000000  1
