# generated using pymatgen
data_Hf18MnRe8Pt
_symmetry_space_group_name_H-M   'P 1'
_cell_length_a   8.60473200
_cell_length_b   8.60473156
_cell_length_c   8.57101000
_cell_angle_alpha   90.00000000
_cell_angle_beta   90.00000000
_cell_angle_gamma   120.00000168
_symmetry_Int_Tables_number   1
_chemical_formula_structural   Hf18MnRe8Pt
_chemical_formula_sum   'Hf18 Mn1 Re8 Pt1'
_cell_volume   549.58807533
_cell_formula_units_Z   1
loop_
 _symmetry_equiv_pos_site_id
 _symmetry_equiv_pos_as_xyz
  1  'x, y, z'
loop_
 _atom_site_type_symbol
 _atom_site_label
 _atom_site_symmetry_multiplicity
 _atom_site_fract_x
 _atom_site_fract_y
 _atom_site_fract_z
 _atom_site_occupancy
  Hf  Hf0  1  0.201007  0.798993  0.442115  1
  Hf  Hf1  1  0.201007  0.402012  0.442115  1
  Hf  Hf2  1  0.597988  0.798993  0.442115  1
  Hf  Hf3  1  0.806757  0.193243  0.552362  1
  Hf  Hf4  1  0.806757  0.613516  0.552362  1
  Hf  Hf5  1  0.386484  0.193243  0.552362  1
  Hf  Hf6  1  0.806757  0.193243  0.947638  1
  Hf  Hf7  1  0.806757  0.613516  0.947638  1
  Hf  Hf8  1  0.386484  0.193243  0.947638  1
  Hf  Hf9  1  0.201007  0.798993  0.057885  1
  Hf  Hf10  1  0.201007  0.402012  0.057885  1
  Hf  Hf11  1  0.597988  0.798993  0.057885  1
  Hf  Hf12  1  0.539671  0.460329  0.250000  1
  Hf  Hf13  1  0.539671  0.079343  0.250000  1
  Hf  Hf14  1  0.920657  0.460329  0.250000  1
  Hf  Hf15  1  0.458384  0.541616  0.750000  1
  Hf  Hf16  1  0.458384  0.916767  0.750000  1
  Hf  Hf17  1  0.083233  0.541616  0.750000  1
  Mn  Mn18  1  0.333333  0.666667  0.250000  1
  Re  Re19  1  0.890247  0.109753  0.250000  1
  Re  Re20  1  0.890247  0.780492  0.250000  1
  Re  Re21  1  0.219508  0.109753  0.250000  1
  Re  Re22  1  0.111108  0.888892  0.750000  1
  Re  Re23  1  0.111108  0.222218  0.750000  1
  Re  Re24  1  0.777782  0.888892  0.750000  1
  Re  Re25  1  0.000000  0.000000  0.500076  1
  Re  Re26  1  0.000000  0.000000  0.999924  1
  Pt  Pt27  1  0.666667  0.333333  0.750000  1
