# generated using pymatgen
data_Pr2Sn5Pt3
_symmetry_space_group_name_H-M   'P 1'
_cell_length_a   4.49388916
_cell_length_b   7.61345600
_cell_length_c   13.88281770
_cell_angle_alpha   90.00000000
_cell_angle_beta   80.68566223
_cell_angle_gamma   90.00000000
_symmetry_Int_Tables_number   1
_chemical_formula_structural   Pr2Sn5Pt3
_chemical_formula_sum   'Pr4 Sn10 Pt6'
_cell_volume   468.72451658
_cell_formula_units_Z   2
loop_
 _symmetry_equiv_pos_site_id
 _symmetry_equiv_pos_as_xyz
  1  'x, y, z'
loop_
 _atom_site_type_symbol
 _atom_site_label
 _atom_site_symmetry_multiplicity
 _atom_site_fract_x
 _atom_site_fract_y
 _atom_site_fract_z
 _atom_site_occupancy
  Pr  Pr0  1  0.475820  0.236286  0.048357  1
  Pr  Pr1  1  0.824604  0.753772  0.350793  1
  Pr  Pr2  1  0.175395  0.253772  0.649208  1
  Pr  Pr3  1  0.524179  0.736286  0.951643  1
  Sn  Sn4  1  0.952011  0.895121  0.095979  1
  Sn  Sn5  1  0.400486  0.609030  0.199024  1
  Sn  Sn6  1  0.879009  0.231929  0.241982  1
  Sn  Sn7  1  0.298120  0.050361  0.403757  1
  Sn  Sn8  1  0.291111  0.478119  0.417776  1
  Sn  Sn9  1  0.708888  0.978119  0.582224  1
  Sn  Sn10  1  0.701879  0.550361  0.596243  1
  Sn  Sn11  1  0.120990  0.731929  0.758018  1
  Sn  Sn12  1  0.599513  0.109030  0.800976  1
  Sn  Sn13  1  0.047988  0.395122  0.904021  1
  Pt  Pt14  1  0.949148  0.519883  0.101706  1
  Pt  Pt15  1  0.396231  0.973368  0.207536  1
  Pt  Pt16  1  0.775776  0.272841  0.448449  1
  Pt  Pt17  1  0.224223  0.772841  0.551551  1
  Pt  Pt18  1  0.603769  0.473367  0.792463  1
  Pt  Pt19  1  0.050851  0.019883  0.898295  1
