# generated using pymatgen
data_Nd8CdHgPd2
_symmetry_space_group_name_H-M   'P 1'
_cell_length_a   10.01782360
_cell_length_b   10.01782361
_cell_length_c   10.01433100
_cell_angle_alpha   60.01153553
_cell_angle_beta   60.01153550
_cell_angle_gamma   60.00360159
_symmetry_Int_Tables_number   1
_chemical_formula_structural   Nd8CdHgPd2
_chemical_formula_sum   'Nd16 Cd2 Hg2 Pd4'
_cell_volume   710.78986981
_cell_formula_units_Z   2
loop_
 _symmetry_equiv_pos_site_id
 _symmetry_equiv_pos_as_xyz
  1  'x, y, z'
loop_
 _atom_site_type_symbol
 _atom_site_label
 _atom_site_symmetry_multiplicity
 _atom_site_fract_x
 _atom_site_fract_y
 _atom_site_fract_z
 _atom_site_occupancy
  Nd  Nd0  1  0.351457  0.351457  0.351214  1
  Nd  Nd1  1  0.351457  0.351457  0.945872  1
  Nd  Nd2  1  0.353538  0.940002  0.353230  1
  Nd  Nd3  1  0.940002  0.353538  0.353230  1
  Nd  Nd4  1  0.809248  0.191024  0.192703  1
  Nd  Nd5  1  0.191024  0.809248  0.807026  1
  Nd  Nd6  1  0.191024  0.809248  0.192703  1
  Nd  Nd7  1  0.809248  0.191024  0.807026  1
  Nd  Nd8  1  0.190854  0.190854  0.809146  1
  Nd  Nd9  1  0.807170  0.807170  0.192830  1
  Nd  Nd10  1  0.936684  0.563128  0.566160  1
  Nd  Nd11  1  0.563128  0.936684  0.934028  1
  Nd  Nd12  1  0.563128  0.936684  0.566160  1
  Nd  Nd13  1  0.936684  0.563128  0.934028  1
  Nd  Nd14  1  0.564045  0.564045  0.935955  1
  Nd  Nd15  1  0.934937  0.934937  0.565063  1
  Cd  Cd16  1  0.579761  0.258200  0.581020  1
  Cd  Cd17  1  0.258200  0.579761  0.581020  1
  Hg  Hg18  1  0.583469  0.583469  0.585867  1
  Hg  Hg19  1  0.583469  0.583469  0.247197  1
  Pd  Pd20  1  0.143906  0.143906  0.144230  1
  Pd  Pd21  1  0.143906  0.143906  0.567956  1
  Pd  Pd22  1  0.143284  0.570377  0.143169  1
  Pd  Pd23  1  0.570377  0.143284  0.143169  1
