# generated using pymatgen
data_Sc6Nb3Al13Co7
_symmetry_space_group_name_H-M   'P 1'
_cell_length_a   8.62785502
_cell_length_b   8.62785366
_cell_length_c   8.62785400
_cell_angle_alpha   59.79131314
_cell_angle_beta   59.79131841
_cell_angle_gamma   59.79132026
_symmetry_Int_Tables_number   1
_chemical_formula_structural   Sc6Nb3Al13Co7
_chemical_formula_sum   'Sc6 Nb3 Al13 Co7'
_cell_volume   451.99228856
_cell_formula_units_Z   1
loop_
 _symmetry_equiv_pos_site_id
 _symmetry_equiv_pos_as_xyz
  1  'x, y, z'
loop_
 _atom_site_type_symbol
 _atom_site_label
 _atom_site_symmetry_multiplicity
 _atom_site_fract_x
 _atom_site_fract_y
 _atom_site_fract_z
 _atom_site_occupancy
  Sc  Sc0  1  0.702212  0.301342  0.301342  1
  Sc  Sc1  1  0.696832  0.303878  0.696832  1
  Sc  Sc2  1  0.696832  0.696832  0.303878  1
  Sc  Sc3  1  0.303878  0.696832  0.696832  1
  Sc  Sc4  1  0.301342  0.702212  0.301342  1
  Sc  Sc5  1  0.301342  0.301342  0.702212  1
  Nb  Nb6  1  0.642378  0.119185  0.119185  1
  Nb  Nb7  1  0.119185  0.642378  0.119185  1
  Nb  Nb8  1  0.119185  0.119185  0.642378  1
  Al  Al9  1  0.117043  0.117043  0.117043  1
  Al  Al10  1  0.358834  0.881003  0.881003  1
  Al  Al11  1  0.881003  0.358834  0.881003  1
  Al  Al12  1  0.881003  0.881003  0.358834  1
  Al  Al13  1  0.879161  0.879161  0.879161  1
  Al  Al14  1  0.997292  0.331738  0.331738  1
  Al  Al15  1  0.331738  0.997292  0.331738  1
  Al  Al16  1  0.331738  0.331738  0.997292  1
  Al  Al17  1  0.335700  0.335700  0.335700  1
  Al  Al18  1  0.998628  0.666975  0.666975  1
  Al  Al19  1  0.666975  0.998628  0.666975  1
  Al  Al20  1  0.666975  0.666975  0.998628  1
  Al  Al21  1  0.666695  0.666695  0.666695  1
  Co  Co22  1  0.997550  0.997550  0.997550  1
  Co  Co23  1  0.504106  0.001969  0.001969  1
  Co  Co24  1  0.496995  0.004447  0.496995  1
  Co  Co25  1  0.496995  0.496995  0.004447  1
  Co  Co26  1  0.004447  0.496995  0.496995  1
  Co  Co27  1  0.001969  0.504106  0.001969  1
  Co  Co28  1  0.001969  0.001969  0.504106  1
