# generated using pymatgen
data_Er4Ga4Pd2RuRh
_symmetry_space_group_name_H-M   'P 1'
_cell_length_a   4.32608100
_cell_length_b   6.87059983
_cell_length_c   7.74894502
_cell_angle_alpha   89.80640880
_cell_angle_beta   90.00000000
_cell_angle_gamma   90.00000000
_symmetry_Int_Tables_number   1
_chemical_formula_structural   Er4Ga4Pd2RuRh
_chemical_formula_sum   'Er4 Ga4 Pd2 Ru1 Rh1'
_cell_volume   230.31880687
_cell_formula_units_Z   1
loop_
 _symmetry_equiv_pos_site_id
 _symmetry_equiv_pos_as_xyz
  1  'x, y, z'
loop_
 _atom_site_type_symbol
 _atom_site_label
 _atom_site_symmetry_multiplicity
 _atom_site_fract_x
 _atom_site_fract_y
 _atom_site_fract_z
 _atom_site_occupancy
  Er  Er0  1  0.250000  0.981245  0.302152  1
  Er  Er1  1  0.250000  0.484372  0.195050  1
  Er  Er2  1  0.750000  0.027649  0.686060  1
  Er  Er3  1  0.750000  0.527128  0.815436  1
  Ga  Ga4  1  0.250000  0.337476  0.569708  1
  Ga  Ga5  1  0.250000  0.834414  0.930910  1
  Ga  Ga6  1  0.750000  0.657914  0.426150  1
  Ga  Ga7  1  0.750000  0.158591  0.073283  1
  Pd  Pd8  1  0.250000  0.226518  0.893301  1
  Pd  Pd9  1  0.250000  0.726772  0.606572  1
  Ru  Ru10  1  0.750000  0.768732  0.106916  1
  Rh  Rh11  1  0.750000  0.269189  0.394463  1
