# generated using pymatgen
data_ErScB6Rh
_symmetry_space_group_name_H-M   'P 1'
_cell_length_a   3.53993000
_cell_length_b   8.98693200
_cell_length_c   11.33362700
_cell_angle_alpha   90.00000000
_cell_angle_beta   90.00000000
_cell_angle_gamma   90.00000000
_symmetry_Int_Tables_number   1
_chemical_formula_structural   ErScB6Rh
_chemical_formula_sum   'Er4 Sc4 B24 Rh4'
_cell_volume   360.55792466
_cell_formula_units_Z   4
loop_
 _symmetry_equiv_pos_site_id
 _symmetry_equiv_pos_as_xyz
  1  'x, y, z'
loop_
 _atom_site_type_symbol
 _atom_site_label
 _atom_site_symmetry_multiplicity
 _atom_site_fract_x
 _atom_site_fract_y
 _atom_site_fract_z
 _atom_site_occupancy
  Er  Er0  1  0.000000  0.820214  0.085603  1
  Er  Er1  1  0.000000  0.179786  0.914397  1
  Er  Er2  1  0.000000  0.320214  0.414397  1
  Er  Er3  1  0.000000  0.679786  0.585603  1
  Sc  Sc4  1  0.000000  0.444578  0.125295  1
  Sc  Sc5  1  0.000000  0.555422  0.874705  1
  Sc  Sc6  1  0.000000  0.944578  0.374705  1
  Sc  Sc7  1  0.000000  0.055422  0.625295  1
  B  B8  1  0.500000  0.054768  0.065524  1
  B  B9  1  0.500000  0.945232  0.934476  1
  B  B10  1  0.500000  0.554768  0.434476  1
  B  B11  1  0.500000  0.445232  0.565524  1
  B  B12  1  0.500000  0.253760  0.080609  1
  B  B13  1  0.500000  0.746240  0.919391  1
  B  B14  1  0.500000  0.753760  0.419391  1
  B  B15  1  0.500000  0.246240  0.580609  1
  B  B16  1  0.500000  0.295892  0.236362  1
  B  B17  1  0.500000  0.704108  0.763638  1
  B  B18  1  0.500000  0.795892  0.263638  1
  B  B19  1  0.500000  0.204108  0.736362  1
  B  B20  1  0.500000  0.130161  0.318643  1
  B  B21  1  0.500000  0.869839  0.681357  1
  B  B22  1  0.500000  0.630161  0.181357  1
  B  B23  1  0.500000  0.369839  0.818643  1
  B  B24  1  0.500000  0.481606  0.285692  1
  B  B25  1  0.500000  0.518394  0.714308  1
  B  B26  1  0.500000  0.981606  0.214308  1
  B  B27  1  0.500000  0.018394  0.785692  1
  B  B28  1  0.500000  0.100234  0.473160  1
  B  B29  1  0.500000  0.899766  0.526840  1
  B  B30  1  0.500000  0.600234  0.026840  1
  B  B31  1  0.500000  0.399766  0.973160  1
  Rh  Rh32  1  0.000000  0.141495  0.181524  1
  Rh  Rh33  1  0.000000  0.858505  0.818476  1
  Rh  Rh34  1  0.000000  0.641495  0.318476  1
  Rh  Rh35  1  0.000000  0.358505  0.681524  1
