# generated using pymatgen
data_Tb16Ga6FePt
_symmetry_space_group_name_H-M   'P 1'
_cell_length_a   10.16711900
_cell_length_b   10.16711759
_cell_length_c   7.03650900
_cell_angle_alpha   90.00000000
_cell_angle_beta   90.00000000
_cell_angle_gamma   120.00000133
_symmetry_Int_Tables_number   1
_chemical_formula_structural   Tb16Ga6FePt
_chemical_formula_sum   'Tb16 Ga6 Fe1 Pt1'
_cell_volume   629.91743164
_cell_formula_units_Z   1
loop_
 _symmetry_equiv_pos_site_id
 _symmetry_equiv_pos_as_xyz
  1  'x, y, z'
loop_
 _atom_site_type_symbol
 _atom_site_label
 _atom_site_symmetry_multiplicity
 _atom_site_fract_x
 _atom_site_fract_y
 _atom_site_fract_z
 _atom_site_occupancy
  Tb  Tb0  1  0.172242  0.827758  0.991564  1
  Tb  Tb1  1  0.339640  0.169820  0.488119  1
  Tb  Tb2  1  0.830180  0.660360  0.488119  1
  Tb  Tb3  1  0.172242  0.344482  0.991564  1
  Tb  Tb4  1  0.655518  0.827758  0.991564  1
  Tb  Tb5  1  0.830180  0.169820  0.488119  1
  Tb  Tb6  1  0.333333  0.666667  0.671643  1
  Tb  Tb7  1  0.666667  0.333333  0.160603  1
  Tb  Tb8  1  0.461051  0.538949  0.292211  1
  Tb  Tb9  1  0.935739  0.467870  0.795447  1
  Tb  Tb10  1  0.532130  0.064261  0.795447  1
  Tb  Tb11  1  0.461051  0.922100  0.292211  1
  Tb  Tb12  1  0.077900  0.538949  0.292211  1
  Tb  Tb13  1  0.532130  0.467870  0.795447  1
  Tb  Tb14  1  0.000000  0.000000  0.265014  1
  Tb  Tb15  1  0.000000  0.000000  0.767993  1
  Ga  Ga16  1  0.163847  0.836153  0.542739  1
  Ga  Ga17  1  0.327210  0.163605  0.040359  1
  Ga  Ga18  1  0.836395  0.672790  0.040359  1
  Ga  Ga19  1  0.163847  0.327691  0.542739  1
  Ga  Ga20  1  0.672309  0.836153  0.542739  1
  Ga  Ga21  1  0.836395  0.163605  0.040359  1
  Fe  Fe22  1  0.333333  0.666667  0.051318  1
  Pt  Pt23  1  0.666667  0.333333  0.556116  1
