# generated using pymatgen
data_Cs2Pu(O2F)2
_symmetry_space_group_name_H-M   'P 1'
_cell_length_a   5.26786974
_cell_length_b   6.59935307
_cell_length_c   6.59935345
_cell_angle_alpha   56.89478746
_cell_angle_beta   89.68801693
_cell_angle_gamma   89.68801825
_symmetry_Int_Tables_number   1
_chemical_formula_structural   Cs2Pu(O2F)2
_chemical_formula_sum   'Cs2 Pu1 O4 F2'
_cell_volume   192.17722239
_cell_formula_units_Z   1
loop_
 _symmetry_equiv_pos_site_id
 _symmetry_equiv_pos_as_xyz
  1  'x, y, z'
loop_
 _atom_site_type_symbol
 _atom_site_label
 _atom_site_symmetry_multiplicity
 _atom_site_fract_x
 _atom_site_fract_y
 _atom_site_fract_z
 _atom_site_occupancy
  Cs  Cs0  1  0.688573  0.327422  0.327422  1
  Cs  Cs1  1  0.311427  0.672578  0.672578  1
  Pu  Pu2  1  0.000000  0.000000  0.000000  1
  O  O3  1  0.194655  0.720661  0.142099  1
  O  O4  1  0.805345  0.857901  0.279339  1
  O  O5  1  0.194655  0.142099  0.720661  1
  O  O6  1  0.805345  0.279339  0.857901  1
  F  F7  1  0.241209  0.160914  0.160914  1
  F  F8  1  0.758789  0.839085  0.839085  1
