# generated using pymatgen
data_Th6Ni15As13Rh5
_symmetry_space_group_name_H-M   'P 1'
_cell_length_a   13.38155558
_cell_length_b   13.36806721
_cell_length_c   4.01522900
_cell_angle_alpha   90.00000000
_cell_angle_beta   90.00000000
_cell_angle_gamma   119.99944982
_symmetry_Int_Tables_number   1
_chemical_formula_structural   Th6Ni15As13Rh5
_chemical_formula_sum   'Th6 Ni15 As13 Rh5'
_cell_volume   622.04038473
_cell_formula_units_Z   1
loop_
 _symmetry_equiv_pos_site_id
 _symmetry_equiv_pos_as_xyz
  1  'x, y, z'
loop_
 _atom_site_type_symbol
 _atom_site_label
 _atom_site_symmetry_multiplicity
 _atom_site_fract_x
 _atom_site_fract_y
 _atom_site_fract_z
 _atom_site_occupancy
  Th  Th0  1  0.528802  0.812995  0.000000  1
  Th  Th1  1  0.280094  0.468061  0.000000  1
  Th  Th2  1  0.186941  0.715510  0.000000  1
  Th  Th3  1  0.813826  0.279558  0.500000  1
  Th  Th4  1  0.466012  0.186121  0.500000  1
  Th  Th5  1  0.718576  0.531647  0.500000  1
  Ni  Ni6  1  0.801423  0.914401  0.000000  1
  Ni  Ni7  1  0.112989  0.199234  0.000000  1
  Ni  Ni8  1  0.088222  0.885692  0.000000  1
  Ni  Ni9  1  0.666776  0.334022  0.000000  1
  Ni  Ni10  1  0.566472  0.588599  0.000000  1
  Ni  Ni11  1  0.020092  0.433728  0.000000  1
  Ni  Ni12  1  0.411692  0.979409  0.000000  1
  Ni  Ni13  1  0.076355  0.315090  0.500000  1
  Ni  Ni14  1  0.240549  0.923698  0.500000  1
  Ni  Ni15  1  0.971147  0.563377  0.500000  1
  Ni  Ni16  1  0.590035  0.028634  0.500000  1
  Ni  Ni17  1  0.434736  0.406865  0.500000  1
  Ni  Ni18  1  0.758584  0.083024  0.000000  1
  Ni  Ni19  1  0.322157  0.240308  0.000000  1
  Ni  Ni20  1  0.920459  0.676300  0.000000  1
  As  As21  1  0.478306  0.605270  0.500000  1
  As  As22  1  0.123564  0.513404  0.500000  1
  As  As23  1  0.389601  0.875299  0.500000  1
  As  As24  1  0.722652  0.963636  0.500000  1
  As  As25  1  0.235727  0.277404  0.500000  1
  As  As26  1  0.043892  0.764281  0.500000  1
  As  As27  1  0.864176  0.476322  0.000000  1
  As  As28  1  0.611675  0.136246  0.000000  1
  As  As29  1  0.522217  0.387957  0.000000  1
  As  As30  1  0.958268  0.232813  0.000000  1
  As  As31  1  0.274722  0.042576  0.000000  1
  As  As32  1  0.772221  0.724912  0.000000  1
  As  As33  1  0.001514  0.000021  0.000000  1
  Rh  Rh34  1  0.331230  0.666790  0.500000  1
  Rh  Rh35  1  0.931309  0.081848  0.500000  1
  Rh  Rh36  1  0.153133  0.069075  0.500000  1
  Rh  Rh37  1  0.926226  0.856004  0.500000  1
  Rh  Rh38  1  0.683634  0.759863  0.500000  1
