# generated using pymatgen
data_V2ReTcP4
_symmetry_space_group_name_H-M   'P 1'
_cell_length_a   3.16249800
_cell_length_b   5.52874050
_cell_length_c   6.20520219
_cell_angle_alpha   90.05899253
_cell_angle_beta   90.00000000
_cell_angle_gamma   90.00000000
_symmetry_Int_Tables_number   1
_chemical_formula_structural   V2ReTcP4
_chemical_formula_sum   'V2 Re1 Tc1 P4'
_cell_volume   108.49561160
_cell_formula_units_Z   1
loop_
 _symmetry_equiv_pos_site_id
 _symmetry_equiv_pos_as_xyz
  1  'x, y, z'
loop_
 _atom_site_type_symbol
 _atom_site_label
 _atom_site_symmetry_multiplicity
 _atom_site_fract_x
 _atom_site_fract_y
 _atom_site_fract_z
 _atom_site_occupancy
  V  V0  1  0.000000  0.508661  0.449483  1
  V  V1  1  0.000000  0.008602  0.549352  1
  Re  Re2  1  0.500000  0.489268  0.066582  1
  Tc  Tc3  1  0.500000  0.989550  0.933956  1
  P  P4  1  0.500000  0.317138  0.682530  1
  P  P5  1  0.500000  0.816625  0.317707  1
  P  P6  1  0.000000  0.685402  0.811155  1
  P  P7  1  0.000000  0.184753  0.189235  1
