# generated using pymatgen
data_Cr(ReSe2)2
_symmetry_space_group_name_H-M   'P 1'
_cell_length_a   6.66346303
_cell_length_b   6.66141796
_cell_length_c   6.63923771
_cell_angle_alpha   93.31540411
_cell_angle_beta   93.70136661
_cell_angle_gamma   93.57947445
_symmetry_Int_Tables_number   1
_chemical_formula_structural   Cr(ReSe2)2
_chemical_formula_sum   'Cr2 Re4 Se8'
_cell_volume   292.94803367
_cell_formula_units_Z   2
loop_
 _symmetry_equiv_pos_site_id
 _symmetry_equiv_pos_as_xyz
  1  'x, y, z'
loop_
 _atom_site_type_symbol
 _atom_site_label
 _atom_site_symmetry_multiplicity
 _atom_site_fract_x
 _atom_site_fract_y
 _atom_site_fract_z
 _atom_site_occupancy
  Cr  Cr0  1  0.245254  0.545687  0.416090  1
  Cr  Cr1  1  0.414075  0.245966  0.545723  1
  Re  Re2  1  0.544663  0.413538  0.238288  1
  Re  Re3  1  0.763406  0.451099  0.588907  1
  Re  Re4  1  0.587210  0.763698  0.451706  1
  Re  Re5  1  0.450851  0.586821  0.763270  1
  Se  Se6  1  0.363996  0.729179  0.126433  1
  Se  Se7  1  0.128733  0.367971  0.721935  1
  Se  Se8  1  0.729563  0.124329  0.371743  1
  Se  Se9  1  0.617925  0.263255  0.871668  1
  Se  Se10  1  0.881426  0.625169  0.271658  1
  Se  Se11  1  0.270771  0.874152  0.616226  1
  Se  Se12  1  0.212557  0.221502  0.226275  1
  Se  Se13  1  0.789568  0.787636  0.790080  1
