# generated using pymatgen
data_AcNd2Y(MoN3)4
_symmetry_space_group_name_H-M   'P 1'
_cell_length_a   7.36660243
_cell_length_b   7.36659930
_cell_length_c   6.24928610
_cell_angle_alpha   76.95411268
_cell_angle_beta   76.95415307
_cell_angle_gamma   84.90742947
_symmetry_Int_Tables_number   1
_chemical_formula_structural   AcNd2Y(MoN3)4
_chemical_formula_sum   'Ac1 Nd2 Y1 Mo4 N12'
_cell_volume   321.59314359
_cell_formula_units_Z   1
loop_
 _symmetry_equiv_pos_site_id
 _symmetry_equiv_pos_as_xyz
  1  'x, y, z'
loop_
 _atom_site_type_symbol
 _atom_site_label
 _atom_site_symmetry_multiplicity
 _atom_site_fract_x
 _atom_site_fract_y
 _atom_site_fract_z
 _atom_site_occupancy
  Ac  Ac0  1  0.314644  0.685356  0.750000  1
  Nd  Nd1  1  0.907780  0.092220  0.750000  1
  Nd  Nd2  1  0.686125  0.313875  0.250000  1
  Y  Y3  1  0.085044  0.914956  0.250000  1
  Mo  Mo4  1  0.803682  0.620194  0.738917  1
  Mo  Mo5  1  0.199477  0.378865  0.260122  1
  Mo  Mo6  1  0.621136  0.800522  0.239878  1
  Mo  Mo7  1  0.379806  0.196318  0.761084  1
  N  N8  1  0.213912  0.005588  0.862450  1
  N  N9  1  0.334827  0.369976  0.497862  1
  N  N10  1  0.666382  0.622838  0.502989  1
  N  N11  1  0.608356  0.109059  0.651784  1
  N  N12  1  0.994412  0.786088  0.637550  1
  N  N13  1  0.779712  0.998724  0.154086  1
  N  N14  1  0.118430  0.613131  0.169762  1
  N  N15  1  0.890941  0.391645  0.848216  1
  N  N16  1  0.001276  0.220288  0.345913  1
  N  N17  1  0.377162  0.333618  0.997010  1
  N  N18  1  0.630023  0.665172  0.002138  1
  N  N19  1  0.386869  0.881570  0.330237  1
