# generated using pymatgen
data_NdY2(Al2Ni3)3
_symmetry_space_group_name_H-M   'P 1'
_cell_length_a   8.99047200
_cell_length_b   8.99047101
_cell_length_c   3.92622600
_cell_angle_alpha   90.00000000
_cell_angle_beta   90.00000000
_cell_angle_gamma   120.00000365
_symmetry_Int_Tables_number   1
_chemical_formula_structural   NdY2(Al2Ni3)3
_chemical_formula_sum   'Nd1 Y2 Al6 Ni9'
_cell_volume   274.83424645
_cell_formula_units_Z   1
loop_
 _symmetry_equiv_pos_site_id
 _symmetry_equiv_pos_as_xyz
  1  'x, y, z'
loop_
 _atom_site_type_symbol
 _atom_site_label
 _atom_site_symmetry_multiplicity
 _atom_site_fract_x
 _atom_site_fract_y
 _atom_site_fract_z
 _atom_site_occupancy
  Nd  Nd0  1  0.000000  0.000000  0.000000  1
  Y  Y1  1  0.333333  0.666667  0.500000  1
  Y  Y2  1  0.666667  0.333333  0.500000  1
  Al  Al3  1  0.319562  0.319562  0.500000  1
  Al  Al4  1  0.680438  0.000000  0.500000  1
  Al  Al5  1  0.680438  0.680438  0.500000  1
  Al  Al6  1  0.000000  0.319562  0.500000  1
  Al  Al7  1  0.000000  0.680438  0.500000  1
  Al  Al8  1  0.319562  0.000000  0.500000  1
  Ni  Ni9  1  0.181504  0.363007  0.000000  1
  Ni  Ni10  1  0.818496  0.636993  0.000000  1
  Ni  Ni11  1  0.181504  0.818496  0.000000  1
  Ni  Ni12  1  0.636993  0.818496  0.000000  1
  Ni  Ni13  1  0.363007  0.181504  0.000000  1
  Ni  Ni14  1  0.818496  0.181504  0.000000  1
  Ni  Ni15  1  0.500000  0.000000  0.000000  1
  Ni  Ni16  1  0.000000  0.500000  0.000000  1
  Ni  Ni17  1  0.500000  0.500000  0.000000  1
