# generated using pymatgen
data_Tl2FeP2O7
_symmetry_space_group_name_H-M   'P 1'
_cell_length_a   5.93179800
_cell_length_b   8.26237400
_cell_length_c   8.26237400
_cell_angle_alpha   90.00000000
_cell_angle_beta   90.00000000
_cell_angle_gamma   90.00000000
_symmetry_Int_Tables_number   1
_chemical_formula_structural   Tl2FeP2O7
_chemical_formula_sum   'Tl4 Fe2 P4 O14'
_cell_volume   404.94501076
_cell_formula_units_Z   2
loop_
 _symmetry_equiv_pos_site_id
 _symmetry_equiv_pos_as_xyz
  1  'x, y, z'
loop_
 _atom_site_type_symbol
 _atom_site_label
 _atom_site_symmetry_multiplicity
 _atom_site_fract_x
 _atom_site_fract_y
 _atom_site_fract_z
 _atom_site_occupancy
  Tl  Tl0  1  0.516974  0.332620  0.167380  1
  Tl  Tl1  1  0.483029  0.832619  0.332620  1
  Tl  Tl2  1  0.483029  0.167380  0.667381  1
  Tl  Tl3  1  0.516974  0.667381  0.832619  1
  Fe  Fe4  1  0.000000  0.000000  0.000000  1
  Fe  Fe5  1  0.000000  0.500001  0.500001  1
  P  P6  1  0.033398  0.632850  0.132849  1
  P  P7  1  0.966603  0.132849  0.367151  1
  P  P8  1  0.966603  0.867151  0.632850  1
  P  P9  1  0.033398  0.367151  0.867151  1
  O  O10  1  0.122320  0.500001  0.000000  1
  O  O11  1  0.147465  0.791709  0.076250  1
  O  O12  1  0.778306  0.635923  0.135924  1
  O  O13  1  0.852536  0.076250  0.208291  1
  O  O14  1  0.147465  0.576249  0.291708  1
  O  O15  1  0.221693  0.135924  0.364077  1
  O  O16  1  0.852536  0.291708  0.423751  1
  O  O17  1  0.877681  0.000000  0.500001  1
  O  O18  1  0.852536  0.708292  0.576249  1
  O  O19  1  0.221693  0.864076  0.635923  1
  O  O20  1  0.147465  0.423751  0.708292  1
  O  O21  1  0.852536  0.923749  0.791709  1
  O  O22  1  0.778306  0.364077  0.864076  1
  O  O23  1  0.147465  0.208291  0.923749  1
