# generated using pymatgen
data_ZnCo(AgBr2)4
_symmetry_space_group_name_H-M   'P 1'
_cell_length_a   6.99712710
_cell_length_b   7.30948526
_cell_length_c   8.90498500
_cell_angle_alpha   90.00000000
_cell_angle_beta   90.00000000
_cell_angle_gamma   90.08944466
_symmetry_Int_Tables_number   1
_chemical_formula_structural   ZnCo(AgBr2)4
_chemical_formula_sum   'Zn1 Co1 Ag4 Br8'
_cell_volume   455.44844168
_cell_formula_units_Z   1
loop_
 _symmetry_equiv_pos_site_id
 _symmetry_equiv_pos_as_xyz
  1  'x, y, z'
loop_
 _atom_site_type_symbol
 _atom_site_label
 _atom_site_symmetry_multiplicity
 _atom_site_fract_x
 _atom_site_fract_y
 _atom_site_fract_z
 _atom_site_occupancy
  Zn  Zn0  1  0.377187  0.673944  0.500000  1
  Co  Co1  1  0.877434  0.326446  0.000000  1
  Ag  Ag2  1  0.374254  0.180534  0.748459  1
  Ag  Ag3  1  0.374254  0.180534  0.251541  1
  Ag  Ag4  1  0.877247  0.821075  0.753865  1
  Ag  Ag5  1  0.877247  0.821075  0.246135  1
  Br  Br6  1  0.504156  0.360835  0.500000  1
  Br  Br7  1  0.001279  0.635566  0.000000  1
  Br  Br8  1  0.026279  0.667169  0.500000  1
  Br  Br9  1  0.532477  0.331121  0.000000  1
  Br  Br10  1  0.485997  0.820119  0.731880  1
  Br  Br11  1  0.485997  0.820119  0.268120  1
  Br  Br12  1  0.985499  0.180731  0.772353  1
  Br  Br13  1  0.985499  0.180731  0.227647  1
