# generated using pymatgen
data_Sm3GaHg2Pt3
_symmetry_space_group_name_H-M   'P 1'
_cell_length_a   7.76809016
_cell_length_b   7.63888279
_cell_length_c   3.85938400
_cell_angle_alpha   90.00000000
_cell_angle_beta   90.00000000
_cell_angle_gamma   119.45129448
_symmetry_Int_Tables_number   1
_chemical_formula_structural   Sm3GaHg2Pt3
_chemical_formula_sum   'Sm3 Ga1 Hg2 Pt3'
_cell_volume   199.41946084
_cell_formula_units_Z   1
loop_
 _symmetry_equiv_pos_site_id
 _symmetry_equiv_pos_as_xyz
  1  'x, y, z'
loop_
 _atom_site_type_symbol
 _atom_site_label
 _atom_site_symmetry_multiplicity
 _atom_site_fract_x
 _atom_site_fract_y
 _atom_site_fract_z
 _atom_site_occupancy
  Sm  Sm0  1  0.403181  0.401762  0.500000  1
  Sm  Sm1  1  0.596819  0.998581  0.500000  1
  Sm  Sm2  1  0.000000  0.591571  0.500000  1
  Ga  Ga3  1  0.000000  0.259402  0.000000  1
  Hg  Hg4  1  0.741687  0.739755  0.000000  1
  Hg  Hg5  1  0.258313  0.998069  0.000000  1
  Pt  Pt6  1  0.681390  0.326877  0.000000  1
  Pt  Pt7  1  0.318610  0.645488  0.000000  1
  Pt  Pt8  1  0.000000  0.038497  0.500000  1
