# generated using pymatgen
data_HoPa2Zn11
_symmetry_space_group_name_H-M   'P 1'
_cell_length_a   8.09687772
_cell_length_b   8.09687726
_cell_length_c   8.09687805
_cell_angle_alpha   148.40770268
_cell_angle_beta   113.00463132
_cell_angle_gamma   75.95978946
_symmetry_Int_Tables_number   1
_chemical_formula_structural   HoPa2Zn11
_chemical_formula_sum   'Ho1 Pa2 Zn11'
_cell_volume   251.44316002
_cell_formula_units_Z   1
loop_
 _symmetry_equiv_pos_site_id
 _symmetry_equiv_pos_as_xyz
  1  'x, y, z'
loop_
 _atom_site_type_symbol
 _atom_site_label
 _atom_site_symmetry_multiplicity
 _atom_site_fract_x
 _atom_site_fract_y
 _atom_site_fract_z
 _atom_site_occupancy
  Ho  Ho0  1  0.000000  0.000000  0.000000  1
  Pa  Pa1  1  0.293541  0.293541  0.000000  1
  Pa  Pa2  1  0.706459  0.706459  0.000000  1
  Zn  Zn3  1  0.684146  0.500000  0.184146  1
  Zn  Zn4  1  0.425910  0.142682  0.283229  1
  Zn  Zn5  1  0.140547  0.857318  0.283228  1
  Zn  Zn6  1  0.704624  0.343208  0.361416  1
  Zn  Zn7  1  0.018207  0.656792  0.361415  1
  Zn  Zn8  1  0.500000  0.000000  0.500000  1
  Zn  Zn9  1  0.981793  0.343208  0.638584  1
  Zn  Zn10  1  0.295377  0.656792  0.638584  1
  Zn  Zn11  1  0.859453  0.142682  0.716772  1
  Zn  Zn12  1  0.574090  0.857318  0.716771  1
  Zn  Zn13  1  0.315854  0.499999  0.815853  1
