# generated using pymatgen
data_TbDyGa3SiIr4
_symmetry_space_group_name_H-M   'P 1'
_cell_length_a   4.16663700
_cell_length_b   4.16663700
_cell_length_c   10.32165400
_cell_angle_alpha   90.00000000
_cell_angle_beta   90.00000000
_cell_angle_gamma   90.00000000
_symmetry_Int_Tables_number   1
_chemical_formula_structural   TbDyGa3SiIr4
_chemical_formula_sum   'Tb1 Dy1 Ga3 Si1 Ir4'
_cell_volume   179.19283021
_cell_formula_units_Z   1
loop_
 _symmetry_equiv_pos_site_id
 _symmetry_equiv_pos_as_xyz
  1  'x, y, z'
loop_
 _atom_site_type_symbol
 _atom_site_label
 _atom_site_symmetry_multiplicity
 _atom_site_fract_x
 _atom_site_fract_y
 _atom_site_fract_z
 _atom_site_occupancy
  Tb  Tb0  1  0.500000  0.000000  0.757423  1
  Dy  Dy1  1  0.000000  0.500000  0.242923  1
  Ga  Ga2  1  0.000000  0.500000  0.873814  1
  Ga  Ga3  1  0.000000  0.000000  0.495504  1
  Ga  Ga4  1  0.500000  0.500000  0.495504  1
  Si  Si5  1  0.500000  0.000000  0.124621  1
  Ir  Ir6  1  0.000000  0.500000  0.634834  1
  Ir  Ir7  1  0.500000  0.000000  0.352739  1
  Ir  Ir8  1  0.000000  0.000000  0.011320  1
  Ir  Ir9  1  0.500000  0.500000  0.011320  1
