# generated using pymatgen
data_Th2(As2Pd7)3
_symmetry_space_group_name_H-M   'P 1'
_cell_length_a   8.89387056
_cell_length_b   8.89386960
_cell_length_c   8.89386900
_cell_angle_alpha   59.99999852
_cell_angle_beta   60.00000207
_cell_angle_gamma   59.99999997
_symmetry_Int_Tables_number   1
_chemical_formula_structural   Th2(As2Pd7)3
_chemical_formula_sum   'Th2 As6 Pd21'
_cell_volume   497.45900209
_cell_formula_units_Z   1
loop_
 _symmetry_equiv_pos_site_id
 _symmetry_equiv_pos_as_xyz
  1  'x, y, z'
loop_
 _atom_site_type_symbol
 _atom_site_label
 _atom_site_symmetry_multiplicity
 _atom_site_fract_x
 _atom_site_fract_y
 _atom_site_fract_z
 _atom_site_occupancy
  Th  Th0  1  0.750000  0.750000  0.750000  1
  Th  Th1  1  0.250000  0.250000  0.250000  1
  As  As2  1  0.739015  0.739015  0.260985  1
  As  As3  1  0.260985  0.739015  0.260985  1
  As  As4  1  0.739015  0.260985  0.260985  1
  As  As5  1  0.260985  0.260985  0.739015  1
  As  As6  1  0.739015  0.260985  0.739015  1
  As  As7  1  0.260985  0.739015  0.739015  1
  Pd  Pd8  1  0.000000  0.000000  0.000000  1
  Pd  Pd9  1  0.617526  0.617526  0.147420  1
  Pd  Pd10  1  0.617526  0.147420  0.617526  1
  Pd  Pd11  1  0.147420  0.617526  0.617526  1
  Pd  Pd12  1  0.617526  0.617526  0.617526  1
  Pd  Pd13  1  0.382474  0.382474  0.852580  1
  Pd  Pd14  1  0.382474  0.852580  0.382474  1
  Pd  Pd15  1  0.852580  0.382474  0.382474  1
  Pd  Pd16  1  0.382474  0.382474  0.382474  1
  Pd  Pd17  1  0.000000  0.000000  0.348985  1
  Pd  Pd18  1  0.651015  0.000000  0.348985  1
  Pd  Pd19  1  0.000000  0.651015  0.348985  1
  Pd  Pd20  1  0.651015  0.348985  0.000000  1
  Pd  Pd21  1  0.000000  0.348985  0.000000  1
  Pd  Pd22  1  0.000000  0.348985  0.651015  1
  Pd  Pd23  1  0.348985  0.651015  0.000000  1
  Pd  Pd24  1  0.348985  0.000000  0.651015  1
  Pd  Pd25  1  0.348985  0.000000  0.000000  1
  Pd  Pd26  1  0.000000  0.000000  0.651015  1
  Pd  Pd27  1  0.000000  0.651015  0.000000  1
  Pd  Pd28  1  0.651015  0.000000  0.000000  1
