# generated using pymatgen
data_Dy2FeIr3
_symmetry_space_group_name_H-M   'P 1'
_cell_length_a   5.17046102
_cell_length_b   5.17046044
_cell_length_c   5.17046088
_cell_angle_alpha   63.71747018
_cell_angle_beta   63.71747819
_cell_angle_gamma   63.71747372
_symmetry_Int_Tables_number   1
_chemical_formula_structural   Dy2FeIr3
_chemical_formula_sum   'Dy2 Fe1 Ir3'
_cell_volume   105.76083389
_cell_formula_units_Z   1
loop_
 _symmetry_equiv_pos_site_id
 _symmetry_equiv_pos_as_xyz
  1  'x, y, z'
loop_
 _atom_site_type_symbol
 _atom_site_label
 _atom_site_symmetry_multiplicity
 _atom_site_fract_x
 _atom_site_fract_y
 _atom_site_fract_z
 _atom_site_occupancy
  Dy  Dy0  1  0.626425  0.626425  0.626425  1
  Dy  Dy1  1  0.373575  0.373575  0.373575  1
  Fe  Fe2  1  0.000000  0.000000  0.000000  1
  Ir  Ir3  1  0.000000  0.500000  0.000000  1
  Ir  Ir4  1  0.500000  0.000000  0.000000  1
  Ir  Ir5  1  0.000000  0.000000  0.500000  1
