# generated using pymatgen
data_Dy6Ho2Sc12Si15Pb
_symmetry_space_group_name_H-M   'P 1'
_cell_length_a   7.13074633
_cell_length_b   7.41772753
_cell_length_c   14.06507930
_cell_angle_alpha   89.98600816
_cell_angle_beta   89.52543152
_cell_angle_gamma   90.05186680
_symmetry_Int_Tables_number   1
_chemical_formula_structural   Dy6Ho2Sc12Si15Pb
_chemical_formula_sum   'Dy6 Ho2 Sc12 Si15 Pb1'
_cell_volume   743.93151866
_cell_formula_units_Z   1
loop_
 _symmetry_equiv_pos_site_id
 _symmetry_equiv_pos_as_xyz
  1  'x, y, z'
loop_
 _atom_site_type_symbol
 _atom_site_label
 _atom_site_symmetry_multiplicity
 _atom_site_fract_x
 _atom_site_fract_y
 _atom_site_fract_z
 _atom_site_occupancy
  Dy  Dy0  1  0.012707  0.175963  0.096769  1
  Dy  Dy1  1  0.987567  0.824552  0.903951  1
  Dy  Dy2  1  0.488472  0.676376  0.903846  1
  Dy  Dy3  1  0.986945  0.832328  0.598582  1
  Dy  Dy4  1  0.511933  0.323715  0.097009  1
  Dy  Dy5  1  0.005989  0.168904  0.398658  1
  Ho  Ho6  1  0.514626  0.319069  0.398508  1
  Ho  Ho7  1  0.503028  0.686030  0.600407  1
  Sc  Sc8  1  0.161274  0.502556  0.756682  1
  Sc  Sc9  1  0.838199  0.497687  0.249357  1
  Sc  Sc10  1  0.338668  0.002535  0.249390  1
  Sc  Sc11  1  0.662722  0.997399  0.751484  1
  Sc  Sc12  1  0.342718  0.160024  0.631291  1
  Sc  Sc13  1  0.664693  0.825553  0.372635  1
  Sc  Sc14  1  0.164376  0.684003  0.368916  1
  Sc  Sc15  1  0.669126  0.823166  0.124214  1
  Sc  Sc16  1  0.820710  0.323180  0.626734  1
  Sc  Sc17  1  0.330163  0.175450  0.875322  1
  Sc  Sc18  1  0.830318  0.323452  0.875404  1
  Sc  Sc19  1  0.169409  0.676820  0.125090  1
  Si  Si20  1  0.033816  0.119092  0.751301  1
  Si  Si21  1  0.964503  0.884815  0.246974  1
  Si  Si22  1  0.466626  0.615724  0.248714  1
  Si  Si23  1  0.531268  0.385477  0.751575  1
  Si  Si24  1  0.285556  0.869690  0.752069  1
  Si  Si25  1  0.713368  0.126481  0.247690  1
  Si  Si26  1  0.213128  0.372961  0.249375  1
  Si  Si27  1  0.788904  0.627674  0.751184  1
  Si  Si28  1  0.826078  0.539414  0.458164  1
  Si  Si29  1  0.339128  0.964234  0.459969  1
  Si  Si30  1  0.842950  0.534521  0.039402  1
  Si  Si31  1  0.660589  0.037359  0.538141  1
  Si  Si32  1  0.156562  0.464824  0.961708  1
  Si  Si33  1  0.656531  0.035133  0.960598  1
  Si  Si34  1  0.342688  0.965204  0.039741  1
  Pb  Pb35  1  0.174659  0.458638  0.539143  1
