# generated using pymatgen
data_Hf3TaTi2(B2Ru5)2
_symmetry_space_group_name_H-M   'P 1'
_cell_length_a   9.36593980
_cell_length_b   9.36594005
_cell_length_c   3.08180300
_cell_angle_alpha   90.00000000
_cell_angle_beta   90.00000000
_cell_angle_gamma   89.98199631
_symmetry_Int_Tables_number   1
_chemical_formula_structural   Hf3TaTi2(B2Ru5)2
_chemical_formula_sum   'Hf3 Ta1 Ti2 B4 Ru10'
_cell_volume   270.33830560
_cell_formula_units_Z   1
loop_
 _symmetry_equiv_pos_site_id
 _symmetry_equiv_pos_as_xyz
  1  'x, y, z'
loop_
 _atom_site_type_symbol
 _atom_site_label
 _atom_site_symmetry_multiplicity
 _atom_site_fract_x
 _atom_site_fract_y
 _atom_site_fract_z
 _atom_site_occupancy
  Hf  Hf0  1  0.824350  0.676726  0.000000  1
  Hf  Hf1  1  0.176726  0.324350  0.000000  1
  Hf  Hf2  1  0.323750  0.823750  0.000000  1
  Ta  Ta3  1  0.677030  0.177030  0.000000  1
  Ti  Ti4  1  0.499296  0.500997  0.000000  1
  Ti  Ti5  1  0.000997  0.999296  0.000000  1
  B  B6  1  0.623743  0.876402  0.000000  1
  B  B7  1  0.376402  0.123743  0.000000  1
  B  B8  1  0.122839  0.622839  0.000000  1
  B  B9  1  0.876450  0.376450  0.000000  1
  Ru  Ru10  1  0.571118  0.716492  0.500000  1
  Ru  Ru11  1  0.434332  0.283429  0.500000  1
  Ru  Ru12  1  0.069531  0.783822  0.500000  1
  Ru  Ru13  1  0.923842  0.213560  0.500000  1
  Ru  Ru14  1  0.283822  0.569531  0.500000  1
  Ru  Ru15  1  0.713560  0.423842  0.500000  1
  Ru  Ru16  1  0.216492  0.071118  0.500000  1
  Ru  Ru17  1  0.783429  0.934332  0.500000  1
  Ru  Ru18  1  0.503756  0.003756  0.500000  1
  Ru  Ru19  1  0.998536  0.498536  0.500000  1
