# generated using pymatgen
data_Sr3Li7Sn4Pt
_symmetry_space_group_name_H-M   'P 1'
_cell_length_a   9.82534100
_cell_length_b   9.82534183
_cell_length_c   8.35935300
_cell_angle_alpha   90.00000000
_cell_angle_beta   90.00000000
_cell_angle_gamma   120.00000730
_symmetry_Int_Tables_number   1
_chemical_formula_structural   Sr3Li7Sn4Pt
_chemical_formula_sum   'Sr6 Li14 Sn8 Pt2'
_cell_volume   698.87348777
_cell_formula_units_Z   2
loop_
 _symmetry_equiv_pos_site_id
 _symmetry_equiv_pos_as_xyz
  1  'x, y, z'
loop_
 _atom_site_type_symbol
 _atom_site_label
 _atom_site_symmetry_multiplicity
 _atom_site_fract_x
 _atom_site_fract_y
 _atom_site_fract_z
 _atom_site_occupancy
  Sr  Sr0  1  0.478345  0.956688  0.503310  1
  Sr  Sr1  1  0.043312  0.521655  0.503310  1
  Sr  Sr2  1  0.478345  0.521655  0.503310  1
  Sr  Sr3  1  0.521655  0.043312  0.003310  1
  Sr  Sr4  1  0.956688  0.478345  0.003310  1
  Sr  Sr5  1  0.521655  0.478345  0.003310  1
  Li  Li6  1  0.837229  0.674460  0.661486  1
  Li  Li7  1  0.325540  0.162771  0.661486  1
  Li  Li8  1  0.837229  0.162771  0.661486  1
  Li  Li9  1  0.162771  0.325540  0.161486  1
  Li  Li10  1  0.674460  0.837229  0.161486  1
  Li  Li11  1  0.162771  0.837229  0.161486  1
  Li  Li12  1  0.903537  0.807073  0.974842  1
  Li  Li13  1  0.192927  0.096463  0.974842  1
  Li  Li14  1  0.903537  0.096463  0.974842  1
  Li  Li15  1  0.096463  0.192927  0.474842  1
  Li  Li16  1  0.807073  0.903537  0.474842  1
  Li  Li17  1  0.096463  0.903537  0.474842  1
  Li  Li18  1  0.666667  0.333333  0.366525  1
  Li  Li19  1  0.333333  0.666667  0.866525  1
  Sn  Sn20  1  0.838463  0.676924  0.282989  1
  Sn  Sn21  1  0.323076  0.161537  0.282989  1
  Sn  Sn22  1  0.838463  0.161537  0.282989  1
  Sn  Sn23  1  0.161537  0.323076  0.782989  1
  Sn  Sn24  1  0.676924  0.838463  0.782989  1
  Sn  Sn25  1  0.161537  0.838463  0.782989  1
  Sn  Sn26  1  0.666667  0.333333  0.715927  1
  Sn  Sn27  1  0.333333  0.666667  0.215927  1
  Pt  Pt28  1  0.000000  0.000000  0.232389  1
  Pt  Pt29  1  0.000000  0.000000  0.732389  1
