# generated using pymatgen
data_Tb5Ho(CI5)2
_symmetry_space_group_name_H-M   'P 1'
_cell_length_a   7.68327814
_cell_length_b   9.48696038
_cell_length_c   9.58937064
_cell_angle_alpha   107.22151704
_cell_angle_beta   96.67169965
_cell_angle_gamma   104.48774850
_symmetry_Int_Tables_number   1
_chemical_formula_structural   Tb5Ho(CI5)2
_chemical_formula_sum   'Tb5 Ho1 C2 I10'
_cell_volume   632.58496667
_cell_formula_units_Z   1
loop_
 _symmetry_equiv_pos_site_id
 _symmetry_equiv_pos_as_xyz
  1  'x, y, z'
loop_
 _atom_site_type_symbol
 _atom_site_label
 _atom_site_symmetry_multiplicity
 _atom_site_fract_x
 _atom_site_fract_y
 _atom_site_fract_z
 _atom_site_occupancy
  Tb  Tb0  1  0.028344  0.740673  0.924898  1
  Tb  Tb1  1  0.103480  0.037897  0.781049  1
  Tb  Tb2  1  0.971525  0.259355  0.075008  1
  Tb  Tb3  1  0.896229  0.961937  0.218725  1
  Tb  Tb4  1  0.374916  0.134030  0.179344  1
  Ho  Ho5  1  0.626143  0.865896  0.820905  1
  C  C6  1  0.090749  0.030386  0.041410  1
  C  C7  1  0.907380  0.969076  0.957736  1
  I  I8  1  0.190194  0.733763  0.647283  1
  I  I9  1  0.911888  0.634031  0.178130  1
  I  I10  1  0.088129  0.366008  0.821875  1
  I  I11  1  0.742883  0.914119  0.541649  1
  I  I12  1  0.256040  0.085425  0.459977  1
  I  I13  1  0.651281  0.544482  0.726326  1
  I  I14  1  0.456930  0.810463  0.091289  1
  I  I15  1  0.811803  0.266780  0.353491  1
  I  I16  1  0.348118  0.457582  0.274083  1
  I  I17  1  0.543968  0.188099  0.906823  1
