# generated using pymatgen
data_La7Yb3(RuPb3)2
_symmetry_space_group_name_H-M   'P 1'
_cell_length_a   9.82911200
_cell_length_b   9.82911140
_cell_length_c   6.77410600
_cell_angle_alpha   90.00000000
_cell_angle_beta   90.00000000
_cell_angle_gamma   120.00000201
_symmetry_Int_Tables_number   1
_chemical_formula_structural   La7Yb3(RuPb3)2
_chemical_formula_sum   'La7 Yb3 Ru2 Pb6'
_cell_volume   566.77560893
_cell_formula_units_Z   1
loop_
 _symmetry_equiv_pos_site_id
 _symmetry_equiv_pos_as_xyz
  1  'x, y, z'
loop_
 _atom_site_type_symbol
 _atom_site_label
 _atom_site_symmetry_multiplicity
 _atom_site_fract_x
 _atom_site_fract_y
 _atom_site_fract_z
 _atom_site_occupancy
  La  La0  1  0.762145  0.765150  0.750119  1
  La  La1  1  0.234850  0.996995  0.750119  1
  La  La2  1  0.003005  0.237855  0.750119  1
  La  La3  1  0.234850  0.237855  0.249881  1
  La  La4  1  0.762145  0.996995  0.249881  1
  La  La5  1  0.003005  0.765150  0.249881  1
  La  La6  1  0.666667  0.333333  0.500000  1
  Yb  Yb7  1  0.666667  0.333333  0.000000  1
  Yb  Yb8  1  0.333333  0.666667  0.000000  1
  Yb  Yb9  1  0.333333  0.666667  0.500000  1
  Ru  Ru10  1  0.000000  0.000000  0.000000  1
  Ru  Ru11  1  0.000000  0.000000  0.500000  1
  Pb  Pb12  1  0.410920  0.411498  0.750201  1
  Pb  Pb13  1  0.588502  0.999422  0.750201  1
  Pb  Pb14  1  0.000578  0.589080  0.750201  1
  Pb  Pb15  1  0.588502  0.589080  0.249799  1
  Pb  Pb16  1  0.410920  0.999422  0.249799  1
  Pb  Pb17  1  0.000578  0.411498  0.249799  1
