# generated using pymatgen
data_YHoEr3(In2Pd)2
_symmetry_space_group_name_H-M   'P 1'
_cell_length_a   3.60992700
_cell_length_b   8.13550744
_cell_length_c   18.20424597
_cell_angle_alpha   89.96252304
_cell_angle_beta   90.00000000
_cell_angle_gamma   90.00000000
_symmetry_Int_Tables_number   1
_chemical_formula_structural   YHoEr3(In2Pd)2
_chemical_formula_sum   'Y2 Ho2 Er6 In8 Pd4'
_cell_volume   534.63288454
_cell_formula_units_Z   2
loop_
 _symmetry_equiv_pos_site_id
 _symmetry_equiv_pos_as_xyz
  1  'x, y, z'
loop_
 _atom_site_type_symbol
 _atom_site_label
 _atom_site_symmetry_multiplicity
 _atom_site_fract_x
 _atom_site_fract_y
 _atom_site_fract_z
 _atom_site_occupancy
  Y  Y0  1  0.000000  0.500000  0.500000  1
  Y  Y1  1  0.000000  0.000000  0.000000  1
  Ho  Ho2  1  0.000000  0.739094  0.281093  1
  Ho  Ho3  1  0.000000  0.260906  0.718907  1
  Er  Er4  1  0.000000  0.760899  0.781032  1
  Er  Er5  1  0.000000  0.239101  0.218968  1
  Er  Er6  1  0.000000  0.616961  0.083852  1
  Er  Er7  1  0.000000  0.383039  0.916148  1
  Er  Er8  1  0.000000  0.883012  0.583863  1
  Er  Er9  1  0.000000  0.116988  0.416137  1
  In  In10  1  0.500000  0.707436  0.932597  1
  In  In11  1  0.500000  0.292564  0.067403  1
  In  In12  1  0.500000  0.792649  0.432670  1
  In  In13  1  0.500000  0.207351  0.567330  1
  In  In14  1  0.500000  0.581981  0.650543  1
  In  In15  1  0.500000  0.418019  0.349457  1
  In  In16  1  0.500000  0.918179  0.150509  1
  In  In17  1  0.500000  0.081821  0.849491  1
  Pd  Pd18  1  0.500000  0.523184  0.195936  1
  Pd  Pd19  1  0.500000  0.476816  0.804064  1
  Pd  Pd20  1  0.500000  0.976255  0.696006  1
  Pd  Pd21  1  0.500000  0.023745  0.303994  1
