# generated using pymatgen
data_Na3Sr3AlAs4
_symmetry_space_group_name_H-M   'P 1'
_cell_length_a   9.69610700
_cell_length_b   9.69610677
_cell_length_c   7.59352900
_cell_angle_alpha   90.00000000
_cell_angle_beta   90.00000000
_cell_angle_gamma   119.99999738
_symmetry_Int_Tables_number   1
_chemical_formula_structural   Na3Sr3AlAs4
_chemical_formula_sum   'Na6 Sr6 Al2 As8'
_cell_volume   618.25706448
_cell_formula_units_Z   2
loop_
 _symmetry_equiv_pos_site_id
 _symmetry_equiv_pos_as_xyz
  1  'x, y, z'
loop_
 _atom_site_type_symbol
 _atom_site_label
 _atom_site_symmetry_multiplicity
 _atom_site_fract_x
 _atom_site_fract_y
 _atom_site_fract_z
 _atom_site_occupancy
  Na  Na0  1  0.136105  0.863895  0.169659  1
  Na  Na1  1  0.272210  0.136105  0.669659  1
  Na  Na2  1  0.863895  0.727790  0.669659  1
  Na  Na3  1  0.727790  0.863895  0.169659  1
  Na  Na4  1  0.863895  0.136105  0.669659  1
  Na  Na5  1  0.136105  0.272210  0.169659  1
  Sr  Sr6  1  0.954071  0.477035  0.999326  1
  Sr  Sr7  1  0.522965  0.045929  0.999326  1
  Sr  Sr8  1  0.477035  0.954071  0.499326  1
  Sr  Sr9  1  0.045929  0.522965  0.499326  1
  Sr  Sr10  1  0.522965  0.477035  0.999326  1
  Sr  Sr11  1  0.477035  0.522965  0.499326  1
  Al  Al12  1  0.666667  0.333333  0.373343  1
  Al  Al13  1  0.333333  0.666667  0.873343  1
  As  As14  1  0.810301  0.189699  0.278791  1
  As  As15  1  0.189699  0.379399  0.778791  1
  As  As16  1  0.810301  0.620601  0.278791  1
  As  As17  1  0.666667  0.333333  0.714432  1
  As  As18  1  0.620601  0.810301  0.778791  1
  As  As19  1  0.333333  0.666667  0.214432  1
  As  As20  1  0.189699  0.810301  0.778791  1
  As  As21  1  0.379399  0.189699  0.278791  1
