# generated using pymatgen
data_Hf6BeAsN2
_symmetry_space_group_name_H-M   'P 1'
_cell_length_a   5.75811928
_cell_length_b   5.75811838
_cell_length_c   8.50947300
_cell_angle_alpha   90.00000000
_cell_angle_beta   90.00000000
_cell_angle_gamma   145.74330446
_symmetry_Int_Tables_number   1
_chemical_formula_structural   Hf6BeAsN2
_chemical_formula_sum   'Hf6 Be1 As1 N2'
_cell_volume   158.81675992
_cell_formula_units_Z   1
loop_
 _symmetry_equiv_pos_site_id
 _symmetry_equiv_pos_as_xyz
  1  'x, y, z'
loop_
 _atom_site_type_symbol
 _atom_site_label
 _atom_site_symmetry_multiplicity
 _atom_site_fract_x
 _atom_site_fract_y
 _atom_site_fract_z
 _atom_site_occupancy
  Hf  Hf0  1  0.631359  0.368641  0.940293  1
  Hf  Hf1  1  0.369321  0.630679  0.449756  1
  Hf  Hf2  1  0.369321  0.630679  0.050244  1
  Hf  Hf3  1  0.631359  0.368641  0.559707  1
  Hf  Hf4  1  0.938380  0.061620  0.750000  1
  Hf  Hf5  1  0.057906  0.942094  0.250000  1
  Be  Be6  1  0.254354  0.745646  0.750000  1
  As  As7  1  0.747755  0.252245  0.250000  1
  N  N8  1  0.000123  0.999877  0.999751  1
  N  N9  1  0.000123  0.999877  0.500249  1
