# generated using pymatgen
data_Na3Gd(Si2O5)3
_symmetry_space_group_name_H-M   'P 1'
_cell_length_a   10.38325764
_cell_length_b   10.38325789
_cell_length_c   10.73115100
_cell_angle_alpha   59.04558756
_cell_angle_beta   59.04558673
_cell_angle_gamma   48.90356367
_symmetry_Int_Tables_number   1
_chemical_formula_structural   Na3Gd(Si2O5)3
_chemical_formula_sum   'Na6 Gd2 Si12 O30'
_cell_volume   719.36041857
_cell_formula_units_Z   2
loop_
 _symmetry_equiv_pos_site_id
 _symmetry_equiv_pos_as_xyz
  1  'x, y, z'
loop_
 _atom_site_type_symbol
 _atom_site_label
 _atom_site_symmetry_multiplicity
 _atom_site_fract_x
 _atom_site_fract_y
 _atom_site_fract_z
 _atom_site_occupancy
  Na  Na0  1  0.260964  0.758316  0.741459  1
  Na  Na1  1  0.758316  0.260964  0.741459  1
  Na  Na2  1  0.739036  0.241684  0.258541  1
  Na  Na3  1  0.241684  0.739036  0.258541  1
  Na  Na4  1  0.791536  0.791536  0.878207  1
  Na  Na5  1  0.208464  0.208464  0.121793  1
  Gd  Gd6  1  0.000000  0.000000  0.500000  1
  Gd  Gd7  1  0.500000  0.500000  0.000000  1
  Si  Si8  1  0.672050  0.026715  0.117300  1
  Si  Si9  1  0.525114  0.172510  0.684143  1
  Si  Si10  1  0.172510  0.525114  0.684143  1
  Si  Si11  1  0.026715  0.672050  0.117300  1
  Si  Si12  1  0.327950  0.973285  0.882700  1
  Si  Si13  1  0.474886  0.827490  0.315857  1
  Si  Si14  1  0.827490  0.474886  0.315857  1
  Si  Si15  1  0.973285  0.327950  0.882700  1
  Si  Si16  1  0.847363  0.847363  0.366071  1
  Si  Si17  1  0.347462  0.347462  0.438827  1
  Si  Si18  1  0.152637  0.152637  0.633929  1
  Si  Si19  1  0.652538  0.652538  0.561173  1
  O  O20  1  0.362675  0.362675  0.732212  1
  O  O21  1  0.859009  0.859009  0.042820  1
  O  O22  1  0.637325  0.637325  0.267788  1
  O  O23  1  0.140991  0.140991  0.957180  1
  O  O24  1  0.015018  0.485052  0.818361  1
  O  O25  1  0.984982  0.514948  0.181639  1
  O  O26  1  0.514948  0.984982  0.181639  1
  O  O27  1  0.485052  0.015018  0.818361  1
  O  O28  1  0.075932  0.075932  0.610163  1
  O  O29  1  0.576173  0.576173  0.737212  1
  O  O30  1  0.924068  0.924068  0.389837  1
  O  O31  1  0.423827  0.423827  0.262788  1
  O  O32  1  0.295452  0.990043  0.737925  1
  O  O33  1  0.488681  0.795688  0.477392  1
  O  O34  1  0.795688  0.488681  0.477392  1
  O  O35  1  0.990043  0.295452  0.737925  1
  O  O36  1  0.704548  0.009957  0.262075  1
  O  O37  1  0.511319  0.204312  0.522608  1
  O  O38  1  0.204312  0.511319  0.522608  1
  O  O39  1  0.009957  0.704548  0.262075  1
  O  O40  1  0.279780  0.895001  0.326441  1
  O  O41  1  0.383900  0.782378  0.001445  1
  O  O42  1  0.782378  0.383900  0.001445  1
  O  O43  1  0.895001  0.279780  0.326441  1
  O  O44  1  0.720220  0.104999  0.673559  1
  O  O45  1  0.616100  0.217622  0.998555  1
  O  O46  1  0.217622  0.616100  0.998555  1
  O  O47  1  0.104999  0.720220  0.673559  1
  O  O48  1  0.249884  0.249884  0.477247  1
  O  O49  1  0.750116  0.750116  0.522753  1
