# generated using pymatgen
data_Ta3GaPdN
_symmetry_space_group_name_H-M   'P 1'
_cell_length_a   7.03075900
_cell_length_b   7.03075900
_cell_length_c   7.03075900
_cell_angle_alpha   90.00000000
_cell_angle_beta   90.00000000
_cell_angle_gamma   90.00000000
_symmetry_Int_Tables_number   1
_chemical_formula_structural   Ta3GaPdN
_chemical_formula_sum   'Ta12 Ga4 Pd4 N4'
_cell_volume   347.54147054
_cell_formula_units_Z   4
loop_
 _symmetry_equiv_pos_site_id
 _symmetry_equiv_pos_as_xyz
  1  'x, y, z'
loop_
 _atom_site_type_symbol
 _atom_site_label
 _atom_site_symmetry_multiplicity
 _atom_site_fract_x
 _atom_site_fract_y
 _atom_site_fract_z
 _atom_site_occupancy
  Ta  Ta0  1  0.789975  0.955866  0.376121  1
  Ta  Ta1  1  0.710025  0.044134  0.876121  1
  Ta  Ta2  1  0.210025  0.455866  0.123879  1
  Ta  Ta3  1  0.289975  0.544134  0.623879  1
  Ta  Ta4  1  0.955866  0.376121  0.789975  1
  Ta  Ta5  1  0.044134  0.876121  0.710025  1
  Ta  Ta6  1  0.455866  0.123879  0.210025  1
  Ta  Ta7  1  0.544134  0.623879  0.289975  1
  Ta  Ta8  1  0.376121  0.789975  0.955866  1
  Ta  Ta9  1  0.876121  0.710025  0.044134  1
  Ta  Ta10  1  0.123879  0.210025  0.455866  1
  Ta  Ta11  1  0.623879  0.289975  0.544134  1
  Ga  Ga12  1  0.570906  0.429094  0.929094  1
  Ga  Ga13  1  0.429094  0.929094  0.570906  1
  Ga  Ga14  1  0.929094  0.570906  0.429094  1
  Ga  Ga15  1  0.070906  0.070906  0.070906  1
  Pd  Pd16  1  0.178702  0.821298  0.321298  1
  Pd  Pd17  1  0.321298  0.178702  0.821298  1
  Pd  Pd18  1  0.821298  0.321298  0.178702  1
  Pd  Pd19  1  0.678702  0.678702  0.678702  1
  N  N20  1  0.875779  0.124221  0.624221  1
  N  N21  1  0.624221  0.875779  0.124221  1
  N  N22  1  0.124221  0.624221  0.875779  1
  N  N23  1  0.375779  0.375779  0.375779  1
