# generated using pymatgen
data_H4IrF7
_symmetry_space_group_name_H-M   'P 1'
_cell_length_a   3.21888521
_cell_length_b   7.96211154
_cell_length_c   7.19061859
_cell_angle_alpha   126.91961451
_cell_angle_beta   76.58719494
_cell_angle_gamma   91.24014700
_symmetry_Int_Tables_number   1
_chemical_formula_structural   H4IrF7
_chemical_formula_sum   'H4 Ir1 F7'
_cell_volume   141.66581074
_cell_formula_units_Z   1
loop_
 _symmetry_equiv_pos_site_id
 _symmetry_equiv_pos_as_xyz
  1  'x, y, z'
loop_
 _atom_site_type_symbol
 _atom_site_label
 _atom_site_symmetry_multiplicity
 _atom_site_fract_x
 _atom_site_fract_y
 _atom_site_fract_z
 _atom_site_occupancy
  H  H0  1  0.500693  0.963482  0.192709  1
  H  H1  1  0.907505  0.842054  0.861263  1
  H  H2  1  0.068775  0.609305  0.498579  1
  H  H3  1  0.017977  0.518550  0.176211  1
  Ir  Ir4  1  0.160054  0.236988  0.691933  1
  F  F5  1  0.026906  0.489630  0.323020  1
  F  F6  1  0.611024  0.135485  0.776398  1
  F  F7  1  0.000519  0.526913  0.031672  1
  F  F8  1  0.152959  0.732577  0.696559  1
  F  F9  1  0.709018  0.338370  0.607348  1
  F  F10  1  0.310590  0.955085  0.359494  1
  F  F11  1  0.646653  0.983530  0.059144  1
