# generated using pymatgen
data_La2Pr3P12Pd3Ru16
_symmetry_space_group_name_H-M   'P 1'
_cell_length_a   12.74549247
_cell_length_b   12.74549388
_cell_length_c   4.03459400
_cell_angle_alpha   90.00000000
_cell_angle_beta   90.00000000
_cell_angle_gamma   119.96878481
_symmetry_Int_Tables_number   1
_chemical_formula_structural   La2Pr3P12Pd3Ru16
_chemical_formula_sum   'La2 Pr3 P12 Pd3 Ru16'
_cell_volume   567.78024645
_cell_formula_units_Z   1
loop_
 _symmetry_equiv_pos_site_id
 _symmetry_equiv_pos_as_xyz
  1  'x, y, z'
loop_
 _atom_site_type_symbol
 _atom_site_label
 _atom_site_symmetry_multiplicity
 _atom_site_fract_x
 _atom_site_fract_y
 _atom_site_fract_z
 _atom_site_occupancy
  La  La0  1  0.819524  0.000270  0.500000  1
  La  La1  1  0.000270  0.819524  0.500000  1
  Pr  Pr2  1  0.182117  0.182117  0.500000  1
  Pr  Pr3  1  0.333153  0.666407  0.000000  1
  Pr  Pr4  1  0.666407  0.333153  0.000000  1
  P  P5  1  0.190358  0.000886  0.000000  1
  P  P6  1  0.000886  0.190358  0.000000  1
  P  P7  1  0.809486  0.809486  0.000000  1
  P  P8  1  0.521946  0.701040  0.500000  1
  P  P9  1  0.298680  0.821051  0.500000  1
  P  P10  1  0.179105  0.477911  0.500000  1
  P  P11  1  0.477911  0.179105  0.500000  1
  P  P12  1  0.701040  0.521946  0.500000  1
  P  P13  1  0.821051  0.298680  0.500000  1
  P  P14  1  0.629904  0.999959  0.000000  1
  P  P15  1  0.999959  0.629904  0.000000  1
  P  P16  1  0.369335  0.369335  0.000000  1
  Pd  Pd17  1  0.446330  0.000091  0.000000  1
  Pd  Pd18  1  0.000091  0.446330  0.000000  1
  Pd  Pd19  1  0.553449  0.553449  0.000000  1
  Ru  Ru20  1  0.290680  0.000395  0.500000  1
  Ru  Ru21  1  0.000395  0.290680  0.500000  1
  Ru  Ru22  1  0.709104  0.709104  0.500000  1
  Ru  Ru23  1  0.619311  0.805161  0.000000  1
  Ru  Ru24  1  0.194760  0.814394  0.000000  1
  Ru  Ru25  1  0.185778  0.380160  0.000000  1
  Ru  Ru26  1  0.380160  0.185778  0.000000  1
  Ru  Ru27  1  0.805161  0.619311  0.000000  1
  Ru  Ru28  1  0.814394  0.194760  0.000000  1
  Ru  Ru29  1  0.507596  0.877655  0.500000  1
  Ru  Ru30  1  0.122236  0.630138  0.500000  1
  Ru  Ru31  1  0.369671  0.491957  0.500000  1
  Ru  Ru32  1  0.491957  0.369671  0.500000  1
  Ru  Ru33  1  0.877655  0.507596  0.500000  1
  Ru  Ru34  1  0.630138  0.122236  0.500000  1
  Ru  Ru35  1  0.000001  0.000001  0.000000  1
