# generated using pymatgen
data_LuPu(AlC)6
_symmetry_space_group_name_H-M   'P 1'
_cell_length_a   3.41450800
_cell_length_b   3.41450915
_cell_length_c   17.26502800
_cell_angle_alpha   90.00000000
_cell_angle_beta   90.00000000
_cell_angle_gamma   119.99998884
_symmetry_Int_Tables_number   1
_chemical_formula_structural   LuPu(AlC)6
_chemical_formula_sum   'Lu1 Pu1 Al6 C6'
_cell_volume   174.32287638
_cell_formula_units_Z   1
loop_
 _symmetry_equiv_pos_site_id
 _symmetry_equiv_pos_as_xyz
  1  'x, y, z'
loop_
 _atom_site_type_symbol
 _atom_site_label
 _atom_site_symmetry_multiplicity
 _atom_site_fract_x
 _atom_site_fract_y
 _atom_site_fract_z
 _atom_site_occupancy
  Lu  Lu0  1  0.000000  0.000000  0.500000  1
  Pu  Pu1  1  0.000000  0.000000  0.000000  1
  Al  Al2  1  0.333333  0.666667  0.135354  1
  Al  Al3  1  0.666667  0.333333  0.255041  1
  Al  Al4  1  0.333333  0.666667  0.369836  1
  Al  Al5  1  0.666667  0.333333  0.630164  1
  Al  Al6  1  0.333333  0.666667  0.744959  1
  Al  Al7  1  0.666667  0.333333  0.864646  1
  C  C8  1  0.666667  0.333333  0.093508  1
  C  C9  1  0.333333  0.666667  0.252421  1
  C  C10  1  0.666667  0.333333  0.409904  1
  C  C11  1  0.333333  0.666667  0.590096  1
  C  C12  1  0.666667  0.333333  0.747579  1
  C  C13  1  0.333333  0.666667  0.906492  1
