# generated using pymatgen
data_La3Pr(GaRh)4
_symmetry_space_group_name_H-M   'P 1'
_cell_length_a   4.36841600
_cell_length_b   7.11684481
_cell_length_c   8.11616097
_cell_angle_alpha   89.77359542
_cell_angle_beta   90.00000000
_cell_angle_gamma   90.00000000
_symmetry_Int_Tables_number   1
_chemical_formula_structural   La3Pr(GaRh)4
_chemical_formula_sum   'La3 Pr1 Ga4 Rh4'
_cell_volume   252.32410776
_cell_formula_units_Z   1
loop_
 _symmetry_equiv_pos_site_id
 _symmetry_equiv_pos_as_xyz
  1  'x, y, z'
loop_
 _atom_site_type_symbol
 _atom_site_label
 _atom_site_symmetry_multiplicity
 _atom_site_fract_x
 _atom_site_fract_y
 _atom_site_fract_z
 _atom_site_occupancy
  La  La0  1  0.250000  0.537928  0.185637  1
  La  La1  1  0.750000  0.461257  0.814376  1
  La  La2  1  0.750000  0.963242  0.683634  1
  Pr  Pr3  1  0.250000  0.037226  0.312748  1
  Ga  Ga4  1  0.250000  0.642220  0.565610  1
  Ga  Ga5  1  0.750000  0.356800  0.432413  1
  Ga  Ga6  1  0.750000  0.862325  0.067426  1
  Ga  Ga7  1  0.250000  0.138406  0.935613  1
  Rh  Rh8  1  0.250000  0.766452  0.886302  1
  Rh  Rh9  1  0.750000  0.233821  0.114286  1
  Rh  Rh10  1  0.750000  0.732584  0.387396  1
  Rh  Rh11  1  0.250000  0.267742  0.614559  1
