# generated using pymatgen
data_Y2TmSc3FeSb2
_symmetry_space_group_name_H-M   'P 1'
_cell_length_a   7.81962000
_cell_length_b   7.83129383
_cell_length_c   4.12252200
_cell_angle_alpha   90.00000000
_cell_angle_beta   90.00000000
_cell_angle_gamma   119.95070146
_symmetry_Int_Tables_number   1
_chemical_formula_structural   Y2TmSc3FeSb2
_chemical_formula_sum   'Y2 Tm1 Sc3 Fe1 Sb2'
_cell_volume   218.74005118
_cell_formula_units_Z   1
loop_
 _symmetry_equiv_pos_site_id
 _symmetry_equiv_pos_as_xyz
  1  'x, y, z'
loop_
 _atom_site_type_symbol
 _atom_site_label
 _atom_site_symmetry_multiplicity
 _atom_site_fract_x
 _atom_site_fract_y
 _atom_site_fract_z
 _atom_site_occupancy
  Y  Y0  1  0.394245  0.393985  0.500000  1
  Y  Y1  1  0.000261  0.606015  0.500000  1
  Tm  Tm2  1  0.608549  0.000000  0.500000  1
  Sc  Sc3  1  0.225924  0.000000  0.000000  1
  Sc  Sc4  1  0.773327  0.774419  0.000000  1
  Sc  Sc5  1  0.998908  0.225581  0.000000  1
  Fe  Fe6  1  0.997298  0.000000  0.500000  1
  Sb  Sb7  1  0.335033  0.668579  0.000000  1
  Sb  Sb8  1  0.666455  0.331421  0.000000  1
