# generated using pymatgen
data_LaCuPdO4
_symmetry_space_group_name_H-M   'P 1'
_cell_length_a   6.54119158
_cell_length_b   6.54119142
_cell_length_c   6.59041932
_cell_angle_alpha   126.80662281
_cell_angle_beta   125.12349842
_cell_angle_gamma   79.43822570
_symmetry_Int_Tables_number   1
_chemical_formula_structural   LaCuPdO4
_chemical_formula_sum   'La2 Cu2 Pd2 O8'
_cell_volume   178.96819200
_cell_formula_units_Z   2
loop_
 _symmetry_equiv_pos_site_id
 _symmetry_equiv_pos_as_xyz
  1  'x, y, z'
loop_
 _atom_site_type_symbol
 _atom_site_label
 _atom_site_symmetry_multiplicity
 _atom_site_fract_x
 _atom_site_fract_y
 _atom_site_fract_z
 _atom_site_occupancy
  La  La0  1  0.750595  0.250595  0.500000  1
  La  La1  1  0.999405  0.999405  0.000000  1
  Cu  Cu2  1  0.875000  0.625000  0.250000  1
  Cu  Cu3  1  0.375000  0.625000  0.750000  1
  Pd  Pd4  1  0.375000  0.625000  0.250000  1
  Pd  Pd5  1  0.375000  0.125000  0.750000  1
  O  O6  1  0.586772  0.936161  0.934824  1
  O  O7  1  0.399891  0.831565  0.123242  1
  O  O8  1  0.708323  0.276648  0.876758  1
  O  O9  1  0.001336  0.651949  0.065176  1
  O  O10  1  0.163228  0.313839  0.565176  1
  O  O11  1  0.350109  0.418435  0.376758  1
  O  O12  1  0.748664  0.598051  0.434824  1
  O  O13  1  0.041677  0.973352  0.623242  1
