# generated using pymatgen
data_Lu8Ga3Ni
_symmetry_space_group_name_H-M   'P 1'
_cell_length_a   9.86613900
_cell_length_b   9.86710948
_cell_length_c   6.67911400
_cell_angle_alpha   90.00000000
_cell_angle_beta   90.00000000
_cell_angle_gamma   119.99975585
_symmetry_Int_Tables_number   1
_chemical_formula_structural   Lu8Ga3Ni
_chemical_formula_sum   'Lu16 Ga6 Ni2'
_cell_volume   563.10285976
_cell_formula_units_Z   2
loop_
 _symmetry_equiv_pos_site_id
 _symmetry_equiv_pos_as_xyz
  1  'x, y, z'
loop_
 _atom_site_type_symbol
 _atom_site_label
 _atom_site_symmetry_multiplicity
 _atom_site_fract_x
 _atom_site_fract_y
 _atom_site_fract_z
 _atom_site_occupancy
  Lu  Lu0  1  0.533217  0.066450  0.530292  1
  Lu  Lu1  1  0.933494  0.466681  0.530127  1
  Lu  Lu2  1  0.533179  0.466680  0.530132  1
  Lu  Lu3  1  0.466783  0.933550  0.030292  1
  Lu  Lu4  1  0.066506  0.533319  0.030127  1
  Lu  Lu5  1  0.466821  0.533320  0.030132  1
  Lu  Lu6  1  0.172984  0.345975  0.727049  1
  Lu  Lu7  1  0.653913  0.826950  0.727015  1
  Lu  Lu8  1  0.173024  0.826950  0.727012  1
  Lu  Lu9  1  0.827016  0.654025  0.227049  1
  Lu  Lu10  1  0.346087  0.173050  0.227015  1
  Lu  Lu11  1  0.826976  0.173050  0.227012  1
  Lu  Lu12  1  0.666660  0.333326  0.902091  1
  Lu  Lu13  1  0.333340  0.666674  0.402091  1
  Lu  Lu14  1  0.999974  0.999949  0.502058  1
  Lu  Lu15  1  0.000026  0.000051  0.002058  1
  Ga  Ga16  1  0.837231  0.674455  0.769602  1
  Ga  Ga17  1  0.325446  0.162760  0.769578  1
  Ga  Ga18  1  0.837307  0.162765  0.769596  1
  Ga  Ga19  1  0.162769  0.325545  0.269602  1
  Ga  Ga20  1  0.674554  0.837240  0.269578  1
  Ga  Ga21  1  0.162693  0.837235  0.269596  1
  Ni  Ni22  1  0.666666  0.333330  0.293289  1
  Ni  Ni23  1  0.333334  0.666670  0.793289  1
