# generated using pymatgen
data_Dy3Er14Tm3Pb16
_symmetry_space_group_name_H-M   'P 1'
_cell_length_a   8.15959222
_cell_length_b   8.22859782
_cell_length_c   15.53515104
_cell_angle_alpha   90.00980868
_cell_angle_beta   90.04831697
_cell_angle_gamma   89.97702956
_symmetry_Int_Tables_number   1
_chemical_formula_structural   Dy3Er14Tm3Pb16
_chemical_formula_sum   'Dy3 Er14 Tm3 Pb16'
_cell_volume   1043.06068342
_cell_formula_units_Z   1
loop_
 _symmetry_equiv_pos_site_id
 _symmetry_equiv_pos_as_xyz
  1  'x, y, z'
loop_
 _atom_site_type_symbol
 _atom_site_label
 _atom_site_symmetry_multiplicity
 _atom_site_fract_x
 _atom_site_fract_y
 _atom_site_fract_z
 _atom_site_occupancy
  Dy  Dy0  1  0.963642  0.823098  0.400339  1
  Dy  Dy1  1  0.536385  0.323191  0.599547  1
  Dy  Dy2  1  0.036541  0.176653  0.900441  1
  Er  Er3  1  0.376883  0.841207  0.879012  1
  Er  Er4  1  0.876605  0.658712  0.621179  1
  Er  Er5  1  0.623306  0.158570  0.378737  1
  Er  Er6  1  0.123344  0.341455  0.121155  1
  Er  Er7  1  0.623294  0.158600  0.121069  1
  Er  Er8  1  0.123422  0.341364  0.378878  1
  Er  Er9  1  0.376625  0.841348  0.621088  1
  Er  Er10  1  0.876819  0.658802  0.878944  1
  Er  Er11  1  0.537009  0.323525  0.900043  1
  Er  Er12  1  0.036891  0.176540  0.599979  1
  Er  Er13  1  0.463139  0.676501  0.400087  1
  Er  Er14  1  0.963047  0.823360  0.100001  1
  Er  Er15  1  0.463092  0.676544  0.099766  1
  Er  Er16  1  0.208111  0.504560  0.750097  1
  Tm  Tm17  1  0.708090  0.995394  0.750028  1
  Tm  Tm18  1  0.791724  0.495581  0.249862  1
  Tm  Tm19  1  0.292008  0.004497  0.249830  1
  Pb  Pb20  1  0.281522  0.032347  0.043235  1
  Pb  Pb21  1  0.781157  0.466940  0.456854  1
  Pb  Pb22  1  0.718876  0.967010  0.543109  1
  Pb  Pb23  1  0.219590  0.533556  0.957442  1
  Pb  Pb24  1  0.717936  0.966033  0.957538  1
  Pb  Pb25  1  0.217759  0.534098  0.542373  1
  Pb  Pb26  1  0.282302  0.034132  0.457582  1
  Pb  Pb27  1  0.781103  0.466849  0.042557  1
  Pb  Pb28  1  0.571145  0.626881  0.749990  1
  Pb  Pb29  1  0.071088  0.873116  0.750069  1
  Pb  Pb30  1  0.429043  0.373386  0.249896  1
  Pb  Pb31  1  0.928941  0.126908  0.250033  1
  Pb  Pb32  1  0.347986  0.154087  0.750474  1
  Pb  Pb33  1  0.848030  0.345840  0.749567  1
  Pb  Pb34  1  0.651260  0.845102  0.249807  1
  Pb  Pb35  1  0.152283  0.654212  0.249387  1
