# generated using pymatgen
data_LiLa8MgOs2
_symmetry_space_group_name_H-M   'P 1'
_cell_length_a   10.15328994
_cell_length_b   10.17113860
_cell_length_c   10.15328916
_cell_angle_alpha   59.94183360
_cell_angle_beta   60.05617489
_cell_angle_gamma   59.94183120
_symmetry_Int_Tables_number   1
_chemical_formula_structural   LiLa8MgOs2
_chemical_formula_sum   'Li2 La16 Mg2 Os4'
_cell_volume   741.08741120
_cell_formula_units_Z   2
loop_
 _symmetry_equiv_pos_site_id
 _symmetry_equiv_pos_as_xyz
  1  'x, y, z'
loop_
 _atom_site_type_symbol
 _atom_site_label
 _atom_site_symmetry_multiplicity
 _atom_site_fract_x
 _atom_site_fract_y
 _atom_site_fract_z
 _atom_site_occupancy
  Li  Li0  1  0.575853  0.576775  0.575853  1
  Li  Li1  1  0.575853  0.271520  0.575853  1
  La  La2  1  0.558111  0.941889  0.558111  1
  La  La3  1  0.188146  0.185867  0.813362  1
  La  La4  1  0.558680  0.558138  0.942189  1
  La  La5  1  0.969208  0.344266  0.342260  1
  La  La6  1  0.814989  0.185011  0.814989  1
  La  La7  1  0.189150  0.810850  0.189150  1
  La  La8  1  0.342260  0.344266  0.969208  1
  La  La9  1  0.342227  0.970728  0.342227  1
  La  La10  1  0.942189  0.940993  0.558680  1
  La  La11  1  0.942189  0.558138  0.558680  1
  La  La12  1  0.342227  0.344820  0.342227  1
  La  La13  1  0.813362  0.812626  0.188146  1
  La  La14  1  0.813362  0.185867  0.188146  1
  La  La15  1  0.558680  0.940993  0.942189  1
  La  La16  1  0.941985  0.558015  0.941985  1
  La  La17  1  0.188146  0.812626  0.813362  1
  Mg  Mg18  1  0.576846  0.578216  0.266724  1
  Mg  Mg19  1  0.266724  0.578216  0.576846  1
  Os  Os20  1  0.137475  0.585990  0.137475  1
  Os  Os21  1  0.586982  0.137567  0.137886  1
  Os  Os22  1  0.137886  0.137567  0.586982  1
  Os  Os23  1  0.137475  0.139062  0.137475  1
