# generated using pymatgen
data_Be8Ru3RhAu4
_symmetry_space_group_name_H-M   'P 1'
_cell_length_a   5.59678300
_cell_length_b   5.59709000
_cell_length_c   6.01156900
_cell_angle_alpha   90.00045995
_cell_angle_beta   89.99993187
_cell_angle_gamma   90.00000000
_symmetry_Int_Tables_number   1
_chemical_formula_structural   Be8Ru3RhAu4
_chemical_formula_sum   'Be8 Ru3 Rh1 Au4'
_cell_volume   188.31659597
_cell_formula_units_Z   1
loop_
 _symmetry_equiv_pos_site_id
 _symmetry_equiv_pos_as_xyz
  1  'x, y, z'
loop_
 _atom_site_type_symbol
 _atom_site_label
 _atom_site_symmetry_multiplicity
 _atom_site_fract_x
 _atom_site_fract_y
 _atom_site_fract_z
 _atom_site_occupancy
  Be  Be0  1  0.497245  0.997228  0.251411  1
  Be  Be1  1  0.497238  0.502782  0.251410  1
  Be  Be2  1  0.002798  0.997222  0.251795  1
  Be  Be3  1  0.002793  0.502768  0.251796  1
  Be  Be4  1  0.002740  0.997250  0.748204  1
  Be  Be5  1  0.002748  0.502759  0.748205  1
  Be  Be6  1  0.497190  0.997194  0.748585  1
  Be  Be7  1  0.497192  0.502793  0.748592  1
  Ru  Ru8  1  0.250085  0.750004  0.499989  1
  Ru  Ru9  1  0.749931  0.250001  0.500013  1
  Ru  Ru10  1  0.249953  0.750000  0.999984  1
  Rh  Rh11  1  0.750075  0.250002  0.000013  1
  Au  Au12  1  0.750086  0.749998  0.000100  1
  Au  Au13  1  0.250048  0.249997  0.499907  1
  Au  Au14  1  0.749974  0.750002  0.500091  1
  Au  Au15  1  0.249900  0.249993  0.999906  1
