# generated using pymatgen
data_Nd3Mg3Hg2Bi
_symmetry_space_group_name_H-M   'P 1'
_cell_length_a   7.68956600
_cell_length_b   7.68956693
_cell_length_c   4.73971000
_cell_angle_alpha   90.00000000
_cell_angle_beta   90.00000000
_cell_angle_gamma   120.00000459
_symmetry_Int_Tables_number   1
_chemical_formula_structural   Nd3Mg3Hg2Bi
_chemical_formula_sum   'Nd3 Mg3 Hg2 Bi1'
_cell_volume   242.70911805
_cell_formula_units_Z   1
loop_
 _symmetry_equiv_pos_site_id
 _symmetry_equiv_pos_as_xyz
  1  'x, y, z'
loop_
 _atom_site_type_symbol
 _atom_site_label
 _atom_site_symmetry_multiplicity
 _atom_site_fract_x
 _atom_site_fract_y
 _atom_site_fract_z
 _atom_site_occupancy
  Nd  Nd0  1  0.414297  0.987147  0.000000  1
  Nd  Nd1  1  0.012853  0.427150  0.000000  1
  Nd  Nd2  1  0.572849  0.585703  0.000000  1
  Mg  Mg3  1  0.753932  0.982520  0.500001  1
  Mg  Mg4  1  0.228588  0.246068  0.500001  1
  Mg  Mg5  1  0.017480  0.771412  0.500001  1
  Hg  Hg6  1  0.000000  0.000000  0.000000  1
  Hg  Hg7  1  0.333333  0.666666  0.500001  1
  Bi  Bi8  1  0.666667  0.333334  0.500001  1
