# generated using pymatgen
data_Rb8Ho2Tm4BBr20
_symmetry_space_group_name_H-M   'P 1'
_cell_length_a   12.24254254
_cell_length_b   12.25704324
_cell_length_c   12.25704257
_cell_angle_alpha   59.92175097
_cell_angle_beta   60.03912856
_cell_angle_gamma   60.03912688
_symmetry_Int_Tables_number   1
_chemical_formula_structural   Rb8Ho2Tm4BBr20
_chemical_formula_sum   'Rb8 Ho2 Tm4 B1 Br20'
_cell_volume   1300.54937073
_cell_formula_units_Z   1
loop_
 _symmetry_equiv_pos_site_id
 _symmetry_equiv_pos_as_xyz
  1  'x, y, z'
loop_
 _atom_site_type_symbol
 _atom_site_label
 _atom_site_symmetry_multiplicity
 _atom_site_fract_x
 _atom_site_fract_y
 _atom_site_fract_z
 _atom_site_occupancy
  Rb  Rb0  1  0.359799  0.359501  0.359501  1
  Rb  Rb1  1  0.640201  0.640499  0.640499  1
  Rb  Rb2  1  0.359501  0.359799  0.921199  1
  Rb  Rb3  1  0.359501  0.921199  0.359799  1
  Rb  Rb4  1  0.640499  0.640201  0.078801  1
  Rb  Rb5  1  0.640499  0.078801  0.640201  1
  Rb  Rb6  1  0.921199  0.359501  0.359501  1
  Rb  Rb7  1  0.078801  0.640499  0.640499  1
  Ho  Ho8  1  0.850793  0.149207  0.149207  1
  Ho  Ho9  1  0.149207  0.850793  0.850793  1
  Tm  Tm10  1  0.148785  0.851215  0.148785  1
  Tm  Tm11  1  0.851215  0.148785  0.851215  1
  Tm  Tm12  1  0.148785  0.148785  0.851215  1
  Tm  Tm13  1  0.851215  0.851215  0.148785  1
  B  B14  1  0.000000  0.000000  0.000000  1
  Br  Br15  1  0.325320  0.000000  0.000000  1
  Br  Br16  1  0.674680  0.000000  0.000000  1
  Br  Br17  1  0.000000  0.325320  0.674680  1
  Br  Br18  1  0.000000  0.674680  0.325320  1
  Br  Br19  1  0.001324  0.326468  0.998676  1
  Br  Br20  1  0.673532  0.998676  0.326468  1
  Br  Br21  1  0.998676  0.673532  0.001324  1
  Br  Br22  1  0.326468  0.001324  0.673532  1
  Br  Br23  1  0.001324  0.998676  0.326468  1
  Br  Br24  1  0.998676  0.001324  0.673532  1
  Br  Br25  1  0.673532  0.326468  0.998676  1
  Br  Br26  1  0.326468  0.673532  0.001324  1
  Br  Br27  1  0.683801  0.316199  0.316199  1
  Br  Br28  1  0.316199  0.683801  0.683801  1
  Br  Br29  1  0.314738  0.685262  0.314738  1
  Br  Br30  1  0.685262  0.314738  0.685262  1
  Br  Br31  1  0.314738  0.314738  0.685262  1
  Br  Br32  1  0.685262  0.685262  0.314738  1
  Br  Br33  1  0.250000  0.250000  0.250000  1
  Br  Br34  1  0.750000  0.750000  0.750000  1
