# generated using pymatgen
data_Yb3DySnSb3O14
_symmetry_space_group_name_H-M   'P 1'
_cell_length_a   7.39221167
_cell_length_b   7.34942085
_cell_length_c   7.39221300
_cell_angle_alpha   59.80720946
_cell_angle_beta   59.99999852
_cell_angle_gamma   59.80720735
_symmetry_Int_Tables_number   1
_chemical_formula_structural   Yb3DySnSb3O14
_chemical_formula_sum   'Yb3 Dy1 Sn1 Sb3 O14'
_cell_volume   283.14914971
_cell_formula_units_Z   1
loop_
 _symmetry_equiv_pos_site_id
 _symmetry_equiv_pos_as_xyz
  1  'x, y, z'
loop_
 _atom_site_type_symbol
 _atom_site_label
 _atom_site_symmetry_multiplicity
 _atom_site_fract_x
 _atom_site_fract_y
 _atom_site_fract_z
 _atom_site_occupancy
  Yb  Yb0  1  0.625000  0.625000  0.125000  1
  Yb  Yb1  1  0.125000  0.625000  0.625000  1
  Yb  Yb2  1  0.625000  0.625000  0.625000  1
  Dy  Dy3  1  0.625000  0.125000  0.625000  1
  Sn  Sn4  1  0.125000  0.625000  0.125000  1
  Sb  Sb5  1  0.125000  0.125000  0.625000  1
  Sb  Sb6  1  0.625000  0.125000  0.125000  1
  Sb  Sb7  1  0.125000  0.125000  0.125000  1
  O  O8  1  0.746112  0.761664  0.746112  1
  O  O9  1  0.503888  0.488336  0.503888  1
  O  O10  1  0.043652  0.449377  0.043652  1
  O  O11  1  0.798137  0.195870  0.798137  1
  O  O12  1  0.042144  0.054130  0.451863  1
  O  O13  1  0.451863  0.054130  0.042144  1
  O  O14  1  0.043652  0.449377  0.463318  1
  O  O15  1  0.463318  0.449377  0.043652  1
  O  O16  1  0.451863  0.054130  0.451863  1
  O  O17  1  0.206348  0.800623  0.786682  1
  O  O18  1  0.798137  0.195870  0.207856  1
  O  O19  1  0.206348  0.800623  0.206348  1
  O  O20  1  0.786682  0.800623  0.206348  1
  O  O21  1  0.207856  0.195870  0.798137  1
