# generated using pymatgen
data_FeSb12Os2Rh
_symmetry_space_group_name_H-M   'P 1'
_cell_length_a   8.09796582
_cell_length_b   8.09582208
_cell_length_c   8.12500800
_cell_angle_alpha   109.47114727
_cell_angle_beta   109.46167021
_cell_angle_gamma   109.32785405
_symmetry_Int_Tables_number   1
_chemical_formula_structural   FeSb12Os2Rh
_chemical_formula_sum   'Fe1 Sb12 Os2 Rh1'
_cell_volume   410.82366863
_cell_formula_units_Z   1
loop_
 _symmetry_equiv_pos_site_id
 _symmetry_equiv_pos_as_xyz
  1  'x, y, z'
loop_
 _atom_site_type_symbol
 _atom_site_label
 _atom_site_symmetry_multiplicity
 _atom_site_fract_x
 _atom_site_fract_y
 _atom_site_fract_z
 _atom_site_occupancy
  Fe  Fe0  1  0.500000  0.500000  0.500000  1
  Sb  Sb1  1  0.155843  0.816940  0.662793  1
  Sb  Sb2  1  0.844157  0.183060  0.337207  1
  Sb  Sb3  1  0.840894  0.507371  0.661362  1
  Sb  Sb4  1  0.159106  0.492629  0.338638  1
  Sb  Sb5  1  0.816721  0.661308  0.154554  1
  Sb  Sb6  1  0.183279  0.338692  0.845446  1
  Sb  Sb7  1  0.506828  0.660399  0.840563  1
  Sb  Sb8  1  0.493172  0.339601  0.159437  1
  Sb  Sb9  1  0.665449  0.154624  0.820334  1
  Sb  Sb10  1  0.334551  0.845376  0.179666  1
  Sb  Sb11  1  0.657094  0.839011  0.503494  1
  Sb  Sb12  1  0.342906  0.160989  0.496506  1
  Os  Os13  1  0.500000  0.000000  0.000000  1
  Os  Os14  1  0.000000  0.500000  0.000000  1
  Rh  Rh15  1  0.000000  0.000000  0.500000  1
