# generated using pymatgen
data_Ho4ErPPb3
_symmetry_space_group_name_H-M   'P 1'
_cell_length_a   9.10845200
_cell_length_b   9.10845165
_cell_length_c   6.78942300
_cell_angle_alpha   90.00000000
_cell_angle_beta   90.00000000
_cell_angle_gamma   119.99999399
_symmetry_Int_Tables_number   1
_chemical_formula_structural   Ho4ErPPb3
_chemical_formula_sum   'Ho8 Er2 P2 Pb6'
_cell_volume   487.81219908
_cell_formula_units_Z   2
loop_
 _symmetry_equiv_pos_site_id
 _symmetry_equiv_pos_as_xyz
  1  'x, y, z'
loop_
 _atom_site_type_symbol
 _atom_site_label
 _atom_site_symmetry_multiplicity
 _atom_site_fract_x
 _atom_site_fract_y
 _atom_site_fract_z
 _atom_site_occupancy
  Ho  Ho0  1  0.762506  0.762506  0.249938  1
  Ho  Ho1  1  0.237494  0.000000  0.249938  1
  Ho  Ho2  1  0.000000  0.237494  0.249938  1
  Ho  Ho3  1  0.237494  0.237494  0.750062  1
  Ho  Ho4  1  0.762506  0.000000  0.750062  1
  Ho  Ho5  1  0.000000  0.762506  0.750062  1
  Ho  Ho6  1  0.666667  0.333333  0.500000  1
  Ho  Ho7  1  0.333333  0.666667  0.500000  1
  Er  Er8  1  0.333333  0.666667  0.000000  1
  Er  Er9  1  0.666667  0.333333  0.000000  1
  P  P10  1  0.000000  0.000000  0.500000  1
  P  P11  1  0.000000  0.000000  0.000000  1
  Pb  Pb12  1  0.400827  0.400827  0.249638  1
  Pb  Pb13  1  0.599173  0.000000  0.249638  1
  Pb  Pb14  1  0.000000  0.599173  0.249638  1
  Pb  Pb15  1  0.599173  0.599173  0.750362  1
  Pb  Pb16  1  0.400827  0.000000  0.750362  1
  Pb  Pb17  1  0.000000  0.400827  0.750362  1
