# generated using pymatgen
data_Ta2Ti3Ga4
_symmetry_space_group_name_H-M   'P 1'
_cell_length_a   7.91687802
_cell_length_b   7.91687779
_cell_length_c   5.41586300
_cell_angle_alpha   90.00000000
_cell_angle_beta   90.00000000
_cell_angle_gamma   120.00320940
_symmetry_Int_Tables_number   1
_chemical_formula_structural   Ta2Ti3Ga4
_chemical_formula_sum   'Ta4 Ti6 Ga8'
_cell_volume   293.96264772
_cell_formula_units_Z   2
loop_
 _symmetry_equiv_pos_site_id
 _symmetry_equiv_pos_as_xyz
  1  'x, y, z'
loop_
 _atom_site_type_symbol
 _atom_site_label
 _atom_site_symmetry_multiplicity
 _atom_site_fract_x
 _atom_site_fract_y
 _atom_site_fract_z
 _atom_site_occupancy
  Ta  Ta0  1  0.333303  0.666699  0.000000  1
  Ta  Ta1  1  0.666698  0.333303  0.499999  1
  Ta  Ta2  1  0.666698  0.333303  0.000000  1
  Ta  Ta3  1  0.333303  0.666699  0.499999  1
  Ti  Ti4  1  0.288529  0.999963  0.250001  1
  Ti  Ti5  1  0.711471  0.000036  0.750002  1
  Ti  Ti6  1  0.999964  0.288529  0.250001  1
  Ti  Ti7  1  0.711403  0.711403  0.250001  1
  Ti  Ti8  1  0.288597  0.288597  0.750002  1
  Ti  Ti9  1  0.000036  0.711471  0.750002  1
  Ga  Ga10  1  0.625506  0.999998  0.250001  1
  Ga  Ga11  1  0.374494  0.000002  0.750002  1
  Ga  Ga12  1  0.999999  0.625507  0.250001  1
  Ga  Ga13  1  0.374442  0.374441  0.250001  1
  Ga  Ga14  1  0.625558  0.625559  0.750002  1
  Ga  Ga15  1  0.000001  0.374493  0.750002  1
  Ga  Ga16  1  0.000000  0.000000  0.000000  1
  Ga  Ga17  1  0.000000  0.000000  0.499999  1
