# generated using pymatgen
data_Lu5Hf3(ZrSn3)2
_symmetry_space_group_name_H-M   'P 1'
_cell_length_a   8.66338431
_cell_length_b   8.67830608
_cell_length_c   5.98242000
_cell_angle_alpha   90.00125374
_cell_angle_beta   89.99816139
_cell_angle_gamma   120.04511561
_symmetry_Int_Tables_number   1
_chemical_formula_structural   Lu5Hf3(ZrSn3)2
_chemical_formula_sum   'Lu5 Hf3 Zr2 Sn6'
_cell_volume   389.34307832
_cell_formula_units_Z   1
loop_
 _symmetry_equiv_pos_site_id
 _symmetry_equiv_pos_as_xyz
  1  'x, y, z'
loop_
 _atom_site_type_symbol
 _atom_site_label
 _atom_site_symmetry_multiplicity
 _atom_site_fract_x
 _atom_site_fract_y
 _atom_site_fract_z
 _atom_site_occupancy
  Lu  Lu0  1  0.761156  0.759967  0.749981  1
  Lu  Lu1  1  0.238807  0.998747  0.750023  1
  Lu  Lu2  1  0.000057  0.243179  0.749933  1
  Lu  Lu3  1  0.240151  0.238933  0.250059  1
  Lu  Lu4  1  0.759797  0.998710  0.249998  1
  Hf  Hf5  1  0.332461  0.667328  0.000950  1
  Hf  Hf6  1  0.332505  0.667317  0.499093  1
  Hf  Hf7  1  0.667501  0.334900  0.498857  1
  Zr  Zr8  1  0.000020  0.754326  0.249976  1
  Zr  Zr9  1  0.667456  0.334655  0.001185  1
  Sn  Sn10  1  0.398150  0.398374  0.749529  1
  Sn  Sn11  1  0.601314  0.999177  0.749562  1
  Sn  Sn12  1  0.000511  0.603144  0.749550  1
  Sn  Sn13  1  0.606597  0.604517  0.250445  1
  Sn  Sn14  1  0.393004  0.997032  0.250401  1
  Sn  Sn15  1  0.000515  0.399696  0.250458  1
