# generated using pymatgen
data_Zr10Ga2HgBi5
_symmetry_space_group_name_H-M   'P 1'
_cell_length_a   8.84577200
_cell_length_b   8.86243548
_cell_length_c   5.94344500
_cell_angle_alpha   90.00000000
_cell_angle_beta   90.00000000
_cell_angle_gamma   119.93782917
_symmetry_Int_Tables_number   1
_chemical_formula_structural   Zr10Ga2HgBi5
_chemical_formula_sum   'Zr10 Ga2 Hg1 Bi5'
_cell_volume   403.76571734
_cell_formula_units_Z   1
loop_
 _symmetry_equiv_pos_site_id
 _symmetry_equiv_pos_as_xyz
  1  'x, y, z'
loop_
 _atom_site_type_symbol
 _atom_site_label
 _atom_site_symmetry_multiplicity
 _atom_site_fract_x
 _atom_site_fract_y
 _atom_site_fract_z
 _atom_site_occupancy
  Zr  Zr0  1  0.729791  0.000000  0.250000  1
  Zr  Zr1  1  0.006310  0.739335  0.250000  1
  Zr  Zr2  1  0.266975  0.260665  0.250000  1
  Zr  Zr3  1  0.264097  0.000000  0.750000  1
  Zr  Zr4  1  0.999068  0.263049  0.750000  1
  Zr  Zr5  1  0.736020  0.736951  0.750000  1
  Zr  Zr6  1  0.333576  0.667749  0.497846  1
  Zr  Zr7  1  0.665828  0.332251  0.497846  1
  Zr  Zr8  1  0.665828  0.332251  0.002154  1
  Zr  Zr9  1  0.333576  0.667749  0.002154  1
  Ga  Ga10  1  0.000329  0.000000  0.497003  1
  Ga  Ga11  1  0.000329  0.000000  0.002997  1
  Hg  Hg12  1  0.387712  0.000000  0.250000  1
  Bi  Bi13  1  0.001290  0.388086  0.250000  1
  Bi  Bi14  1  0.613204  0.611914  0.250000  1
  Bi  Bi15  1  0.606446  0.000000  0.750000  1
  Bi  Bi16  1  0.000775  0.611928  0.750000  1
  Bi  Bi17  1  0.388846  0.388072  0.750000  1
