# generated using pymatgen
data_Lu3B2Rh5
_symmetry_space_group_name_H-M   'P 1'
_cell_length_a   9.68445600
_cell_length_b   9.68445600
_cell_length_c   3.23533000
_cell_angle_alpha   90.00000000
_cell_angle_beta   90.00000000
_cell_angle_gamma   90.00000000
_symmetry_Int_Tables_number   1
_chemical_formula_structural   Lu3B2Rh5
_chemical_formula_sum   'Lu6 B4 Rh10'
_cell_volume   303.43735600
_cell_formula_units_Z   2
loop_
 _symmetry_equiv_pos_site_id
 _symmetry_equiv_pos_as_xyz
  1  'x, y, z'
loop_
 _atom_site_type_symbol
 _atom_site_label
 _atom_site_symmetry_multiplicity
 _atom_site_fract_x
 _atom_site_fract_y
 _atom_site_fract_z
 _atom_site_occupancy
  Lu  Lu0  1  0.673858  0.173858  0.000000  1
  Lu  Lu1  1  0.326142  0.826142  0.000000  1
  Lu  Lu2  1  0.173858  0.326142  0.000000  1
  Lu  Lu3  1  0.826142  0.673858  0.000000  1
  Lu  Lu4  1  0.000000  0.000000  0.000000  1
  Lu  Lu5  1  0.500000  0.500000  0.000000  1
  B  B6  1  0.120495  0.620495  0.000000  1
  B  B7  1  0.879505  0.379505  0.000000  1
  B  B8  1  0.620495  0.879505  0.000000  1
  B  B9  1  0.379505  0.120495  0.000000  1
  Rh  Rh10  1  0.500000  0.000000  0.500000  1
  Rh  Rh11  1  0.000000  0.500000  0.500000  1
  Rh  Rh12  1  0.227767  0.072499  0.500000  1
  Rh  Rh13  1  0.772233  0.927501  0.500000  1
  Rh  Rh14  1  0.072499  0.772233  0.500000  1
  Rh  Rh15  1  0.727767  0.427501  0.500000  1
  Rh  Rh16  1  0.927501  0.227767  0.500000  1
  Rh  Rh17  1  0.272233  0.572499  0.500000  1
  Rh  Rh18  1  0.572499  0.727767  0.500000  1
  Rh  Rh19  1  0.427501  0.272233  0.500000  1
