# generated using pymatgen
data_Hf10In5SnSe
_symmetry_space_group_name_H-M   'P 1'
_cell_length_a   5.76375868
_cell_length_b   8.44008877
_cell_length_c   8.45233000
_cell_angle_alpha   120.04685223
_cell_angle_beta   90.13782790
_cell_angle_gamma   89.93056763
_symmetry_Int_Tables_number   1
_chemical_formula_structural   Hf10In5SnSe
_chemical_formula_sum   'Hf10 In5 Sn1 Se1'
_cell_volume   355.92081957
_cell_formula_units_Z   1
loop_
 _symmetry_equiv_pos_site_id
 _symmetry_equiv_pos_as_xyz
  1  'x, y, z'
loop_
 _atom_site_type_symbol
 _atom_site_label
 _atom_site_symmetry_multiplicity
 _atom_site_fract_x
 _atom_site_fract_y
 _atom_site_fract_z
 _atom_site_occupancy
  Hf  Hf0  1  0.500037  0.332814  0.665603  1
  Hf  Hf1  1  0.500028  0.667217  0.332816  1
  Hf  Hf2  1  0.999751  0.665477  0.332953  1
  Hf  Hf3  1  0.999746  0.334507  0.667497  1
  Hf  Hf4  1  0.774553  0.250654  0.000493  1
  Hf  Hf5  1  0.774538  0.749320  0.749821  1
  Hf  Hf6  1  0.766894  0.999994  0.253488  1
  Hf  Hf7  1  0.227788  0.750210  0.999954  1
  Hf  Hf8  1  0.227803  0.249799  0.249758  1
  Hf  Hf9  1  0.227619  0.000005  0.747815  1
  In  In10  1  0.743000  0.606662  0.000124  1
  In  In11  1  0.743039  0.393304  0.393454  1
  In  In12  1  0.742724  0.000008  0.608571  1
  In  In13  1  0.258242  0.393330  0.999619  1
  In  In14  1  0.258234  0.606664  0.606309  1
  Sn  Sn15  1  0.254737  0.000040  0.392765  1
  Se  Se16  1  0.501267  0.999995  0.998962  1
