# generated using pymatgen
data_Ce2CuP4Os3
_symmetry_space_group_name_H-M   'P 1'
_cell_length_a   4.16235300
_cell_length_b   4.16235300
_cell_length_c   9.42307900
_cell_angle_alpha   90.00000000
_cell_angle_beta   90.00000000
_cell_angle_gamma   90.00000000
_symmetry_Int_Tables_number   1
_chemical_formula_structural   Ce2CuP4Os3
_chemical_formula_sum   'Ce2 Cu1 P4 Os3'
_cell_volume   163.25656335
_cell_formula_units_Z   1
loop_
 _symmetry_equiv_pos_site_id
 _symmetry_equiv_pos_as_xyz
  1  'x, y, z'
loop_
 _atom_site_type_symbol
 _atom_site_label
 _atom_site_symmetry_multiplicity
 _atom_site_fract_x
 _atom_site_fract_y
 _atom_site_fract_z
 _atom_site_occupancy
  Ce  Ce0  1  0.000000  0.500000  0.235739  1
  Ce  Ce1  1  0.500000  0.000000  0.752998  1
  Cu  Cu2  1  0.500000  0.000000  0.127531  1
  P  P3  1  0.000000  0.000000  0.001155  1
  P  P4  1  0.500000  0.500000  0.001155  1
  P  P5  1  0.000000  0.500000  0.630146  1
  P  P6  1  0.500000  0.000000  0.373353  1
  Os  Os7  1  0.000000  0.000000  0.496001  1
  Os  Os8  1  0.500000  0.500000  0.496001  1
  Os  Os9  1  0.000000  0.500000  0.885922  1
