# generated using pymatgen
data_Tb3Sm3NiI10
_symmetry_space_group_name_H-M   'P 1'
_cell_length_a   7.77611074
_cell_length_b   9.80444574
_cell_length_c   9.84206008
_cell_angle_alpha   107.27848120
_cell_angle_beta   96.65961337
_cell_angle_gamma   104.76097981
_symmetry_Int_Tables_number   1
_chemical_formula_structural   Tb3Sm3NiI10
_chemical_formula_sum   'Tb3 Sm3 Ni1 I10'
_cell_volume   677.76661482
_cell_formula_units_Z   1
loop_
 _symmetry_equiv_pos_site_id
 _symmetry_equiv_pos_as_xyz
  1  'x, y, z'
loop_
 _atom_site_type_symbol
 _atom_site_label
 _atom_site_symmetry_multiplicity
 _atom_site_fract_x
 _atom_site_fract_y
 _atom_site_fract_z
 _atom_site_occupancy
  Tb  Tb0  1  0.969117  0.278825  0.084203  1
  Tb  Tb1  1  0.659309  0.880318  0.839643  1
  Tb  Tb2  1  0.340561  0.121680  0.160631  1
  Sm  Sm3  1  0.886079  0.959322  0.239063  1
  Sm  Sm4  1  0.115124  0.040753  0.761361  1
  Sm  Sm5  1  0.030376  0.716439  0.914582  1
  Ni  Ni6  1  0.000170  0.999696  0.999969  1
  I  I7  1  0.642531  0.551648  0.727921  1
  I  I8  1  0.349122  0.448505  0.269878  1
  I  I9  1  0.737025  0.911915  0.540929  1
  I  I10  1  0.264460  0.088912  0.458937  1
  I  I11  1  0.083617  0.370927  0.822048  1
  I  I12  1  0.914675  0.624623  0.181402  1
  I  I13  1  0.454023  0.818192  0.091866  1
  I  I14  1  0.549641  0.184863  0.910643  1
  I  I15  1  0.231661  0.744283  0.654891  1
  I  I16  1  0.772509  0.259098  0.342033  1
