# generated using pymatgen
data_CaNd4Pb3Se
_symmetry_space_group_name_H-M   'P 1'
_cell_length_a   9.49379100
_cell_length_b   9.49379109
_cell_length_c   6.99323600
_cell_angle_alpha   90.00000000
_cell_angle_beta   90.00000000
_cell_angle_gamma   120.00000317
_symmetry_Int_Tables_number   1
_chemical_formula_structural   CaNd4Pb3Se
_chemical_formula_sum   'Ca2 Nd8 Pb6 Se2'
_cell_volume   545.86863389
_cell_formula_units_Z   2
loop_
 _symmetry_equiv_pos_site_id
 _symmetry_equiv_pos_as_xyz
  1  'x, y, z'
loop_
 _atom_site_type_symbol
 _atom_site_label
 _atom_site_symmetry_multiplicity
 _atom_site_fract_x
 _atom_site_fract_y
 _atom_site_fract_z
 _atom_site_occupancy
  Ca  Ca0  1  0.666667  0.333333  0.000000  1
  Ca  Ca1  1  0.333333  0.666667  0.000000  1
  Nd  Nd2  1  0.749730  0.749730  0.752353  1
  Nd  Nd3  1  0.250270  0.000000  0.752353  1
  Nd  Nd4  1  0.000000  0.250270  0.752353  1
  Nd  Nd5  1  0.250270  0.250270  0.247647  1
  Nd  Nd6  1  0.749730  0.000000  0.247647  1
  Nd  Nd7  1  0.000000  0.749730  0.247647  1
  Nd  Nd8  1  0.333333  0.666667  0.500000  1
  Nd  Nd9  1  0.666667  0.333333  0.500000  1
  Pb  Pb10  1  0.396791  0.396791  0.749662  1
  Pb  Pb11  1  0.603209  0.000000  0.749662  1
  Pb  Pb12  1  0.000000  0.603209  0.749662  1
  Pb  Pb13  1  0.603209  0.603209  0.250338  1
  Pb  Pb14  1  0.396791  0.000000  0.250338  1
  Pb  Pb15  1  0.000000  0.396791  0.250338  1
  Se  Se16  1  0.000000  0.000000  0.000000  1
  Se  Se17  1  0.000000  0.000000  0.500000  1
