# generated using pymatgen
data_DyTm9(Cd2Ni)4
_symmetry_space_group_name_H-M   'P 1'
_cell_length_a   3.52002100
_cell_length_b   7.77872468
_cell_length_c   18.10276751
_cell_angle_alpha   90.04738593
_cell_angle_beta   90.00000000
_cell_angle_gamma   90.00000000
_symmetry_Int_Tables_number   1
_chemical_formula_structural   DyTm9(Cd2Ni)4
_chemical_formula_sum   'Dy1 Tm9 Cd8 Ni4'
_cell_volume   495.67667203
_cell_formula_units_Z   1
loop_
 _symmetry_equiv_pos_site_id
 _symmetry_equiv_pos_as_xyz
  1  'x, y, z'
loop_
 _atom_site_type_symbol
 _atom_site_label
 _atom_site_symmetry_multiplicity
 _atom_site_fract_x
 _atom_site_fract_y
 _atom_site_fract_z
 _atom_site_occupancy
  Dy  Dy0  1  0.000000  0.500000  0.500000  1
  Tm  Tm1  1  0.000000  0.000000  0.000000  1
  Tm  Tm2  1  0.000000  0.753717  0.278434  1
  Tm  Tm3  1  0.000000  0.246283  0.721566  1
  Tm  Tm4  1  0.000000  0.747414  0.779246  1
  Tm  Tm5  1  0.000000  0.252586  0.220754  1
  Tm  Tm6  1  0.000000  0.616916  0.088420  1
  Tm  Tm7  1  0.000000  0.383084  0.911580  1
  Tm  Tm8  1  0.000000  0.882491  0.588686  1
  Tm  Tm9  1  0.000000  0.117509  0.411314  1
  Cd  Cd10  1  0.500000  0.709697  0.931190  1
  Cd  Cd11  1  0.500000  0.290303  0.068810  1
  Cd  Cd12  1  0.500000  0.791875  0.430047  1
  Cd  Cd13  1  0.500000  0.208125  0.569953  1
  Cd  Cd14  1  0.500000  0.566944  0.652326  1
  Cd  Cd15  1  0.500000  0.433056  0.347674  1
  Cd  Cd16  1  0.500000  0.932568  0.150996  1
  Cd  Cd17  1  0.500000  0.067432  0.849004  1
  Ni  Ni18  1  0.500000  0.533675  0.195812  1
  Ni  Ni19  1  0.500000  0.466325  0.804188  1
  Ni  Ni20  1  0.500000  0.965937  0.695952  1
  Ni  Ni21  1  0.500000  0.034063  0.304048  1
