# generated using pymatgen
data_LiYbH6PdPt
_symmetry_space_group_name_H-M   'P 1'
_cell_length_a   5.13627384
_cell_length_b   5.13627368
_cell_length_c   5.13627700
_cell_angle_alpha   119.99995392
_cell_angle_beta   120.00000277
_cell_angle_gamma   60.00010349
_symmetry_Int_Tables_number   1
_chemical_formula_structural   LiYbH6PdPt
_chemical_formula_sum   'Li1 Yb1 H6 Pd1 Pt1'
_cell_volume   95.81428155
_cell_formula_units_Z   1
loop_
 _symmetry_equiv_pos_site_id
 _symmetry_equiv_pos_as_xyz
  1  'x, y, z'
loop_
 _atom_site_type_symbol
 _atom_site_label
 _atom_site_symmetry_multiplicity
 _atom_site_fract_x
 _atom_site_fract_y
 _atom_site_fract_z
 _atom_site_occupancy
  Li  Li0  1  0.750001  0.749998  0.750002  1
  Yb  Yb1  1  0.250002  0.249998  0.250000  1
  H  H2  1  0.244898  0.755101  0.255101  1
  H  H3  1  0.755102  0.755101  0.255100  1
  H  H4  1  0.755101  0.244900  0.255103  1
  H  H5  1  0.755102  0.244899  0.744898  1
  H  H6  1  0.244898  0.244898  0.744899  1
  H  H7  1  0.244898  0.755101  0.744898  1
  Pd  Pd8  1  0.500001  0.499999  0.000000  1
  Pt  Pt9  1  0.000000  0.999999  0.500000  1
