# generated using pymatgen
data_Sc12Co4GeOs
_symmetry_space_group_name_H-M   'P 1'
_cell_length_a   7.66416683
_cell_length_b   7.66400863
_cell_length_c   7.66416663
_cell_angle_alpha   111.16735600
_cell_angle_beta   110.59445658
_cell_angle_gamma   106.68854366
_symmetry_Int_Tables_number   1
_chemical_formula_structural   Sc12Co4GeOs
_chemical_formula_sum   'Sc12 Co4 Ge1 Os1'
_cell_volume   345.92645337
_cell_formula_units_Z   1
loop_
 _symmetry_equiv_pos_site_id
 _symmetry_equiv_pos_as_xyz
  1  'x, y, z'
loop_
 _atom_site_type_symbol
 _atom_site_label
 _atom_site_symmetry_multiplicity
 _atom_site_fract_x
 _atom_site_fract_y
 _atom_site_fract_z
 _atom_site_occupancy
  Sc  Sc0  1  0.427548  0.230193  0.197361  1
  Sc  Sc1  1  0.572452  0.769807  0.802639  1
  Sc  Sc2  1  0.032831  0.230193  0.802645  1
  Sc  Sc3  1  0.967169  0.769807  0.197355  1
  Sc  Sc4  1  0.314801  0.613944  0.299144  1
  Sc  Sc5  1  0.685199  0.386056  0.700856  1
  Sc  Sc6  1  0.314804  0.015662  0.700859  1
  Sc  Sc7  1  0.685196  0.984338  0.299141  1
  Sc  Sc8  1  0.183492  0.274071  0.457548  1
  Sc  Sc9  1  0.816508  0.725928  0.542452  1
  Sc  Sc10  1  0.183476  0.725928  0.909421  1
  Sc  Sc11  1  0.816524  0.274071  0.090579  1
  Co  Co12  1  0.365785  0.000000  0.365785  1
  Co  Co13  1  0.634215  0.000000  0.634215  1
  Co  Co14  1  0.119705  0.619700  0.499995  1
  Co  Co15  1  0.880295  0.380300  0.500005  1
  Ge  Ge16  1  0.500000  0.500000  0.000000  1
  Os  Os17  1  0.000000  0.000000  0.000000  1
