# generated using pymatgen
data_TbY3(HoPt)4
_symmetry_space_group_name_H-M   'P 1'
_cell_length_a   4.76442200
_cell_length_b   7.17904281
_cell_length_c   8.78847796
_cell_angle_alpha   89.95969134
_cell_angle_beta   90.00000000
_cell_angle_gamma   90.00000000
_symmetry_Int_Tables_number   1
_chemical_formula_structural   TbY3(HoPt)4
_chemical_formula_sum   'Tb1 Y3 Ho4 Pt4'
_cell_volume   300.60093369
_cell_formula_units_Z   1
loop_
 _symmetry_equiv_pos_site_id
 _symmetry_equiv_pos_as_xyz
  1  'x, y, z'
loop_
 _atom_site_type_symbol
 _atom_site_label
 _atom_site_symmetry_multiplicity
 _atom_site_fract_x
 _atom_site_fract_y
 _atom_site_fract_z
 _atom_site_occupancy
  Tb  Tb0  1  0.250000  0.990794  0.331735  1
  Y  Y1  1  0.250000  0.490054  0.168580  1
  Y  Y2  1  0.750000  0.009605  0.669389  1
  Y  Y3  1  0.750000  0.509522  0.831293  1
  Ho  Ho4  1  0.250000  0.856094  0.920084  1
  Ho  Ho5  1  0.250000  0.355987  0.579731  1
  Ho  Ho6  1  0.750000  0.143586  0.079538  1
  Ho  Ho7  1  0.750000  0.644096  0.419990  1
  Pt  Pt8  1  0.250000  0.256449  0.906696  1
  Pt  Pt9  1  0.250000  0.757357  0.592965  1
  Pt  Pt10  1  0.750000  0.743344  0.093182  1
  Pt  Pt11  1  0.750000  0.243112  0.406816  1
