# generated using pymatgen
data_Pr4Y6Ga3Si5
_symmetry_space_group_name_H-M   'P 1'
_cell_length_a   7.60988752
_cell_length_b   7.91994854
_cell_length_c   15.09591585
_cell_angle_alpha   89.98004951
_cell_angle_beta   90.03296842
_cell_angle_gamma   90.13403788
_symmetry_Int_Tables_number   1
_chemical_formula_structural   Pr4Y6Ga3Si5
_chemical_formula_sum   'Pr8 Y12 Ga6 Si10'
_cell_volume   909.82690861
_cell_formula_units_Z   2
loop_
 _symmetry_equiv_pos_site_id
 _symmetry_equiv_pos_as_xyz
  1  'x, y, z'
loop_
 _atom_site_type_symbol
 _atom_site_label
 _atom_site_symmetry_multiplicity
 _atom_site_fract_x
 _atom_site_fract_y
 _atom_site_fract_z
 _atom_site_occupancy
  Pr  Pr0  1  0.022579  0.177852  0.399690  1
  Pr  Pr1  1  0.522388  0.322286  0.400155  1
  Pr  Pr2  1  0.480514  0.676851  0.902353  1
  Pr  Pr3  1  0.478563  0.677772  0.596633  1
  Pr  Pr4  1  0.976951  0.819956  0.596665  1
  Pr  Pr5  1  0.976632  0.824556  0.902509  1
  Pr  Pr6  1  0.521458  0.320731  0.101183  1
  Pr  Pr7  1  0.021067  0.179135  0.101460  1
  Y  Y8  1  0.321764  0.176877  0.622176  1
  Y  Y9  1  0.678633  0.821358  0.376033  1
  Y  Y10  1  0.658058  0.987415  0.751446  1
  Y  Y11  1  0.178473  0.678873  0.375882  1
  Y  Y12  1  0.819928  0.322647  0.877149  1
  Y  Y13  1  0.820009  0.324425  0.622395  1
  Y  Y14  1  0.845436  0.490695  0.250875  1
  Y  Y15  1  0.346416  0.008989  0.251477  1
  Y  Y16  1  0.324564  0.178437  0.876061  1
  Y  Y17  1  0.178457  0.674940  0.125226  1
  Y  Y18  1  0.678097  0.825457  0.124548  1
  Y  Y19  1  0.152928  0.507311  0.750468  1
  Ga  Ga20  1  0.270053  0.879347  0.749351  1
  Ga  Ga21  1  0.149443  0.467024  0.538124  1
  Ga  Ga22  1  0.847996  0.532829  0.040694  1
  Ga  Ga23  1  0.349048  0.966983  0.039425  1
  Ga  Ga24  1  0.150975  0.467803  0.959923  1
  Ga  Ga25  1  0.650493  0.033898  0.538260  1
  Si  Si26  1  0.473141  0.611603  0.251127  1
  Si  Si27  1  0.026317  0.115850  0.749395  1
  Si  Si28  1  0.528533  0.390474  0.749356  1
  Si  Si29  1  0.973612  0.888959  0.250574  1
  Si  Si30  1  0.728509  0.119708  0.250955  1
  Si  Si31  1  0.352276  0.968527  0.459214  1
  Si  Si32  1  0.852347  0.531278  0.458661  1
  Si  Si33  1  0.768406  0.617447  0.749126  1
  Si  Si34  1  0.228833  0.379586  0.250952  1
  Si  Si35  1  0.647101  0.032122  0.960481  1
