# generated using pymatgen
data_Tm2(PaTc)3
_symmetry_space_group_name_H-M   'P 1'
_cell_length_a   7.96772200
_cell_length_b   7.96772229
_cell_length_c   6.60557900
_cell_angle_alpha   90.00000000
_cell_angle_beta   90.00000000
_cell_angle_gamma   119.99999879
_symmetry_Int_Tables_number   1
_chemical_formula_structural   Tm2(PaTc)3
_chemical_formula_sum   'Tm4 Pa6 Tc6'
_cell_volume   363.16993599
_cell_formula_units_Z   2
loop_
 _symmetry_equiv_pos_site_id
 _symmetry_equiv_pos_as_xyz
  1  'x, y, z'
loop_
 _atom_site_type_symbol
 _atom_site_label
 _atom_site_symmetry_multiplicity
 _atom_site_fract_x
 _atom_site_fract_y
 _atom_site_fract_z
 _atom_site_occupancy
  Tm  Tm0  1  0.666667  0.333333  0.000000  1
  Tm  Tm1  1  0.333333  0.666667  0.000000  1
  Tm  Tm2  1  0.333333  0.666667  0.500000  1
  Tm  Tm3  1  0.666667  0.333333  0.500000  1
  Pa  Pa4  1  0.761899  0.761899  0.750000  1
  Pa  Pa5  1  0.238101  0.000000  0.750000  1
  Pa  Pa6  1  0.000000  0.238101  0.750000  1
  Pa  Pa7  1  0.238101  0.238101  0.250000  1
  Pa  Pa8  1  0.761899  0.000000  0.250000  1
  Pa  Pa9  1  0.000000  0.761899  0.250000  1
  Tc  Tc10  1  0.361494  0.361494  0.750000  1
  Tc  Tc11  1  0.638506  0.000000  0.750000  1
  Tc  Tc12  1  0.000000  0.638506  0.750000  1
  Tc  Tc13  1  0.638506  0.638506  0.250000  1
  Tc  Tc14  1  0.361494  0.000000  0.250000  1
  Tc  Tc15  1  0.000000  0.361494  0.250000  1
