# generated using pymatgen
data_Y6Ho10Al4RuPt3
_symmetry_space_group_name_H-M   'P 1'
_cell_length_a   9.68427088
_cell_length_b   9.68427011
_cell_length_c   9.68427100
_cell_angle_alpha   59.66366009
_cell_angle_beta   59.66366278
_cell_angle_gamma   59.66365780
_symmetry_Int_Tables_number   1
_chemical_formula_structural   Y6Ho10Al4RuPt3
_chemical_formula_sum   'Y6 Ho10 Al4 Ru1 Pt3'
_cell_volume   637.31522814
_cell_formula_units_Z   1
loop_
 _symmetry_equiv_pos_site_id
 _symmetry_equiv_pos_as_xyz
  1  'x, y, z'
loop_
 _atom_site_type_symbol
 _atom_site_label
 _atom_site_symmetry_multiplicity
 _atom_site_fract_x
 _atom_site_fract_y
 _atom_site_fract_z
 _atom_site_occupancy
  Y  Y0  1  0.935756  0.562803  0.562803  1
  Y  Y1  1  0.558923  0.938219  0.938219  1
  Y  Y2  1  0.562803  0.935756  0.562803  1
  Y  Y3  1  0.938219  0.558923  0.938219  1
  Y  Y4  1  0.562803  0.562803  0.935756  1
  Y  Y5  1  0.938219  0.938219  0.558923  1
  Ho  Ho6  1  0.353127  0.353127  0.353127  1
  Ho  Ho7  1  0.350494  0.350494  0.944528  1
  Ho  Ho8  1  0.350494  0.944528  0.350494  1
  Ho  Ho9  1  0.944528  0.350494  0.350494  1
  Ho  Ho10  1  0.812383  0.191603  0.191603  1
  Ho  Ho11  1  0.193382  0.806180  0.806180  1
  Ho  Ho12  1  0.191603  0.812383  0.191603  1
  Ho  Ho13  1  0.806180  0.193382  0.806180  1
  Ho  Ho14  1  0.191603  0.191603  0.812383  1
  Ho  Ho15  1  0.806180  0.806180  0.193382  1
  Al  Al16  1  0.578701  0.578701  0.578701  1
  Al  Al17  1  0.577999  0.577999  0.267663  1
  Al  Al18  1  0.577999  0.267663  0.577999  1
  Al  Al19  1  0.267663  0.577999  0.577999  1
  Ru  Ru20  1  0.141729  0.141729  0.141729  1
  Pt  Pt21  1  0.143247  0.143247  0.572718  1
  Pt  Pt22  1  0.143247  0.572718  0.143247  1
  Pt  Pt23  1  0.572718  0.143247  0.143247  1
