# generated using pymatgen
data_NaMnSb12OsRu2
_symmetry_space_group_name_H-M   'P 1'
_cell_length_a   8.17351839
_cell_length_b   8.17348000
_cell_length_c   8.16512922
_cell_angle_alpha   109.41320737
_cell_angle_beta   109.43464468
_cell_angle_gamma   109.48377691
_symmetry_Int_Tables_number   1
_chemical_formula_structural   NaMnSb12OsRu2
_chemical_formula_sum   'Na1 Mn1 Sb12 Os1 Ru2'
_cell_volume   420.33542262
_cell_formula_units_Z   1
loop_
 _symmetry_equiv_pos_site_id
 _symmetry_equiv_pos_as_xyz
  1  'x, y, z'
loop_
 _atom_site_type_symbol
 _atom_site_label
 _atom_site_symmetry_multiplicity
 _atom_site_fract_x
 _atom_site_fract_y
 _atom_site_fract_z
 _atom_site_occupancy
  Na  Na0  1  0.000000  0.000000  0.000000  1
  Mn  Mn1  1  0.000000  0.000000  0.500000  1
  Sb  Sb2  1  0.841751  0.656668  0.504011  1
  Sb  Sb3  1  0.158249  0.343332  0.495989  1
  Sb  Sb4  1  0.157994  0.662699  0.819151  1
  Sb  Sb5  1  0.842006  0.337301  0.180849  1
  Sb  Sb6  1  0.661479  0.504668  0.842326  1
  Sb  Sb7  1  0.338521  0.495332  0.157674  1
  Sb  Sb8  1  0.656653  0.814635  0.152866  1
  Sb  Sb9  1  0.343347  0.185365  0.847134  1
  Sb  Sb10  1  0.504593  0.842249  0.662162  1
  Sb  Sb11  1  0.495407  0.157751  0.337838  1
  Sb  Sb12  1  0.185921  0.842636  0.338966  1
  Sb  Sb13  1  0.814079  0.157364  0.661034  1
  Os  Os14  1  0.000000  0.500000  0.000000  1
  Ru  Ru15  1  0.500000  0.500000  0.500000  1
  Ru  Ru16  1  0.500000  0.000000  0.000000  1
