# generated using pymatgen
data_YEr11Tc3Pd
_symmetry_space_group_name_H-M   'P 1'
_cell_length_a   6.25368778
_cell_length_b   7.37197992
_cell_length_c   9.10145500
_cell_angle_alpha   90.00000000
_cell_angle_beta   90.00000000
_cell_angle_gamma   90.02451066
_symmetry_Int_Tables_number   1
_chemical_formula_structural   YEr11Tc3Pd
_chemical_formula_sum   'Y1 Er11 Tc3 Pd1'
_cell_volume   419.59579304
_cell_formula_units_Z   1
loop_
 _symmetry_equiv_pos_site_id
 _symmetry_equiv_pos_as_xyz
  1  'x, y, z'
loop_
 _atom_site_type_symbol
 _atom_site_label
 _atom_site_symmetry_multiplicity
 _atom_site_fract_x
 _atom_site_fract_y
 _atom_site_fract_z
 _atom_site_occupancy
  Y  Y0  1  0.869548  0.534273  0.250000  1
  Er  Er1  1  0.627773  0.045610  0.250000  1
  Er  Er2  1  0.371449  0.957116  0.750000  1
  Er  Er3  1  0.124060  0.461493  0.750000  1
  Er  Er4  1  0.165306  0.183576  0.057708  1
  Er  Er5  1  0.829935  0.823946  0.931626  1
  Er  Er6  1  0.664204  0.321790  0.935478  1
  Er  Er7  1  0.829935  0.823946  0.568374  1
  Er  Er8  1  0.341113  0.670972  0.058239  1
  Er  Er9  1  0.165306  0.183576  0.442292  1
  Er  Er10  1  0.341113  0.670972  0.441761  1
  Er  Er11  1  0.664204  0.321790  0.564522  1
  Tc  Tc12  1  0.453712  0.383865  0.250000  1
  Tc  Tc13  1  0.538169  0.614902  0.750000  1
  Tc  Tc14  1  0.963847  0.113619  0.750000  1
  Pd  Pd15  1  0.050324  0.888553  0.250000  1
