# generated using pymatgen
data_Ho3Er4Cd(Co3Sn11)2
_symmetry_space_group_name_H-M   'P 1'
_cell_length_a   9.65040417
_cell_length_b   9.65040444
_cell_length_c   9.99162221
_cell_angle_alpha   90.02019239
_cell_angle_beta   89.97980904
_cell_angle_gamma   119.99181070
_symmetry_Int_Tables_number   1
_chemical_formula_structural   Ho3Er4Cd(Co3Sn11)2
_chemical_formula_sum   'Ho3 Er4 Cd1 Co6 Sn22'
_cell_volume   805.92281376
_cell_formula_units_Z   1
loop_
 _symmetry_equiv_pos_site_id
 _symmetry_equiv_pos_as_xyz
  1  'x, y, z'
loop_
 _atom_site_type_symbol
 _atom_site_label
 _atom_site_symmetry_multiplicity
 _atom_site_fract_x
 _atom_site_fract_y
 _atom_site_fract_z
 _atom_site_occupancy
  Ho  Ho0  1  0.479413  0.520587  0.305994  1
  Ho  Ho1  1  0.520587  0.479413  0.694006  1
  Ho  Ho2  1  0.000000  0.000000  0.000000  1
  Er  Er3  1  0.479503  0.958933  0.306083  1
  Er  Er4  1  0.520497  0.041067  0.693917  1
  Er  Er5  1  0.041067  0.520497  0.306083  1
  Er  Er6  1  0.958933  0.479503  0.693917  1
  Cd  Cd7  1  0.000000  0.000000  0.500000  1
  Co  Co8  1  0.831770  0.168230  0.197195  1
  Co  Co9  1  0.168230  0.831770  0.802805  1
  Co  Co10  1  0.831919  0.663574  0.197108  1
  Co  Co11  1  0.168081  0.336426  0.802892  1
  Co  Co12  1  0.336426  0.168081  0.197108  1
  Co  Co13  1  0.663574  0.831919  0.802892  1
  Sn  Sn14  1  0.116768  0.883232  0.271441  1
  Sn  Sn15  1  0.883232  0.116768  0.728559  1
  Sn  Sn16  1  0.116550  0.233395  0.271430  1
  Sn  Sn17  1  0.883450  0.766605  0.728570  1
  Sn  Sn18  1  0.766605  0.883450  0.271430  1
  Sn  Sn19  1  0.233395  0.116550  0.728570  1
  Sn  Sn20  1  0.782017  0.217983  0.453780  1
  Sn  Sn21  1  0.217983  0.782017  0.546220  1
  Sn  Sn22  1  0.782354  0.564056  0.453797  1
  Sn  Sn23  1  0.217646  0.435944  0.546203  1
  Sn  Sn24  1  0.435944  0.217646  0.453797  1
  Sn  Sn25  1  0.564056  0.782354  0.546203  1
  Sn  Sn26  1  0.346187  0.999957  0.999992  1
  Sn  Sn27  1  0.653813  0.000043  0.000008  1
  Sn  Sn28  1  0.999957  0.346187  0.000008  1
  Sn  Sn29  1  0.000043  0.653813  0.999992  1
  Sn  Sn30  1  0.653850  0.653850  0.000000  1
  Sn  Sn31  1  0.346150  0.346150  0.000000  1
  Sn  Sn32  1  0.333183  0.666817  0.120783  1
  Sn  Sn33  1  0.666817  0.333183  0.879217  1
  Sn  Sn34  1  0.333265  0.666735  0.818750  1
  Sn  Sn35  1  0.666735  0.333265  0.181250  1
