# generated using pymatgen
data_Sm3Be(AsPd4)5
_symmetry_space_group_name_H-M   'P 1'
_cell_length_a   8.91589074
_cell_length_b   8.81896938
_cell_length_c   8.81896886
_cell_angle_alpha   60.72843770
_cell_angle_beta   59.63577148
_cell_angle_gamma   59.63577307
_symmetry_Int_Tables_number   1
_chemical_formula_structural   Sm3Be(AsPd4)5
_chemical_formula_sum   'Sm3 Be1 As5 Pd20'
_cell_volume   490.20668838
_cell_formula_units_Z   1
loop_
 _symmetry_equiv_pos_site_id
 _symmetry_equiv_pos_as_xyz
  1  'x, y, z'
loop_
 _atom_site_type_symbol
 _atom_site_label
 _atom_site_symmetry_multiplicity
 _atom_site_fract_x
 _atom_site_fract_y
 _atom_site_fract_z
 _atom_site_occupancy
  Sm  Sm0  1  0.248506  0.251494  0.251494  1
  Sm  Sm1  1  0.748506  0.751494  0.751494  1
  Sm  Sm2  1  0.995732  0.004268  0.004268  1
  Be  Be3  1  0.730727  0.269273  0.269273  1
  As  As4  1  0.264652  0.735348  0.735348  1
  As  As5  1  0.265036  0.734964  0.265391  1
  As  As6  1  0.734609  0.265391  0.734964  1
  As  As7  1  0.265036  0.265391  0.734964  1
  As  As8  1  0.734609  0.734964  0.265391  1
  Pd  Pd9  1  0.394483  0.378322  0.378322  1
  Pd  Pd10  1  0.618433  0.616379  0.616379  1
  Pd  Pd11  1  0.383621  0.381567  0.851192  1
  Pd  Pd12  1  0.383621  0.851192  0.381567  1
  Pd  Pd13  1  0.621678  0.605517  0.151127  1
  Pd  Pd14  1  0.621678  0.151127  0.605517  1
  Pd  Pd15  1  0.848873  0.378322  0.378322  1
  Pd  Pd16  1  0.148808  0.616379  0.616379  1
  Pd  Pd17  1  0.346221  0.001689  0.001689  1
  Pd  Pd18  1  0.650402  0.001689  0.001689  1
  Pd  Pd19  1  0.998311  0.349598  0.653779  1
  Pd  Pd20  1  0.998311  0.653779  0.349598  1
  Pd  Pd21  1  0.987315  0.342426  0.012685  1
  Pd  Pd22  1  0.657574  0.012685  0.342426  1
  Pd  Pd23  1  0.001946  0.647758  0.998054  1
  Pd  Pd24  1  0.352242  0.998054  0.647758  1
  Pd  Pd25  1  0.987315  0.012685  0.342426  1
  Pd  Pd26  1  0.001946  0.998054  0.647758  1
  Pd  Pd27  1  0.657574  0.342426  0.012685  1
  Pd  Pd28  1  0.352242  0.647758  0.998054  1
