# generated using pymatgen
data_Tm3Sc2Sn3O
_symmetry_space_group_name_H-M   'P 1'
_cell_length_a   8.64758800
_cell_length_b   8.64758760
_cell_length_c   6.09759900
_cell_angle_alpha   90.00000000
_cell_angle_beta   90.00000000
_cell_angle_gamma   119.99999390
_symmetry_Int_Tables_number   1
_chemical_formula_structural   Tm3Sc2Sn3O
_chemical_formula_sum   'Tm6 Sc4 Sn6 O2'
_cell_volume   394.89303941
_cell_formula_units_Z   2
loop_
 _symmetry_equiv_pos_site_id
 _symmetry_equiv_pos_as_xyz
  1  'x, y, z'
loop_
 _atom_site_type_symbol
 _atom_site_label
 _atom_site_symmetry_multiplicity
 _atom_site_fract_x
 _atom_site_fract_y
 _atom_site_fract_z
 _atom_site_occupancy
  Tm  Tm0  1  0.000000  0.774309  0.750000  1
  Tm  Tm1  1  0.000000  0.225691  0.250000  1
  Tm  Tm2  1  0.225691  0.225691  0.750000  1
  Tm  Tm3  1  0.225691  0.000000  0.250000  1
  Tm  Tm4  1  0.774309  0.774309  0.250000  1
  Tm  Tm5  1  0.774309  0.000000  0.750000  1
  Sc  Sc6  1  0.333333  0.666667  0.000000  1
  Sc  Sc7  1  0.333333  0.666667  0.500000  1
  Sc  Sc8  1  0.666667  0.333333  0.000000  1
  Sc  Sc9  1  0.666667  0.333333  0.500000  1
  Sn  Sn10  1  0.000000  0.596985  0.250000  1
  Sn  Sn11  1  0.000000  0.403015  0.750000  1
  Sn  Sn12  1  0.403015  0.403015  0.250000  1
  Sn  Sn13  1  0.596985  0.596985  0.750000  1
  Sn  Sn14  1  0.403015  0.000000  0.750000  1
  Sn  Sn15  1  0.596985  0.000000  0.250000  1
  O  O16  1  0.000000  0.000000  0.000000  1
  O  O17  1  0.000000  0.000000  0.500000  1
