# generated using pymatgen
data_TeMo3F24
_symmetry_space_group_name_H-M   'P 1'
_cell_length_a   5.28528300
_cell_length_b   9.07084000
_cell_length_c   10.11810900
_cell_angle_alpha   90.00000000
_cell_angle_beta   89.99705337
_cell_angle_gamma   90.00000000
_symmetry_Int_Tables_number   1
_chemical_formula_structural   TeMo3F24
_chemical_formula_sum   'Te1 Mo3 F24'
_cell_volume   485.08194069
_cell_formula_units_Z   1
loop_
 _symmetry_equiv_pos_site_id
 _symmetry_equiv_pos_as_xyz
  1  'x, y, z'
loop_
 _atom_site_type_symbol
 _atom_site_label
 _atom_site_symmetry_multiplicity
 _atom_site_fract_x
 _atom_site_fract_y
 _atom_site_fract_z
 _atom_site_occupancy
  Te  Te0  1  0.902875  0.750000  0.127693  1
  Mo  Mo1  1  0.597202  0.750000  0.627694  1
  Mo  Mo2  1  0.097135  0.250000  0.872346  1
  Mo  Mo3  1  0.402989  0.250000  0.372251  1
  F  F4  1  0.554914  0.395465  0.268676  1
  F  F5  1  0.054810  0.604627  0.231273  1
  F  F6  1  0.445040  0.895506  0.731350  1
  F  F7  1  0.945042  0.104504  0.768641  1
  F  F8  1  0.182511  0.750000  0.015035  1
  F  F9  1  0.682778  0.250000  0.485061  1
  F  F10  1  0.817214  0.250000  0.985040  1
  F  F11  1  0.317218  0.750000  0.514951  1
  F  F12  1  0.622560  0.750000  0.240111  1
  F  F13  1  0.122235  0.250000  0.259791  1
  F  F14  1  0.377772  0.250000  0.759768  1
  F  F15  1  0.877734  0.750000  0.740191  1
  F  F16  1  0.750007  0.895505  0.024469  1
  F  F17  1  0.249876  0.104363  0.475626  1
  F  F18  1  0.250109  0.395600  0.975595  1
  F  F19  1  0.750090  0.604373  0.524405  1
  F  F20  1  0.250109  0.104400  0.975595  1
  F  F21  1  0.750090  0.895627  0.524405  1
  F  F22  1  0.750007  0.604495  0.024469  1
  F  F23  1  0.249876  0.395637  0.475626  1
  F  F24  1  0.054810  0.895373  0.231273  1
  F  F25  1  0.554914  0.104535  0.268676  1
  F  F26  1  0.945042  0.395496  0.768641  1
  F  F27  1  0.445040  0.604494  0.731350  1
