# generated using pymatgen
data_Cs6SmDy3Br18
_symmetry_space_group_name_H-M   'P 1'
_cell_length_a   10.54255014
_cell_length_b   10.54254939
_cell_length_c   10.54254954
_cell_angle_alpha   83.22191365
_cell_angle_beta   83.22191325
_cell_angle_gamma   83.22192376
_symmetry_Int_Tables_number   1
_chemical_formula_structural   Cs6SmDy3Br18
_chemical_formula_sum   'Cs6 Sm1 Dy3 Br18'
_cell_volume   1148.97713795
_cell_formula_units_Z   1
loop_
 _symmetry_equiv_pos_site_id
 _symmetry_equiv_pos_as_xyz
  1  'x, y, z'
loop_
 _atom_site_type_symbol
 _atom_site_label
 _atom_site_symmetry_multiplicity
 _atom_site_fract_x
 _atom_site_fract_y
 _atom_site_fract_z
 _atom_site_occupancy
  Cs  Cs0  1  0.588076  0.911820  0.250277  1
  Cs  Cs1  1  0.250277  0.588076  0.911820  1
  Cs  Cs2  1  0.911820  0.250277  0.588076  1
  Cs  Cs3  1  0.749950  0.411580  0.088290  1
  Cs  Cs4  1  0.088290  0.749950  0.411580  1
  Cs  Cs5  1  0.411580  0.088290  0.749950  1
  Sm  Sm6  1  0.848006  0.848006  0.848006  1
  Dy  Dy7  1  0.346815  0.346815  0.346815  1
  Dy  Dy8  1  0.153216  0.153216  0.153216  1
  Dy  Dy9  1  0.652678  0.652678  0.652678  1
  Br  Br10  1  0.096097  0.403843  0.250034  1
  Br  Br11  1  0.250034  0.096097  0.403843  1
  Br  Br12  1  0.403843  0.250034  0.096097  1
  Br  Br13  1  0.748393  0.904390  0.592351  1
  Br  Br14  1  0.592351  0.748393  0.904390  1
  Br  Br15  1  0.904390  0.592351  0.748393  1
  Br  Br16  1  0.235352  0.414888  0.578602  1
  Br  Br17  1  0.578602  0.235352  0.414888  1
  Br  Br18  1  0.414888  0.578602  0.235352  1
  Br  Br19  1  0.084404  0.916711  0.732242  1
  Br  Br20  1  0.732242  0.084404  0.916711  1
  Br  Br21  1  0.916711  0.732242  0.084404  1
  Br  Br22  1  0.764586  0.584945  0.421343  1
  Br  Br23  1  0.421343  0.764586  0.584945  1
  Br  Br24  1  0.584945  0.421343  0.764586  1
  Br  Br25  1  0.921408  0.085087  0.264619  1
  Br  Br26  1  0.264619  0.921408  0.085087  1
  Br  Br27  1  0.085087  0.264619  0.921408  1
