# generated using pymatgen
data_Tb6Er10MgHg3Rh4
_symmetry_space_group_name_H-M   'P 1'
_cell_length_a   9.58025970
_cell_length_b   9.55355821
_cell_length_c   9.55355900
_cell_angle_alpha   60.00000074
_cell_angle_beta   60.09215571
_cell_angle_gamma   60.09216005
_symmetry_Int_Tables_number   1
_chemical_formula_structural   Tb6Er10MgHg3Rh4
_chemical_formula_sum   'Tb6 Er10 Mg1 Hg3 Rh4'
_cell_volume   619.15044017
_cell_formula_units_Z   1
loop_
 _symmetry_equiv_pos_site_id
 _symmetry_equiv_pos_as_xyz
  1  'x, y, z'
loop_
 _atom_site_type_symbol
 _atom_site_label
 _atom_site_symmetry_multiplicity
 _atom_site_fract_x
 _atom_site_fract_y
 _atom_site_fract_z
 _atom_site_occupancy
  Tb  Tb0  1  0.935889  0.563581  0.563581  1
  Tb  Tb1  1  0.562492  0.936906  0.936906  1
  Tb  Tb2  1  0.562492  0.936906  0.563697  1
  Tb  Tb3  1  0.935889  0.563581  0.936949  1
  Tb  Tb4  1  0.562492  0.563697  0.936906  1
  Tb  Tb5  1  0.935889  0.936949  0.563581  1
  Er  Er6  1  0.351060  0.349003  0.349003  1
  Er  Er7  1  0.351060  0.349003  0.950935  1
  Er  Er8  1  0.351060  0.950935  0.349003  1
  Er  Er9  1  0.941705  0.352765  0.352765  1
  Er  Er10  1  0.810967  0.188693  0.188693  1
  Er  Er11  1  0.184730  0.814308  0.814308  1
  Er  Er12  1  0.184730  0.814308  0.186652  1
  Er  Er13  1  0.810967  0.188693  0.811649  1
  Er  Er14  1  0.184730  0.186652  0.814308  1
  Er  Er15  1  0.810967  0.811649  0.188693  1
  Mg  Mg16  1  0.284635  0.571789  0.571789  1
  Hg  Hg17  1  0.581169  0.585897  0.585897  1
  Hg  Hg18  1  0.581169  0.585897  0.247037  1
  Hg  Hg19  1  0.581169  0.247037  0.585897  1
  Rh  Rh20  1  0.140796  0.143773  0.143773  1
  Rh  Rh21  1  0.140796  0.143773  0.571658  1
  Rh  Rh22  1  0.140796  0.571658  0.143773  1
  Rh  Rh23  1  0.572353  0.142549  0.142549  1
