# generated using pymatgen
data_Rb2VNiSe4
_symmetry_space_group_name_H-M   'P 1'
_cell_length_a   14.34073083
_cell_length_b   12.81735809
_cell_length_c   7.57409226
_cell_angle_alpha   85.27459975
_cell_angle_beta   62.96574673
_cell_angle_gamma   31.75964937
_symmetry_Int_Tables_number   1
_chemical_formula_structural   Rb2VNiSe4
_chemical_formula_sum   'Rb4 V2 Ni2 Se8'
_cell_volume   496.81740102
_cell_formula_units_Z   2
loop_
 _symmetry_equiv_pos_site_id
 _symmetry_equiv_pos_as_xyz
  1  'x, y, z'
loop_
 _atom_site_type_symbol
 _atom_site_label
 _atom_site_symmetry_multiplicity
 _atom_site_fract_x
 _atom_site_fract_y
 _atom_site_fract_z
 _atom_site_occupancy
  Rb  Rb0  1  0.572191  0.572191  0.927809  1
  Rb  Rb1  1  0.927809  0.927809  0.572191  1
  Rb  Rb2  1  0.322191  0.322191  0.677809  1
  Rb  Rb3  1  0.677809  0.677809  0.322191  1
  V  V4  1  0.750000  0.750000  0.750000  1
  V  V5  1  0.500000  0.500000  0.500000  1
  Ni  Ni6  1  0.000000  0.000000  0.000000  1
  Ni  Ni7  1  0.250000  0.250000  0.250000  1
  Se  Se8  1  0.215582  0.890372  0.597349  1
  Se  Se9  1  0.296696  0.597349  0.890372  1
  Se  Se10  1  0.597349  0.296696  0.215582  1
  Se  Se11  1  0.890372  0.215582  0.296696  1
  Se  Se12  1  0.359628  0.034418  0.953304  1
  Se  Se13  1  0.953304  0.652651  0.359628  1
  Se  Se14  1  0.652651  0.953304  0.034418  1
  Se  Se15  1  0.034418  0.359628  0.652651  1
