# generated using pymatgen
data_TbTmMgB2Rh5
_symmetry_space_group_name_H-M   'P 1'
_cell_length_a   9.62973875
_cell_length_b   9.62973875
_cell_length_c   3.18916600
_cell_angle_alpha   90.00000000
_cell_angle_beta   90.00000000
_cell_angle_gamma   89.63166616
_symmetry_Int_Tables_number   1
_chemical_formula_structural   TbTmMgB2Rh5
_chemical_formula_sum   'Tb2 Tm2 Mg2 B4 Rh10'
_cell_volume   295.73121057
_cell_formula_units_Z   2
loop_
 _symmetry_equiv_pos_site_id
 _symmetry_equiv_pos_as_xyz
  1  'x, y, z'
loop_
 _atom_site_type_symbol
 _atom_site_label
 _atom_site_symmetry_multiplicity
 _atom_site_fract_x
 _atom_site_fract_y
 _atom_site_fract_z
 _atom_site_occupancy
  Tb  Tb0  1  0.676301  0.176301  0.000000  1
  Tb  Tb1  1  0.323699  0.823699  0.000000  1
  Tm  Tm2  1  0.175463  0.324537  0.000000  1
  Tm  Tm3  1  0.824537  0.675463  0.000000  1
  Mg  Mg4  1  0.000000  0.000000  0.000000  1
  Mg  Mg5  1  0.500000  0.500000  0.000000  1
  B  B6  1  0.121775  0.621775  0.000000  1
  B  B7  1  0.878225  0.378225  0.000000  1
  B  B8  1  0.623032  0.876968  0.000000  1
  B  B9  1  0.376968  0.123032  0.000000  1
  Rh  Rh10  1  0.500000  0.000000  0.500000  1
  Rh  Rh11  1  0.000000  0.500000  0.500000  1
  Rh  Rh12  1  0.222965  0.072734  0.500000  1
  Rh  Rh13  1  0.777035  0.927266  0.500000  1
  Rh  Rh14  1  0.067627  0.774687  0.500000  1
  Rh  Rh15  1  0.725313  0.432373  0.500000  1
  Rh  Rh16  1  0.932373  0.225313  0.500000  1
  Rh  Rh17  1  0.274687  0.567627  0.500000  1
  Rh  Rh18  1  0.572734  0.722965  0.500000  1
  Rh  Rh19  1  0.427266  0.277035  0.500000  1
