# generated using pymatgen
data_TbCe(Al5Os)4
_symmetry_space_group_name_H-M   'P 1'
_cell_length_a   6.87202535
_cell_length_b   6.87202496
_cell_length_c   9.16189500
_cell_angle_alpha   90.00000000
_cell_angle_beta   90.00000000
_cell_angle_gamma   96.79254986
_symmetry_Int_Tables_number   1
_chemical_formula_structural   TbCe(Al5Os)4
_chemical_formula_sum   'Tb1 Ce1 Al20 Os4'
_cell_volume   429.63107327
_cell_formula_units_Z   1
loop_
 _symmetry_equiv_pos_site_id
 _symmetry_equiv_pos_as_xyz
  1  'x, y, z'
loop_
 _atom_site_type_symbol
 _atom_site_label
 _atom_site_symmetry_multiplicity
 _atom_site_fract_x
 _atom_site_fract_y
 _atom_site_fract_z
 _atom_site_occupancy
  Tb  Tb0  1  0.369779  0.630221  0.250000  1
  Ce  Ce1  1  0.627082  0.372918  0.750000  1
  Al  Al2  1  0.281188  0.018238  0.750000  1
  Al  Al3  1  0.018485  0.282489  0.250000  1
  Al  Al4  1  0.717511  0.981515  0.250000  1
  Al  Al5  1  0.981762  0.718812  0.750000  1
  Al  Al6  1  0.877345  0.122655  0.950187  1
  Al  Al7  1  0.123616  0.876384  0.047042  1
  Al  Al8  1  0.877345  0.122655  0.549813  1
  Al  Al9  1  0.123616  0.876384  0.452958  1
  Al  Al10  1  0.643158  0.911378  0.750000  1
  Al  Al11  1  0.917467  0.646493  0.250000  1
  Al  Al12  1  0.353507  0.082533  0.250000  1
  Al  Al13  1  0.088622  0.356842  0.750000  1
  Al  Al14  1  0.342581  0.657419  0.898863  1
  Al  Al15  1  0.658312  0.341688  0.102819  1
  Al  Al16  1  0.342581  0.657419  0.601137  1
  Al  Al17  1  0.658312  0.341688  0.397181  1
  Al  Al18  1  0.723683  0.724441  0.001685  1
  Al  Al19  1  0.723683  0.724441  0.498315  1
  Al  Al20  1  0.275559  0.276317  0.001685  1
  Al  Al21  1  0.275559  0.276317  0.498315  1
  Os  Os22  1  0.500365  0.000743  0.999958  1
  Os  Os23  1  0.999257  0.499635  0.999958  1
  Os  Os24  1  0.500365  0.000743  0.500042  1
  Os  Os25  1  0.999257  0.499635  0.500042  1
