# generated using pymatgen
data_Ag2AsSe2
_symmetry_space_group_name_H-M   'P 1'
_cell_length_a   13.67120700
_cell_length_b   7.21875237
_cell_length_c   10.13957312
_cell_angle_alpha   80.63003709
_cell_angle_beta   90.00000000
_cell_angle_gamma   90.00000000
_symmetry_Int_Tables_number   1
_chemical_formula_structural   Ag2AsSe2
_chemical_formula_sum   'Ag16 As8 Se16'
_cell_volume   987.31369617
_cell_formula_units_Z   8
loop_
 _symmetry_equiv_pos_site_id
 _symmetry_equiv_pos_as_xyz
  1  'x, y, z'
loop_
 _atom_site_type_symbol
 _atom_site_label
 _atom_site_symmetry_multiplicity
 _atom_site_fract_x
 _atom_site_fract_y
 _atom_site_fract_z
 _atom_site_occupancy
  Ag  Ag0  1  0.591489  0.079670  0.238862  1
  Ag  Ag1  1  0.408511  0.579670  0.238862  1
  Ag  Ag2  1  0.900100  0.782563  0.040372  1
  Ag  Ag3  1  0.099900  0.282563  0.040372  1
  Ag  Ag4  1  0.904079  0.374206  0.694593  1
  Ag  Ag5  1  0.095921  0.874206  0.694593  1
  Ag  Ag6  1  0.890781  0.872956  0.363444  1
  Ag  Ag7  1  0.109219  0.372956  0.363444  1
  Ag  Ag8  1  0.607282  0.593620  0.562662  1
  Ag  Ag9  1  0.392718  0.093620  0.562662  1
  Ag  Ag10  1  0.803089  0.193074  0.952723  1
  Ag  Ag11  1  0.196911  0.693074  0.952723  1
  Ag  Ag12  1  0.497992  0.845188  0.833115  1
  Ag  Ag13  1  0.502008  0.345188  0.833115  1
  Ag  Ag14  1  0.682816  0.643837  0.962647  1
  Ag  Ag15  1  0.317184  0.143837  0.962647  1
  As  As16  1  0.691749  0.552241  0.319697  1
  As  As17  1  0.308251  0.052241  0.319697  1
  As  As18  1  0.686526  0.146062  0.615427  1
  As  As19  1  0.313474  0.646062  0.615427  1
  As  As20  1  0.831866  0.319380  0.307631  1
  As  As21  1  0.168134  0.819380  0.307631  1
  As  As22  1  0.819658  0.897461  0.621416  1
  As  As23  1  0.180342  0.397461  0.621416  1
  Se  Se24  1  0.581776  0.449868  0.157211  1
  Se  Se25  1  0.418224  0.949868  0.157211  1
  Se  Se26  1  0.921190  0.002633  0.792615  1
  Se  Se27  1  0.078810  0.502633  0.792615  1
  Se  Se28  1  0.745164  0.854673  0.195109  1
  Se  Se29  1  0.254836  0.354673  0.195109  1
  Se  Se30  1  0.751056  0.603500  0.733024  1
  Se  Se31  1  0.248944  0.103500  0.733024  1
  Se  Se32  1  0.633053  0.090489  0.850585  1
  Se  Se33  1  0.366947  0.590489  0.850585  1
  Se  Se34  1  0.566391  0.971438  0.511751  1
  Se  Se35  1  0.433609  0.471438  0.511751  1
  Se  Se36  1  0.904040  0.402987  0.086592  1
  Se  Se37  1  0.095960  0.902987  0.086592  1
  Se  Se38  1  0.937221  0.495054  0.432825  1
  Se  Se39  1  0.062779  0.995054  0.432825  1
