# generated using pymatgen
data_BaThCr4N7
_symmetry_space_group_name_H-M   'P 1'
_cell_length_a   6.33084000
_cell_length_b   6.33083890
_cell_length_c   10.41801200
_cell_angle_alpha   90.00000000
_cell_angle_beta   90.00000000
_cell_angle_gamma   120.00000573
_symmetry_Int_Tables_number   1
_chemical_formula_structural   BaThCr4N7
_chemical_formula_sum   'Ba2 Th2 Cr8 N14'
_cell_volume   361.60802502
_cell_formula_units_Z   2
loop_
 _symmetry_equiv_pos_site_id
 _symmetry_equiv_pos_as_xyz
  1  'x, y, z'
loop_
 _atom_site_type_symbol
 _atom_site_label
 _atom_site_symmetry_multiplicity
 _atom_site_fract_x
 _atom_site_fract_y
 _atom_site_fract_z
 _atom_site_occupancy
  Ba  Ba0  1  0.333333  0.666667  0.368454  1
  Ba  Ba1  1  0.666667  0.333333  0.868454  1
  Th  Th2  1  0.333333  0.666667  0.738888  1
  Th  Th3  1  0.666667  0.333333  0.238888  1
  Cr  Cr4  1  0.830361  0.660720  0.549456  1
  Cr  Cr5  1  0.169639  0.830361  0.049456  1
  Cr  Cr6  1  0.660720  0.830361  0.049456  1
  Cr  Cr7  1  0.339280  0.169639  0.549456  1
  Cr  Cr8  1  0.830361  0.169639  0.549456  1
  Cr  Cr9  1  0.169639  0.339280  0.049456  1
  Cr  Cr10  1  0.000000  0.000000  0.802986  1
  Cr  Cr11  1  0.000000  0.000000  0.302986  1
  N  N12  1  0.000000  0.000000  0.617198  1
  N  N13  1  0.000000  0.000000  0.117198  1
  N  N14  1  0.154032  0.308062  0.871123  1
  N  N15  1  0.845968  0.154032  0.371123  1
  N  N16  1  0.308062  0.154032  0.371123  1
  N  N17  1  0.691938  0.845968  0.871123  1
  N  N18  1  0.154032  0.845968  0.871123  1
  N  N19  1  0.845968  0.691938  0.371123  1
  N  N20  1  0.982822  0.491411  0.601546  1
  N  N21  1  0.491411  0.982822  0.101546  1
  N  N22  1  0.491411  0.508589  0.101546  1
  N  N23  1  0.508589  0.491411  0.601546  1
  N  N24  1  0.017178  0.508589  0.101546  1
  N  N25  1  0.508589  0.017178  0.601546  1
