# generated using pymatgen
data_Er6TmFeO12
_symmetry_space_group_name_H-M   'P 1'
_cell_length_a   6.59366632
_cell_length_b   6.59366511
_cell_length_c   6.59366600
_cell_angle_alpha   93.11131662
_cell_angle_beta   93.11132476
_cell_angle_gamma   93.11132333
_symmetry_Int_Tables_number   1
_chemical_formula_structural   Er6TmFeO12
_chemical_formula_sum   'Er6 Tm1 Fe1 O12'
_cell_volume   285.35344074
_cell_formula_units_Z   1
loop_
 _symmetry_equiv_pos_site_id
 _symmetry_equiv_pos_as_xyz
  1  'x, y, z'
loop_
 _atom_site_type_symbol
 _atom_site_label
 _atom_site_symmetry_multiplicity
 _atom_site_fract_x
 _atom_site_fract_y
 _atom_site_fract_z
 _atom_site_occupancy
  Er  Er0  1  0.740519  0.924936  0.436222  1
  Er  Er1  1  0.924936  0.436222  0.740519  1
  Er  Er2  1  0.436222  0.740519  0.924936  1
  Er  Er3  1  0.259481  0.075064  0.563778  1
  Er  Er4  1  0.075064  0.563778  0.259481  1
  Er  Er5  1  0.563778  0.259481  0.075064  1
  Tm  Tm6  1  0.000000  0.000000  0.000000  1
  Fe  Fe7  1  0.500000  0.500000  0.500000  1
  O  O8  1  0.589807  0.462652  0.801870  1
  O  O9  1  0.462652  0.801870  0.589807  1
  O  O10  1  0.801870  0.589807  0.462652  1
  O  O11  1  0.410193  0.537348  0.198130  1
  O  O12  1  0.537348  0.198130  0.410193  1
  O  O13  1  0.198130  0.410193  0.537348  1
  O  O14  1  0.068458  0.908309  0.317654  1
  O  O15  1  0.908309  0.317654  0.068458  1
  O  O16  1  0.682346  0.931542  0.091691  1
  O  O17  1  0.091691  0.682346  0.931542  1
  O  O18  1  0.931542  0.091691  0.682346  1
  O  O19  1  0.317654  0.068458  0.908309  1
