# generated using pymatgen
data_ErTm9Ir5Au
_symmetry_space_group_name_H-M   'P 1'
_cell_length_a   10.90832621
_cell_length_b   10.85773700
_cell_length_c   6.29505143
_cell_angle_alpha   90.00000000
_cell_angle_beta   89.92248200
_cell_angle_gamma   90.00000000
_symmetry_Int_Tables_number   1
_chemical_formula_structural   ErTm9Ir5Au
_chemical_formula_sum   'Er2 Tm18 Ir10 Au2'
_cell_volume   745.58355475
_cell_formula_units_Z   2
loop_
 _symmetry_equiv_pos_site_id
 _symmetry_equiv_pos_as_xyz
  1  'x, y, z'
loop_
 _atom_site_type_symbol
 _atom_site_label
 _atom_site_symmetry_multiplicity
 _atom_site_fract_x
 _atom_site_fract_y
 _atom_site_fract_z
 _atom_site_occupancy
  Er  Er0  1  0.291657  0.088013  0.371816  1
  Er  Er1  1  0.291657  0.911987  0.871816  1
  Tm  Tm2  1  0.697703  0.091790  0.866994  1
  Tm  Tm3  1  0.697703  0.908210  0.366994  1
  Tm  Tm4  1  0.577630  0.789729  0.877084  1
  Tm  Tm5  1  0.577630  0.210271  0.377084  1
  Tm  Tm6  1  0.409366  0.790902  0.376382  1
  Tm  Tm7  1  0.409366  0.209098  0.876382  1
  Tm  Tm8  1  0.209263  0.412083  0.621847  1
  Tm  Tm9  1  0.209263  0.587917  0.121847  1
  Tm  Tm10  1  0.790677  0.420202  0.123128  1
  Tm  Tm11  1  0.790677  0.579798  0.623128  1
  Tm  Tm12  1  0.917687  0.705027  0.137946  1
  Tm  Tm13  1  0.917687  0.294973  0.637946  1
  Tm  Tm14  1  0.095320  0.702641  0.623015  1
  Tm  Tm15  1  0.095320  0.297359  0.123015  1
  Tm  Tm16  1  0.008662  0.997990  0.500352  1
  Tm  Tm17  1  0.008662  0.002010  0.000352  1
  Tm  Tm18  1  0.500184  0.498695  0.000684  1
  Tm  Tm19  1  0.500184  0.501305  0.500684  1
  Ir  Ir20  1  0.153567  0.154740  0.750276  1
  Ir  Ir21  1  0.153567  0.845260  0.250276  1
  Ir  Ir22  1  0.655986  0.346383  0.748036  1
  Ir  Ir23  1  0.655986  0.653617  0.248036  1
  Ir  Ir24  1  0.347728  0.346449  0.251711  1
  Ir  Ir25  1  0.347728  0.653551  0.751711  1
  Ir  Ir26  1  0.499824  0.000124  0.120093  1
  Ir  Ir27  1  0.499824  0.999876  0.620093  1
  Ir  Ir28  1  0.000462  0.500792  0.879784  1
  Ir  Ir29  1  0.000462  0.499208  0.379784  1
  Au  Au30  1  0.844283  0.154963  0.250851  1
  Au  Au31  1  0.844283  0.845037  0.750851  1
