# generated using pymatgen
data_Dy12Y8(Ir3Rh)3
_symmetry_space_group_name_H-M   'P 1'
_cell_length_a   10.90121200
_cell_length_b   10.90121200
_cell_length_c   6.39950600
_cell_angle_alpha   90.00000000
_cell_angle_beta   90.00000000
_cell_angle_gamma   90.00000000
_symmetry_Int_Tables_number   1
_chemical_formula_structural   Dy12Y8(Ir3Rh)3
_chemical_formula_sum   'Dy12 Y8 Ir9 Rh3'
_cell_volume   760.49440245
_cell_formula_units_Z   1
loop_
 _symmetry_equiv_pos_site_id
 _symmetry_equiv_pos_as_xyz
  1  'x, y, z'
loop_
 _atom_site_type_symbol
 _atom_site_label
 _atom_site_symmetry_multiplicity
 _atom_site_fract_x
 _atom_site_fract_y
 _atom_site_fract_z
 _atom_site_occupancy
  Dy  Dy0  1  0.208436  0.411211  0.618592  1
  Dy  Dy1  1  0.208863  0.589136  0.121079  1
  Dy  Dy2  1  0.791137  0.410864  0.121079  1
  Dy  Dy3  1  0.791564  0.588789  0.618592  1
  Dy  Dy4  1  0.910864  0.708863  0.121079  1
  Dy  Dy5  1  0.911211  0.291564  0.618592  1
  Dy  Dy6  1  0.088789  0.708436  0.618592  1
  Dy  Dy7  1  0.089136  0.291137  0.121079  1
  Dy  Dy8  1  0.000000  0.000000  0.500275  1
  Dy  Dy9  1  0.000000  0.000000  0.000046  1
  Dy  Dy10  1  0.500000  0.500000  0.000046  1
  Dy  Dy11  1  0.500000  0.500000  0.500275  1
  Y  Y12  1  0.290297  0.088845  0.379862  1
  Y  Y13  1  0.290166  0.910667  0.879625  1
  Y  Y14  1  0.709834  0.089333  0.879625  1
  Y  Y15  1  0.709703  0.911155  0.379862  1
  Y  Y16  1  0.589333  0.790166  0.879625  1
  Y  Y17  1  0.588845  0.209703  0.379862  1
  Y  Y18  1  0.411155  0.790297  0.379862  1
  Y  Y19  1  0.410667  0.209834  0.879625  1
  Ir  Ir20  1  0.846521  0.153476  0.250332  1
  Ir  Ir21  1  0.846800  0.846042  0.750278  1
  Ir  Ir22  1  0.153200  0.153958  0.750278  1
  Ir  Ir23  1  0.153479  0.846524  0.250332  1
  Ir  Ir24  1  0.653958  0.346800  0.750278  1
  Ir  Ir25  1  0.653476  0.653479  0.250332  1
  Ir  Ir26  1  0.346524  0.346521  0.250332  1
  Ir  Ir27  1  0.346042  0.653200  0.750278  1
  Ir  Ir28  1  0.000000  0.500000  0.374512  1
  Rh  Rh29  1  0.500000  0.000000  0.124954  1
  Rh  Rh30  1  0.500000  0.000000  0.625333  1
  Rh  Rh31  1  0.000000  0.500000  0.875490  1
