# generated using pymatgen
data_DyTm2Zr7Pb6
_symmetry_space_group_name_H-M   'P 1'
_cell_length_a   8.75997200
_cell_length_b   8.77910970
_cell_length_c   6.03503800
_cell_angle_alpha   90.00000000
_cell_angle_beta   90.00000000
_cell_angle_gamma   119.92792274
_symmetry_Int_Tables_number   1
_chemical_formula_structural   DyTm2Zr7Pb6
_chemical_formula_sum   'Dy1 Tm2 Zr7 Pb6'
_cell_volume   402.23402405
_cell_formula_units_Z   1
loop_
 _symmetry_equiv_pos_site_id
 _symmetry_equiv_pos_as_xyz
  1  'x, y, z'
loop_
 _atom_site_type_symbol
 _atom_site_label
 _atom_site_symmetry_multiplicity
 _atom_site_fract_x
 _atom_site_fract_y
 _atom_site_fract_z
 _atom_site_occupancy
  Dy  Dy0  1  0.760644  0.000000  0.750000  1
  Tm  Tm1  1  0.760549  0.757665  0.250000  1
  Tm  Tm2  1  0.002884  0.242335  0.250000  1
  Zr  Zr3  1  0.330813  0.667096  0.501112  1
  Zr  Zr4  1  0.244149  0.000000  0.250000  1
  Zr  Zr5  1  0.663718  0.332904  0.501112  1
  Zr  Zr6  1  0.002383  0.755380  0.750000  1
  Zr  Zr7  1  0.330813  0.667096  0.998888  1
  Zr  Zr8  1  0.247003  0.244620  0.750000  1
  Zr  Zr9  1  0.663718  0.332904  0.998888  1
  Pb  Pb10  1  0.606376  0.604621  0.750000  1
  Pb  Pb11  1  0.388451  0.000000  0.750000  1
  Pb  Pb12  1  0.601769  0.000000  0.250000  1
  Pb  Pb13  1  0.001756  0.395379  0.750000  1
  Pb  Pb14  1  0.393698  0.392422  0.250000  1
  Pb  Pb15  1  0.001276  0.607578  0.250000  1
