# generated using pymatgen
data_NaSr2ReN4
_symmetry_space_group_name_H-M   'P 1'
_cell_length_a   6.06467500
_cell_length_b   6.21760076
_cell_length_c   7.26626797
_cell_angle_alpha   76.80052099
_cell_angle_beta   90.00000000
_cell_angle_gamma   90.00000000
_symmetry_Int_Tables_number   1
_chemical_formula_structural   NaSr2ReN4
_chemical_formula_sum   'Na2 Sr4 Re2 N8'
_cell_volume   266.75579004
_cell_formula_units_Z   2
loop_
 _symmetry_equiv_pos_site_id
 _symmetry_equiv_pos_as_xyz
  1  'x, y, z'
loop_
 _atom_site_type_symbol
 _atom_site_label
 _atom_site_symmetry_multiplicity
 _atom_site_fract_x
 _atom_site_fract_y
 _atom_site_fract_z
 _atom_site_occupancy
  Na  Na0  1  0.750000  0.263833  0.309886  1
  Na  Na1  1  0.250000  0.736167  0.690114  1
  Sr  Sr2  1  0.250000  0.272070  0.035624  1
  Sr  Sr3  1  0.750000  0.727930  0.964376  1
  Sr  Sr4  1  0.750000  0.736200  0.458901  1
  Sr  Sr5  1  0.250000  0.263800  0.541099  1
  Re  Re6  1  0.250000  0.738398  0.205916  1
  Re  Re7  1  0.750000  0.261602  0.794084  1
  N  N8  1  0.510143  0.448482  0.744655  1
  N  N9  1  0.010143  0.551518  0.255345  1
  N  N10  1  0.489857  0.551518  0.255345  1
  N  N11  1  0.989857  0.448482  0.744655  1
  N  N12  1  0.750000  0.057286  0.644006  1
  N  N13  1  0.250000  0.942714  0.355994  1
  N  N14  1  0.750000  0.115243  0.040833  1
  N  N15  1  0.250000  0.884757  0.959167  1
