# generated using pymatgen
data_Er11In9PdRu3
_symmetry_space_group_name_H-M   'P 1'
_cell_length_a   12.98658933
_cell_length_b   13.01748579
_cell_length_c   3.67707900
_cell_angle_alpha   90.00000000
_cell_angle_beta   90.00000000
_cell_angle_gamma   111.98519632
_symmetry_Int_Tables_number   1
_chemical_formula_structural   Er11In9PdRu3
_chemical_formula_sum   'Er11 In9 Pd1 Ru3'
_cell_volume   576.41644055
_cell_formula_units_Z   1
loop_
 _symmetry_equiv_pos_site_id
 _symmetry_equiv_pos_as_xyz
  1  'x, y, z'
loop_
 _atom_site_type_symbol
 _atom_site_label
 _atom_site_symmetry_multiplicity
 _atom_site_fract_x
 _atom_site_fract_y
 _atom_site_fract_z
 _atom_site_occupancy
  Er  Er0  1  0.416701  0.077828  0.000000  1
  Er  Er1  1  0.582298  0.920826  0.000000  1
  Er  Er2  1  0.082043  0.417957  0.000000  1
  Er  Er3  1  0.928620  0.584210  0.000000  1
  Er  Er4  1  0.161084  0.839470  0.000000  1
  Er  Er5  1  0.837907  0.161225  0.000000  1
  Er  Er6  1  0.374020  0.624421  0.000000  1
  Er  Er7  1  0.618490  0.368076  0.000000  1
  Er  Er8  1  0.312395  0.312457  0.000000  1
  Er  Er9  1  0.682979  0.691281  0.000000  1
  Er  Er10  1  0.001023  0.001495  0.000000  1
  In  In11  1  0.367624  0.843107  0.500000  1
  In  In12  1  0.629842  0.157886  0.500000  1
  In  In13  1  0.845460  0.368802  0.500000  1
  In  In14  1  0.157421  0.630924  0.500000  1
  In  In15  1  0.218831  0.074946  0.500000  1
  In  In16  1  0.780420  0.924430  0.500000  1
  In  In17  1  0.074334  0.218959  0.500000  1
  In  In18  1  0.927200  0.783432  0.500000  1
  In  In19  1  0.500848  0.499293  0.500000  1
  Pd  Pd20  1  0.753601  0.550311  0.500000  1
  Ru  Ru21  1  0.446533  0.247005  0.500000  1
  Ru  Ru22  1  0.547977  0.750585  0.500000  1
  Ru  Ru23  1  0.252353  0.451071  0.500000  1
