# generated using pymatgen
data_NaLa6Cd22Se
_symmetry_space_group_name_H-M   'P 1'
_cell_length_a   10.16841141
_cell_length_b   10.16841078
_cell_length_c   10.16841100
_cell_angle_alpha   60.00000254
_cell_angle_beta   60.00000458
_cell_angle_gamma   60.00000477
_symmetry_Int_Tables_number   1
_chemical_formula_structural   NaLa6Cd22Se
_chemical_formula_sum   'Na1 La6 Cd22 Se1'
_cell_volume   743.43726178
_cell_formula_units_Z   1
loop_
 _symmetry_equiv_pos_site_id
 _symmetry_equiv_pos_as_xyz
  1  'x, y, z'
loop_
 _atom_site_type_symbol
 _atom_site_label
 _atom_site_symmetry_multiplicity
 _atom_site_fract_x
 _atom_site_fract_y
 _atom_site_fract_z
 _atom_site_occupancy
  Na  Na0  1  0.500000  0.500000  0.500000  1
  La  La1  1  0.788859  0.788859  0.211141  1
  La  La2  1  0.211141  0.788859  0.211141  1
  La  La3  1  0.788859  0.211141  0.211141  1
  La  La4  1  0.211141  0.211141  0.788859  1
  La  La5  1  0.788859  0.211141  0.788859  1
  La  La6  1  0.211141  0.788859  0.788859  1
  Cd  Cd7  1  0.831274  0.831274  0.506178  1
  Cd  Cd8  1  0.831274  0.506178  0.831274  1
  Cd  Cd9  1  0.506178  0.831274  0.831274  1
  Cd  Cd10  1  0.831274  0.831274  0.831274  1
  Cd  Cd11  1  0.168726  0.168726  0.493822  1
  Cd  Cd12  1  0.168726  0.493822  0.168726  1
  Cd  Cd13  1  0.493822  0.168726  0.168726  1
  Cd  Cd14  1  0.168726  0.168726  0.168726  1
  Cd  Cd15  1  0.621191  0.621191  0.136426  1
  Cd  Cd16  1  0.621191  0.136426  0.621191  1
  Cd  Cd17  1  0.136426  0.621191  0.621191  1
  Cd  Cd18  1  0.621191  0.621191  0.621191  1
  Cd  Cd19  1  0.378809  0.378809  0.863574  1
  Cd  Cd20  1  0.378809  0.863574  0.378809  1
  Cd  Cd21  1  0.863574  0.378809  0.378809  1
  Cd  Cd22  1  0.378809  0.378809  0.378809  1
  Cd  Cd23  1  0.000000  0.000000  0.500000  1
  Cd  Cd24  1  0.500000  0.000000  0.500000  1
  Cd  Cd25  1  0.000000  0.500000  0.500000  1
  Cd  Cd26  1  0.500000  0.500000  0.000000  1
  Cd  Cd27  1  0.000000  0.500000  0.000000  1
  Cd  Cd28  1  0.500000  0.000000  0.000000  1
  Se  Se29  1  0.000000  0.000000  0.000000  1
