# generated using pymatgen
data_Y9Ho7(CdCo)4
_symmetry_space_group_name_H-M   'P 1'
_cell_length_a   9.53555807
_cell_length_b   9.51940359
_cell_length_c   9.53862550
_cell_angle_alpha   60.01115238
_cell_angle_beta   59.83459585
_cell_angle_gamma   59.88756222
_symmetry_Int_Tables_number   1
_chemical_formula_structural   Y9Ho7(CdCo)4
_chemical_formula_sum   'Y9 Ho7 Cd4 Co4'
_cell_volume   611.00924342
_cell_formula_units_Z   1
loop_
 _symmetry_equiv_pos_site_id
 _symmetry_equiv_pos_as_xyz
  1  'x, y, z'
loop_
 _atom_site_type_symbol
 _atom_site_label
 _atom_site_symmetry_multiplicity
 _atom_site_fract_x
 _atom_site_fract_y
 _atom_site_fract_z
 _atom_site_occupancy
  Y  Y0  1  0.939051  0.938917  0.561400  1
  Y  Y1  1  0.810469  0.188208  0.187009  1
  Y  Y2  1  0.939087  0.561229  0.562820  1
  Y  Y3  1  0.938530  0.560914  0.938491  1
  Y  Y4  1  0.811286  0.811499  0.186319  1
  Y  Y5  1  0.345634  0.345631  0.346064  1
  Y  Y6  1  0.560509  0.938924  0.939026  1
  Y  Y7  1  0.561733  0.938617  0.563375  1
  Y  Y8  1  0.186707  0.811471  0.811786  1
  Ho  Ho9  1  0.187684  0.187650  0.810526  1
  Ho  Ho10  1  0.347266  0.347106  0.962212  1
  Ho  Ho11  1  0.346945  0.962888  0.347183  1
  Ho  Ho12  1  0.811148  0.187298  0.811569  1
  Ho  Ho13  1  0.561489  0.561199  0.939594  1
  Ho  Ho14  1  0.188697  0.810127  0.187351  1
  Ho  Ho15  1  0.962710  0.346755  0.347278  1
  Cd  Cd16  1  0.580417  0.579662  0.257959  1
  Cd  Cd17  1  0.258582  0.579901  0.579932  1
  Cd  Cd18  1  0.579194  0.580014  0.579385  1
  Cd  Cd19  1  0.579832  0.258659  0.579508  1
  Co  Co20  1  0.576658  0.142996  0.138750  1
  Co  Co21  1  0.144266  0.140521  0.141506  1
  Co  Co22  1  0.142823  0.576658  0.142579  1
  Co  Co23  1  0.139287  0.143160  0.578381  1
