# generated using pymatgen
data_LuMg2Ta7B20
_symmetry_space_group_name_H-M   'P 1'
_cell_length_a   6.16864681
_cell_length_b   7.05181807
_cell_length_c   7.49642229
_cell_angle_alpha   94.63376781
_cell_angle_beta   101.95510180
_cell_angle_gamma   115.84621349
_symmetry_Int_Tables_number   1
_chemical_formula_structural   LuMg2Ta7B20
_chemical_formula_sum   'Lu1 Mg2 Ta7 B20'
_cell_volume   281.63696446
_cell_formula_units_Z   1
loop_
 _symmetry_equiv_pos_site_id
 _symmetry_equiv_pos_as_xyz
  1  'x, y, z'
loop_
 _atom_site_type_symbol
 _atom_site_label
 _atom_site_symmetry_multiplicity
 _atom_site_fract_x
 _atom_site_fract_y
 _atom_site_fract_z
 _atom_site_occupancy
  Lu  Lu0  1  0.999608  0.997812  0.999444  1
  Mg  Mg1  1  0.496385  0.996881  0.997602  1
  Mg  Mg2  1  0.004516  0.604772  0.803488  1
  Ta  Ta3  1  0.497537  0.793762  0.400058  1
  Ta  Ta4  1  0.998059  0.396221  0.203562  1
  Ta  Ta5  1  0.504230  0.206289  0.598073  1
  Ta  Ta6  1  0.000454  0.801409  0.399153  1
  Ta  Ta7  1  0.498998  0.601035  0.797990  1
  Ta  Ta8  1  0.499273  0.396693  0.201340  1
  Ta  Ta9  1  0.000876  0.205149  0.599639  1
  B  B10  1  0.336444  0.234547  0.866159  1
  B  B11  1  0.331787  0.631340  0.068176  1
  B  B12  1  0.167776  0.370014  0.931601  1
  B  B13  1  0.336523  0.031447  0.268440  1
  B  B14  1  0.168525  0.763213  0.135720  1
  B  B15  1  0.831174  0.235456  0.863843  1
  B  B16  1  0.167363  0.166458  0.335318  1
  B  B17  1  0.832472  0.628738  0.067925  1
  B  B18  1  0.333411  0.434013  0.466321  1
  B  B19  1  0.666704  0.366528  0.933610  1
  B  B20  1  0.829499  0.030936  0.268051  1
  B  B21  1  0.662683  0.764410  0.133884  1
  B  B22  1  0.332467  0.834960  0.665097  1
  B  B23  1  0.166906  0.568446  0.536053  1
  B  B24  1  0.666395  0.165129  0.334803  1
  B  B25  1  0.835008  0.435413  0.469104  1
  B  B26  1  0.168309  0.968166  0.727672  1
  B  B27  1  0.833716  0.833467  0.663383  1
  B  B28  1  0.668680  0.567888  0.534755  1
  B  B29  1  0.664221  0.969401  0.729736  1
