# generated using pymatgen
data_La4Al15(GaIr2)3
_symmetry_space_group_name_H-M   'P 1'
_cell_length_a   7.64024708
_cell_length_b   7.64035486
_cell_length_c   9.72666800
_cell_angle_alpha   90.00000000
_cell_angle_beta   90.00000000
_cell_angle_gamma   119.22787420
_symmetry_Int_Tables_number   1
_chemical_formula_structural   La4Al15(GaIr2)3
_chemical_formula_sum   'La4 Al15 Ga3 Ir6'
_cell_volume   495.49851145
_cell_formula_units_Z   1
loop_
 _symmetry_equiv_pos_site_id
 _symmetry_equiv_pos_as_xyz
  1  'x, y, z'
loop_
 _atom_site_type_symbol
 _atom_site_label
 _atom_site_symmetry_multiplicity
 _atom_site_fract_x
 _atom_site_fract_y
 _atom_site_fract_z
 _atom_site_occupancy
  La  La0  1  0.998572  0.674949  0.250000  1
  La  La1  1  0.003937  0.325407  0.750000  1
  La  La2  1  0.669916  0.990882  0.250000  1
  La  La3  1  0.325033  0.002772  0.750000  1
  Al  Al4  1  0.004675  0.335843  0.070670  1
  Al  Al5  1  0.996423  0.663215  0.927531  1
  Al  Al6  1  0.996423  0.663215  0.572469  1
  Al  Al7  1  0.337167  0.007437  0.428999  1
  Al  Al8  1  0.004675  0.335843  0.429330  1
  Al  Al9  1  0.663207  0.996784  0.572265  1
  Al  Al10  1  0.663207  0.996784  0.927735  1
  Al  Al11  1  0.337167  0.007437  0.071001  1
  Al  Al12  1  0.335478  0.335871  0.552263  1
  Al  Al13  1  0.665304  0.664699  0.459250  1
  Al  Al14  1  0.665304  0.664699  0.040750  1
  Al  Al15  1  0.335478  0.335871  0.947737  1
  Al  Al16  1  0.661474  0.453312  0.750000  1
  Al  Al17  1  0.547202  0.339823  0.250000  1
  Al  Al18  1  0.453036  0.661362  0.750000  1
  Ga  Ga19  1  0.135457  0.135909  0.250000  1
  Ga  Ga20  1  0.860915  0.861185  0.750000  1
  Ga  Ga21  1  0.338321  0.541232  0.250000  1
  Ir  Ir22  1  0.670564  0.330892  0.000482  1
  Ir  Ir23  1  0.330268  0.671712  0.997969  1
  Ir  Ir24  1  0.330268  0.671712  0.502031  1
  Ir  Ir25  1  0.670564  0.330892  0.499518  1
  Ir  Ir26  1  0.999984  0.000131  0.999656  1
  Ir  Ir27  1  0.999984  0.000131  0.500344  1
