# generated using pymatgen
data_Tb4ReTcOs6
_symmetry_space_group_name_H-M   'P 1'
_cell_length_a   5.27208071
_cell_length_b   5.27208145
_cell_length_c   8.95314400
_cell_angle_alpha   90.00000000
_cell_angle_beta   90.00000000
_cell_angle_gamma   117.33808787
_symmetry_Int_Tables_number   1
_chemical_formula_structural   Tb4ReTcOs6
_chemical_formula_sum   'Tb4 Re1 Tc1 Os6'
_cell_volume   221.05753909
_cell_formula_units_Z   1
loop_
 _symmetry_equiv_pos_site_id
 _symmetry_equiv_pos_as_xyz
  1  'x, y, z'
loop_
 _atom_site_type_symbol
 _atom_site_label
 _atom_site_symmetry_multiplicity
 _atom_site_fract_x
 _atom_site_fract_y
 _atom_site_fract_z
 _atom_site_occupancy
  Tb  Tb0  1  0.330731  0.669269  0.435871  1
  Tb  Tb1  1  0.666570  0.333430  0.563970  1
  Tb  Tb2  1  0.666570  0.333430  0.936030  1
  Tb  Tb3  1  0.330731  0.669269  0.064129  1
  Re  Re4  1  0.831848  0.168152  0.250000  1
  Tc  Tc5  1  0.176158  0.823842  0.750000  1
  Os  Os6  1  0.995053  0.004947  0.499910  1
  Os  Os7  1  0.995053  0.004947  0.000090  1
  Os  Os8  1  0.829039  0.653119  0.250000  1
  Os  Os9  1  0.346881  0.170961  0.250000  1
  Os  Os10  1  0.170720  0.339351  0.750000  1
  Os  Os11  1  0.660649  0.829280  0.750000  1
