# generated using pymatgen
data_HoEr9Si5Ge
_symmetry_space_group_name_H-M   'P 1'
_cell_length_a   8.37355103
_cell_length_b   8.37389982
_cell_length_c   6.29423700
_cell_angle_alpha   90.00000000
_cell_angle_beta   90.00000000
_cell_angle_gamma   119.98920871
_symmetry_Int_Tables_number   1
_chemical_formula_structural   HoEr9Si5Ge
_chemical_formula_sum   'Ho1 Er9 Si5 Ge1'
_cell_volume   382.25957299
_cell_formula_units_Z   1
loop_
 _symmetry_equiv_pos_site_id
 _symmetry_equiv_pos_as_xyz
  1  'x, y, z'
loop_
 _atom_site_type_symbol
 _atom_site_label
 _atom_site_symmetry_multiplicity
 _atom_site_fract_x
 _atom_site_fract_y
 _atom_site_fract_z
 _atom_site_occupancy
  Ho  Ho0  1  0.998854  0.756353  0.750000  1
  Er  Er1  1  0.999927  0.242774  0.250000  1
  Er  Er2  1  0.757081  0.757190  0.250000  1
  Er  Er3  1  0.758005  0.000005  0.750000  1
  Er  Er4  1  0.242558  0.243714  0.750000  1
  Er  Er5  1  0.242545  0.000035  0.250000  1
  Er  Er6  1  0.333209  0.665761  0.499318  1
  Er  Er7  1  0.667394  0.334210  0.000677  1
  Er  Er8  1  0.667394  0.334210  0.499323  1
  Er  Er9  1  0.333209  0.665761  0.000682  1
  Si  Si10  1  0.394390  0.394339  0.250000  1
  Si  Si11  1  0.000058  0.605674  0.250000  1
  Si  Si12  1  0.999962  0.394323  0.750000  1
  Si  Si13  1  0.605468  0.605575  0.750000  1
  Si  Si14  1  0.605763  0.000004  0.250000  1
  Ge  Ge15  1  0.394183  0.000071  0.750000  1
