# generated using pymatgen
data_YHo5Al20(SiOs2)4
_symmetry_space_group_name_H-M   'P 1'
_cell_length_a   8.70156600
_cell_length_b   8.70156551
_cell_length_c   9.62762500
_cell_angle_alpha   89.99836870
_cell_angle_beta   90.00163180
_cell_angle_gamma   120.00240053
_symmetry_Int_Tables_number   1
_chemical_formula_structural   YHo5Al20(SiOs2)4
_chemical_formula_sum   'Y1 Ho5 Al20 Si4 Os8'
_cell_volume   631.29755124
_cell_formula_units_Z   1
loop_
 _symmetry_equiv_pos_site_id
 _symmetry_equiv_pos_as_xyz
  1  'x, y, z'
loop_
 _atom_site_type_symbol
 _atom_site_label
 _atom_site_symmetry_multiplicity
 _atom_site_fract_x
 _atom_site_fract_y
 _atom_site_fract_z
 _atom_site_occupancy
  Y  Y0  1  0.804491  0.195509  0.750015  1
  Ho  Ho1  1  0.195943  0.391909  0.249965  1
  Ho  Ho2  1  0.804112  0.608346  0.750031  1
  Ho  Ho3  1  0.608091  0.804057  0.249965  1
  Ho  Ho4  1  0.391654  0.195888  0.750031  1
  Ho  Ho5  1  0.195953  0.804047  0.249972  1
  Al  Al6  1  0.165198  0.330082  0.576774  1
  Al  Al7  1  0.835029  0.670029  0.423068  1
  Al  Al8  1  0.669918  0.834802  0.576774  1
  Al  Al9  1  0.835029  0.670026  0.076919  1
  Al  Al10  1  0.329971  0.164971  0.423068  1
  Al  Al11  1  0.165200  0.330086  0.923240  1
  Al  Al12  1  0.164978  0.835022  0.576913  1
  Al  Al13  1  0.329974  0.164971  0.076919  1
  Al  Al14  1  0.835018  0.164982  0.422855  1
  Al  Al15  1  0.669914  0.834800  0.923240  1
  Al  Al16  1  0.835019  0.164981  0.077132  1
  Al  Al17  1  0.164978  0.835022  0.923101  1
  Al  Al18  1  0.563586  0.127166  0.249981  1
  Al  Al19  1  0.436069  0.872570  0.750020  1
  Al  Al20  1  0.872834  0.436414  0.249981  1
  Al  Al21  1  0.127430  0.563931  0.750020  1
  Al  Al22  1  0.563570  0.436430  0.249979  1
  Al  Al23  1  0.436457  0.563543  0.750023  1
  Al  Al24  1  0.000002  0.999998  0.249972  1
  Al  Al25  1  0.000337  0.999663  0.750027  1
  Si  Si26  1  0.333324  0.666676  0.037642  1
  Si  Si27  1  0.666453  0.333547  0.962738  1
  Si  Si28  1  0.666452  0.333548  0.537267  1
  Si  Si29  1  0.333324  0.666676  0.462354  1
  Os  Os30  1  0.499753  0.999840  0.000215  1
  Os  Os31  1  0.000160  0.500247  0.000215  1
  Os  Os32  1  0.499749  0.999833  0.499793  1
  Os  Os33  1  0.499972  0.500028  0.000008  1
  Os  Os34  1  0.000167  0.500251  0.499793  1
  Os  Os35  1  0.499971  0.500029  0.500000  1
  Os  Os36  1  0.999961  0.000039  0.999945  1
  Os  Os37  1  0.999961  0.000039  0.500046  1
