# generated using pymatgen
data_Dy8TmMg(BiAu2)2
_symmetry_space_group_name_H-M   'P 1'
_cell_length_a   8.74217497
_cell_length_b   8.74217614
_cell_length_c   8.74217563
_cell_angle_alpha   125.62080341
_cell_angle_beta   125.62080198
_cell_angle_gamma   80.51227663
_symmetry_Int_Tables_number   1
_chemical_formula_structural   Dy8TmMg(BiAu2)2
_chemical_formula_sum   'Dy8 Tm1 Mg1 Bi2 Au4'
_cell_volume   425.84115450
_cell_formula_units_Z   1
loop_
 _symmetry_equiv_pos_site_id
 _symmetry_equiv_pos_as_xyz
  1  'x, y, z'
loop_
 _atom_site_type_symbol
 _atom_site_label
 _atom_site_symmetry_multiplicity
 _atom_site_fract_x
 _atom_site_fract_y
 _atom_site_fract_z
 _atom_site_occupancy
  Dy  Dy0  1  0.508567  0.024556  0.813319  1
  Dy  Dy1  1  0.211238  0.695249  0.186681  1
  Dy  Dy2  1  0.024556  0.211238  0.515989  1
  Dy  Dy3  1  0.695249  0.508567  0.484011  1
  Dy  Dy4  1  0.491433  0.975444  0.186681  1
  Dy  Dy5  1  0.788762  0.304751  0.813319  1
  Dy  Dy6  1  0.975444  0.788762  0.484011  1
  Dy  Dy7  1  0.304751  0.491433  0.515989  1
  Tm  Tm8  1  0.000000  0.000000  0.000000  1
  Mg  Mg9  1  0.500000  0.500000  0.000000  1
  Bi  Bi10  1  0.244448  0.244448  0.000000  1
  Bi  Bi11  1  0.755552  0.755552  0.000000  1
  Au  Au12  1  0.133949  0.641529  0.775478  1
  Au  Au13  1  0.866051  0.358471  0.224522  1
  Au  Au14  1  0.641529  0.866051  0.507580  1
  Au  Au15  1  0.358471  0.133949  0.492420  1
