# generated using pymatgen
data_Mg(FeCl4)2
_symmetry_space_group_name_H-M   'P 1'
_cell_length_a   10.14474098
_cell_length_b   10.14474038
_cell_length_c   12.02539926
_cell_angle_alpha   56.15666111
_cell_angle_beta   56.15666111
_cell_angle_gamma   48.34189827
_symmetry_Int_Tables_number   1
_chemical_formula_structural   Mg(FeCl4)2
_chemical_formula_sum   'Mg2 Fe4 Cl16'
_cell_volume   732.37345090
_cell_formula_units_Z   2
loop_
 _symmetry_equiv_pos_site_id
 _symmetry_equiv_pos_as_xyz
  1  'x, y, z'
loop_
 _atom_site_type_symbol
 _atom_site_label
 _atom_site_symmetry_multiplicity
 _atom_site_fract_x
 _atom_site_fract_y
 _atom_site_fract_z
 _atom_site_occupancy
  Mg  Mg0  1  0.997123  0.002877  0.750000  1
  Mg  Mg1  1  0.002877  0.997123  0.250000  1
  Fe  Fe2  1  0.156150  0.682654  0.528934  1
  Fe  Fe3  1  0.317346  0.843850  0.971066  1
  Fe  Fe4  1  0.843850  0.317346  0.471066  1
  Fe  Fe5  1  0.682654  0.156150  0.028934  1
  Cl  Cl6  1  0.300699  0.395471  0.551257  1
  Cl  Cl7  1  0.604529  0.699301  0.948743  1
  Cl  Cl8  1  0.699301  0.604529  0.448743  1
  Cl  Cl9  1  0.395471  0.300699  0.051257  1
  Cl  Cl10  1  0.877476  0.839845  0.503184  1
  Cl  Cl11  1  0.160155  0.122524  0.996816  1
  Cl  Cl12  1  0.122524  0.160155  0.496816  1
  Cl  Cl13  1  0.839845  0.877476  0.003184  1
  Cl  Cl14  1  0.139228  0.705438  0.712367  1
  Cl  Cl15  1  0.294562  0.860772  0.787633  1
  Cl  Cl16  1  0.860772  0.294562  0.287633  1
  Cl  Cl17  1  0.705438  0.139228  0.212367  1
  Cl  Cl18  1  0.284799  0.834916  0.323742  1
  Cl  Cl19  1  0.165084  0.715201  0.176258  1
  Cl  Cl20  1  0.715201  0.165084  0.676258  1
  Cl  Cl21  1  0.834916  0.284799  0.823742  1
