# generated using pymatgen
data_Lu2ZrSc(Al3Ir)6
_symmetry_space_group_name_H-M   'P 1'
_cell_length_a   7.50396606
_cell_length_b   7.50150555
_cell_length_c   9.36507200
_cell_angle_alpha   90.00000000
_cell_angle_beta   90.00000000
_cell_angle_gamma   119.67884152
_symmetry_Int_Tables_number   1
_chemical_formula_structural   Lu2ZrSc(Al3Ir)6
_chemical_formula_sum   'Lu2 Zr1 Sc1 Al18 Ir6'
_cell_volume   458.01261209
_cell_formula_units_Z   1
loop_
 _symmetry_equiv_pos_site_id
 _symmetry_equiv_pos_as_xyz
  1  'x, y, z'
loop_
 _atom_site_type_symbol
 _atom_site_label
 _atom_site_symmetry_multiplicity
 _atom_site_fract_x
 _atom_site_fract_y
 _atom_site_fract_z
 _atom_site_occupancy
  Lu  Lu0  1  0.006240  0.327104  0.750000  1
  Lu  Lu1  1  0.328683  0.007142  0.750000  1
  Zr  Zr2  1  0.996395  0.671406  0.250000  1
  Sc  Sc3  1  0.671623  0.996233  0.250000  1
  Al  Al4  1  0.122751  0.121700  0.250000  1
  Al  Al5  1  0.870422  0.870202  0.750000  1
  Al  Al6  1  0.997396  0.334506  0.080454  1
  Al  Al7  1  0.999669  0.664867  0.927759  1
  Al  Al8  1  0.999669  0.664867  0.572241  1
  Al  Al9  1  0.335335  0.998263  0.419352  1
  Al  Al10  1  0.997396  0.334506  0.419546  1
  Al  Al11  1  0.664747  0.999098  0.572723  1
  Al  Al12  1  0.664747  0.999098  0.927277  1
  Al  Al13  1  0.335335  0.998263  0.080648  1
  Al  Al14  1  0.333630  0.333775  0.552971  1
  Al  Al15  1  0.668913  0.669338  0.440275  1
  Al  Al16  1  0.668913  0.669338  0.059725  1
  Al  Al17  1  0.333630  0.333775  0.947029  1
  Al  Al18  1  0.338202  0.553448  0.250000  1
  Al  Al19  1  0.660572  0.451447  0.750000  1
  Al  Al20  1  0.555266  0.341832  0.250000  1
  Al  Al21  1  0.450897  0.660091  0.750000  1
  Ir  Ir22  1  0.672486  0.328158  0.000392  1
  Ir  Ir23  1  0.326721  0.671853  0.001048  1
  Ir  Ir24  1  0.326721  0.671853  0.498952  1
  Ir  Ir25  1  0.672486  0.328158  0.499608  1
  Ir  Ir26  1  0.000575  0.999840  0.000001  1
  Ir  Ir27  1  0.000575  0.999840  0.499999  1
