# generated using pymatgen
data_TbDyU(AlRu)3
_symmetry_space_group_name_H-M   'P 1'
_cell_length_a   6.87125592
_cell_length_b   6.86482262
_cell_length_c   4.05853500
_cell_angle_alpha   90.00000000
_cell_angle_beta   90.00000000
_cell_angle_gamma   116.48053209
_symmetry_Int_Tables_number   1
_chemical_formula_structural   TbDyU(AlRu)3
_chemical_formula_sum   'Tb1 Dy1 U1 Al3 Ru3'
_cell_volume   171.35605874
_cell_formula_units_Z   1
loop_
 _symmetry_equiv_pos_site_id
 _symmetry_equiv_pos_as_xyz
  1  'x, y, z'
loop_
 _atom_site_type_symbol
 _atom_site_label
 _atom_site_symmetry_multiplicity
 _atom_site_fract_x
 _atom_site_fract_y
 _atom_site_fract_z
 _atom_site_occupancy
  Tb  Tb0  1  0.419328  0.008465  0.500000  1
  Dy  Dy1  1  0.008553  0.419056  0.500000  1
  U  U2  1  0.606904  0.606828  0.500000  1
  Al  Al3  1  0.754004  0.022371  0.000000  1
  Al  Al4  1  0.022088  0.753459  0.000000  1
  Al  Al5  1  0.209827  0.210202  0.000000  1
  Ru  Ru6  1  0.380261  0.637583  0.000000  1
  Ru  Ru7  1  0.637681  0.380498  0.000000  1
  Ru  Ru8  1  0.961354  0.961539  0.500000  1
