# generated using pymatgen
data_Li6YbPu2N6
_symmetry_space_group_name_H-M   'P 1'
_cell_length_a   5.96884300
_cell_length_b   5.96884217
_cell_length_c   5.43548700
_cell_angle_alpha   90.00000000
_cell_angle_beta   90.00000000
_cell_angle_gamma   119.99999906
_symmetry_Int_Tables_number   1
_chemical_formula_structural   Li6YbPu2N6
_chemical_formula_sum   'Li6 Yb1 Pu2 N6'
_cell_volume   167.70628870
_cell_formula_units_Z   1
loop_
 _symmetry_equiv_pos_site_id
 _symmetry_equiv_pos_as_xyz
  1  'x, y, z'
loop_
 _atom_site_type_symbol
 _atom_site_label
 _atom_site_symmetry_multiplicity
 _atom_site_fract_x
 _atom_site_fract_y
 _atom_site_fract_z
 _atom_site_occupancy
  Li  Li0  1  0.986639  0.660748  0.610496  1
  Li  Li1  1  0.339252  0.325890  0.610496  1
  Li  Li2  1  0.674110  0.013361  0.610496  1
  Li  Li3  1  0.013361  0.339252  0.389504  1
  Li  Li4  1  0.660748  0.674110  0.389504  1
  Li  Li5  1  0.325890  0.986639  0.389504  1
  Yb  Yb6  1  0.000000  0.000000  0.000000  1
  Pu  Pu7  1  0.333333  0.666667  0.995090  1
  Pu  Pu8  1  0.666667  0.333333  0.004910  1
  N  N9  1  0.001602  0.642251  0.223115  1
  N  N10  1  0.357749  0.359351  0.223115  1
  N  N11  1  0.640649  0.998398  0.223115  1
  N  N12  1  0.998398  0.357749  0.776885  1
  N  N13  1  0.642251  0.640649  0.776885  1
  N  N14  1  0.359351  0.001602  0.776885  1
