# generated using pymatgen
data_Dy4MnCo7O20
_symmetry_space_group_name_H-M   'P 1'
_cell_length_a   5.69708200
_cell_length_b   7.24824802
_cell_length_c   8.40527001
_cell_angle_alpha   90.00627875
_cell_angle_beta   90.00000000
_cell_angle_gamma   90.00000000
_symmetry_Int_Tables_number   1
_chemical_formula_structural   Dy4MnCo7O20
_chemical_formula_sum   'Dy4 Mn1 Co7 O20'
_cell_volume   347.08606868
_cell_formula_units_Z   1
loop_
 _symmetry_equiv_pos_site_id
 _symmetry_equiv_pos_as_xyz
  1  'x, y, z'
loop_
 _atom_site_type_symbol
 _atom_site_label
 _atom_site_symmetry_multiplicity
 _atom_site_fract_x
 _atom_site_fract_y
 _atom_site_fract_z
 _atom_site_occupancy
  Dy  Dy0  1  0.999125  0.362492  0.672594  1
  Dy  Dy1  1  0.999125  0.637508  0.327406  1
  Dy  Dy2  1  0.998607  0.861455  0.828929  1
  Dy  Dy3  1  0.998607  0.138545  0.171071  1
  Mn  Mn4  1  0.256947  0.000000  0.500000  1
  Co  Co5  1  0.499221  0.093189  0.850982  1
  Co  Co6  1  0.499221  0.906811  0.149018  1
  Co  Co7  1  0.500637  0.588415  0.652000  1
  Co  Co8  1  0.500637  0.411585  0.348000  1
  Co  Co9  1  0.255251  0.500000  0.000000  1
  Co  Co10  1  0.744198  0.000000  0.500000  1
  Co  Co11  1  0.744972  0.500000  0.000000  1
  O  O12  1  0.243036  0.893294  0.289695  1
  O  O13  1  0.243036  0.106706  0.710305  1
  O  O14  1  0.756400  0.397784  0.206294  1
  O  O15  1  0.756400  0.602216  0.793706  1
  O  O16  1  0.755472  0.104132  0.706834  1
  O  O17  1  0.755472  0.895868  0.293166  1
  O  O18  1  0.244108  0.603121  0.793617  1
  O  O19  1  0.244108  0.396879  0.206383  1
  O  O20  1  0.500343  0.348251  0.932669  1
  O  O21  1  0.500343  0.651749  0.067331  1
  O  O22  1  0.502767  0.844748  0.569724  1
  O  O23  1  0.502767  0.155252  0.430276  1
  O  O24  1  0.274476  0.000000  0.000000  1
  O  O25  1  0.725179  0.500000  0.500000  1
  O  O26  1  0.725276  0.000000  0.000000  1
  O  O27  1  0.275252  0.500000  0.500000  1
  O  O28  1  0.999414  0.164437  0.444557  1
  O  O29  1  0.999414  0.835563  0.555443  1
  O  O30  1  0.000094  0.662338  0.053772  1
  O  O31  1  0.000094  0.337662  0.946228  1
