# generated using pymatgen
data_Rb2FeSiO4
_symmetry_space_group_name_H-M   'P 1'
_cell_length_a   6.82710883
_cell_length_b   10.73336223
_cell_length_c   7.97423403
_cell_angle_alpha   90.00620237
_cell_angle_beta   90.00990243
_cell_angle_gamma   80.28457815
_symmetry_Int_Tables_number   1
_chemical_formula_structural   Rb2FeSiO4
_chemical_formula_sum   'Rb8 Fe4 Si4 O16'
_cell_volume   575.95409387
_cell_formula_units_Z   4
loop_
 _symmetry_equiv_pos_site_id
 _symmetry_equiv_pos_as_xyz
  1  'x, y, z'
loop_
 _atom_site_type_symbol
 _atom_site_label
 _atom_site_symmetry_multiplicity
 _atom_site_fract_x
 _atom_site_fract_y
 _atom_site_fract_z
 _atom_site_occupancy
  Rb  Rb0  1  0.886185  0.962063  0.269009  1
  Rb  Rb1  1  0.386288  0.462047  0.269041  1
  Rb  Rb2  1  0.113702  0.037900  0.768869  1
  Rb  Rb3  1  0.613868  0.537926  0.768874  1
  Rb  Rb4  1  0.623569  0.207766  0.925908  1
  Rb  Rb5  1  0.123677  0.708004  0.925881  1
  Rb  Rb6  1  0.376399  0.792115  0.425857  1
  Rb  Rb7  1  0.876525  0.292130  0.426032  1
  Fe  Fe8  1  0.798547  0.599510  0.187999  1
  Fe  Fe9  1  0.701507  0.900608  0.687866  1
  Fe  Fe10  1  0.298506  0.099390  0.187942  1
  Fe  Fe11  1  0.201838  0.400673  0.687762  1
  Si  Si12  1  0.465632  0.155122  0.477731  1
  Si  Si13  1  0.965691  0.655308  0.477785  1
  Si  Si14  1  0.534327  0.844737  0.977651  1
  Si  Si15  1  0.034159  0.344756  0.977948  1
  O  O16  1  0.538092  0.179447  0.283002  1
  O  O17  1  0.038561  0.679227  0.283040  1
  O  O18  1  0.461711  0.820613  0.782864  1
  O  O19  1  0.961997  0.320901  0.782906  1
  O  O20  1  0.265389  0.088349  0.451542  1
  O  O21  1  0.765523  0.588485  0.451488  1
  O  O22  1  0.734464  0.911560  0.951453  1
  O  O23  1  0.234390  0.411543  0.952206  1
  O  O24  1  0.648122  0.064987  0.579217  1
  O  O25  1  0.148028  0.565139  0.579377  1
  O  O26  1  0.351965  0.934983  0.079127  1
  O  O27  1  0.851476  0.434955  0.079254  1
  O  O28  1  0.421409  0.291418  0.579101  1
  O  O29  1  0.921529  0.791631  0.579163  1
  O  O30  1  0.578718  0.708445  0.079012  1
  O  O31  1  0.078215  0.208263  0.079086  1
