# generated using pymatgen
data_Yb7PrSb6
_symmetry_space_group_name_H-M   'P 1'
_cell_length_a   8.22798071
_cell_length_b   8.22798020
_cell_length_c   8.15278300
_cell_angle_alpha   109.28619692
_cell_angle_beta   109.28619567
_cell_angle_gamma   109.65560795
_symmetry_Int_Tables_number   1
_chemical_formula_structural   Yb7PrSb6
_chemical_formula_sum   'Yb7 Pr1 Sb6'
_cell_volume   425.85044082
_cell_formula_units_Z   1
loop_
 _symmetry_equiv_pos_site_id
 _symmetry_equiv_pos_as_xyz
  1  'x, y, z'
loop_
 _atom_site_type_symbol
 _atom_site_label
 _atom_site_symmetry_multiplicity
 _atom_site_fract_x
 _atom_site_fract_y
 _atom_site_fract_z
 _atom_site_occupancy
  Yb  Yb0  1  0.649706  0.649578  0.649647  1
  Yb  Yb1  1  0.004452  0.354927  0.500770  1
  Yb  Yb2  1  0.350475  0.495548  0.996318  1
  Yb  Yb3  1  0.999872  0.850294  0.499941  1
  Yb  Yb4  1  0.850422  0.500128  0.000069  1
  Yb  Yb5  1  0.500000  0.000000  0.851484  1
  Yb  Yb6  1  0.145073  0.149525  0.145843  1
  Pr  Pr7  1  0.500000  0.000000  0.356216  1
  Sb  Sb8  1  0.876459  0.126247  0.749849  1
  Sb  Sb9  1  0.373753  0.250212  0.623601  1
  Sb  Sb10  1  0.126267  0.751328  0.876822  1
  Sb  Sb11  1  0.748672  0.874940  0.125495  1
  Sb  Sb12  1  0.249788  0.623541  0.373389  1
  Sb  Sb13  1  0.625060  0.373733  0.250555  1
