# generated using pymatgen
data_Dy3Lu7(CoRu)2
_symmetry_space_group_name_H-M   'P 1'
_cell_length_a   6.20356571
_cell_length_b   7.06712202
_cell_length_c   8.36569754
_cell_angle_alpha   96.88542911
_cell_angle_beta   112.42908064
_cell_angle_gamma   89.64553357
_symmetry_Int_Tables_number   1
_chemical_formula_structural   Dy3Lu7(CoRu)2
_chemical_formula_sum   'Dy3 Lu7 Co2 Ru2'
_cell_volume   336.26094370
_cell_formula_units_Z   1
loop_
 _symmetry_equiv_pos_site_id
 _symmetry_equiv_pos_as_xyz
  1  'x, y, z'
loop_
 _atom_site_type_symbol
 _atom_site_label
 _atom_site_symmetry_multiplicity
 _atom_site_fract_x
 _atom_site_fract_y
 _atom_site_fract_z
 _atom_site_occupancy
  Dy  Dy0  1  0.525491  0.088184  0.811466  1
  Dy  Dy1  1  0.472632  0.911093  0.186976  1
  Dy  Dy2  1  0.701856  0.418725  0.191164  1
  Lu  Lu3  1  0.297869  0.582279  0.807706  1
  Lu  Lu4  1  0.291212  0.319649  0.432395  1
  Lu  Lu5  1  0.710420  0.681138  0.569116  1
  Lu  Lu6  1  0.860218  0.187632  0.565726  1
  Lu  Lu7  1  0.140879  0.811056  0.434934  1
  Lu  Lu8  1  0.078593  0.259932  0.000407  1
  Lu  Lu9  1  0.922102  0.740964  0.999191  1
  Co  Co10  1  0.322815  0.576452  0.229664  1
  Co  Co11  1  0.673984  0.424182  0.770280  1
  Ru  Ru12  1  0.102751  0.925017  0.784374  1
  Ru  Ru13  1  0.899179  0.073698  0.216600  1
