# generated using pymatgen
data_CaCdGa3FeCl16
_symmetry_space_group_name_H-M   'P 1'
_cell_length_a   7.14553418
_cell_length_b   7.33841646
_cell_length_c   13.49856333
_cell_angle_alpha   87.11385176
_cell_angle_beta   90.01165706
_cell_angle_gamma   90.04549819
_symmetry_Int_Tables_number   1
_chemical_formula_structural   CaCdGa3FeCl16
_chemical_formula_sum   'Ca1 Cd1 Ga3 Fe1 Cl16'
_cell_volume   706.92482763
_cell_formula_units_Z   1
loop_
 _symmetry_equiv_pos_site_id
 _symmetry_equiv_pos_as_xyz
  1  'x, y, z'
loop_
 _atom_site_type_symbol
 _atom_site_label
 _atom_site_symmetry_multiplicity
 _atom_site_fract_x
 _atom_site_fract_y
 _atom_site_fract_z
 _atom_site_occupancy
  Ca  Ca0  1  0.757035  0.078609  0.816536  1
  Cd  Cd1  1  0.246054  0.075180  0.315120  1
  Ga  Ga2  1  0.067587  0.223546  0.079737  1
  Ga  Ga3  1  0.567486  0.638031  0.776182  1
  Ga  Ga4  1  0.426080  0.636902  0.276560  1
  Fe  Fe5  1  0.937944  0.220743  0.577384  1
  Cl  Cl6  1  0.422424  0.612308  0.639182  1
  Cl  Cl7  1  0.577903  0.611016  0.141617  1
  Cl  Cl8  1  0.864657  0.731171  0.759886  1
  Cl  Cl9  1  0.131490  0.734709  0.260353  1
  Cl  Cl10  1  0.935891  0.480281  0.497285  1
  Cl  Cl11  1  0.059863  0.478008  0.995791  1
  Cl  Cl12  1  0.920893  0.002274  0.002372  1
  Cl  Cl13  1  0.086945  0.009030  0.491442  1
  Cl  Cl14  1  0.647210  0.129615  0.617258  1
  Cl  Cl15  1  0.355642  0.127338  0.121228  1
  Cl  Cl16  1  0.563872  0.383394  0.874576  1
  Cl  Cl17  1  0.428181  0.377106  0.372361  1
  Cl  Cl18  1  0.447951  0.860282  0.865056  1
  Cl  Cl19  1  0.542561  0.865579  0.364100  1
  Cl  Cl20  1  0.941870  0.227499  0.232654  1
  Cl  Cl21  1  0.070459  0.232182  0.727725  1
