# generated using pymatgen
data_Lu4MgGaSn3
_symmetry_space_group_name_H-M   'P 1'
_cell_length_a   7.34801100
_cell_length_b   8.05794800
_cell_length_c   15.02849600
_cell_angle_alpha   90.00000000
_cell_angle_beta   90.00000000
_cell_angle_gamma   90.00000000
_symmetry_Int_Tables_number   1
_chemical_formula_structural   Lu4MgGaSn3
_chemical_formula_sum   'Lu16 Mg4 Ga4 Sn12'
_cell_volume   889.83560316
_cell_formula_units_Z   4
loop_
 _symmetry_equiv_pos_site_id
 _symmetry_equiv_pos_as_xyz
  1  'x, y, z'
loop_
 _atom_site_type_symbol
 _atom_site_label
 _atom_site_symmetry_multiplicity
 _atom_site_fract_x
 _atom_site_fract_y
 _atom_site_fract_z
 _atom_site_occupancy
  Lu  Lu0  1  0.335378  0.174518  0.631762  1
  Lu  Lu1  1  0.664622  0.825482  0.368238  1
  Lu  Lu2  1  0.164622  0.674518  0.368238  1
  Lu  Lu3  1  0.664622  0.825482  0.131762  1
  Lu  Lu4  1  0.835378  0.325482  0.631762  1
  Lu  Lu5  1  0.335378  0.174518  0.868238  1
  Lu  Lu6  1  0.835378  0.325482  0.868238  1
  Lu  Lu7  1  0.164622  0.674518  0.131762  1
  Lu  Lu8  1  0.996411  0.182561  0.092513  1
  Lu  Lu9  1  0.003589  0.817439  0.907487  1
  Lu  Lu10  1  0.503589  0.682561  0.907487  1
  Lu  Lu11  1  0.003589  0.817439  0.592513  1
  Lu  Lu12  1  0.496411  0.317439  0.092513  1
  Lu  Lu13  1  0.996411  0.182561  0.407487  1
  Lu  Lu14  1  0.496411  0.317439  0.407487  1
  Lu  Lu15  1  0.503589  0.682561  0.592513  1
  Mg  Mg16  1  0.172856  0.498847  0.750000  1
  Mg  Mg17  1  0.827144  0.501153  0.250000  1
  Mg  Mg18  1  0.327144  0.998847  0.250000  1
  Mg  Mg19  1  0.672856  0.001153  0.750000  1
  Ga  Ga20  1  0.028738  0.099675  0.750000  1
  Ga  Ga21  1  0.971262  0.900325  0.250000  1
  Ga  Ga22  1  0.471262  0.599675  0.250000  1
  Ga  Ga23  1  0.528738  0.400325  0.750000  1
  Sn  Sn24  1  0.183731  0.464165  0.537674  1
  Sn  Sn25  1  0.816269  0.535835  0.462326  1
  Sn  Sn26  1  0.316269  0.964165  0.462326  1
  Sn  Sn27  1  0.816269  0.535835  0.037674  1
  Sn  Sn28  1  0.683731  0.035835  0.537674  1
  Sn  Sn29  1  0.183731  0.464165  0.962326  1
  Sn  Sn30  1  0.683731  0.035835  0.962326  1
  Sn  Sn31  1  0.316269  0.964165  0.037674  1
  Sn  Sn32  1  0.295684  0.855903  0.750000  1
  Sn  Sn33  1  0.704316  0.144097  0.250000  1
  Sn  Sn34  1  0.204316  0.355903  0.250000  1
  Sn  Sn35  1  0.795684  0.644097  0.750000  1
