# generated using pymatgen
data_Ti12PPbS15
_symmetry_space_group_name_H-M   'P 1'
_cell_length_a   6.83008004
_cell_length_b   9.55616871
_cell_length_c   10.10191309
_cell_angle_alpha   117.99982967
_cell_angle_beta   109.79140428
_cell_angle_gamma   90.00234385
_symmetry_Int_Tables_number   1
_chemical_formula_structural   Ti12PPbS15
_chemical_formula_sum   'Ti12 P1 Pb1 S15'
_cell_volume   537.65520141
_cell_formula_units_Z   1
loop_
 _symmetry_equiv_pos_site_id
 _symmetry_equiv_pos_as_xyz
  1  'x, y, z'
loop_
 _atom_site_type_symbol
 _atom_site_label
 _atom_site_symmetry_multiplicity
 _atom_site_fract_x
 _atom_site_fract_y
 _atom_site_fract_z
 _atom_site_occupancy
  Ti  Ti0  1  0.555738  0.356118  0.868308  1
  Ti  Ti1  1  0.062729  0.357825  0.871515  1
  Ti  Ti2  1  0.370172  0.132709  0.490004  1
  Ti  Ti3  1  0.868296  0.133647  0.489082  1
  Ti  Ti4  1  0.445495  0.508320  0.646959  1
  Ti  Ti5  1  0.949686  0.510151  0.647383  1
  Ti  Ti6  1  0.941263  0.645219  0.135942  1
  Ti  Ti7  1  0.444719  0.645610  0.136637  1
  Ti  Ti8  1  0.135264  0.862633  0.512864  1
  Ti  Ti9  1  0.632680  0.866620  0.517578  1
  Ti  Ti10  1  0.052277  0.488239  0.358389  1
  Ti  Ti11  1  0.554365  0.487734  0.356354  1
  P  P12  1  0.980471  0.053937  0.694201  1
  Pb  Pb13  1  0.970460  0.010411  0.930485  1
  S  S14  1  0.470500  0.051271  0.695624  1
  S  S15  1  0.804378  0.307052  0.359595  1
  S  S16  1  0.303420  0.305716  0.357308  1
  S  S17  1  0.102366  0.644232  0.953680  1
  S  S18  1  0.600252  0.642409  0.951644  1
  S  S19  1  0.530142  0.948804  0.310982  1
  S  S20  1  0.029549  0.948706  0.309630  1
  S  S21  1  0.694419  0.689139  0.645359  1
  S  S22  1  0.197345  0.691078  0.645374  1
  S  S23  1  0.403027  0.359050  0.053891  1
  S  S24  1  0.897562  0.356292  0.052840  1
  S  S25  1  0.793657  0.666793  0.336654  1
  S  S26  1  0.292686  0.664996  0.334957  1
  S  S27  1  0.708890  0.333119  0.668958  1
  S  S28  1  0.208195  0.332171  0.667802  1
