# generated using pymatgen
data_Al11Cr2RuRh
_symmetry_space_group_name_H-M   'P 1'
_cell_length_a   5.11036017
_cell_length_b   5.12457538
_cell_length_c   8.98634705
_cell_angle_alpha   74.46418082
_cell_angle_beta   89.77618374
_cell_angle_gamma   79.30551959
_symmetry_Int_Tables_number   1
_chemical_formula_structural   Al11Cr2RuRh
_chemical_formula_sum   'Al11 Cr2 Ru1 Rh1'
_cell_volume   222.54061992
_cell_formula_units_Z   1
loop_
 _symmetry_equiv_pos_site_id
 _symmetry_equiv_pos_as_xyz
  1  'x, y, z'
loop_
 _atom_site_type_symbol
 _atom_site_label
 _atom_site_symmetry_multiplicity
 _atom_site_fract_x
 _atom_site_fract_y
 _atom_site_fract_z
 _atom_site_occupancy
  Al  Al0  1  0.197489  0.276556  0.365233  1
  Al  Al1  1  0.800539  0.725043  0.635045  1
  Al  Al2  1  0.848360  0.466870  0.125808  1
  Al  Al3  1  0.151529  0.527540  0.878919  1
  Al  Al4  1  0.000736  0.000270  0.997761  1
  Al  Al5  1  0.489022  0.106537  0.124178  1
  Al  Al6  1  0.514154  0.894438  0.880986  1
  Al  Al7  1  0.429342  0.326859  0.629181  1
  Al  Al8  1  0.573589  0.670575  0.370126  1
  Al  Al9  1  0.056692  0.827196  0.310642  1
  Al  Al10  1  0.937621  0.179673  0.680552  1
  Cr  Cr11  1  0.338704  0.610929  0.134331  1
  Cr  Cr12  1  0.660667  0.392227  0.864340  1
  Ru  Ru13  1  0.718202  0.142726  0.404644  1
  Rh  Rh14  1  0.283354  0.852560  0.598253  1
