# generated using pymatgen
data_Ca8NdPt6
_symmetry_space_group_name_H-M   'P 1'
_cell_length_a   7.60249493
_cell_length_b   7.68404380
_cell_length_c   7.61956906
_cell_angle_alpha   71.23330891
_cell_angle_beta   71.20523270
_cell_angle_gamma   70.94800915
_symmetry_Int_Tables_number   1
_chemical_formula_structural   Ca8NdPt6
_chemical_formula_sum   'Ca8 Nd1 Pt6'
_cell_volume   386.46349090
_cell_formula_units_Z   1
loop_
 _symmetry_equiv_pos_site_id
 _symmetry_equiv_pos_as_xyz
  1  'x, y, z'
loop_
 _atom_site_type_symbol
 _atom_site_label
 _atom_site_symmetry_multiplicity
 _atom_site_fract_x
 _atom_site_fract_y
 _atom_site_fract_z
 _atom_site_occupancy
  Ca  Ca0  1  0.994602  0.998015  0.004966  1
  Ca  Ca1  1  0.803574  0.795310  0.800593  1
  Ca  Ca2  1  0.200982  0.201548  0.200819  1
  Ca  Ca3  1  0.333169  0.603644  0.846495  1
  Ca  Ca4  1  0.846760  0.333261  0.601687  1
  Ca  Ca5  1  0.603264  0.842641  0.331738  1
  Ca  Ca6  1  0.667876  0.397656  0.155043  1
  Ca  Ca7  1  0.154501  0.667929  0.396396  1
  Nd  Nd8  1  0.396902  0.149150  0.671038  1
  Pt  Pt9  1  0.163433  0.958353  0.585741  1
  Pt  Pt10  1  0.587210  0.162887  0.950851  1
  Pt  Pt11  1  0.954167  0.586385  0.158869  1
  Pt  Pt12  1  0.830239  0.047116  0.420489  1
  Pt  Pt13  1  0.409879  0.846398  0.038467  1
  Pt  Pt14  1  0.053441  0.409707  0.836809  1
