# generated using pymatgen
data_Ho12Tm4MgHg3Rh4
_symmetry_space_group_name_H-M   'P 1'
_cell_length_a   9.54683171
_cell_length_b   9.52425944
_cell_length_c   9.54921900
_cell_angle_alpha   59.91327581
_cell_angle_beta   59.99173118
_cell_angle_gamma   60.00826939
_symmetry_Int_Tables_number   1
_chemical_formula_structural   Ho12Tm4MgHg3Rh4
_chemical_formula_sum   'Ho12 Tm4 Mg1 Hg3 Rh4'
_cell_volume   613.56117519
_cell_formula_units_Z   1
loop_
 _symmetry_equiv_pos_site_id
 _symmetry_equiv_pos_as_xyz
  1  'x, y, z'
loop_
 _atom_site_type_symbol
 _atom_site_label
 _atom_site_symmetry_multiplicity
 _atom_site_fract_x
 _atom_site_fract_y
 _atom_site_fract_z
 _atom_site_occupancy
  Ho  Ho0  1  0.185766  0.187363  0.813435  1
  Ho  Ho1  1  0.810491  0.811104  0.189203  1
  Ho  Ho2  1  0.935581  0.563180  0.563500  1
  Ho  Ho3  1  0.562355  0.937259  0.936045  1
  Ho  Ho4  1  0.562355  0.937259  0.564341  1
  Ho  Ho5  1  0.935581  0.563180  0.937739  1
  Ho  Ho6  1  0.562678  0.564063  0.936630  1
  Ho  Ho7  1  0.935134  0.938542  0.563162  1
  Ho  Ho8  1  0.351377  0.348894  0.347270  1
  Ho  Ho9  1  0.351377  0.348894  0.952459  1
  Ho  Ho10  1  0.351976  0.951272  0.348376  1
  Ho  Ho11  1  0.940796  0.353344  0.352930  1
  Tm  Tm12  1  0.809819  0.188963  0.189916  1
  Tm  Tm13  1  0.185547  0.812561  0.813766  1
  Tm  Tm14  1  0.185547  0.812561  0.188126  1
  Tm  Tm15  1  0.809819  0.188963  0.811303  1
  Mg  Mg16  1  0.281845  0.572641  0.572758  1
  Hg  Hg17  1  0.581800  0.586076  0.586737  1
  Hg  Hg18  1  0.581800  0.586076  0.245389  1
  Hg  Hg19  1  0.582141  0.244511  0.586674  1
  Rh  Rh20  1  0.140065  0.143463  0.143688  1
  Rh  Rh21  1  0.140065  0.143463  0.572783  1
  Rh  Rh22  1  0.141910  0.572801  0.142645  1
  Rh  Rh23  1  0.574179  0.143568  0.141126  1
