# generated using pymatgen
data_Ba8Y3Ho(FeO5)4
_symmetry_space_group_name_H-M   'P 1'
_cell_length_a   6.15207701
_cell_length_b   7.96843314
_cell_length_c   12.76450309
_cell_angle_alpha   91.29306828
_cell_angle_beta   89.99751066
_cell_angle_gamma   89.99290887
_symmetry_Int_Tables_number   1
_chemical_formula_structural   Ba8Y3Ho(FeO5)4
_chemical_formula_sum   'Ba8 Y3 Ho1 Fe4 O20'
_cell_volume   625.58740545
_cell_formula_units_Z   1
loop_
 _symmetry_equiv_pos_site_id
 _symmetry_equiv_pos_as_xyz
  1  'x, y, z'
loop_
 _atom_site_type_symbol
 _atom_site_label
 _atom_site_symmetry_multiplicity
 _atom_site_fract_x
 _atom_site_fract_y
 _atom_site_fract_z
 _atom_site_occupancy
  Ba  Ba0  1  0.760530  0.488284  0.353489  1
  Ba  Ba1  1  0.739898  0.989102  0.853883  1
  Ba  Ba2  1  0.239413  0.511142  0.646640  1
  Ba  Ba3  1  0.260249  0.011740  0.145913  1
  Ba  Ba4  1  0.756831  0.995745  0.377178  1
  Ba  Ba5  1  0.743603  0.495204  0.877407  1
  Ba  Ba6  1  0.243074  0.004581  0.623241  1
  Ba  Ba7  1  0.256637  0.504006  0.122252  1
  Y  Y8  1  0.749213  0.262326  0.630336  1
  Y  Y9  1  0.750836  0.762303  0.129898  1
  Y  Y10  1  0.250847  0.737661  0.369958  1
  Ho  Ho11  1  0.249356  0.237980  0.869724  1
  Fe  Fe12  1  0.736227  0.744859  0.584984  1
  Fe  Fe13  1  0.763534  0.244681  0.084319  1
  Fe  Fe14  1  0.263675  0.255216  0.415162  1
  Fe  Fe15  1  0.236369  0.755058  0.914796  1
  O  O16  1  0.764320  0.969032  0.639164  1
  O  O17  1  0.735917  0.468756  0.138662  1
  O  O18  1  0.235671  0.031135  0.360957  1
  O  O19  1  0.263727  0.529760  0.861574  1
  O  O20  1  0.733546  0.055996  0.171364  1
  O  O21  1  0.766638  0.555904  0.671808  1
  O  O22  1  0.266096  0.945794  0.829204  1
  O  O23  1  0.233373  0.443953  0.328239  1
  O  O24  1  0.548682  0.747402  0.274648  1
  O  O25  1  0.954139  0.247432  0.774521  1
  O  O26  1  0.451998  0.252546  0.726590  1
  O  O27  1  0.048527  0.752629  0.225253  1
  O  O28  1  0.546002  0.229491  0.976899  1
  O  O29  1  0.952032  0.729217  0.477018  1
  O  O30  1  0.452201  0.770519  0.022756  1
  O  O31  1  0.047686  0.270743  0.523101  1
  O  O32  1  0.043518  0.236360  0.019358  1
  O  O33  1  0.455646  0.736458  0.520999  1
  O  O34  1  0.956062  0.763367  0.979092  1
  O  O35  1  0.543927  0.263619  0.479614  1
