# generated using pymatgen
data_NaGeBiO4
_symmetry_space_group_name_H-M   'P 1'
_cell_length_a   5.35634100
_cell_length_b   6.91630900
_cell_length_c   11.53775800
_cell_angle_alpha   90.00000000
_cell_angle_beta   90.00000000
_cell_angle_gamma   90.00000000
_symmetry_Int_Tables_number   1
_chemical_formula_structural   NaGeBiO4
_chemical_formula_sum   'Na4 Ge4 Bi4 O16'
_cell_volume   427.42904585
_cell_formula_units_Z   4
loop_
 _symmetry_equiv_pos_site_id
 _symmetry_equiv_pos_as_xyz
  1  'x, y, z'
loop_
 _atom_site_type_symbol
 _atom_site_label
 _atom_site_symmetry_multiplicity
 _atom_site_fract_x
 _atom_site_fract_y
 _atom_site_fract_z
 _atom_site_occupancy
  Na  Na0  1  0.000000  0.000000  0.000000  1
  Na  Na1  1  0.000000  0.500000  0.000000  1
  Na  Na2  1  0.500000  0.000000  0.500000  1
  Na  Na3  1  0.500000  0.500000  0.500000  1
  Ge  Ge4  1  0.937665  0.250000  0.405764  1
  Ge  Ge5  1  0.562335  0.250000  0.905764  1
  Ge  Ge6  1  0.062335  0.750000  0.594236  1
  Ge  Ge7  1  0.437665  0.750000  0.094236  1
  Bi  Bi8  1  0.993868  0.750000  0.277015  1
  Bi  Bi9  1  0.006132  0.250000  0.722985  1
  Bi  Bi10  1  0.506132  0.750000  0.777015  1
  Bi  Bi11  1  0.493868  0.250000  0.222985  1
  O  O12  1  0.786339  0.445052  0.326500  1
  O  O13  1  0.286339  0.554948  0.173500  1
  O  O14  1  0.213661  0.945052  0.673500  1
  O  O15  1  0.713661  0.054948  0.826500  1
  O  O16  1  0.213661  0.554948  0.673500  1
  O  O17  1  0.713661  0.445052  0.826500  1
  O  O18  1  0.786339  0.054948  0.326500  1
  O  O19  1  0.286339  0.945052  0.173500  1
  O  O20  1  0.197905  0.750000  0.454030  1
  O  O21  1  0.697905  0.250000  0.045970  1
  O  O22  1  0.802095  0.250000  0.545970  1
  O  O23  1  0.302095  0.750000  0.954030  1
  O  O24  1  0.735904  0.750000  0.597630  1
  O  O25  1  0.235904  0.250000  0.902370  1
  O  O26  1  0.264096  0.250000  0.402370  1
  O  O27  1  0.764096  0.750000  0.097630  1
