# generated using pymatgen
data_DyEr9(In2Bi)2
_symmetry_space_group_name_H-M   'P 1'
_cell_length_a   8.98351156
_cell_length_b   8.97813492
_cell_length_c   6.56352500
_cell_angle_alpha   90.00000000
_cell_angle_beta   90.00000000
_cell_angle_gamma   120.01206450
_symmetry_Int_Tables_number   1
_chemical_formula_structural   DyEr9(In2Bi)2
_chemical_formula_sum   'Dy1 Er9 In4 Bi2'
_cell_volume   458.40276035
_cell_formula_units_Z   1
loop_
 _symmetry_equiv_pos_site_id
 _symmetry_equiv_pos_as_xyz
  1  'x, y, z'
loop_
 _atom_site_type_symbol
 _atom_site_label
 _atom_site_symmetry_multiplicity
 _atom_site_fract_x
 _atom_site_fract_y
 _atom_site_fract_z
 _atom_site_occupancy
  Dy  Dy0  1  0.769844  0.761098  0.750000  1
  Er  Er1  1  0.670808  0.338062  0.006823  1
  Er  Er2  1  0.329049  0.667221  0.006690  1
  Er  Er3  1  0.329049  0.667221  0.493310  1
  Er  Er4  1  0.670808  0.338062  0.493177  1
  Er  Er5  1  0.230175  0.991200  0.750000  1
  Er  Er6  1  0.000093  0.241466  0.750000  1
  Er  Er7  1  0.236623  0.237149  0.250000  1
  Er  Er8  1  0.763187  0.000646  0.250000  1
  Er  Er9  1  0.000131  0.761763  0.250000  1
  In  In10  1  0.000452  0.597608  0.750000  1
  In  In11  1  0.604931  0.606908  0.250000  1
  In  In12  1  0.395245  0.002113  0.250000  1
  In  In13  1  0.000022  0.395804  0.250000  1
  Bi  Bi14  1  0.394882  0.394102  0.750000  1
  Bi  Bi15  1  0.604702  0.999573  0.750000  1
