# generated using pymatgen
data_TbYb2Er(Ru2O7)2
_symmetry_space_group_name_H-M   'P 1'
_cell_length_a   7.22525320
_cell_length_b   7.22525306
_cell_length_c   7.22161808
_cell_angle_alpha   60.00185474
_cell_angle_beta   60.00185789
_cell_angle_gamma   59.96875450
_symmetry_Int_Tables_number   1
_chemical_formula_structural   TbYb2Er(Ru2O7)2
_chemical_formula_sum   'Tb1 Yb2 Er1 Ru4 O14'
_cell_volume   266.52329473
_cell_formula_units_Z   1
loop_
 _symmetry_equiv_pos_site_id
 _symmetry_equiv_pos_as_xyz
  1  'x, y, z'
loop_
 _atom_site_type_symbol
 _atom_site_label
 _atom_site_symmetry_multiplicity
 _atom_site_fract_x
 _atom_site_fract_y
 _atom_site_fract_z
 _atom_site_occupancy
  Tb  Tb0  1  0.125000  0.125000  0.625000  1
  Yb  Yb1  1  0.125000  0.625000  0.125000  1
  Yb  Yb2  1  0.625000  0.125000  0.125000  1
  Er  Er3  1  0.125000  0.125000  0.125000  1
  Ru  Ru4  1  0.625000  0.625000  0.125000  1
  Ru  Ru5  1  0.625000  0.125000  0.625000  1
  Ru  Ru6  1  0.125000  0.625000  0.625000  1
  Ru  Ru7  1  0.625000  0.625000  0.625000  1
  O  O8  1  0.245273  0.245273  0.251588  1
  O  O9  1  0.004727  0.004727  0.998412  1
  O  O10  1  0.546063  0.954351  0.547007  1
  O  O11  1  0.296013  0.705334  0.297570  1
  O  O12  1  0.552381  0.552381  0.947623  1
  O  O13  1  0.954351  0.546063  0.547007  1
  O  O14  1  0.544666  0.953987  0.952430  1
  O  O15  1  0.959414  0.959414  0.538633  1
  O  O16  1  0.953987  0.544666  0.952430  1
  O  O17  1  0.705334  0.296013  0.297570  1
  O  O18  1  0.295649  0.703937  0.702993  1
  O  O19  1  0.703937  0.295649  0.702993  1
  O  O20  1  0.290586  0.290586  0.711367  1
  O  O21  1  0.697619  0.697619  0.302377  1
