# generated using pymatgen
data_Ho8Ta12Si15P
_symmetry_space_group_name_H-M   'P 1'
_cell_length_a   7.00571429
_cell_length_b   7.00945557
_cell_length_c   12.96956848
_cell_angle_alpha   89.91721335
_cell_angle_beta   90.00028689
_cell_angle_gamma   90.01913061
_symmetry_Int_Tables_number   1
_chemical_formula_structural   Ho8Ta12Si15P
_chemical_formula_sum   'Ho8 Ta12 Si15 P1'
_cell_volume   636.88608121
_cell_formula_units_Z   1
loop_
 _symmetry_equiv_pos_site_id
 _symmetry_equiv_pos_as_xyz
  1  'x, y, z'
loop_
 _atom_site_type_symbol
 _atom_site_label
 _atom_site_symmetry_multiplicity
 _atom_site_fract_x
 _atom_site_fract_y
 _atom_site_fract_z
 _atom_site_occupancy
  Ho  Ho0  1  0.340646  0.002682  0.468999  1
  Ho  Ho1  1  0.494834  0.844777  0.718200  1
  Ho  Ho2  1  0.501660  0.158254  0.218489  1
  Ho  Ho3  1  0.841225  0.496978  0.281863  1
  Ho  Ho4  1  0.158822  0.498457  0.780425  1
  Ho  Ho5  1  0.659895  0.996914  0.968572  1
  Ho  Ho6  1  0.002642  0.340784  0.532883  1
  Ho  Ho7  1  0.998011  0.658646  0.031237  1
  Ta  Ta8  1  0.328654  0.328767  0.999705  1
  Ta  Ta9  1  0.171746  0.828814  0.249866  1
  Ta  Ta10  1  0.829805  0.171835  0.749408  1
  Ta  Ta11  1  0.670882  0.670791  0.500218  1
  Ta  Ta12  1  0.154957  0.008880  0.871464  1
  Ta  Ta13  1  0.492655  0.653042  0.124061  1
  Ta  Ta14  1  0.503561  0.343976  0.624979  1
  Ta  Ta15  1  0.653377  0.495699  0.876086  1
  Ta  Ta16  1  0.346476  0.506248  0.376081  1
  Ta  Ta17  1  0.847324  0.993868  0.374669  1
  Ta  Ta18  1  0.007213  0.152236  0.125910  1
  Ta  Ta19  1  0.995914  0.848952  0.626187  1
  Si  Si20  1  0.364119  0.703397  0.931361  1
  Si  Si21  1  0.634420  0.296356  0.432354  1
  Si  Si22  1  0.703310  0.365123  0.068119  1
  Si  Si23  1  0.297481  0.634861  0.567954  1
  Si  Si24  1  0.796768  0.864802  0.182083  1
  Si  Si25  1  0.135153  0.202818  0.318185  1
  Si  Si26  1  0.865675  0.796447  0.817696  1
  Si  Si27  1  0.295221  0.955474  0.063147  1
  Si  Si28  1  0.544864  0.794924  0.314030  1
  Si  Si29  1  0.460628  0.206508  0.816327  1
  Si  Si30  1  0.793190  0.546071  0.685631  1
  Si  Si31  1  0.204979  0.454850  0.186208  1
  Si  Si32  1  0.705115  0.044356  0.563740  1
  Si  Si33  1  0.955212  0.294649  0.936339  1
  Si  Si34  1  0.044229  0.704671  0.436162  1
  P  P35  1  0.199337  0.134092  0.681362  1
