# generated using pymatgen
data_Dy6Tm10Cd4Ru3Pt
_symmetry_space_group_name_H-M   'P 1'
_cell_length_a   9.57806919
_cell_length_b   9.61222214
_cell_length_c   9.61222170
_cell_angle_alpha   59.56473061
_cell_angle_beta   59.44342185
_cell_angle_gamma   59.44341890
_symmetry_Int_Tables_number   1
_chemical_formula_structural   Dy6Tm10Cd4Ru3Pt
_chemical_formula_sum   'Dy6 Tm10 Cd4 Ru3 Pt1'
_cell_volume   618.41585251
_cell_formula_units_Z   1
loop_
 _symmetry_equiv_pos_site_id
 _symmetry_equiv_pos_as_xyz
  1  'x, y, z'
loop_
 _atom_site_type_symbol
 _atom_site_label
 _atom_site_symmetry_multiplicity
 _atom_site_fract_x
 _atom_site_fract_y
 _atom_site_fract_z
 _atom_site_occupancy
  Dy  Dy0  1  0.937787  0.560613  0.560613  1
  Dy  Dy1  1  0.556355  0.938948  0.938948  1
  Dy  Dy2  1  0.556175  0.939592  0.564675  1
  Dy  Dy3  1  0.938477  0.559760  0.939900  1
  Dy  Dy4  1  0.556175  0.564675  0.939592  1
  Dy  Dy5  1  0.938477  0.939900  0.559760  1
  Tm  Tm6  1  0.345548  0.350658  0.350658  1
  Tm  Tm7  1  0.346307  0.350233  0.956053  1
  Tm  Tm8  1  0.346307  0.956053  0.350233  1
  Tm  Tm9  1  0.964404  0.345401  0.345401  1
  Tm  Tm10  1  0.815681  0.188326  0.188326  1
  Tm  Tm11  1  0.184279  0.812167  0.812167  1
  Tm  Tm12  1  0.186797  0.811807  0.187914  1
  Tm  Tm13  1  0.814872  0.188632  0.805818  1
  Tm  Tm14  1  0.186797  0.187914  0.811807  1
  Tm  Tm15  1  0.814872  0.805818  0.188632  1
  Cd  Cd16  1  0.579946  0.579997  0.579997  1
  Cd  Cd17  1  0.580700  0.580240  0.258285  1
  Cd  Cd18  1  0.580700  0.258285  0.580240  1
  Cd  Cd19  1  0.256266  0.581109  0.581109  1
  Ru  Ru20  1  0.145077  0.138555  0.138555  1
  Ru  Ru21  1  0.145854  0.140866  0.577606  1
  Ru  Ru22  1  0.145854  0.577606  0.140866  1
  Pt  Pt23  1  0.576299  0.142841  0.142841  1
