# generated using pymatgen
data_Li4Nd3YSi8
_symmetry_space_group_name_H-M   'P 1'
_cell_length_a   3.85914300
_cell_length_b   7.69916049
_cell_length_c   10.41620624
_cell_angle_alpha   89.87631620
_cell_angle_beta   90.00000000
_cell_angle_gamma   90.00000000
_symmetry_Int_Tables_number   1
_chemical_formula_structural   Li4Nd3YSi8
_chemical_formula_sum   'Li4 Nd3 Y1 Si8'
_cell_volume   309.48727880
_cell_formula_units_Z   1
loop_
 _symmetry_equiv_pos_site_id
 _symmetry_equiv_pos_as_xyz
  1  'x, y, z'
loop_
 _atom_site_type_symbol
 _atom_site_label
 _atom_site_symmetry_multiplicity
 _atom_site_fract_x
 _atom_site_fract_y
 _atom_site_fract_z
 _atom_site_occupancy
  Li  Li0  1  0.250000  0.993810  0.389629  1
  Li  Li1  1  0.750000  0.004875  0.610411  1
  Li  Li2  1  0.250000  0.494599  0.107887  1
  Li  Li3  1  0.750000  0.509400  0.890493  1
  Nd  Nd4  1  0.750000  0.862760  0.135696  1
  Nd  Nd5  1  0.250000  0.637460  0.636865  1
  Nd  Nd6  1  0.750000  0.360040  0.364473  1
  Y  Y7  1  0.250000  0.135321  0.864000  1
  Si  Si8  1  0.750000  0.271890  0.065016  1
  Si  Si9  1  0.250000  0.732205  0.930055  1
  Si  Si10  1  0.750000  0.772349  0.430388  1
  Si  Si11  1  0.250000  0.223067  0.574166  1
  Si  Si12  1  0.750000  0.841903  0.822394  1
  Si  Si13  1  0.250000  0.163999  0.174328  1
  Si  Si14  1  0.750000  0.333261  0.681939  1
  Si  Si15  1  0.250000  0.663058  0.322260  1
