# generated using pymatgen
data_Dy4HoMn2P12Ir17
_symmetry_space_group_name_H-M   'P 1'
_cell_length_a   12.62968309
_cell_length_b   12.72119254
_cell_length_c   3.96693200
_cell_angle_alpha   90.00000000
_cell_angle_beta   90.00000000
_cell_angle_gamma   119.77579021
_symmetry_Int_Tables_number   1
_chemical_formula_structural   Dy4HoMn2P12Ir17
_chemical_formula_sum   'Dy4 Ho1 Mn2 P12 Ir17'
_cell_volume   553.20033622
_cell_formula_units_Z   1
loop_
 _symmetry_equiv_pos_site_id
 _symmetry_equiv_pos_as_xyz
  1  'x, y, z'
loop_
 _atom_site_type_symbol
 _atom_site_label
 _atom_site_symmetry_multiplicity
 _atom_site_fract_x
 _atom_site_fract_y
 _atom_site_fract_z
 _atom_site_occupancy
  Dy  Dy0  1  0.668774  0.336343  0.500000  1
  Dy  Dy1  1  0.000035  0.811379  0.000000  1
  Dy  Dy2  1  0.188650  0.188611  0.000000  1
  Dy  Dy3  1  0.813552  0.000009  0.000000  1
  Ho  Ho4  1  0.332475  0.663608  0.500000  1
  Mn  Mn5  1  0.999549  0.457934  0.500000  1
  Mn  Mn6  1  0.541628  0.542124  0.500000  1
  P  P7  1  0.999751  0.634982  0.500000  1
  P  P8  1  0.364907  0.365093  0.500000  1
  P  P9  1  0.643629  0.000040  0.500000  1
  P  P10  1  0.515457  0.684039  0.000000  1
  P  P11  1  0.309123  0.824370  0.000000  1
  P  P12  1  0.166827  0.481279  0.000000  1
  P  P13  1  0.484558  0.175413  0.000000  1
  P  P14  1  0.685508  0.518892  0.000000  1
  P  P15  1  0.831627  0.315999  0.000000  1
  P  P16  1  0.999821  0.177973  0.500000  1
  P  P17  1  0.821828  0.822053  0.500000  1
  P  P18  1  0.179155  0.999960  0.500000  1
  Ir  Ir19  1  0.505500  0.865644  0.000000  1
  Ir  Ir20  1  0.129542  0.638220  0.000000  1
  Ir  Ir21  1  0.358426  0.492079  0.000000  1
  Ir  Ir22  1  0.490905  0.361815  0.000000  1
  Ir  Ir23  1  0.866815  0.508318  0.000000  1
  Ir  Ir24  1  0.639818  0.133928  0.000000  1
  Ir  Ir25  1  0.462115  0.999965  0.500000  1
  Ir  Ir26  1  0.998182  0.282531  0.000000  1
  Ir  Ir27  1  0.715530  0.717502  0.000000  1
  Ir  Ir28  1  0.287359  0.999934  0.000000  1
  Ir  Ir29  1  0.621952  0.803980  0.500000  1
  Ir  Ir30  1  0.198487  0.821369  0.500000  1
  Ir  Ir31  1  0.178153  0.373563  0.500000  1
  Ir  Ir32  1  0.376977  0.178527  0.500000  1
  Ir  Ir33  1  0.804618  0.626562  0.500000  1
  Ir  Ir34  1  0.818087  0.195966  0.500000  1
  Ir  Ir35  1  0.000678  0.999999  0.500000  1
