# generated using pymatgen
data_MnTe16
_symmetry_space_group_name_H-M   'P 1'
_cell_length_a   4.33528695
_cell_length_b   4.33528567
_cell_length_c   32.91270895
_cell_angle_alpha   86.22374267
_cell_angle_beta   86.22374492
_cell_angle_gamma   59.99999951
_symmetry_Int_Tables_number   1
_chemical_formula_structural   MnTe16
_chemical_formula_sum   'Mn1 Te16'
_cell_volume   534.15871802
_cell_formula_units_Z   1
loop_
 _symmetry_equiv_pos_site_id
 _symmetry_equiv_pos_as_xyz
  1  'x, y, z'
loop_
 _atom_site_type_symbol
 _atom_site_label
 _atom_site_symmetry_multiplicity
 _atom_site_fract_x
 _atom_site_fract_y
 _atom_site_fract_z
 _atom_site_occupancy
  Mn  Mn0  1  0.000000  0.000000  0.000000  1
  Te  Te1  1  0.295654  0.295654  0.113038  1
  Te  Te2  1  0.704346  0.704346  0.886962  1
  Te  Te3  1  0.235897  0.235897  0.292307  1
  Te  Te4  1  0.764103  0.764103  0.707693  1
  Te  Te5  1  0.469964  0.469964  0.590108  1
  Te  Te6  1  0.530036  0.530036  0.409892  1
  Te  Te7  1  0.347335  0.347335  0.957994  1
  Te  Te8  1  0.652665  0.652665  0.042006  1
  Te  Te9  1  0.056505  0.056505  0.830485  1
  Te  Te10  1  0.943495  0.943495  0.169515  1
  Te  Te11  1  0.409469  0.409469  0.771593  1
  Te  Te12  1  0.590531  0.590531  0.228407  1
  Te  Te13  1  0.116684  0.116684  0.649948  1
  Te  Te14  1  0.883316  0.883316  0.350052  1
  Te  Te15  1  0.176301  0.176301  0.471096  1
  Te  Te16  1  0.823699  0.823699  0.528904  1
