# generated using pymatgen
data_Tm9Lu11ZnBi11
_symmetry_space_group_name_H-M   'P 1'
_cell_length_a   8.09661067
_cell_length_b   9.35725507
_cell_length_c   11.83919238
_cell_angle_alpha   89.98888352
_cell_angle_beta   89.71383624
_cell_angle_gamma   90.00785389
_symmetry_Int_Tables_number   1
_chemical_formula_structural   Tm9Lu11ZnBi11
_chemical_formula_sum   'Tm9 Lu11 Zn1 Bi11'
_cell_volume   896.95028685
_cell_formula_units_Z   1
loop_
 _symmetry_equiv_pos_site_id
 _symmetry_equiv_pos_as_xyz
  1  'x, y, z'
loop_
 _atom_site_type_symbol
 _atom_site_label
 _atom_site_symmetry_multiplicity
 _atom_site_fract_x
 _atom_site_fract_y
 _atom_site_fract_z
 _atom_site_occupancy
  Tm  Tm0  1  0.356877  0.249966  0.294601  1
  Tm  Tm1  1  0.647041  0.750041  0.716525  1
  Tm  Tm2  1  0.149225  0.750081  0.782545  1
  Tm  Tm3  1  0.853430  0.250002  0.216227  1
  Tm  Tm4  1  0.191354  0.249965  0.778741  1
  Tm  Tm5  1  0.809942  0.750015  0.217357  1
  Tm  Tm6  1  0.312908  0.750058  0.281262  1
  Tm  Tm7  1  0.675088  0.250028  0.710375  1
  Tm  Tm8  1  0.308953  0.548133  0.558991  1
  Lu  Lu9  1  0.036458  0.249899  0.508792  1
  Lu  Lu10  1  0.979991  0.750068  0.489908  1
  Lu  Lu11  1  0.475672  0.750010  0.010124  1
  Lu  Lu12  1  0.525118  0.250016  0.989492  1
  Lu  Lu13  1  0.193983  0.066456  0.061184  1
  Lu  Lu14  1  0.806028  0.933919  0.940341  1
  Lu  Lu15  1  0.308952  0.951841  0.558983  1
  Lu  Lu16  1  0.806054  0.566072  0.940351  1
  Lu  Lu17  1  0.684033  0.072474  0.445341  1
  Lu  Lu18  1  0.193952  0.433533  0.061186  1
  Lu  Lu19  1  0.684105  0.427472  0.445343  1
  Zn  Zn20  1  0.408202  0.249659  0.539855  1
  Bi  Bi21  1  0.594540  0.750132  0.457130  1
  Bi  Bi22  1  0.094618  0.749997  0.042736  1
  Bi  Bi23  1  0.906552  0.249995  0.954827  1
  Bi  Bi24  1  0.063389  0.002754  0.324319  1
  Bi  Bi25  1  0.934953  0.997336  0.675342  1
  Bi  Bi26  1  0.435377  0.997245  0.825179  1
  Bi  Bi27  1  0.934901  0.502724  0.675363  1
  Bi  Bi28  1  0.564712  0.003884  0.174012  1
  Bi  Bi29  1  0.063456  0.497285  0.324350  1
  Bi  Bi30  1  0.564763  0.496136  0.173996  1
  Bi  Bi31  1  0.435374  0.502804  0.825227  1
