# generated using pymatgen
data_YTm5(ReB7)2
_symmetry_space_group_name_H-M   'P 1'
_cell_length_a   7.99507159
_cell_length_b   7.99507147
_cell_length_c   9.30281700
_cell_angle_alpha   90.00000000
_cell_angle_beta   90.00000000
_cell_angle_gamma   154.65291860
_symmetry_Int_Tables_number   1
_chemical_formula_structural   YTm5(ReB7)2
_chemical_formula_sum   'Y1 Tm5 Re2 B14'
_cell_volume   254.56872580
_cell_formula_units_Z   1
loop_
 _symmetry_equiv_pos_site_id
 _symmetry_equiv_pos_as_xyz
  1  'x, y, z'
loop_
 _atom_site_type_symbol
 _atom_site_label
 _atom_site_symmetry_multiplicity
 _atom_site_fract_x
 _atom_site_fract_y
 _atom_site_fract_z
 _atom_site_occupancy
  Y  Y0  1  0.244546  0.755454  0.750000  1
  Tm  Tm1  1  0.894802  0.105198  0.941474  1
  Tm  Tm2  1  0.105540  0.894460  0.059904  1
  Tm  Tm3  1  0.757316  0.242684  0.250000  1
  Tm  Tm4  1  0.894802  0.105198  0.558526  1
  Tm  Tm5  1  0.105540  0.894460  0.440096  1
  Re  Re6  1  0.052058  0.947942  0.750000  1
  Re  Re7  1  0.947823  0.052177  0.250000  1
  B  B8  1  0.545409  0.454591  0.250000  1
  B  B9  1  0.454137  0.545863  0.750000  1
  B  B10  1  0.519861  0.480139  0.905614  1
  B  B11  1  0.479909  0.520091  0.094583  1
  B  B12  1  0.479909  0.520091  0.405417  1
  B  B13  1  0.519861  0.480139  0.594386  1
  B  B14  1  0.632014  0.367986  0.850353  1
  B  B15  1  0.367632  0.632368  0.150547  1
  B  B16  1  0.727232  0.272768  0.968732  1
  B  B17  1  0.272365  0.727635  0.035383  1
  B  B18  1  0.272365  0.727635  0.464617  1
  B  B19  1  0.727232  0.272768  0.531268  1
  B  B20  1  0.632014  0.367986  0.649647  1
  B  B21  1  0.367632  0.632368  0.349453  1
