# generated using pymatgen
data_La12Ir(OsCl4)3
_symmetry_space_group_name_H-M   'P 1'
_cell_length_a   10.37128256
_cell_length_b   10.37128190
_cell_length_c   10.36467000
_cell_angle_alpha   109.22907809
_cell_angle_beta   109.22907682
_cell_angle_gamma   109.95690387
_symmetry_Int_Tables_number   1
_chemical_formula_structural   La12Ir(OsCl4)3
_chemical_formula_sum   'La12 Ir1 Os3 Cl12'
_cell_volume   858.17024333
_cell_formula_units_Z   1
loop_
 _symmetry_equiv_pos_site_id
 _symmetry_equiv_pos_as_xyz
  1  'x, y, z'
loop_
 _atom_site_type_symbol
 _atom_site_label
 _atom_site_symmetry_multiplicity
 _atom_site_fract_x
 _atom_site_fract_y
 _atom_site_fract_z
 _atom_site_occupancy
  La  La0  1  0.386372  0.613628  0.000000  1
  La  La1  1  0.613588  0.386412  0.000000  1
  La  La2  1  0.639372  0.134290  0.273930  1
  La  La3  1  0.865710  0.360628  0.726070  1
  La  La4  1  0.398645  0.389787  0.258948  1
  La  La5  1  0.126356  0.136913  0.737948  1
  La  La6  1  0.124883  0.363095  0.510533  1
  La  La7  1  0.850810  0.614682  0.488059  1
  La  La8  1  0.610213  0.601355  0.741052  1
  La  La9  1  0.863087  0.873644  0.262052  1
  La  La10  1  0.636905  0.875117  0.489467  1
  La  La11  1  0.385318  0.149190  0.511941  1
  Ir  Ir12  1  0.625207  0.374793  0.500000  1
  Os  Os13  1  0.624279  0.624128  0.250232  1
  Os  Os14  1  0.375872  0.375721  0.749768  1
  Os  Os15  1  0.874452  0.125548  0.500000  1
  Cl  Cl16  1  0.373794  0.626206  0.500000  1
  Cl  Cl17  1  0.126124  0.873876  0.500000  1
  Cl  Cl18  1  0.124333  0.124445  0.248298  1
  Cl  Cl19  1  0.875555  0.875667  0.751702  1
  Cl  Cl20  1  0.875952  0.625859  0.000064  1
  Cl  Cl21  1  0.627163  0.877648  0.000009  1
  Cl  Cl22  1  0.623290  0.123724  0.749544  1
  Cl  Cl23  1  0.373819  0.873866  0.250835  1
  Cl  Cl24  1  0.374141  0.124048  0.999936  1
  Cl  Cl25  1  0.122352  0.372837  0.999991  1
  Cl  Cl26  1  0.876276  0.376710  0.250456  1
  Cl  Cl27  1  0.126134  0.626181  0.749165  1
