# generated using pymatgen
data_Tb2Y10OsRu3
_symmetry_space_group_name_H-M   'P 1'
_cell_length_a   6.36323805
_cell_length_b   7.35139599
_cell_length_c   9.22942500
_cell_angle_alpha   90.00000000
_cell_angle_beta   90.00000000
_cell_angle_gamma   90.04441179
_symmetry_Int_Tables_number   1
_chemical_formula_structural   Tb2Y10OsRu3
_chemical_formula_sum   'Tb2 Y10 Os1 Ru3'
_cell_volume   431.74021355
_cell_formula_units_Z   1
loop_
 _symmetry_equiv_pos_site_id
 _symmetry_equiv_pos_as_xyz
  1  'x, y, z'
loop_
 _atom_site_type_symbol
 _atom_site_label
 _atom_site_symmetry_multiplicity
 _atom_site_fract_x
 _atom_site_fract_y
 _atom_site_fract_z
 _atom_site_occupancy
  Tb  Tb0  1  0.865406  0.542415  0.250000  1
  Tb  Tb1  1  0.634982  0.041997  0.250000  1
  Y  Y2  1  0.331102  0.675580  0.063559  1
  Y  Y3  1  0.169929  0.175813  0.434796  1
  Y  Y4  1  0.670578  0.324315  0.564717  1
  Y  Y5  1  0.828657  0.823460  0.934537  1
  Y  Y6  1  0.670578  0.324315  0.935283  1
  Y  Y7  1  0.828657  0.823460  0.565463  1
  Y  Y8  1  0.331102  0.675580  0.436441  1
  Y  Y9  1  0.169929  0.175813  0.065204  1
  Y  Y10  1  0.133015  0.459096  0.750000  1
  Y  Y11  1  0.365485  0.960196  0.750000  1
  Os  Os12  1  0.539914  0.615627  0.750000  1
  Ru  Ru13  1  0.035883  0.883678  0.250000  1
  Ru  Ru14  1  0.464029  0.383310  0.250000  1
  Ru  Ru15  1  0.960752  0.115348  0.750000  1
