# generated using pymatgen
data_Li2TePdO6
_symmetry_space_group_name_H-M   'P 1'
_cell_length_a   4.91541100
_cell_length_b   5.21689800
_cell_length_c   8.45011800
_cell_angle_alpha   90.00000000
_cell_angle_beta   90.00000000
_cell_angle_gamma   90.00000000
_symmetry_Int_Tables_number   1
_chemical_formula_structural   Li2TePdO6
_chemical_formula_sum   'Li4 Te2 Pd2 O12'
_cell_volume   216.68804743
_cell_formula_units_Z   2
loop_
 _symmetry_equiv_pos_site_id
 _symmetry_equiv_pos_as_xyz
  1  'x, y, z'
loop_
 _atom_site_type_symbol
 _atom_site_label
 _atom_site_symmetry_multiplicity
 _atom_site_fract_x
 _atom_site_fract_y
 _atom_site_fract_z
 _atom_site_occupancy
  Li  Li0  1  0.000000  0.000000  0.298384  1
  Li  Li1  1  0.500000  0.500000  0.798384  1
  Li  Li2  1  0.500000  0.000000  0.189705  1
  Li  Li3  1  0.000000  0.500000  0.689705  1
  Te  Te4  1  0.000000  0.000000  0.903186  1
  Te  Te5  1  0.500000  0.500000  0.403186  1
  Pd  Pd6  1  0.500000  0.000000  0.589153  1
  Pd  Pd7  1  0.000000  0.500000  0.089153  1
  O  O8  1  0.795565  0.834187  0.077655  1
  O  O9  1  0.704435  0.334187  0.577655  1
  O  O10  1  0.295565  0.665813  0.577655  1
  O  O11  1  0.745631  0.331759  0.252125  1
  O  O12  1  0.754369  0.831759  0.752125  1
  O  O13  1  0.245631  0.168241  0.752125  1
  O  O14  1  0.790966  0.321052  0.914956  1
  O  O15  1  0.254369  0.668241  0.252125  1
  O  O16  1  0.290966  0.178948  0.414956  1
  O  O17  1  0.209034  0.678948  0.914956  1
  O  O18  1  0.709034  0.821052  0.414956  1
  O  O19  1  0.204435  0.165813  0.077655  1
