# generated using pymatgen
data_Eu4TaGe3O14
_symmetry_space_group_name_H-M   'P 1'
_cell_length_a   7.27867436
_cell_length_b   7.35096781
_cell_length_c   7.27867400
_cell_angle_alpha   60.32479611
_cell_angle_beta   60.00000161
_cell_angle_gamma   60.32479040
_symmetry_Int_Tables_number   1
_chemical_formula_structural   Eu4TaGe3O14
_chemical_formula_sum   'Eu4 Ta1 Ge3 O14'
_cell_volume   276.72525236
_cell_formula_units_Z   1
loop_
 _symmetry_equiv_pos_site_id
 _symmetry_equiv_pos_as_xyz
  1  'x, y, z'
loop_
 _atom_site_type_symbol
 _atom_site_label
 _atom_site_symmetry_multiplicity
 _atom_site_fract_x
 _atom_site_fract_y
 _atom_site_fract_z
 _atom_site_occupancy
  Eu  Eu0  1  0.625000  0.125000  0.125000  1
  Eu  Eu1  1  0.125000  0.625000  0.125000  1
  Eu  Eu2  1  0.125000  0.125000  0.625000  1
  Eu  Eu3  1  0.125000  0.125000  0.125000  1
  Ta  Ta4  1  0.625000  0.125000  0.625000  1
  Ge  Ge5  1  0.125000  0.625000  0.625000  1
  Ge  Ge6  1  0.625000  0.625000  0.125000  1
  Ge  Ge7  1  0.625000  0.625000  0.625000  1
  O  O8  1  0.250176  0.249472  0.250176  1
  O  O9  1  0.999824  0.000528  0.999824  1
  O  O10  1  0.700579  0.694513  0.302454  1
  O  O11  1  0.297675  0.307127  0.697600  1
  O  O12  1  0.697600  0.307127  0.697600  1
  O  O13  1  0.302454  0.694513  0.302454  1
  O  O14  1  0.302454  0.694513  0.700579  1
  O  O15  1  0.697600  0.307127  0.297675  1
  O  O16  1  0.549421  0.555487  0.947546  1
  O  O17  1  0.952325  0.942873  0.552400  1
  O  O18  1  0.552400  0.942873  0.552400  1
  O  O19  1  0.947546  0.555487  0.947546  1
  O  O20  1  0.947546  0.555487  0.549421  1
  O  O21  1  0.552400  0.942873  0.952325  1
