# generated using pymatgen
data_ZrScVRe3
_symmetry_space_group_name_H-M   'P 1'
_cell_length_a   5.26432226
_cell_length_b   5.26432258
_cell_length_c   5.26432206
_cell_angle_alpha   60.28939475
_cell_angle_beta   60.28939419
_cell_angle_gamma   60.28939934
_symmetry_Int_Tables_number   1
_chemical_formula_structural   ZrScVRe3
_chemical_formula_sum   'Zr1 Sc1 V1 Re3'
_cell_volume   103.83587943
_cell_formula_units_Z   1
loop_
 _symmetry_equiv_pos_site_id
 _symmetry_equiv_pos_as_xyz
  1  'x, y, z'
loop_
 _atom_site_type_symbol
 _atom_site_label
 _atom_site_symmetry_multiplicity
 _atom_site_fract_x
 _atom_site_fract_y
 _atom_site_fract_z
 _atom_site_occupancy
  Zr  Zr0  1  0.000790  0.000790  0.000790  1
  Sc  Sc1  1  0.249893  0.249893  0.249893  1
  V  V2  1  0.624920  0.624920  0.624920  1
  Re  Re3  1  0.624819  0.124760  0.624819  1
  Re  Re4  1  0.624819  0.624819  0.124760  1
  Re  Re5  1  0.124760  0.624819  0.624819  1
