# generated using pymatgen
data_Tb10Pr6MgHg3Rh4
_symmetry_space_group_name_H-M   'P 1'
_cell_length_a   9.79155025
_cell_length_b   9.81982233
_cell_length_c   9.81989722
_cell_angle_alpha   59.75884863
_cell_angle_beta   59.77364214
_cell_angle_gamma   59.77339901
_symmetry_Int_Tables_number   1
_chemical_formula_structural   Tb10Pr6MgHg3Rh4
_chemical_formula_sum   'Tb10 Pr6 Mg1 Hg3 Rh4'
_cell_volume   664.13980606
_cell_formula_units_Z   1
loop_
 _symmetry_equiv_pos_site_id
 _symmetry_equiv_pos_as_xyz
  1  'x, y, z'
loop_
 _atom_site_type_symbol
 _atom_site_label
 _atom_site_symmetry_multiplicity
 _atom_site_fract_x
 _atom_site_fract_y
 _atom_site_fract_z
 _atom_site_occupancy
  Tb  Tb0  1  0.348385  0.347017  0.347004  1
  Tb  Tb1  1  0.349093  0.348679  0.956439  1
  Tb  Tb2  1  0.349086  0.956452  0.348673  1
  Tb  Tb3  1  0.948498  0.351191  0.351190  1
  Tb  Tb4  1  0.809906  0.188971  0.188984  1
  Tb  Tb5  1  0.183001  0.813917  0.813926  1
  Tb  Tb6  1  0.184862  0.813445  0.186591  1
  Tb  Tb7  1  0.809720  0.188239  0.811292  1
  Tb  Tb8  1  0.184868  0.186590  0.813430  1
  Tb  Tb9  1  0.809713  0.811288  0.188244  1
  Pr  Pr10  1  0.939762  0.561042  0.561017  1
  Pr  Pr11  1  0.558935  0.940086  0.940092  1
  Pr  Pr12  1  0.559300  0.939693  0.560991  1
  Pr  Pr13  1  0.940676  0.559861  0.938484  1
  Pr  Pr14  1  0.559323  0.560981  0.939682  1
  Pr  Pr15  1  0.940676  0.938458  0.559900  1
  Mg  Mg16  1  0.286843  0.570366  0.570337  1
  Hg  Hg17  1  0.579927  0.584685  0.584705  1
  Hg  Hg18  1  0.580288  0.584952  0.250567  1
  Hg  Hg19  1  0.580278  0.250565  0.584966  1
  Rh  Rh20  1  0.140515  0.142901  0.142881  1
  Rh  Rh21  1  0.141246  0.143588  0.574263  1
  Rh  Rh22  1  0.141247  0.574253  0.143577  1
  Rh  Rh23  1  0.573853  0.142780  0.142762  1
