# generated using pymatgen
data_Sm2Th(Co3P2)3
_symmetry_space_group_name_H-M   'P 1'
_cell_length_a   3.75798000
_cell_length_b   10.59423600
_cell_length_c   12.28539700
_cell_angle_alpha   90.00000000
_cell_angle_beta   90.00000000
_cell_angle_gamma   90.00000000
_symmetry_Int_Tables_number   1
_chemical_formula_structural   Sm2Th(Co3P2)3
_chemical_formula_sum   'Sm4 Th2 Co18 P12'
_cell_volume   489.11761397
_cell_formula_units_Z   2
loop_
 _symmetry_equiv_pos_site_id
 _symmetry_equiv_pos_as_xyz
  1  'x, y, z'
loop_
 _atom_site_type_symbol
 _atom_site_label
 _atom_site_symmetry_multiplicity
 _atom_site_fract_x
 _atom_site_fract_y
 _atom_site_fract_z
 _atom_site_occupancy
  Sm  Sm0  1  0.500000  0.815697  0.204871  1
  Sm  Sm1  1  0.500000  0.184303  0.204871  1
  Sm  Sm2  1  0.000000  0.684303  0.795129  1
  Sm  Sm3  1  0.000000  0.315697  0.795129  1
  Th  Th4  1  0.000000  0.500000  0.524374  1
  Th  Th5  1  0.500000  0.000000  0.475626  1
  Co  Co6  1  0.500000  0.500000  0.156256  1
  Co  Co7  1  0.000000  0.000000  0.843744  1
  Co  Co8  1  0.500000  0.500000  0.701450  1
  Co  Co9  1  0.000000  0.000000  0.298550  1
  Co  Co10  1  0.000000  0.500000  0.985909  1
  Co  Co11  1  0.500000  0.000000  0.014091  1
  Co  Co12  1  0.500000  0.333792  0.995338  1
  Co  Co13  1  0.500000  0.666208  0.995338  1
  Co  Co14  1  0.000000  0.166208  0.004662  1
  Co  Co15  1  0.000000  0.833792  0.004662  1
  Co  Co16  1  0.500000  0.299266  0.429896  1
  Co  Co17  1  0.500000  0.700734  0.429896  1
  Co  Co18  1  0.000000  0.200734  0.570104  1
  Co  Co19  1  0.000000  0.799266  0.570104  1
  Co  Co20  1  0.500000  0.881392  0.712181  1
  Co  Co21  1  0.500000  0.118608  0.712181  1
  Co  Co22  1  0.000000  0.618608  0.287819  1
  Co  Co23  1  0.000000  0.381392  0.287819  1
  P  P24  1  0.500000  0.500000  0.883546  1
  P  P25  1  0.000000  0.000000  0.116454  1
  P  P26  1  0.500000  0.500000  0.338576  1
  P  P27  1  0.000000  0.000000  0.661424  1
  P  P28  1  0.500000  0.305033  0.616097  1
  P  P29  1  0.500000  0.694967  0.616097  1
  P  P30  1  0.000000  0.194967  0.383903  1
  P  P31  1  0.000000  0.805033  0.383903  1
  P  P32  1  0.500000  0.847911  0.895925  1
  P  P33  1  0.500000  0.152089  0.895925  1
  P  P34  1  0.000000  0.652089  0.104075  1
  P  P35  1  0.000000  0.347911  0.104075  1
