# generated using pymatgen
data_Pr4Mg3Ag10
_symmetry_space_group_name_H-M   'P 1'
_cell_length_a   8.79433017
_cell_length_b   8.79432952
_cell_length_c   10.51142600
_cell_angle_alpha   90.00000000
_cell_angle_beta   90.00000000
_cell_angle_gamma   108.06318829
_symmetry_Int_Tables_number   1
_chemical_formula_structural   Pr4Mg3Ag10
_chemical_formula_sum   'Pr8 Mg6 Ag20'
_cell_volume   772.88975126
_cell_formula_units_Z   2
loop_
 _symmetry_equiv_pos_site_id
 _symmetry_equiv_pos_as_xyz
  1  'x, y, z'
loop_
 _atom_site_type_symbol
 _atom_site_label
 _atom_site_symmetry_multiplicity
 _atom_site_fract_x
 _atom_site_fract_y
 _atom_site_fract_z
 _atom_site_occupancy
  Pr  Pr0  1  0.702474  0.297526  0.000000  1
  Pr  Pr1  1  0.297526  0.702474  0.000000  1
  Pr  Pr2  1  0.797526  0.202474  0.500000  1
  Pr  Pr3  1  0.202474  0.797526  0.500000  1
  Pr  Pr4  1  0.304010  0.304010  0.202906  1
  Pr  Pr5  1  0.695990  0.695990  0.797094  1
  Pr  Pr6  1  0.195990  0.195990  0.702906  1
  Pr  Pr7  1  0.804010  0.804010  0.297094  1
  Mg  Mg8  1  0.019106  0.519106  0.250000  1
  Mg  Mg9  1  0.980894  0.480894  0.750000  1
  Mg  Mg10  1  0.480894  0.980894  0.750000  1
  Mg  Mg11  1  0.519106  0.019106  0.250000  1
  Mg  Mg12  1  0.000000  0.000000  0.000000  1
  Mg  Mg13  1  0.500000  0.500000  0.500000  1
  Ag  Ag14  1  0.097186  0.097186  0.404816  1
  Ag  Ag15  1  0.902814  0.902814  0.595184  1
  Ag  Ag16  1  0.402814  0.402814  0.904816  1
  Ag  Ag17  1  0.597186  0.597186  0.095184  1
  Ag  Ag18  1  0.896098  0.173337  0.205949  1
  Ag  Ag19  1  0.103902  0.826663  0.794051  1
  Ag  Ag20  1  0.603902  0.326663  0.705949  1
  Ag  Ag21  1  0.673337  0.396098  0.294051  1
  Ag  Ag22  1  0.396098  0.673337  0.294051  1
  Ag  Ag23  1  0.326663  0.603902  0.705949  1
  Ag  Ag24  1  0.826663  0.103902  0.794051  1
  Ag  Ag25  1  0.173337  0.896098  0.205949  1
  Ag  Ag26  1  0.931432  0.660255  0.027114  1
  Ag  Ag27  1  0.068568  0.339745  0.972886  1
  Ag  Ag28  1  0.568568  0.839745  0.527114  1
  Ag  Ag29  1  0.160255  0.431432  0.472886  1
  Ag  Ag30  1  0.431432  0.160255  0.472886  1
  Ag  Ag31  1  0.839745  0.568568  0.527114  1
  Ag  Ag32  1  0.339745  0.068568  0.972886  1
  Ag  Ag33  1  0.660255  0.931432  0.027114  1
