# generated using pymatgen
data_Y8Ti(IO8)3
_symmetry_space_group_name_H-M   'P 1'
_cell_length_a   5.46142098
_cell_length_b   7.72024250
_cell_length_c   11.63553150
_cell_angle_alpha   76.35822335
_cell_angle_beta   89.57608312
_cell_angle_gamma   90.21556240
_symmetry_Int_Tables_number   1
_chemical_formula_structural   Y8Ti(IO8)3
_chemical_formula_sum   'Y8 Ti1 I3 O24'
_cell_volume   476.73393769
_cell_formula_units_Z   1
loop_
 _symmetry_equiv_pos_site_id
 _symmetry_equiv_pos_as_xyz
  1  'x, y, z'
loop_
 _atom_site_type_symbol
 _atom_site_label
 _atom_site_symmetry_multiplicity
 _atom_site_fract_x
 _atom_site_fract_y
 _atom_site_fract_z
 _atom_site_occupancy
  Y  Y0  1  0.181327  0.799470  0.064049  1
  Y  Y1  1  0.254889  0.972782  0.757256  1
  Y  Y2  1  0.745943  0.010551  0.253363  1
  Y  Y3  1  0.317378  0.514329  0.761025  1
  Y  Y4  1  0.196757  0.221903  0.422492  1
  Y  Y5  1  0.694725  0.505040  0.238478  1
  Y  Y6  1  0.813521  0.202243  0.921761  1
  Y  Y7  1  0.799701  0.778201  0.591847  1
  Ti  Ti8  1  0.742418  0.710429  0.895550  1
  I  I9  1  0.255501  0.734821  0.379962  1
  I  I10  1  0.746168  0.269030  0.619162  1
  I  I11  1  0.258643  0.276619  0.113615  1
  O  O12  1  0.862485  0.363926  0.464243  1
  O  O13  1  0.469064  0.840975  0.926825  1
  O  O14  1  0.850789  0.636568  0.055755  1
  O  O15  1  0.017939  0.301992  0.718648  1
  O  O16  1  0.967747  0.288252  0.243176  1
  O  O17  1  0.154502  0.355560  0.951715  1
  O  O18  1  0.639418  0.485278  0.885053  1
  O  O19  1  0.535899  0.150188  0.070889  1
  O  O20  1  0.138125  0.642394  0.532664  1
  O  O21  1  0.011364  0.711235  0.766075  1
  O  O22  1  0.469712  0.220822  0.274669  1
  O  O23  1  0.075695  0.950700  0.388692  1
  O  O24  1  0.472365  0.161403  0.563814  1
  O  O25  1  0.976647  0.708545  0.281819  1
  O  O26  1  0.938446  0.059496  0.605870  1
  O  O27  1  0.569968  0.184520  0.766910  1
  O  O28  1  0.510730  0.776700  0.716583  1
  O  O29  1  0.026359  0.058190  0.105284  1
  O  O30  1  0.615068  0.492912  0.618023  1
  O  O31  1  0.371624  0.510887  0.110056  1
  O  O32  1  0.427646  0.815512  0.228179  1
  O  O33  1  0.376268  0.508464  0.375545  1
  O  O34  1  0.541862  0.835970  0.431282  1
  O  O35  1  0.973307  0.944091  0.899671  1
