# generated using pymatgen
data_La4Ga24PdRh
_symmetry_space_group_name_H-M   'P 1'
_cell_length_a   6.20521700
_cell_length_b   6.20521700
_cell_length_c   15.68851300
_cell_angle_alpha   90.00000000
_cell_angle_beta   90.00000000
_cell_angle_gamma   90.00000000
_symmetry_Int_Tables_number   1
_chemical_formula_structural   La4Ga24PdRh
_chemical_formula_sum   'La4 Ga24 Pd1 Rh1'
_cell_volume   604.08176917
_cell_formula_units_Z   1
loop_
 _symmetry_equiv_pos_site_id
 _symmetry_equiv_pos_as_xyz
  1  'x, y, z'
loop_
 _atom_site_type_symbol
 _atom_site_label
 _atom_site_symmetry_multiplicity
 _atom_site_fract_x
 _atom_site_fract_y
 _atom_site_fract_z
 _atom_site_occupancy
  La  La0  1  0.000000  0.500000  0.754933  1
  La  La1  1  0.000000  0.500000  0.245067  1
  La  La2  1  0.500000  0.000000  0.756453  1
  La  La3  1  0.500000  0.000000  0.243547  1
  Ga  Ga4  1  0.247111  0.252889  0.913175  1
  Ga  Ga5  1  0.752889  0.747111  0.913175  1
  Ga  Ga6  1  0.329546  0.829546  0.431192  1
  Ga  Ga7  1  0.171179  0.671179  0.568240  1
  Ga  Ga8  1  0.247158  0.747158  0.913380  1
  Ga  Ga9  1  0.828821  0.671179  0.431760  1
  Ga  Ga10  1  0.000000  0.000000  0.655060  1
  Ga  Ga11  1  0.670454  0.170454  0.431192  1
  Ga  Ga12  1  0.329546  0.170454  0.568808  1
  Ga  Ga13  1  0.000000  0.000000  0.814612  1
  Ga  Ga14  1  0.500000  0.500000  0.344940  1
  Ga  Ga15  1  0.828821  0.328821  0.568240  1
  Ga  Ga16  1  0.670454  0.829546  0.568808  1
  Ga  Ga17  1  0.000000  0.000000  0.185388  1
  Ga  Ga18  1  0.752842  0.747158  0.086620  1
  Ga  Ga19  1  0.500000  0.500000  0.655060  1
  Ga  Ga20  1  0.752842  0.252842  0.913380  1
  Ga  Ga21  1  0.247158  0.252842  0.086620  1
  Ga  Ga22  1  0.247111  0.747111  0.086825  1
  Ga  Ga23  1  0.500000  0.500000  0.185388  1
  Ga  Ga24  1  0.171179  0.328821  0.431760  1
  Ga  Ga25  1  0.500000  0.500000  0.814612  1
  Ga  Ga26  1  0.752889  0.252889  0.086825  1
  Ga  Ga27  1  0.000000  0.000000  0.344940  1
  Pd  Pd28  1  0.500000  0.000000  0.000000  1
  Rh  Rh29  1  0.000000  0.500000  0.000000  1
