# generated using pymatgen
data_K5NdO4
_symmetry_space_group_name_H-M   'P 1'
_cell_length_a   6.37535100
_cell_length_b   8.44929800
_cell_length_c   8.83778800
_cell_angle_alpha   90.00000000
_cell_angle_beta   90.00000000
_cell_angle_gamma   90.00000000
_symmetry_Int_Tables_number   1
_chemical_formula_structural   K5NdO4
_chemical_formula_sum   'K10 Nd2 O8'
_cell_volume   476.06725127
_cell_formula_units_Z   2
loop_
 _symmetry_equiv_pos_site_id
 _symmetry_equiv_pos_as_xyz
  1  'x, y, z'
loop_
 _atom_site_type_symbol
 _atom_site_label
 _atom_site_symmetry_multiplicity
 _atom_site_fract_x
 _atom_site_fract_y
 _atom_site_fract_z
 _atom_site_occupancy
  K  K0  1  0.256323  0.762361  0.810365  1
  K  K1  1  0.256323  0.237639  0.810365  1
  K  K2  1  0.807989  0.500000  0.000000  1
  K  K3  1  0.256323  0.762361  0.189635  1
  K  K4  1  0.256323  0.237639  0.189635  1
  K  K5  1  0.743677  0.737639  0.310365  1
  K  K6  1  0.743677  0.262361  0.310365  1
  K  K7  1  0.192011  0.000000  0.500000  1
  K  K8  1  0.743677  0.737639  0.689635  1
  K  K9  1  0.743677  0.262361  0.689635  1
  Nd  Nd10  1  0.781448  0.000000  0.000000  1
  Nd  Nd11  1  0.218552  0.500000  0.500000  1
  O  O12  1  0.973497  0.000000  0.782276  1
  O  O13  1  0.591339  0.774372  0.000000  1
  O  O14  1  0.591339  0.225628  0.000000  1
  O  O15  1  0.973497  0.000000  0.217724  1
  O  O16  1  0.026503  0.500000  0.282276  1
  O  O17  1  0.408661  0.725628  0.500000  1
  O  O18  1  0.408661  0.274372  0.500000  1
  O  O19  1  0.026503  0.500000  0.717724  1
