# generated using pymatgen
data_RbSbS6
_symmetry_space_group_name_H-M   'P 1'
_cell_length_a   15.54228800
_cell_length_b   6.05778978
_cell_length_c   11.32047239
_cell_angle_alpha   73.24828543
_cell_angle_beta   90.00000000
_cell_angle_gamma   90.00000000
_symmetry_Int_Tables_number   1
_chemical_formula_structural   RbSbS6
_chemical_formula_sum   'Rb4 Sb4 S24'
_cell_volume   1020.61262763
_cell_formula_units_Z   4
loop_
 _symmetry_equiv_pos_site_id
 _symmetry_equiv_pos_as_xyz
  1  'x, y, z'
loop_
 _atom_site_type_symbol
 _atom_site_label
 _atom_site_symmetry_multiplicity
 _atom_site_fract_x
 _atom_site_fract_y
 _atom_site_fract_z
 _atom_site_occupancy
  Rb  Rb0  1  0.075555  0.675853  0.699286  1
  Rb  Rb1  1  0.575555  0.324147  0.800714  1
  Rb  Rb2  1  0.924445  0.324147  0.300714  1
  Rb  Rb3  1  0.424445  0.675853  0.199286  1
  Sb  Sb4  1  0.410736  0.907764  0.616750  1
  Sb  Sb5  1  0.910736  0.092236  0.883250  1
  Sb  Sb6  1  0.589264  0.092236  0.383250  1
  Sb  Sb7  1  0.089264  0.907764  0.116750  1
  S  S8  1  0.382845  0.322949  0.619665  1
  S  S9  1  0.882845  0.677051  0.880335  1
  S  S10  1  0.617155  0.677051  0.380335  1
  S  S11  1  0.117155  0.322949  0.119665  1
  S  S12  1  0.280199  0.269192  0.740148  1
  S  S13  1  0.780199  0.730808  0.759852  1
  S  S14  1  0.719801  0.730808  0.259852  1
  S  S15  1  0.219801  0.269192  0.240148  1
  S  S16  1  0.066132  0.100750  0.869615  1
  S  S17  1  0.566132  0.899250  0.630385  1
  S  S18  1  0.933868  0.899250  0.130385  1
  S  S19  1  0.433868  0.100750  0.369615  1
  S  S20  1  0.068042  0.748867  0.367499  1
  S  S21  1  0.568042  0.251133  0.132501  1
  S  S22  1  0.931958  0.251133  0.632501  1
  S  S23  1  0.431958  0.748867  0.867499  1
  S  S24  1  0.183163  0.588439  0.429558  1
  S  S25  1  0.683163  0.411561  0.070442  1
  S  S26  1  0.816837  0.411561  0.570442  1
  S  S27  1  0.316837  0.588439  0.929558  1
  S  S28  1  0.175929  0.255758  0.415409  1
  S  S29  1  0.675929  0.744242  0.084591  1
  S  S30  1  0.824071  0.744242  0.584591  1
  S  S31  1  0.324071  0.255758  0.915409  1
