# generated using pymatgen
data_Y10Ga3Bi2Ru
_symmetry_space_group_name_H-M   'P 1'
_cell_length_a   8.74057728
_cell_length_b   8.74057680
_cell_length_c   8.84461931
_cell_angle_alpha   125.62722787
_cell_angle_beta   125.62723863
_cell_angle_gamma   79.69509710
_symmetry_Int_Tables_number   1
_chemical_formula_structural   Y10Ga3Bi2Ru
_chemical_formula_sum   'Y10 Ga3 Bi2 Ru1'
_cell_volume   433.06732290
_cell_formula_units_Z   1
loop_
 _symmetry_equiv_pos_site_id
 _symmetry_equiv_pos_as_xyz
  1  'x, y, z'
loop_
 _atom_site_type_symbol
 _atom_site_label
 _atom_site_symmetry_multiplicity
 _atom_site_fract_x
 _atom_site_fract_y
 _atom_site_fract_z
 _atom_site_occupancy
  Y  Y0  1  0.002540  0.002937  0.005478  1
  Y  Y1  1  0.497063  0.497460  0.994522  1
  Y  Y2  1  0.016114  0.501451  0.800137  1
  Y  Y3  1  0.715977  0.201313  0.199863  1
  Y  Y4  1  0.517910  0.705328  0.500000  1
  Y  Y5  1  0.193372  0.039445  0.500000  1
  Y  Y6  1  0.998549  0.483886  0.199863  1
  Y  Y7  1  0.298687  0.784023  0.800137  1
  Y  Y8  1  0.460555  0.306628  0.500000  1
  Y  Y9  1  0.794672  0.982090  0.500000  1
  Ga  Ga10  1  0.359272  0.855406  0.214677  1
  Ga  Ga11  1  0.644594  0.140728  0.785323  1
  Ga  Ga12  1  0.866277  0.633723  0.500000  1
  Bi  Bi13  1  0.755228  0.744772  0.000000  1
  Bi  Bi14  1  0.255228  0.244772  0.000000  1
  Ru  Ru15  1  0.123964  0.376036  0.500000  1
