# generated using pymatgen
data_Lu8B24Mo2IrRu
_symmetry_space_group_name_H-M   'P 1'
_cell_length_a   3.59575800
_cell_length_b   9.09467600
_cell_length_c   11.46093600
_cell_angle_alpha   90.02516055
_cell_angle_beta   90.00000000
_cell_angle_gamma   90.00000000
_symmetry_Int_Tables_number   1
_chemical_formula_structural   Lu8B24Mo2IrRu
_chemical_formula_sum   'Lu8 B24 Mo2 Ir1 Ru1'
_cell_volume   374.79840394
_cell_formula_units_Z   1
loop_
 _symmetry_equiv_pos_site_id
 _symmetry_equiv_pos_as_xyz
  1  'x, y, z'
loop_
 _atom_site_type_symbol
 _atom_site_label
 _atom_site_symmetry_multiplicity
 _atom_site_fract_x
 _atom_site_fract_y
 _atom_site_fract_z
 _atom_site_occupancy
  Lu  Lu0  1  0.000000  0.316776  0.415016  1
  Lu  Lu1  1  0.000000  0.678812  0.589639  1
  Lu  Lu2  1  0.000000  0.824301  0.083339  1
  Lu  Lu3  1  0.000000  0.179448  0.913404  1
  Lu  Lu4  1  0.000000  0.943693  0.372689  1
  Lu  Lu5  1  0.000000  0.054509  0.628780  1
  Lu  Lu6  1  0.000000  0.443218  0.127062  1
  Lu  Lu7  1  0.000000  0.558290  0.872525  1
  B  B8  1  0.500000  0.553710  0.433445  1
  B  B9  1  0.500000  0.448994  0.563483  1
  B  B10  1  0.500000  0.051006  0.063484  1
  B  B11  1  0.500000  0.946496  0.932100  1
  B  B12  1  0.500000  0.749439  0.420996  1
  B  B13  1  0.500000  0.247309  0.578354  1
  B  B14  1  0.500000  0.252306  0.078142  1
  B  B15  1  0.500000  0.751692  0.919662  1
  B  B16  1  0.500000  0.792136  0.265175  1
  B  B17  1  0.500000  0.205054  0.736462  1
  B  B18  1  0.500000  0.295182  0.236654  1
  B  B19  1  0.500000  0.708454  0.765890  1
  B  B20  1  0.500000  0.632104  0.183406  1
  B  B21  1  0.500000  0.369936  0.817204  1
  B  B22  1  0.500000  0.130239  0.317590  1
  B  B23  1  0.500000  0.868171  0.684983  1
  B  B24  1  0.500000  0.977001  0.212443  1
  B  B25  1  0.500000  0.017056  0.787006  1
  B  B26  1  0.500000  0.482356  0.286909  1
  B  B27  1  0.500000  0.523311  0.712629  1
  B  B28  1  0.500000  0.605408  0.029224  1
  B  B29  1  0.500000  0.399697  0.971923  1
  B  B30  1  0.500000  0.099839  0.472173  1
  B  B31  1  0.500000  0.894431  0.529048  1
  Mo  Mo32  1  0.000000  0.362723  0.678588  1
  Mo  Mo33  1  0.000000  0.137602  0.179317  1
  Ir  Ir34  1  0.000000  0.638629  0.320785  1
  Ru  Ru35  1  0.000000  0.860673  0.820471  1
