# generated using pymatgen
data_Ce2Nd(BN2)2
_symmetry_space_group_name_H-M   'P 1'
_cell_length_a   6.37562893
_cell_length_b   6.37562896
_cell_length_c   6.37562912
_cell_angle_alpha   147.58912999
_cell_angle_beta   121.33714949
_cell_angle_gamma   68.63552726
_symmetry_Int_Tables_number   1
_chemical_formula_structural   Ce2Nd(BN2)2
_chemical_formula_sum   'Ce2 Nd1 B2 N4'
_cell_volume   117.05060663
_cell_formula_units_Z   1
loop_
 _symmetry_equiv_pos_site_id
 _symmetry_equiv_pos_as_xyz
  1  'x, y, z'
loop_
 _atom_site_type_symbol
 _atom_site_label
 _atom_site_symmetry_multiplicity
 _atom_site_fract_x
 _atom_site_fract_y
 _atom_site_fract_z
 _atom_site_occupancy
  Ce  Ce0  1  0.698023  0.198023  0.500000  1
  Ce  Ce1  1  0.301977  0.801977  0.500000  1
  Nd  Nd2  1  0.000000  0.000000  0.000000  1
  B  B3  1  0.358568  0.500000  0.858568  1
  B  B4  1  0.641432  0.500000  0.141432  1
  N  N5  1  0.367017  0.623480  0.743537  1
  N  N6  1  0.879941  0.623480  0.256463  1
  N  N7  1  0.120059  0.376520  0.743537  1
  N  N8  1  0.632983  0.376520  0.256463  1
