# generated using pymatgen
data_Ca6PrTh(Si3Pd)4
_symmetry_space_group_name_H-M   'P 1'
_cell_length_a   8.26825600
_cell_length_b   8.26825536
_cell_length_c   8.45181100
_cell_angle_alpha   90.00000000
_cell_angle_beta   90.00000000
_cell_angle_gamma   120.00000257
_symmetry_Int_Tables_number   1
_chemical_formula_structural   Ca6PrTh(Si3Pd)4
_chemical_formula_sum   'Ca6 Pr1 Th1 Si12 Pd4'
_cell_volume   500.38950562
_cell_formula_units_Z   1
loop_
 _symmetry_equiv_pos_site_id
 _symmetry_equiv_pos_as_xyz
  1  'x, y, z'
loop_
 _atom_site_type_symbol
 _atom_site_label
 _atom_site_symmetry_multiplicity
 _atom_site_fract_x
 _atom_site_fract_y
 _atom_site_fract_z
 _atom_site_occupancy
  Ca  Ca0  1  0.499566  0.500434  0.750000  1
  Ca  Ca1  1  0.500452  0.499548  0.250000  1
  Ca  Ca2  1  0.000867  0.500434  0.750000  1
  Ca  Ca3  1  0.999094  0.499548  0.250000  1
  Ca  Ca4  1  0.499566  0.999133  0.750000  1
  Ca  Ca5  1  0.500452  0.000906  0.250000  1
  Pr  Pr6  1  0.000000  0.000000  0.250000  1
  Th  Th7  1  0.000000  0.000000  0.750000  1
  Si  Si8  1  0.834619  0.165381  0.998674  1
  Si  Si9  1  0.165391  0.834609  0.999143  1
  Si  Si10  1  0.330762  0.165381  0.998674  1
  Si  Si11  1  0.165391  0.834609  0.500857  1
  Si  Si12  1  0.669216  0.834609  0.999143  1
  Si  Si13  1  0.834619  0.165381  0.501326  1
  Si  Si14  1  0.834619  0.669238  0.998674  1
  Si  Si15  1  0.669216  0.834609  0.500857  1
  Si  Si16  1  0.165391  0.330784  0.999143  1
  Si  Si17  1  0.330762  0.165381  0.501326  1
  Si  Si18  1  0.165391  0.330784  0.500857  1
  Si  Si19  1  0.834619  0.669238  0.501326  1
  Pd  Pd20  1  0.666667  0.333333  0.998283  1
  Pd  Pd21  1  0.333333  0.666667  0.001515  1
  Pd  Pd22  1  0.333333  0.666667  0.498485  1
  Pd  Pd23  1  0.666667  0.333333  0.501717  1
