# generated using pymatgen
data_PuPa(Fe5P3)2
_symmetry_space_group_name_H-M   'P 1'
_cell_length_a   3.66464400
_cell_length_b   10.30708600
_cell_length_c   11.75533700
_cell_angle_alpha   90.00000000
_cell_angle_beta   90.00000000
_cell_angle_gamma   90.00000000
_symmetry_Int_Tables_number   1
_chemical_formula_structural   PuPa(Fe5P3)2
_chemical_formula_sum   'Pu2 Pa2 Fe20 P12'
_cell_volume   444.02024829
_cell_formula_units_Z   2
loop_
 _symmetry_equiv_pos_site_id
 _symmetry_equiv_pos_as_xyz
  1  'x, y, z'
loop_
 _atom_site_type_symbol
 _atom_site_label
 _atom_site_symmetry_multiplicity
 _atom_site_fract_x
 _atom_site_fract_y
 _atom_site_fract_z
 _atom_site_occupancy
  Pu  Pu0  1  0.250000  0.581108  0.702491  1
  Pu  Pu1  1  0.250000  0.918892  0.202491  1
  Pa  Pa2  1  0.750000  0.420990  0.295901  1
  Pa  Pa3  1  0.750000  0.079010  0.795901  1
  Fe  Fe4  1  0.250000  0.706125  0.992278  1
  Fe  Fe5  1  0.250000  0.793875  0.492278  1
  Fe  Fe6  1  0.750000  0.292649  0.009476  1
  Fe  Fe7  1  0.750000  0.207351  0.509476  1
  Fe  Fe8  1  0.250000  0.404596  0.482637  1
  Fe  Fe9  1  0.250000  0.095404  0.982637  1
  Fe  Fe10  1  0.750000  0.594732  0.514605  1
  Fe  Fe11  1  0.750000  0.905268  0.014605  1
  Fe  Fe12  1  0.250000  0.223247  0.172838  1
  Fe  Fe13  1  0.250000  0.276753  0.672838  1
  Fe  Fe14  1  0.750000  0.778696  0.829210  1
  Fe  Fe15  1  0.750000  0.721304  0.329210  1
  Fe  Fe16  1  0.250000  0.883974  0.702222  1
  Fe  Fe17  1  0.250000  0.616026  0.202222  1
  Fe  Fe18  1  0.750000  0.120239  0.299389  1
  Fe  Fe19  1  0.750000  0.379761  0.799389  1
  Fe  Fe20  1  0.250000  0.465020  0.931626  1
  Fe  Fe21  1  0.250000  0.034980  0.431626  1
  Fe  Fe22  1  0.750000  0.534715  0.067183  1
  Fe  Fe23  1  0.750000  0.965285  0.567183  1
  P  P24  1  0.250000  0.420801  0.109806  1
  P  P25  1  0.250000  0.079199  0.609806  1
  P  P26  1  0.750000  0.577928  0.886534  1
  P  P27  1  0.750000  0.922072  0.386534  1
  P  P28  1  0.250000  0.272122  0.865717  1
  P  P29  1  0.250000  0.227878  0.365717  1
  P  P30  1  0.750000  0.727770  0.136326  1
  P  P31  1  0.750000  0.772230  0.636326  1
  P  P32  1  0.250000  0.607019  0.396079  1
  P  P33  1  0.250000  0.892981  0.896079  1
  P  P34  1  0.750000  0.393968  0.605680  1
  P  P35  1  0.750000  0.106032  0.105680  1
