# generated using pymatgen
data_YbY2Ho4CoBr12
_symmetry_space_group_name_H-M   'P 1'
_cell_length_a   9.15209532
_cell_length_b   9.32798716
_cell_length_c   9.20794800
_cell_angle_alpha   106.57352795
_cell_angle_beta   106.97433503
_cell_angle_gamma   107.36827603
_symmetry_Int_Tables_number   1
_chemical_formula_structural   YbY2Ho4CoBr12
_chemical_formula_sum   'Yb1 Y2 Ho4 Co1 Br12'
_cell_volume   655.13603415
_cell_formula_units_Z   1
loop_
 _symmetry_equiv_pos_site_id
 _symmetry_equiv_pos_as_xyz
  1  'x, y, z'
loop_
 _atom_site_type_symbol
 _atom_site_label
 _atom_site_symmetry_multiplicity
 _atom_site_fract_x
 _atom_site_fract_y
 _atom_site_fract_z
 _atom_site_occupancy
  Yb  Yb0  1  0.500000  0.500000  0.500000  1
  Y  Y1  1  0.976942  0.898855  0.691999  1
  Y  Y2  1  0.023058  0.101145  0.308001  1
  Ho  Ho3  1  0.099692  0.303923  0.022807  1
  Ho  Ho4  1  0.297480  0.024374  0.097196  1
  Ho  Ho5  1  0.900308  0.696077  0.977193  1
  Ho  Ho6  1  0.702520  0.975626  0.902804  1
  Co  Co7  1  0.000000  0.000000  0.000000  1
  Br  Br8  1  0.545812  0.625093  0.843684  1
  Br  Br9  1  0.454188  0.374907  0.156316  1
  Br  Br10  1  0.323634  0.930709  0.784241  1
  Br  Br11  1  0.379894  0.159376  0.453731  1
  Br  Br12  1  0.929825  0.780844  0.320950  1
  Br  Br13  1  0.676366  0.069291  0.215759  1
  Br  Br14  1  0.070175  0.219156  0.679050  1
  Br  Br15  1  0.780601  0.315881  0.927085  1
  Br  Br16  1  0.219399  0.684119  0.072915  1
  Br  Br17  1  0.844968  0.547396  0.626349  1
  Br  Br18  1  0.155032  0.452604  0.373651  1
  Br  Br19  1  0.620106  0.840624  0.546269  1
