# generated using pymatgen
data_Er6BeSi11Pt8
_symmetry_space_group_name_H-M   'P 1'
_cell_length_a   4.24747700
_cell_length_b   8.55452677
_cell_length_c   12.93299800
_cell_angle_alpha   80.31815475
_cell_angle_beta   90.00000000
_cell_angle_gamma   90.00000000
_symmetry_Int_Tables_number   1
_chemical_formula_structural   Er6BeSi11Pt8
_chemical_formula_sum   'Er6 Be1 Si11 Pt8'
_cell_volume   463.22929953
_cell_formula_units_Z   1
loop_
 _symmetry_equiv_pos_site_id
 _symmetry_equiv_pos_as_xyz
  1  'x, y, z'
loop_
 _atom_site_type_symbol
 _atom_site_label
 _atom_site_symmetry_multiplicity
 _atom_site_fract_x
 _atom_site_fract_y
 _atom_site_fract_z
 _atom_site_occupancy
  Er  Er0  1  0.250000  0.763543  0.439647  1
  Er  Er1  1  0.250000  0.589193  0.186887  1
  Er  Er2  1  0.750000  0.238761  0.555541  1
  Er  Er3  1  0.750000  0.409922  0.814071  1
  Er  Er4  1  0.750000  0.932528  0.815853  1
  Er  Er5  1  0.250000  0.068515  0.185221  1
  Be  Be6  1  0.250000  0.409508  0.426123  1
  Si  Si7  1  0.750000  0.580956  0.563120  1
  Si  Si8  1  0.750000  0.128692  0.007033  1
  Si  Si9  1  0.750000  0.875672  0.568013  1
  Si  Si10  1  0.250000  0.697409  0.713329  1
  Si  Si11  1  0.750000  0.307879  0.293813  1
  Si  Si12  1  0.750000  0.804490  0.276925  1
  Si  Si13  1  0.250000  0.872922  0.993400  1
  Si  Si14  1  0.250000  0.193528  0.721778  1
  Si  Si15  1  0.250000  0.378289  0.003384  1
  Si  Si16  1  0.250000  0.132009  0.429627  1
  Si  Si17  1  0.750000  0.618354  0.000026  1
  Pt  Pt18  1  0.750000  0.350778  0.103828  1
  Pt  Pt19  1  0.250000  0.968755  0.624637  1
  Pt  Pt20  1  0.750000  0.849832  0.087532  1
  Pt  Pt21  1  0.750000  0.028179  0.375743  1
  Pt  Pt22  1  0.250000  0.646602  0.899629  1
  Pt  Pt23  1  0.250000  0.151721  0.911415  1
  Pt  Pt24  1  0.750000  0.534005  0.376756  1
  Pt  Pt25  1  0.250000  0.467953  0.626670  1
