# generated using pymatgen
data_Nd6Tl7Hg3
_symmetry_space_group_name_H-M   'P 1'
_cell_length_a   6.57594154
_cell_length_b   6.58040573
_cell_length_c   10.90509900
_cell_angle_alpha   90.00000000
_cell_angle_beta   90.00000000
_cell_angle_gamma   103.95443097
_symmetry_Int_Tables_number   1
_chemical_formula_structural   Nd6Tl7Hg3
_chemical_formula_sum   'Nd6 Tl7 Hg3'
_cell_volume   457.96292509
_cell_formula_units_Z   1
loop_
 _symmetry_equiv_pos_site_id
 _symmetry_equiv_pos_as_xyz
  1  'x, y, z'
loop_
 _atom_site_type_symbol
 _atom_site_label
 _atom_site_symmetry_multiplicity
 _atom_site_fract_x
 _atom_site_fract_y
 _atom_site_fract_z
 _atom_site_occupancy
  Nd  Nd0  1  0.624001  0.626806  0.250000  1
  Nd  Nd1  1  0.376779  0.375116  0.750000  1
  Nd  Nd2  1  0.202972  0.800606  0.499669  1
  Nd  Nd3  1  0.202972  0.800606  0.000331  1
  Nd  Nd4  1  0.797731  0.200379  0.496918  1
  Nd  Nd5  1  0.797731  0.200379  0.003082  1
  Tl  Tl6  1  0.313842  0.310325  0.040701  1
  Tl  Tl7  1  0.687533  0.688760  0.960351  1
  Tl  Tl8  1  0.313842  0.310325  0.459299  1
  Tl  Tl9  1  0.687533  0.688760  0.539649  1
  Tl  Tl10  1  0.920808  0.486760  0.750000  1
  Tl  Tl11  1  0.485829  0.920106  0.750000  1
  Tl  Tl12  1  0.078680  0.512070  0.250000  1
  Hg  Hg13  1  0.015793  0.013895  0.250000  1
  Hg  Hg14  1  0.985692  0.988570  0.750000  1
  Hg  Hg15  1  0.508263  0.076539  0.250000  1
