# generated using pymatgen
data_YEr7(B6Ir)4
_symmetry_space_group_name_H-M   'P 1'
_cell_length_a   3.62460500
_cell_length_b   9.15305001
_cell_length_c   11.49439900
_cell_angle_alpha   89.99612230
_cell_angle_beta   90.00000000
_cell_angle_gamma   90.00000000
_symmetry_Int_Tables_number   1
_chemical_formula_structural   YEr7(B6Ir)4
_chemical_formula_sum   'Y1 Er7 B24 Ir4'
_cell_volume   381.34037388
_cell_formula_units_Z   1
loop_
 _symmetry_equiv_pos_site_id
 _symmetry_equiv_pos_as_xyz
  1  'x, y, z'
loop_
 _atom_site_type_symbol
 _atom_site_label
 _atom_site_symmetry_multiplicity
 _atom_site_fract_x
 _atom_site_fract_y
 _atom_site_fract_z
 _atom_site_occupancy
  Y  Y0  1  0.500000  0.322280  0.413154  1
  Er  Er1  1  0.500000  0.677817  0.586859  1
  Er  Er2  1  0.500000  0.177828  0.913146  1
  Er  Er3  1  0.500000  0.822167  0.086713  1
  Er  Er4  1  0.500000  0.444663  0.125284  1
  Er  Er5  1  0.500000  0.555428  0.874627  1
  Er  Er6  1  0.500000  0.055180  0.625763  1
  Er  Er7  1  0.500000  0.944565  0.374488  1
  B  B8  1  0.000000  0.109456  0.470235  1
  B  B9  1  0.000000  0.889729  0.530117  1
  B  B10  1  0.000000  0.389253  0.969753  1
  B  B11  1  0.000000  0.610909  0.030117  1
  B  B12  1  0.000000  0.132316  0.315583  1
  B  B13  1  0.000000  0.867086  0.684085  1
  B  B14  1  0.000000  0.367167  0.816149  1
  B  B15  1  0.000000  0.633017  0.183772  1
  B  B16  1  0.000000  0.053413  0.065767  1
  B  B17  1  0.000000  0.946445  0.933980  1
  B  B18  1  0.000000  0.446847  0.566644  1
  B  B19  1  0.000000  0.554236  0.434005  1
  B  B20  1  0.000000  0.482957  0.286481  1
  B  B21  1  0.000000  0.517921  0.713163  1
  B  B22  1  0.000000  0.017620  0.787118  1
  B  B23  1  0.000000  0.982066  0.212840  1
  B  B24  1  0.000000  0.249760  0.078944  1
  B  B25  1  0.000000  0.750189  0.920785  1
  B  B26  1  0.000000  0.249892  0.579985  1
  B  B27  1  0.000000  0.749975  0.420882  1
  B  B28  1  0.000000  0.293797  0.234245  1
  B  B29  1  0.000000  0.705960  0.765175  1
  B  B30  1  0.000000  0.205740  0.735252  1
  B  B31  1  0.000000  0.794188  0.264937  1
  Ir  Ir32  1  0.500000  0.138409  0.178231  1
  Ir  Ir33  1  0.500000  0.861036  0.821388  1
  Ir  Ir34  1  0.500000  0.360830  0.679568  1
  Ir  Ir35  1  0.500000  0.639858  0.320762  1
