# generated using pymatgen
data_Cd2Ni2SnPbO8
_symmetry_space_group_name_H-M   'P 1'
_cell_length_a   6.38417950
_cell_length_b   6.35250197
_cell_length_c   6.43462299
_cell_angle_alpha   60.50913067
_cell_angle_beta   91.00892564
_cell_angle_gamma   119.75693967
_symmetry_Int_Tables_number   1
_chemical_formula_structural   Cd2Ni2SnPbO8
_chemical_formula_sum   'Cd2 Ni2 Sn1 Pb1 O8'
_cell_volume   188.11082239
_cell_formula_units_Z   1
loop_
 _symmetry_equiv_pos_site_id
 _symmetry_equiv_pos_as_xyz
  1  'x, y, z'
loop_
 _atom_site_type_symbol
 _atom_site_label
 _atom_site_symmetry_multiplicity
 _atom_site_fract_x
 _atom_site_fract_y
 _atom_site_fract_z
 _atom_site_occupancy
  Cd  Cd0  1  0.987536  0.001764  0.983869  1
  Cd  Cd1  1  0.762465  0.498242  0.766071  1
  Ni  Ni2  1  0.374934  0.250059  0.374965  1
  Ni  Ni3  1  0.374982  0.749986  0.375011  1
  Sn  Sn4  1  0.874914  0.249874  0.375055  1
  Pb  Pb5  1  0.375060  0.750054  0.874906  1
  O  O6  1  0.126149  0.263534  0.148029  1
  O  O7  1  0.611925  0.217119  0.176699  1
  O  O8  1  0.572782  0.710091  0.151572  1
  O  O9  1  0.124995  0.713504  0.149121  1
  O  O10  1  0.623842  0.236435  0.601942  1
  O  O11  1  0.138164  0.282929  0.573306  1
  O  O12  1  0.177276  0.789880  0.598591  1
  O  O13  1  0.624981  0.786530  0.600864  1
