# generated using pymatgen
data_Yb3SmOs3RuO14
_symmetry_space_group_name_H-M   'P 1'
_cell_length_a   7.27855206
_cell_length_b   7.24681413
_cell_length_c   7.28398525
_cell_angle_alpha   59.88966082
_cell_angle_beta   60.02467848
_cell_angle_gamma   59.85503099
_symmetry_Int_Tables_number   1
_chemical_formula_structural   Yb3SmOs3RuO14
_chemical_formula_sum   'Yb3 Sm1 Os3 Ru1 O14'
_cell_volume   271.19772804
_cell_formula_units_Z   1
loop_
 _symmetry_equiv_pos_site_id
 _symmetry_equiv_pos_as_xyz
  1  'x, y, z'
loop_
 _atom_site_type_symbol
 _atom_site_label
 _atom_site_symmetry_multiplicity
 _atom_site_fract_x
 _atom_site_fract_y
 _atom_site_fract_z
 _atom_site_occupancy
  Yb  Yb0  1  0.125000  0.125000  0.125000  1
  Yb  Yb1  1  0.625000  0.125000  0.125000  1
  Yb  Yb2  1  0.125000  0.625000  0.125000  1
  Sm  Sm3  1  0.125000  0.125000  0.625000  1
  Os  Os4  1  0.625000  0.625000  0.625000  1
  Os  Os5  1  0.125000  0.625000  0.625000  1
  Os  Os6  1  0.625000  0.625000  0.125000  1
  Ru  Ru7  1  0.625000  0.125000  0.625000  1
  O  O8  1  0.000148  0.000296  0.999407  1
  O  O9  1  0.249852  0.249704  0.250593  1
  O  O10  1  0.295723  0.302195  0.701728  1
  O  O11  1  0.553426  0.556897  0.944722  1
  O  O12  1  0.700354  0.302195  0.701728  1
  O  O13  1  0.695857  0.307650  0.300636  1
  O  O14  1  0.301469  0.695659  0.701402  1
  O  O15  1  0.305045  0.693103  0.305278  1
  O  O16  1  0.696574  0.693103  0.305278  1
  O  O17  1  0.948531  0.554341  0.548598  1
  O  O18  1  0.554143  0.942350  0.949364  1
  O  O19  1  0.954277  0.947805  0.548272  1
  O  O20  1  0.944955  0.556897  0.944722  1
  O  O21  1  0.549646  0.947805  0.548272  1
