# generated using pymatgen
data_Th8Be3FeSi12
_symmetry_space_group_name_H-M   'P 1'
_cell_length_a   8.06594900
_cell_length_b   8.06595034
_cell_length_c   8.51151300
_cell_angle_alpha   90.00000000
_cell_angle_beta   90.00000000
_cell_angle_gamma   119.99999860
_symmetry_Int_Tables_number   1
_chemical_formula_structural   Th8Be3FeSi12
_chemical_formula_sum   'Th8 Be3 Fe1 Si12'
_cell_volume   479.56603874
_cell_formula_units_Z   1
loop_
 _symmetry_equiv_pos_site_id
 _symmetry_equiv_pos_as_xyz
  1  'x, y, z'
loop_
 _atom_site_type_symbol
 _atom_site_label
 _atom_site_symmetry_multiplicity
 _atom_site_fract_x
 _atom_site_fract_y
 _atom_site_fract_z
 _atom_site_occupancy
  Th  Th0  1  0.496974  0.993947  0.251267  1
  Th  Th1  1  0.496899  0.993800  0.748735  1
  Th  Th2  1  0.006053  0.503026  0.251267  1
  Th  Th3  1  0.006200  0.503101  0.748735  1
  Th  Th4  1  0.496974  0.503026  0.251267  1
  Th  Th5  1  0.496899  0.503101  0.748735  1
  Th  Th6  1  0.000000  0.000000  0.250549  1
  Th  Th7  1  0.000000  0.000000  0.749363  1
  Be  Be8  1  0.333333  0.666667  0.000731  1
  Be  Be9  1  0.666667  0.333333  0.999853  1
  Be  Be10  1  0.666667  0.333333  0.500074  1
  Fe  Fe11  1  0.333333  0.666667  0.499719  1
  Si  Si12  1  0.172604  0.345206  0.000005  1
  Si  Si13  1  0.826376  0.652753  0.999936  1
  Si  Si14  1  0.654794  0.827396  0.000005  1
  Si  Si15  1  0.828307  0.656616  0.500019  1
  Si  Si16  1  0.347247  0.173624  0.999936  1
  Si  Si17  1  0.171494  0.342986  0.499942  1
  Si  Si18  1  0.172604  0.827396  0.000005  1
  Si  Si19  1  0.343384  0.171693  0.500019  1
  Si  Si20  1  0.826376  0.173624  0.999936  1
  Si  Si21  1  0.657014  0.828506  0.499942  1
  Si  Si22  1  0.828307  0.171693  0.500019  1
  Si  Si23  1  0.171494  0.828506  0.499942  1
