# generated using pymatgen
data_Li4Tb9Th3Au20
_symmetry_space_group_name_H-M   'P 1'
_cell_length_a   8.57195600
_cell_length_b   8.57195621
_cell_length_c   13.63086200
_cell_angle_alpha   90.00000000
_cell_angle_beta   90.00000000
_cell_angle_gamma   128.44201251
_symmetry_Int_Tables_number   1
_chemical_formula_structural   Li4Tb9Th3Au20
_chemical_formula_sum   'Li4 Tb9 Th3 Au20'
_cell_volume   784.47088326
_cell_formula_units_Z   1
loop_
 _symmetry_equiv_pos_site_id
 _symmetry_equiv_pos_as_xyz
  1  'x, y, z'
loop_
 _atom_site_type_symbol
 _atom_site_label
 _atom_site_symmetry_multiplicity
 _atom_site_fract_x
 _atom_site_fract_y
 _atom_site_fract_z
 _atom_site_occupancy
  Li  Li0  1  0.722255  0.277745  0.250000  1
  Li  Li1  1  0.278203  0.721797  0.750000  1
  Li  Li2  1  0.532717  0.467283  0.250000  1
  Li  Li3  1  0.469924  0.530076  0.750000  1
  Tb  Tb4  1  0.687770  0.312230  0.750000  1
  Tb  Tb5  1  0.631337  0.368663  0.462563  1
  Tb  Tb6  1  0.368102  0.631898  0.538113  1
  Tb  Tb7  1  0.631337  0.368663  0.037437  1
  Tb  Tb8  1  0.368102  0.631898  0.961887  1
  Tb  Tb9  1  0.880030  0.119970  0.947012  1
  Tb  Tb10  1  0.119819  0.880181  0.051304  1
  Tb  Tb11  1  0.880030  0.119970  0.552988  1
  Tb  Tb12  1  0.119819  0.880181  0.448696  1
  Th  Th13  1  0.934420  0.065580  0.250000  1
  Th  Th14  1  0.067261  0.932739  0.750000  1
  Th  Th15  1  0.314164  0.685836  0.250000  1
  Au  Au16  1  0.323155  0.069303  0.250000  1
  Au  Au17  1  0.069241  0.323294  0.750000  1
  Au  Au18  1  0.676706  0.930759  0.750000  1
  Au  Au19  1  0.930697  0.676845  0.250000  1
  Au  Au20  1  0.574146  0.007245  0.398290  1
  Au  Au21  1  0.004598  0.573150  0.604046  1
  Au  Au22  1  0.574146  0.007245  0.101710  1
  Au  Au23  1  0.004598  0.573150  0.895954  1
  Au  Au24  1  0.426850  0.995402  0.604046  1
  Au  Au25  1  0.992755  0.425854  0.398290  1
  Au  Au26  1  0.426850  0.995402  0.895954  1
  Au  Au27  1  0.992755  0.425854  0.101710  1
  Au  Au28  1  0.683334  0.735891  0.395006  1
  Au  Au29  1  0.737628  0.685965  0.604360  1
  Au  Au30  1  0.683334  0.735891  0.104994  1
  Au  Au31  1  0.737628  0.685965  0.895640  1
  Au  Au32  1  0.314035  0.262372  0.604360  1
  Au  Au33  1  0.264109  0.316666  0.395006  1
  Au  Au34  1  0.314035  0.262372  0.895640  1
  Au  Au35  1  0.264109  0.316666  0.104994  1
