# generated using pymatgen
data_Li4Dy3Ho(SiO4)4
_symmetry_space_group_name_H-M   'P 1'
_cell_length_a   6.22876630
_cell_length_b   5.44130803
_cell_length_c   10.92340926
_cell_angle_alpha   66.36198063
_cell_angle_beta   90.03362905
_cell_angle_gamma   90.02387032
_symmetry_Int_Tables_number   1
_chemical_formula_structural   Li4Dy3Ho(SiO4)4
_chemical_formula_sum   'Li4 Dy3 Ho1 Si4 O16'
_cell_volume   339.16019041
_cell_formula_units_Z   1
loop_
 _symmetry_equiv_pos_site_id
 _symmetry_equiv_pos_as_xyz
  1  'x, y, z'
loop_
 _atom_site_type_symbol
 _atom_site_label
 _atom_site_symmetry_multiplicity
 _atom_site_fract_x
 _atom_site_fract_y
 _atom_site_fract_z
 _atom_site_occupancy
  Li  Li0  1  0.134118  0.919292  0.430076  1
  Li  Li1  1  0.633871  0.080644  0.069885  1
  Li  Li2  1  0.866110  0.080977  0.569718  1
  Li  Li3  1  0.366039  0.919189  0.930154  1
  Dy  Dy4  1  0.116542  0.445796  0.847647  1
  Dy  Dy5  1  0.883570  0.553979  0.152672  1
  Dy  Dy6  1  0.616359  0.554242  0.652287  1
  Ho  Ho7  1  0.383667  0.446016  0.347719  1
  Si  Si8  1  0.651168  0.904197  0.359244  1
  Si  Si9  1  0.348271  0.096136  0.640414  1
  Si  Si10  1  0.152301  0.095524  0.141115  1
  Si  Si11  1  0.848201  0.904225  0.859253  1
  O  O12  1  0.858787  0.231284  0.776136  1
  O  O13  1  0.640098  0.231484  0.276553  1
  O  O14  1  0.163716  0.186740  0.523261  1
  O  O15  1  0.837595  0.758854  0.752330  1
  O  O16  1  0.142152  0.768184  0.224228  1
  O  O17  1  0.571184  0.227165  0.554533  1
  O  O18  1  0.661570  0.758158  0.252533  1
  O  O19  1  0.428324  0.772060  0.444913  1
  O  O20  1  0.071325  0.773248  0.944987  1
  O  O21  1  0.663317  0.814271  0.975992  1
  O  O22  1  0.163287  0.241726  0.247781  1
  O  O23  1  0.928811  0.226147  0.055512  1
  O  O24  1  0.336744  0.185684  0.024040  1
  O  O25  1  0.337655  0.241231  0.747486  1
  O  O26  1  0.358682  0.769050  0.723651  1
  O  O27  1  0.836537  0.814495  0.475879  1
