# generated using pymatgen
data_Li2Ca2(NiH4)3
_symmetry_space_group_name_H-M   'P 1'
_cell_length_a   5.87436121
_cell_length_b   5.93954881
_cell_length_c   5.93954912
_cell_angle_alpha   109.14467454
_cell_angle_beta   109.86174531
_cell_angle_gamma   109.86172808
_symmetry_Int_Tables_number   1
_chemical_formula_structural   Li2Ca2(NiH4)3
_chemical_formula_sum   'Li2 Ca2 Ni3 H12'
_cell_volume   158.62391970
_cell_formula_units_Z   1
loop_
 _symmetry_equiv_pos_site_id
 _symmetry_equiv_pos_as_xyz
  1  'x, y, z'
loop_
 _atom_site_type_symbol
 _atom_site_label
 _atom_site_symmetry_multiplicity
 _atom_site_fract_x
 _atom_site_fract_y
 _atom_site_fract_z
 _atom_site_occupancy
  Li  Li0  1  0.000000  0.000000  0.500000  1
  Li  Li1  1  0.000000  0.500000  0.000000  1
  Ca  Ca2  1  0.500000  0.000000  0.000000  1
  Ca  Ca3  1  0.500000  0.500000  0.500000  1
  Ni  Ni4  1  0.000000  0.500000  0.500000  1
  Ni  Ni5  1  0.500000  0.500000  0.000000  1
  Ni  Ni6  1  0.500000  0.000000  0.500000  1
  H  H7  1  0.730162  0.728837  0.001325  1
  H  H8  1  0.269838  0.998675  0.271163  1
  H  H9  1  0.000000  0.273106  0.273106  1
  H  H10  1  0.269838  0.271163  0.998675  1
  H  H11  1  0.730162  0.001325  0.728837  1
  H  H12  1  0.000000  0.726894  0.726894  1
  H  H13  1  0.750832  0.249973  0.500860  1
  H  H14  1  0.750832  0.500860  0.249973  1
  H  H15  1  0.500000  0.250000  0.750000  1
  H  H16  1  0.249168  0.499140  0.750027  1
  H  H17  1  0.249168  0.750027  0.499140  1
  H  H18  1  0.500000  0.750000  0.250000  1
