# generated using pymatgen
data_Y7Th(TcB6)4
_symmetry_space_group_name_H-M   'P 1'
_cell_length_a   3.71724200
_cell_length_b   9.20014189
_cell_length_c   11.59730601
_cell_angle_alpha   89.95749748
_cell_angle_beta   90.00000000
_cell_angle_gamma   90.00000000
_symmetry_Int_Tables_number   1
_chemical_formula_structural   Y7Th(TcB6)4
_chemical_formula_sum   'Y7 Th1 Tc4 B24'
_cell_volume   396.61794340
_cell_formula_units_Z   1
loop_
 _symmetry_equiv_pos_site_id
 _symmetry_equiv_pos_as_xyz
  1  'x, y, z'
loop_
 _atom_site_type_symbol
 _atom_site_label
 _atom_site_symmetry_multiplicity
 _atom_site_fract_x
 _atom_site_fract_y
 _atom_site_fract_z
 _atom_site_occupancy
  Y  Y0  1  0.000000  0.177540  0.912954  1
  Y  Y1  1  0.000000  0.323616  0.415082  1
  Y  Y2  1  0.000000  0.675805  0.585733  1
  Y  Y3  1  0.000000  0.441235  0.131125  1
  Y  Y4  1  0.000000  0.556543  0.868085  1
  Y  Y5  1  0.000000  0.942968  0.371133  1
  Y  Y6  1  0.000000  0.057997  0.630095  1
  Th  Th7  1  0.000000  0.823076  0.085712  1
  Tc  Tc8  1  0.000000  0.138712  0.179631  1
  Tc  Tc9  1  0.000000  0.861983  0.819909  1
  Tc  Tc10  1  0.000000  0.638350  0.321342  1
  Tc  Tc11  1  0.000000  0.361637  0.679076  1
  B  B12  1  0.500000  0.055535  0.067845  1
  B  B13  1  0.500000  0.946929  0.930538  1
  B  B14  1  0.500000  0.553009  0.433229  1
  B  B15  1  0.500000  0.446662  0.567302  1
  B  B16  1  0.500000  0.249245  0.081910  1
  B  B17  1  0.500000  0.751470  0.915181  1
  B  B18  1  0.500000  0.748072  0.419261  1
  B  B19  1  0.500000  0.251568  0.581850  1
  B  B20  1  0.500000  0.291222  0.234973  1
  B  B21  1  0.500000  0.708877  0.764135  1
  B  B22  1  0.500000  0.789787  0.267395  1
  B  B23  1  0.500000  0.208784  0.734605  1
  B  B24  1  0.500000  0.131619  0.315117  1
  B  B25  1  0.500000  0.869685  0.685210  1
  B  B26  1  0.500000  0.629284  0.187574  1
  B  B27  1  0.500000  0.369129  0.813709  1
  B  B28  1  0.500000  0.482168  0.289120  1
  B  B29  1  0.500000  0.517151  0.711184  1
  B  B30  1  0.500000  0.985290  0.213232  1
  B  B31  1  0.500000  0.018069  0.787140  1
  B  B32  1  0.500000  0.101669  0.472184  1
  B  B33  1  0.500000  0.898982  0.528652  1
  B  B34  1  0.500000  0.597803  0.027284  1
  B  B35  1  0.500000  0.398530  0.971492  1
