# generated using pymatgen
data_Nd2I2NF
_symmetry_space_group_name_H-M   'P 1'
_cell_length_a   4.08914100
_cell_length_b   4.08914100
_cell_length_c   10.05638500
_cell_angle_alpha   90.00000000
_cell_angle_beta   90.00000000
_cell_angle_gamma   90.00000000
_symmetry_Int_Tables_number   1
_chemical_formula_structural   Nd2I2NF
_chemical_formula_sum   'Nd2 I2 N1 F1'
_cell_volume   168.15355894
_cell_formula_units_Z   1
loop_
 _symmetry_equiv_pos_site_id
 _symmetry_equiv_pos_as_xyz
  1  'x, y, z'
loop_
 _atom_site_type_symbol
 _atom_site_label
 _atom_site_symmetry_multiplicity
 _atom_site_fract_x
 _atom_site_fract_y
 _atom_site_fract_z
 _atom_site_occupancy
  Nd  Nd0  1  0.000000  0.500000  0.876036  1
  Nd  Nd1  1  0.500000  0.000000  0.123964  1
  I  I2  1  0.000000  0.500000  0.312116  1
  I  I3  1  0.500000  0.000000  0.687884  1
  N  N4  1  0.500000  0.500000  0.000000  1
  F  F5  1  0.000000  0.000000  0.000000  1
