# generated using pymatgen
data_Li4Ac4BiPb3
_symmetry_space_group_name_H-M   'P 1'
_cell_length_a   10.18904074
_cell_length_b   10.19196408
_cell_length_c   8.04707700
_cell_angle_alpha   90.00000562
_cell_angle_beta   90.05527680
_cell_angle_gamma   120.00948163
_symmetry_Int_Tables_number   1
_chemical_formula_structural   Li4Ac4BiPb3
_chemical_formula_sum   'Li8 Ac8 Bi2 Pb6'
_cell_volume   723.63272744
_cell_formula_units_Z   2
loop_
 _symmetry_equiv_pos_site_id
 _symmetry_equiv_pos_as_xyz
  1  'x, y, z'
loop_
 _atom_site_type_symbol
 _atom_site_label
 _atom_site_symmetry_multiplicity
 _atom_site_fract_x
 _atom_site_fract_y
 _atom_site_fract_z
 _atom_site_occupancy
  Li  Li0  1  0.167337  0.334022  0.282487  1
  Li  Li1  1  0.167337  0.833315  0.282487  1
  Li  Li2  1  0.665506  0.832753  0.285141  1
  Li  Li3  1  0.831032  0.665201  0.785765  1
  Li  Li4  1  0.831032  0.165833  0.785765  1
  Li  Li5  1  0.335618  0.167809  0.789115  1
  Li  Li6  1  0.335218  0.667609  0.668353  1
  Li  Li7  1  0.666475  0.333236  0.172269  1
  Ac  Ac8  1  0.515187  0.024936  0.492946  1
  Ac  Ac9  1  0.515187  0.490251  0.492946  1
  Ac  Ac10  1  0.973574  0.486788  0.491078  1
  Ac  Ac11  1  0.491436  0.978313  0.996983  1
  Ac  Ac12  1  0.491436  0.513123  0.996983  1
  Ac  Ac13  1  0.019617  0.509807  0.997928  1
  Ac  Ac14  1  0.996799  0.998400  0.496699  1
  Ac  Ac15  1  0.996767  0.998385  0.003142  1
  Bi  Bi16  1  0.166515  0.333649  0.732854  1
  Bi  Bi17  1  0.166515  0.832867  0.732854  1
  Pb  Pb18  1  0.666333  0.833166  0.730370  1
  Pb  Pb19  1  0.833912  0.666721  0.231408  1
  Pb  Pb20  1  0.833912  0.167191  0.231408  1
  Pb  Pb21  1  0.333583  0.166791  0.230313  1
  Pb  Pb22  1  0.332556  0.666279  0.266297  1
  Pb  Pb23  1  0.667111  0.333555  0.766387  1
