# generated using pymatgen
data_Na11Sr(MnN2)8
_symmetry_space_group_name_H-M   'P 1'
_cell_length_a   5.59627764
_cell_length_b   9.41089786
_cell_length_c   9.51996000
_cell_angle_alpha   90.00000000
_cell_angle_beta   90.00000000
_cell_angle_gamma   88.59745468
_symmetry_Int_Tables_number   1
_chemical_formula_structural   Na11Sr(MnN2)8
_chemical_formula_sum   'Na11 Sr1 Mn8 N16'
_cell_volume   501.22797611
_cell_formula_units_Z   1
loop_
 _symmetry_equiv_pos_site_id
 _symmetry_equiv_pos_as_xyz
  1  'x, y, z'
loop_
 _atom_site_type_symbol
 _atom_site_label
 _atom_site_symmetry_multiplicity
 _atom_site_fract_x
 _atom_site_fract_y
 _atom_site_fract_z
 _atom_site_occupancy
  Na  Na0  1  0.628028  0.140759  0.415180  1
  Na  Na1  1  0.871972  0.859241  0.415180  1
  Na  Na2  1  0.640382  0.340647  0.076751  1
  Na  Na3  1  0.859618  0.659353  0.076751  1
  Na  Na4  1  0.361186  0.845993  0.582704  1
  Na  Na5  1  0.138814  0.154007  0.582704  1
  Na  Na6  1  0.358768  0.655998  0.921154  1
  Na  Na7  1  0.141232  0.344002  0.921154  1
  Na  Na8  1  0.750000  0.000000  0.081738  1
  Na  Na9  1  0.250000  0.500000  0.604220  1
  Na  Na10  1  0.250000  0.000000  0.917199  1
  Sr  Sr11  1  0.750000  0.500000  0.407980  1
  Mn  Mn12  1  0.750000  0.500000  0.741025  1
  Mn  Mn13  1  0.750000  0.000000  0.760972  1
  Mn  Mn14  1  0.250000  0.500000  0.262681  1
  Mn  Mn15  1  0.250000  0.000000  0.237247  1
  Mn  Mn16  1  0.705183  0.250129  0.747953  1
  Mn  Mn17  1  0.794817  0.749871  0.747953  1
  Mn  Mn18  1  0.299785  0.750301  0.250514  1
  Mn  Mn19  1  0.200215  0.249699  0.250514  1
  N  N20  1  0.887857  0.360182  0.636503  1
  N  N21  1  0.612143  0.639818  0.636503  1
  N  N22  1  0.891743  0.140101  0.858435  1
  N  N23  1  0.608257  0.859899  0.858435  1
  N  N24  1  0.113452  0.645570  0.362384  1
  N  N25  1  0.386548  0.354430  0.362384  1
  N  N26  1  0.112878  0.859484  0.138577  1
  N  N27  1  0.387122  0.140516  0.138577  1
  N  N28  1  0.544146  0.394994  0.837628  1
  N  N29  1  0.955854  0.605006  0.837628  1
  N  N30  1  0.545541  0.109162  0.661001  1
  N  N31  1  0.954459  0.890838  0.661001  1
  N  N32  1  0.463224  0.602541  0.166531  1
  N  N33  1  0.036776  0.397459  0.166531  1
  N  N34  1  0.457065  0.892191  0.338154  1
  N  N35  1  0.042935  0.107809  0.338154  1
