# generated using pymatgen
data_SmMnCo4P3
_symmetry_space_group_name_H-M   'P 1'
_cell_length_a   3.68185100
_cell_length_b   10.39385800
_cell_length_c   11.88812800
_cell_angle_alpha   90.00000000
_cell_angle_beta   90.00000000
_cell_angle_gamma   90.00000000
_symmetry_Int_Tables_number   1
_chemical_formula_structural   SmMnCo4P3
_chemical_formula_sum   'Sm4 Mn4 Co16 P12'
_cell_volume   454.94244875
_cell_formula_units_Z   4
loop_
 _symmetry_equiv_pos_site_id
 _symmetry_equiv_pos_as_xyz
  1  'x, y, z'
loop_
 _atom_site_type_symbol
 _atom_site_label
 _atom_site_symmetry_multiplicity
 _atom_site_fract_x
 _atom_site_fract_y
 _atom_site_fract_z
 _atom_site_occupancy
  Sm  Sm0  1  0.250000  0.582619  0.703588  1
  Sm  Sm1  1  0.250000  0.917381  0.203588  1
  Sm  Sm2  1  0.750000  0.417381  0.296412  1
  Sm  Sm3  1  0.750000  0.082619  0.796412  1
  Mn  Mn4  1  0.250000  0.709799  0.988961  1
  Mn  Mn5  1  0.250000  0.790201  0.488961  1
  Mn  Mn6  1  0.750000  0.290201  0.011039  1
  Mn  Mn7  1  0.750000  0.209799  0.511039  1
  Co  Co8  1  0.250000  0.406157  0.489295  1
  Co  Co9  1  0.250000  0.093843  0.989295  1
  Co  Co10  1  0.750000  0.593843  0.510705  1
  Co  Co11  1  0.750000  0.906157  0.010705  1
  Co  Co12  1  0.250000  0.220638  0.176303  1
  Co  Co13  1  0.250000  0.279362  0.676303  1
  Co  Co14  1  0.750000  0.779362  0.823697  1
  Co  Co15  1  0.750000  0.720638  0.323697  1
  Co  Co16  1  0.250000  0.883194  0.698018  1
  Co  Co17  1  0.250000  0.616806  0.198018  1
  Co  Co18  1  0.750000  0.116806  0.301982  1
  Co  Co19  1  0.750000  0.383194  0.801982  1
  Co  Co20  1  0.250000  0.467102  0.932874  1
  Co  Co21  1  0.250000  0.032898  0.432874  1
  Co  Co22  1  0.750000  0.532898  0.067126  1
  Co  Co23  1  0.750000  0.967102  0.567126  1
  P  P24  1  0.250000  0.418598  0.111248  1
  P  P25  1  0.250000  0.081402  0.611248  1
  P  P26  1  0.750000  0.581402  0.888752  1
  P  P27  1  0.750000  0.918598  0.388752  1
  P  P28  1  0.250000  0.272748  0.868013  1
  P  P29  1  0.250000  0.227252  0.368013  1
  P  P30  1  0.750000  0.727252  0.131987  1
  P  P31  1  0.750000  0.772748  0.631987  1
  P  P32  1  0.250000  0.602193  0.392006  1
  P  P33  1  0.250000  0.897807  0.892006  1
  P  P34  1  0.750000  0.397807  0.607994  1
  P  P35  1  0.750000  0.102193  0.107994  1
