# generated using pymatgen
data_GdGe4PRh5
_symmetry_space_group_name_H-M   'P 1'
_cell_length_a   20.48609232
_cell_length_b   19.65869251
_cell_length_c   9.46418800
_cell_angle_alpha   90.00000000
_cell_angle_beta   90.00000000
_cell_angle_gamma   122.61995582
_symmetry_Int_Tables_number   1
_chemical_formula_structural   GdGe4PRh5
_chemical_formula_sum   'Gd1 Ge4 P1 Rh5'
_cell_volume   3210.30068075
_cell_formula_units_Z   1
loop_
 _symmetry_equiv_pos_site_id
 _symmetry_equiv_pos_as_xyz
  1  'x, y, z'
loop_
 _atom_site_type_symbol
 _atom_site_label
 _atom_site_symmetry_multiplicity
 _atom_site_fract_x
 _atom_site_fract_y
 _atom_site_fract_z
 _atom_site_occupancy
  Gd  Gd0  1  0.999398  0.998236  0.000000  1
  Ge  Ge1  1  0.338409  0.676914  0.000000  1
  Ge  Ge2  1  0.804515  0.608976  0.500000  1
  Ge  Ge3  1  0.397623  0.192100  0.500000  1
  Ge  Ge4  1  0.794489  0.192136  0.500000  1
  P  P5  1  0.201115  0.402226  0.500000  1
  Rh  Rh6  1  0.533583  0.067286  0.000000  1
  Rh  Rh7  1  0.936067  0.465906  0.000000  1
  Rh  Rh8  1  0.529806  0.465852  0.000000  1
  Rh  Rh9  1  0.601374  0.798525  0.500000  1
  Rh  Rh10  1  0.196955  0.798511  0.500000  1
