# generated using pymatgen
data_Dy4TiPd15
_symmetry_space_group_name_H-M   'P 1'
_cell_length_a   4.07715300
_cell_length_b   4.07715300
_cell_length_c   20.36195800
_cell_angle_alpha   90.00000000
_cell_angle_beta   90.00000000
_cell_angle_gamma   90.00000000
_symmetry_Int_Tables_number   1
_chemical_formula_structural   Dy4TiPd15
_chemical_formula_sum   'Dy4 Ti1 Pd15'
_cell_volume   338.48042346
_cell_formula_units_Z   1
loop_
 _symmetry_equiv_pos_site_id
 _symmetry_equiv_pos_as_xyz
  1  'x, y, z'
loop_
 _atom_site_type_symbol
 _atom_site_label
 _atom_site_symmetry_multiplicity
 _atom_site_fract_x
 _atom_site_fract_y
 _atom_site_fract_z
 _atom_site_occupancy
  Dy  Dy0  1  0.000000  0.000000  0.195509  1
  Dy  Dy1  1  0.000000  0.000000  0.398055  1
  Dy  Dy2  1  0.000000  0.000000  0.601945  1
  Dy  Dy3  1  0.000000  0.000000  0.804491  1
  Ti  Ti4  1  0.000000  0.000000  0.000000  1
  Pd  Pd5  1  0.500000  0.500000  0.000000  1
  Pd  Pd6  1  0.500000  0.500000  0.193935  1
  Pd  Pd7  1  0.500000  0.500000  0.398535  1
  Pd  Pd8  1  0.500000  0.500000  0.601465  1
  Pd  Pd9  1  0.500000  0.500000  0.806065  1
  Pd  Pd10  1  0.500000  0.000000  0.090629  1
  Pd  Pd11  1  0.500000  0.000000  0.296445  1
  Pd  Pd12  1  0.500000  0.000000  0.500000  1
  Pd  Pd13  1  0.500000  0.000000  0.703555  1
  Pd  Pd14  1  0.500000  0.000000  0.909371  1
  Pd  Pd15  1  0.000000  0.500000  0.090629  1
  Pd  Pd16  1  0.000000  0.500000  0.296445  1
  Pd  Pd17  1  0.000000  0.500000  0.500000  1
  Pd  Pd18  1  0.000000  0.500000  0.703555  1
  Pd  Pd19  1  0.000000  0.500000  0.909371  1
