# generated using pymatgen
data_Hf5NbFe7Co16
_symmetry_space_group_name_H-M   'P 1'
_cell_length_a   8.11301321
_cell_length_b   8.10462036
_cell_length_c   8.11301377
_cell_angle_alpha   60.03421261
_cell_angle_beta   59.93157859
_cell_angle_gamma   60.03421098
_symmetry_Int_Tables_number   1
_chemical_formula_structural   Hf5NbFe7Co16
_chemical_formula_sum   'Hf5 Nb1 Fe7 Co16'
_cell_volume   377.20822501
_cell_formula_units_Z   1
loop_
 _symmetry_equiv_pos_site_id
 _symmetry_equiv_pos_as_xyz
  1  'x, y, z'
loop_
 _atom_site_type_symbol
 _atom_site_label
 _atom_site_symmetry_multiplicity
 _atom_site_fract_x
 _atom_site_fract_y
 _atom_site_fract_z
 _atom_site_occupancy
  Hf  Hf0  1  0.211193  0.788807  0.211193  1
  Hf  Hf1  1  0.208343  0.791657  0.790658  1
  Hf  Hf2  1  0.790658  0.209342  0.208343  1
  Hf  Hf3  1  0.790658  0.791657  0.208343  1
  Hf  Hf4  1  0.208343  0.209342  0.790658  1
  Nb  Nb5  1  0.788404  0.211596  0.788404  1
  Fe  Fe6  1  0.498606  0.501394  0.498606  1
  Fe  Fe7  1  0.999620  0.500380  0.999620  1
  Fe  Fe8  1  0.500869  0.001052  0.998948  1
  Fe  Fe9  1  0.998948  0.499131  0.500869  1
  Fe  Fe10  1  0.499620  0.000380  0.499620  1
  Fe  Fe11  1  0.998948  0.001052  0.500869  1
  Fe  Fe12  1  0.500869  0.499131  0.998948  1
  Co  Co13  1  0.173615  0.173935  0.173615  1
  Co  Co14  1  0.521167  0.826385  0.826065  1
  Co  Co15  1  0.826451  0.519623  0.826451  1
  Co  Co16  1  0.826065  0.826385  0.521167  1
  Co  Co17  1  0.173615  0.478833  0.173615  1
  Co  Co18  1  0.172524  0.173549  0.480377  1
  Co  Co19  1  0.480377  0.173549  0.172524  1
  Co  Co20  1  0.826451  0.827476  0.826451  1
  Co  Co21  1  0.379008  0.377991  0.379008  1
  Co  Co22  1  0.136006  0.620992  0.622009  1
  Co  Co23  1  0.622156  0.137800  0.622156  1
  Co  Co24  1  0.622009  0.620992  0.136006  1
  Co  Co25  1  0.379008  0.863994  0.379008  1
  Co  Co26  1  0.382113  0.377844  0.862200  1
  Co  Co27  1  0.862200  0.377844  0.382113  1
  Co  Co28  1  0.622156  0.617887  0.622156  1
