# generated using pymatgen
data_Tb2Lu10In2Tc2Ni
_symmetry_space_group_name_H-M   'P 1'
_cell_length_a   8.24774614
_cell_length_b   8.24774648
_cell_length_c   8.29319970
_cell_angle_alpha   108.86044462
_cell_angle_beta   108.86044405
_cell_angle_gamma   110.48172188
_symmetry_Int_Tables_number   1
_chemical_formula_structural   Tb2Lu10In2Tc2Ni
_chemical_formula_sum   'Tb2 Lu10 In2 Tc2 Ni1'
_cell_volume   435.32084814
_cell_formula_units_Z   1
loop_
 _symmetry_equiv_pos_site_id
 _symmetry_equiv_pos_as_xyz
  1  'x, y, z'
loop_
 _atom_site_type_symbol
 _atom_site_label
 _atom_site_symmetry_multiplicity
 _atom_site_fract_x
 _atom_site_fract_y
 _atom_site_fract_z
 _atom_site_occupancy
  Tb  Tb0  1  0.299116  0.299116  0.609199  1
  Tb  Tb1  1  0.689916  0.689916  0.390801  1
  Lu  Lu2  1  0.690018  0.301065  0.000000  1
  Lu  Lu3  1  0.301065  0.690018  0.000000  1
  Lu  Lu4  1  0.188265  0.430530  0.238474  1
  Lu  Lu5  1  0.810900  0.570121  0.762658  1
  Lu  Lu6  1  0.192056  0.949791  0.761526  1
  Lu  Lu7  1  0.949791  0.192056  0.761526  1
  Lu  Lu8  1  0.807463  0.048244  0.237342  1
  Lu  Lu9  1  0.048244  0.807463  0.237342  1
  Lu  Lu10  1  0.430530  0.188265  0.238474  1
  Lu  Lu11  1  0.570121  0.810900  0.762658  1
  In  In12  1  0.997853  0.497853  0.500000  1
  In  In13  1  0.497853  0.997853  0.500000  1
  Tc  Tc14  1  0.381800  0.381800  0.000000  1
  Tc  Tc15  1  0.000169  0.000169  0.000000  1
  Ni  Ni16  1  0.644842  0.644842  0.000000  1
