# generated using pymatgen
data_TbSm(ZrIr)2
_symmetry_space_group_name_H-M   'P 1'
_cell_length_a   4.56277100
_cell_length_b   7.14791900
_cell_length_c   8.35059900
_cell_angle_alpha   90.00000000
_cell_angle_beta   90.00000000
_cell_angle_gamma   90.00000000
_symmetry_Int_Tables_number   1
_chemical_formula_structural   TbSm(ZrIr)2
_chemical_formula_sum   'Tb2 Sm2 Zr4 Ir4'
_cell_volume   272.34908730
_cell_formula_units_Z   2
loop_
 _symmetry_equiv_pos_site_id
 _symmetry_equiv_pos_as_xyz
  1  'x, y, z'
loop_
 _atom_site_type_symbol
 _atom_site_label
 _atom_site_symmetry_multiplicity
 _atom_site_fract_x
 _atom_site_fract_y
 _atom_site_fract_z
 _atom_site_occupancy
  Tb  Tb0  1  0.250000  0.984142  0.322449  1
  Tb  Tb1  1  0.250000  0.484142  0.177551  1
  Sm  Sm2  1  0.750000  0.014876  0.676951  1
  Sm  Sm3  1  0.750000  0.514876  0.823049  1
  Zr  Zr4  1  0.250000  0.358320  0.573038  1
  Zr  Zr5  1  0.250000  0.858320  0.926962  1
  Zr  Zr6  1  0.750000  0.642756  0.421300  1
  Zr  Zr7  1  0.750000  0.142756  0.078700  1
  Ir  Ir8  1  0.250000  0.230464  0.911719  1
  Ir  Ir9  1  0.250000  0.730464  0.588281  1
  Ir  Ir10  1  0.750000  0.769440  0.093110  1
  Ir  Ir11  1  0.750000  0.269440  0.406890  1
