# generated using pymatgen
data_Hf4Ta2Si3P
_symmetry_space_group_name_H-M   'P 1'
_cell_length_a   6.78257672
_cell_length_b   6.78257749
_cell_length_c   3.71331500
_cell_angle_alpha   90.00000000
_cell_angle_beta   90.00000000
_cell_angle_gamma   89.27529935
_symmetry_Int_Tables_number   1
_chemical_formula_structural   Hf4Ta2Si3P
_chemical_formula_sum   'Hf4 Ta2 Si3 P1'
_cell_volume   170.81127337
_cell_formula_units_Z   1
loop_
 _symmetry_equiv_pos_site_id
 _symmetry_equiv_pos_as_xyz
  1  'x, y, z'
loop_
 _atom_site_type_symbol
 _atom_site_label
 _atom_site_symmetry_multiplicity
 _atom_site_fract_x
 _atom_site_fract_y
 _atom_site_fract_z
 _atom_site_occupancy
  Hf  Hf0  1  0.828964  0.672923  0.500000  1
  Hf  Hf1  1  0.323845  0.823845  0.500000  1
  Hf  Hf2  1  0.172923  0.328964  0.500000  1
  Hf  Hf3  1  0.673624  0.173624  0.500000  1
  Ta  Ta4  1  0.499129  0.502069  0.000000  1
  Ta  Ta5  1  0.002069  0.999129  0.000000  1
  Si  Si6  1  0.626989  0.873968  0.000000  1
  Si  Si7  1  0.373968  0.126989  0.000000  1
  Si  Si8  1  0.870901  0.370901  0.000000  1
  P  P9  1  0.127588  0.627588  0.000000  1
