# generated using pymatgen
data_Tm10Al(GaRu2)3
_symmetry_space_group_name_H-M   'P 1'
_cell_length_a   8.23590778
_cell_length_b   8.23590679
_cell_length_c   8.25898800
_cell_angle_alpha   109.52800136
_cell_angle_beta   109.52799892
_cell_angle_gamma   109.41438514
_symmetry_Int_Tables_number   1
_chemical_formula_structural   Tm10Al(GaRu2)3
_chemical_formula_sum   'Tm10 Al1 Ga3 Ru6'
_cell_volume   430.94616189
_cell_formula_units_Z   1
loop_
 _symmetry_equiv_pos_site_id
 _symmetry_equiv_pos_as_xyz
  1  'x, y, z'
loop_
 _atom_site_type_symbol
 _atom_site_label
 _atom_site_symmetry_multiplicity
 _atom_site_fract_x
 _atom_site_fract_y
 _atom_site_fract_z
 _atom_site_occupancy
  Tm  Tm0  1  0.784310  0.785350  0.785008  1
  Tm  Tm1  1  0.319625  0.569025  0.749412  1
  Tm  Tm2  1  0.750174  0.319931  0.570287  1
  Tm  Tm3  1  0.569757  0.749826  0.320112  1
  Tm  Tm4  1  0.714650  0.498961  0.999658  1
  Tm  Tm5  1  0.001039  0.715690  0.500698  1
  Tm  Tm6  1  0.500000  0.000000  0.713955  1
  Tm  Tm7  1  0.249400  0.180375  0.929787  1
  Tm  Tm8  1  0.930975  0.250600  0.180387  1
  Tm  Tm9  1  0.180069  0.930243  0.250355  1
  Al  Al10  1  0.500000  0.000000  0.089474  1
  Ga  Ga11  1  0.411840  0.411206  0.411438  1
  Ga  Ga12  1  0.088794  0.500634  0.000232  1
  Ga  Ga13  1  0.999366  0.088160  0.499598  1
  Ru  Ru14  1  0.873931  0.123837  0.749764  1
  Ru  Ru15  1  0.747711  0.873664  0.123150  1
  Ru  Ru16  1  0.125953  0.752289  0.875439  1
  Ru  Ru17  1  0.249906  0.626069  0.375833  1
  Ru  Ru18  1  0.376163  0.250094  0.625927  1
  Ru  Ru19  1  0.626336  0.374047  0.249486  1
