# generated using pymatgen
data_Ca3Rh4PbO14
_symmetry_space_group_name_H-M   'P 1'
_cell_length_a   7.23405192
_cell_length_b   7.23405030
_cell_length_c   7.23405179
_cell_angle_alpha   60.49845671
_cell_angle_beta   60.49845352
_cell_angle_gamma   60.49845602
_symmetry_Int_Tables_number   1
_chemical_formula_structural   Ca3Rh4PbO14
_chemical_formula_sum   'Ca3 Rh4 Pb1 O14'
_cell_volume   270.70408126
_cell_formula_units_Z   1
loop_
 _symmetry_equiv_pos_site_id
 _symmetry_equiv_pos_as_xyz
  1  'x, y, z'
loop_
 _atom_site_type_symbol
 _atom_site_label
 _atom_site_symmetry_multiplicity
 _atom_site_fract_x
 _atom_site_fract_y
 _atom_site_fract_z
 _atom_site_occupancy
  Ca  Ca0  1  0.625000  0.125000  0.625000  1
  Ca  Ca1  1  0.625000  0.625000  0.125000  1
  Ca  Ca2  1  0.125000  0.625000  0.625000  1
  Rh  Rh3  1  0.625000  0.125000  0.125000  1
  Rh  Rh4  1  0.125000  0.625000  0.125000  1
  Rh  Rh5  1  0.125000  0.125000  0.625000  1
  Rh  Rh6  1  0.125000  0.125000  0.125000  1
  Pb  Pb7  1  0.625000  0.625000  0.625000  1
  O  O8  1  0.202695  0.202695  0.796259  1
  O  O9  1  0.202695  0.796259  0.202695  1
  O  O10  1  0.453741  0.047305  0.047305  1
  O  O11  1  0.213025  0.797751  0.797751  1
  O  O12  1  0.036975  0.452249  0.452249  1
  O  O13  1  0.797751  0.797751  0.213025  1
  O  O14  1  0.452249  0.452249  0.036975  1
  O  O15  1  0.505961  0.505961  0.505961  1
  O  O16  1  0.047305  0.047305  0.453741  1
  O  O17  1  0.452249  0.036975  0.452249  1
  O  O18  1  0.047305  0.453741  0.047305  1
  O  O19  1  0.744039  0.744039  0.744039  1
  O  O20  1  0.797751  0.213025  0.797751  1
  O  O21  1  0.796259  0.202695  0.202695  1
