# generated using pymatgen
data_La2AlGeI2
_symmetry_space_group_name_H-M   'P 1'
_cell_length_a   4.33199500
_cell_length_b   4.33199549
_cell_length_c   12.31909900
_cell_angle_alpha   90.00000000
_cell_angle_beta   90.00000000
_cell_angle_gamma   120.00000387
_symmetry_Int_Tables_number   1
_chemical_formula_structural   La2AlGeI2
_chemical_formula_sum   'La2 Al1 Ge1 I2'
_cell_volume   200.20987891
_cell_formula_units_Z   1
loop_
 _symmetry_equiv_pos_site_id
 _symmetry_equiv_pos_as_xyz
  1  'x, y, z'
loop_
 _atom_site_type_symbol
 _atom_site_label
 _atom_site_symmetry_multiplicity
 _atom_site_fract_x
 _atom_site_fract_y
 _atom_site_fract_z
 _atom_site_occupancy
  La  La0  1  0.000000  0.000000  0.177336  1
  La  La1  1  0.000000  0.000000  0.822619  1
  Al  Al2  1  0.333333  0.666667  0.984338  1
  Ge  Ge3  1  0.666667  0.333333  0.015489  1
  I  I4  1  0.666667  0.333333  0.649988  1
  I  I5  1  0.333333  0.666667  0.350230  1
