# generated using pymatgen
data_Tm8B24Os3W
_symmetry_space_group_name_H-M   'P 1'
_cell_length_a   3.60551400
_cell_length_b   9.11552325
_cell_length_c   11.50035708
_cell_angle_alpha   89.90336778
_cell_angle_beta   90.00000000
_cell_angle_gamma   90.00000000
_symmetry_Int_Tables_number   1
_chemical_formula_structural   Tm8B24Os3W
_chemical_formula_sum   'Tm8 B24 Os3 W1'
_cell_volume   377.97188520
_cell_formula_units_Z   1
loop_
 _symmetry_equiv_pos_site_id
 _symmetry_equiv_pos_as_xyz
  1  'x, y, z'
loop_
 _atom_site_type_symbol
 _atom_site_label
 _atom_site_symmetry_multiplicity
 _atom_site_fract_x
 _atom_site_fract_y
 _atom_site_fract_z
 _atom_site_occupancy
  Tm  Tm0  1  0.000000  0.320523  0.413463  1
  Tm  Tm1  1  0.000000  0.678042  0.585506  1
  Tm  Tm2  1  0.000000  0.820012  0.086995  1
  Tm  Tm3  1  0.000000  0.177549  0.914324  1
  Tm  Tm4  1  0.000000  0.945907  0.373810  1
  Tm  Tm5  1  0.000000  0.057168  0.627809  1
  Tm  Tm6  1  0.000000  0.442886  0.125618  1
  Tm  Tm7  1  0.000000  0.556602  0.872050  1
  B  B8  1  0.500000  0.549583  0.437042  1
  B  B9  1  0.500000  0.446138  0.568189  1
  B  B10  1  0.500000  0.053659  0.066273  1
  B  B11  1  0.500000  0.946833  0.933529  1
  B  B12  1  0.500000  0.752410  0.423195  1
  B  B13  1  0.500000  0.251472  0.580723  1
  B  B14  1  0.500000  0.248742  0.079451  1
  B  B15  1  0.500000  0.751338  0.919478  1
  B  B16  1  0.500000  0.796261  0.263837  1
  B  B17  1  0.500000  0.208039  0.734284  1
  B  B18  1  0.500000  0.290797  0.232370  1
  B  B19  1  0.500000  0.708818  0.766004  1
  B  B20  1  0.500000  0.632437  0.181526  1
  B  B21  1  0.500000  0.367920  0.815217  1
  B  B22  1  0.500000  0.131829  0.314337  1
  B  B23  1  0.500000  0.869230  0.685451  1
  B  B24  1  0.500000  0.983337  0.212763  1
  B  B25  1  0.500000  0.017976  0.787998  1
  B  B26  1  0.500000  0.476239  0.286230  1
  B  B27  1  0.500000  0.517074  0.713381  1
  B  B28  1  0.500000  0.606186  0.027675  1
  B  B29  1  0.500000  0.392718  0.969475  1
  B  B30  1  0.500000  0.107688  0.470877  1
  B  B31  1  0.500000  0.896070  0.530911  1
  Os  Os32  1  0.000000  0.361553  0.679942  1
  Os  Os33  1  0.000000  0.137077  0.177429  1
  Os  Os34  1  0.000000  0.862665  0.821117  1
  W  W35  1  0.000000  0.637221  0.321722  1
