# generated using pymatgen
data_Ti3Nb3GaP2
_symmetry_space_group_name_H-M   'P 1'
_cell_length_a   6.91898500
_cell_length_b   6.91898581
_cell_length_c   3.42752200
_cell_angle_alpha   90.00000000
_cell_angle_beta   90.00000000
_cell_angle_gamma   119.99999136
_symmetry_Int_Tables_number   1
_chemical_formula_structural   Ti3Nb3GaP2
_chemical_formula_sum   'Ti3 Nb3 Ga1 P2'
_cell_volume   142.10054691
_cell_formula_units_Z   1
loop_
 _symmetry_equiv_pos_site_id
 _symmetry_equiv_pos_as_xyz
  1  'x, y, z'
loop_
 _atom_site_type_symbol
 _atom_site_label
 _atom_site_symmetry_multiplicity
 _atom_site_fract_x
 _atom_site_fract_y
 _atom_site_fract_z
 _atom_site_occupancy
  Ti  Ti0  1  0.006387  0.259215  0.500000  1
  Ti  Ti1  1  0.252828  0.993613  0.500000  1
  Ti  Ti2  1  0.740785  0.747172  0.500000  1
  Nb  Nb3  1  0.582480  0.966666  0.000000  1
  Nb  Nb4  1  0.384186  0.417520  0.000000  1
  Nb  Nb5  1  0.033334  0.615814  0.000000  1
  Ga  Ga6  1  0.666667  0.333333  0.500000  1
  P  P7  1  0.000000  0.000000  0.000000  1
  P  P8  1  0.333333  0.666667  0.500000  1
