# generated using pymatgen
data_K4SmNpI10
_symmetry_space_group_name_H-M   'P 1'
_cell_length_a   9.35831515
_cell_length_b   9.81655000
_cell_length_c   14.75020210
_cell_angle_alpha   90.00000000
_cell_angle_beta   89.82586955
_cell_angle_gamma   90.00000000
_symmetry_Int_Tables_number   1
_chemical_formula_structural   K4SmNpI10
_chemical_formula_sum   'K8 Sm2 Np2 I20'
_cell_volume   1355.04124559
_cell_formula_units_Z   2
loop_
 _symmetry_equiv_pos_site_id
 _symmetry_equiv_pos_as_xyz
  1  'x, y, z'
loop_
 _atom_site_type_symbol
 _atom_site_label
 _atom_site_symmetry_multiplicity
 _atom_site_fract_x
 _atom_site_fract_y
 _atom_site_fract_z
 _atom_site_occupancy
  K  K0  1  0.940192  0.002953  0.827642  1
  K  K1  1  0.059808  0.997047  0.172358  1
  K  K2  1  0.441205  0.997409  0.672385  1
  K  K3  1  0.059808  0.502953  0.172358  1
  K  K4  1  0.558795  0.002591  0.327615  1
  K  K5  1  0.940192  0.497047  0.827642  1
  K  K6  1  0.558795  0.497409  0.327615  1
  K  K7  1  0.441205  0.502591  0.672385  1
  Sm  Sm8  1  0.422024  0.250000  0.994796  1
  Sm  Sm9  1  0.577976  0.750000  0.005204  1
  Np  Np10  1  0.926807  0.750000  0.505016  1
  Np  Np11  1  0.073193  0.250000  0.494984  1
  I  I12  1  0.122881  0.750000  0.680316  1
  I  I13  1  0.877119  0.250000  0.319684  1
  I  I14  1  0.621721  0.250000  0.820921  1
  I  I15  1  0.378279  0.750000  0.179079  1
  I  I16  1  0.832186  0.045126  0.575729  1
  I  I17  1  0.167814  0.954874  0.424271  1
  I  I18  1  0.335214  0.954456  0.926440  1
  I  I19  1  0.167814  0.545126  0.424271  1
  I  I20  1  0.664786  0.045544  0.073560  1
  I  I21  1  0.832186  0.454874  0.575729  1
  I  I22  1  0.664786  0.454456  0.073560  1
  I  I23  1  0.335214  0.545544  0.926440  1
  I  I24  1  0.578703  0.750000  0.509248  1
  I  I25  1  0.421297  0.250000  0.490752  1
  I  I26  1  0.078428  0.250000  0.990172  1
  I  I27  1  0.921572  0.750000  0.009828  1
  I  I28  1  0.657958  0.750000  0.797899  1
  I  I29  1  0.342042  0.250000  0.202101  1
  I  I30  1  0.157276  0.250000  0.703181  1
  I  I31  1  0.842724  0.750000  0.296819  1
