# generated using pymatgen
data_Lu18Sc2Bi11Pt
_symmetry_space_group_name_H-M   'P 1'
_cell_length_a   8.00087113
_cell_length_b   9.33459600
_cell_length_c   11.77429389
_cell_angle_alpha   90.00000000
_cell_angle_beta   89.52833714
_cell_angle_gamma   90.00000000
_symmetry_Int_Tables_number   1
_chemical_formula_structural   Lu18Sc2Bi11Pt
_chemical_formula_sum   'Lu18 Sc2 Bi11 Pt1'
_cell_volume   879.33216165
_cell_formula_units_Z   1
loop_
 _symmetry_equiv_pos_site_id
 _symmetry_equiv_pos_as_xyz
  1  'x, y, z'
loop_
 _atom_site_type_symbol
 _atom_site_label
 _atom_site_symmetry_multiplicity
 _atom_site_fract_x
 _atom_site_fract_y
 _atom_site_fract_z
 _atom_site_occupancy
  Lu  Lu0  1  0.046242  0.250000  0.506203  1
  Lu  Lu1  1  0.526291  0.250000  0.990347  1
  Lu  Lu2  1  0.356565  0.250000  0.299872  1
  Lu  Lu3  1  0.657087  0.750000  0.717465  1
  Lu  Lu4  1  0.144774  0.750000  0.780333  1
  Lu  Lu5  1  0.848482  0.250000  0.214934  1
  Lu  Lu6  1  0.206060  0.250000  0.774808  1
  Lu  Lu7  1  0.808578  0.750000  0.216857  1
  Lu  Lu8  1  0.314248  0.750000  0.281538  1
  Lu  Lu9  1  0.654805  0.250000  0.704551  1
  Lu  Lu10  1  0.192966  0.066746  0.063524  1
  Lu  Lu11  1  0.805385  0.931783  0.941802  1
  Lu  Lu12  1  0.310850  0.959959  0.559119  1
  Lu  Lu13  1  0.805385  0.568217  0.941802  1
  Lu  Lu14  1  0.680922  0.073576  0.446627  1
  Lu  Lu15  1  0.192966  0.433254  0.063524  1
  Lu  Lu16  1  0.680922  0.426424  0.446627  1
  Lu  Lu17  1  0.310850  0.540041  0.559119  1
  Sc  Sc18  1  0.984330  0.750000  0.491530  1
  Sc  Sc19  1  0.477531  0.750000  0.012817  1
  Bi  Bi20  1  0.598772  0.750000  0.459062  1
  Bi  Bi21  1  0.101759  0.750000  0.042322  1
  Bi  Bi22  1  0.908297  0.250000  0.949543  1
  Bi  Bi23  1  0.056221  0.997853  0.324139  1
  Bi  Bi24  1  0.933519  0.999177  0.673361  1
  Bi  Bi25  1  0.435267  0.989670  0.830181  1
  Bi  Bi26  1  0.933519  0.500823  0.673361  1
  Bi  Bi27  1  0.562622  0.002796  0.174109  1
  Bi  Bi28  1  0.056221  0.502147  0.324139  1
  Bi  Bi29  1  0.562622  0.497204  0.174109  1
  Bi  Bi30  1  0.435267  0.510330  0.830181  1
  Pt  Pt31  1  0.410675  0.250000  0.532096  1
