# generated using pymatgen
data_Lu4As3Se
_symmetry_space_group_name_H-M   'P 1'
_cell_length_a   6.96462914
_cell_length_b   6.96462739
_cell_length_c   6.95981300
_cell_angle_alpha   80.27858138
_cell_angle_beta   80.27858383
_cell_angle_gamma   33.57795769
_symmetry_Int_Tables_number   1
_chemical_formula_structural   Lu4As3Se
_chemical_formula_sum   'Lu4 As3 Se1'
_cell_volume   183.78581398
_cell_formula_units_Z   1
loop_
 _symmetry_equiv_pos_site_id
 _symmetry_equiv_pos_as_xyz
  1  'x, y, z'
loop_
 _atom_site_type_symbol
 _atom_site_label
 _atom_site_symmetry_multiplicity
 _atom_site_fract_x
 _atom_site_fract_y
 _atom_site_fract_z
 _atom_site_occupancy
  Lu  Lu0  1  0.248900  0.248900  0.256766  1
  Lu  Lu1  1  0.500983  0.500983  0.493318  1
  Lu  Lu2  1  0.745668  0.745668  0.744117  1
  Lu  Lu3  1  0.004462  0.004462  0.005816  1
  As  As4  1  0.627061  0.627061  0.122605  1
  As  As5  1  0.874991  0.874991  0.374963  1
  As  As6  1  0.122967  0.122967  0.627383  1
  Se  Se7  1  0.374968  0.374968  0.875031  1
