# generated using pymatgen
data_Zr2Mn3Cr
_symmetry_space_group_name_H-M   'P 1'
_cell_length_a   4.91838308
_cell_length_b   4.91838366
_cell_length_c   4.91838385
_cell_angle_alpha   62.81120486
_cell_angle_beta   62.81120952
_cell_angle_gamma   62.81119507
_symmetry_Int_Tables_number   1
_chemical_formula_structural   Zr2Mn3Cr
_chemical_formula_sum   'Zr2 Mn3 Cr1'
_cell_volume   89.38846964
_cell_formula_units_Z   1
loop_
 _symmetry_equiv_pos_site_id
 _symmetry_equiv_pos_as_xyz
  1  'x, y, z'
loop_
 _atom_site_type_symbol
 _atom_site_label
 _atom_site_symmetry_multiplicity
 _atom_site_fract_x
 _atom_site_fract_y
 _atom_site_fract_z
 _atom_site_occupancy
  Zr  Zr0  1  0.626088  0.626088  0.626088  1
  Zr  Zr1  1  0.373912  0.373912  0.373912  1
  Mn  Mn2  1  0.000000  0.500000  0.000000  1
  Mn  Mn3  1  0.500000  0.000000  0.000000  1
  Mn  Mn4  1  0.000000  0.000000  0.500000  1
  Cr  Cr5  1  0.000000  0.000000  0.000000  1
