# generated using pymatgen
data_Sc22Os2(RuPt)3
_symmetry_space_group_name_H-M   'P 1'
_cell_length_a   9.48210516
_cell_length_b   9.54638841
_cell_length_c   9.54560834
_cell_angle_alpha   59.42392168
_cell_angle_beta   59.94991581
_cell_angle_gamma   59.80231504
_symmetry_Int_Tables_number   1
_chemical_formula_structural   Sc22Os2(RuPt)3
_chemical_formula_sum   'Sc22 Os2 Ru3 Pt3'
_cell_volume   607.14965688
_cell_formula_units_Z   1
loop_
 _symmetry_equiv_pos_site_id
 _symmetry_equiv_pos_as_xyz
  1  'x, y, z'
loop_
 _atom_site_type_symbol
 _atom_site_label
 _atom_site_symmetry_multiplicity
 _atom_site_fract_x
 _atom_site_fract_y
 _atom_site_fract_z
 _atom_site_occupancy
  Sc  Sc0  1  0.847364  0.840558  0.841425  1
  Sc  Sc1  1  0.527406  0.154976  0.162493  1
  Sc  Sc2  1  0.159316  0.152468  0.529521  1
  Sc  Sc3  1  0.155649  0.527203  0.155933  1
  Sc  Sc4  1  0.840684  0.847532  0.470479  1
  Sc  Sc5  1  0.844351  0.472797  0.844067  1
  Sc  Sc6  1  0.472594  0.845024  0.837507  1
  Sc  Sc7  1  0.152636  0.159442  0.158575  1
  Sc  Sc8  1  0.196189  0.803995  0.195611  1
  Sc  Sc9  1  0.196990  0.805034  0.803853  1
  Sc  Sc10  1  0.803010  0.194966  0.196147  1
  Sc  Sc11  1  0.802905  0.805761  0.196886  1
  Sc  Sc12  1  0.197095  0.194239  0.803114  1
  Sc  Sc13  1  0.803811  0.196005  0.804389  1
  Sc  Sc14  1  0.384683  0.379462  0.387883  1
  Sc  Sc15  1  0.150886  0.619652  0.615559  1
  Sc  Sc16  1  0.619136  0.149847  0.612911  1
  Sc  Sc17  1  0.619397  0.615964  0.151369  1
  Sc  Sc18  1  0.380864  0.850153  0.387089  1
  Sc  Sc19  1  0.380603  0.384036  0.848631  1
  Sc  Sc20  1  0.849114  0.380348  0.384441  1
  Sc  Sc21  1  0.615317  0.620538  0.612117  1
  Os  Os22  1  0.500000  0.000000  0.500000  1
  Os  Os23  1  0.500000  0.500000  0.500000  1
  Ru  Ru24  1  0.000000  0.000000  0.500000  1
  Ru  Ru25  1  0.000000  0.500000  0.000000  1
  Ru  Ru26  1  0.000000  0.000000  0.000000  1
  Pt  Pt27  1  0.500000  0.500000  0.000000  1
  Pt  Pt28  1  0.000000  0.500000  0.500000  1
  Pt  Pt29  1  0.500000  0.000000  0.000000  1
