# generated using pymatgen
data_Ho3Fe3Co5P6Ru
_symmetry_space_group_name_H-M   'P 1'
_cell_length_a   3.72616900
_cell_length_b   10.51891400
_cell_length_c   12.16767800
_cell_angle_alpha   90.00000000
_cell_angle_beta   90.00000000
_cell_angle_gamma   90.00000000
_symmetry_Int_Tables_number   1
_chemical_formula_structural   Ho3Fe3Co5P6Ru
_chemical_formula_sum   'Ho6 Fe6 Co10 P12 Ru2'
_cell_volume   476.91519647
_cell_formula_units_Z   2
loop_
 _symmetry_equiv_pos_site_id
 _symmetry_equiv_pos_as_xyz
  1  'x, y, z'
loop_
 _atom_site_type_symbol
 _atom_site_label
 _atom_site_symmetry_multiplicity
 _atom_site_fract_x
 _atom_site_fract_y
 _atom_site_fract_z
 _atom_site_occupancy
  Ho  Ho0  1  0.000000  0.500000  0.525244  1
  Ho  Ho1  1  0.500000  0.000000  0.474756  1
  Ho  Ho2  1  0.500000  0.818666  0.205806  1
  Ho  Ho3  1  0.500000  0.181334  0.205806  1
  Ho  Ho4  1  0.000000  0.681334  0.794194  1
  Ho  Ho5  1  0.000000  0.318666  0.794194  1
  Fe  Fe6  1  0.000000  0.500000  0.986616  1
  Fe  Fe7  1  0.500000  0.000000  0.013384  1
  Fe  Fe8  1  0.500000  0.297982  0.429374  1
  Fe  Fe9  1  0.500000  0.702018  0.429374  1
  Fe  Fe10  1  0.000000  0.202018  0.570626  1
  Fe  Fe11  1  0.000000  0.797982  0.570626  1
  Co  Co12  1  0.500000  0.879669  0.710265  1
  Co  Co13  1  0.500000  0.120331  0.710265  1
  Co  Co14  1  0.000000  0.620331  0.289735  1
  Co  Co15  1  0.000000  0.379669  0.289735  1
  Co  Co16  1  0.500000  0.331409  0.990488  1
  Co  Co17  1  0.500000  0.668591  0.990488  1
  Co  Co18  1  0.000000  0.168591  0.009512  1
  Co  Co19  1  0.000000  0.831409  0.009512  1
  Co  Co20  1  0.500000  0.500000  0.699429  1
  Co  Co21  1  0.000000  0.000000  0.300571  1
  P  P22  1  0.500000  0.307832  0.614230  1
  P  P23  1  0.500000  0.692168  0.614230  1
  P  P24  1  0.000000  0.192168  0.385770  1
  P  P25  1  0.000000  0.807832  0.385770  1
  P  P26  1  0.500000  0.500000  0.881297  1
  P  P27  1  0.000000  0.000000  0.118703  1
  P  P28  1  0.500000  0.846839  0.894640  1
  P  P29  1  0.500000  0.153161  0.894640  1
  P  P30  1  0.000000  0.653161  0.105360  1
  P  P31  1  0.000000  0.346839  0.105360  1
  P  P32  1  0.500000  0.500000  0.349113  1
  P  P33  1  0.000000  0.000000  0.650887  1
  Ru  Ru34  1  0.500000  0.500000  0.156243  1
  Ru  Ru35  1  0.000000  0.000000  0.843757  1
