# generated using pymatgen
data_Pr8YLuPb6
_symmetry_space_group_name_H-M   'P 1'
_cell_length_a   9.37354300
_cell_length_b   9.37354380
_cell_length_c   6.88831800
_cell_angle_alpha   90.00000000
_cell_angle_beta   90.00000000
_cell_angle_gamma   120.00000070
_symmetry_Int_Tables_number   1
_chemical_formula_structural   Pr8YLuPb6
_chemical_formula_sum   'Pr8 Y1 Lu1 Pb6'
_cell_volume   524.14495022
_cell_formula_units_Z   1
loop_
 _symmetry_equiv_pos_site_id
 _symmetry_equiv_pos_as_xyz
  1  'x, y, z'
loop_
 _atom_site_type_symbol
 _atom_site_label
 _atom_site_symmetry_multiplicity
 _atom_site_fract_x
 _atom_site_fract_y
 _atom_site_fract_z
 _atom_site_occupancy
  Pr  Pr0  1  0.333333  0.666667  0.500000  1
  Pr  Pr1  1  0.666667  0.333333  0.500000  1
  Pr  Pr2  1  0.759111  0.759284  0.752405  1
  Pr  Pr3  1  0.240716  0.999826  0.752405  1
  Pr  Pr4  1  0.000174  0.240889  0.752405  1
  Pr  Pr5  1  0.240716  0.240889  0.247595  1
  Pr  Pr6  1  0.759111  0.999826  0.247595  1
  Pr  Pr7  1  0.000174  0.759284  0.247595  1
  Y  Y8  1  0.666667  0.333333  0.000000  1
  Lu  Lu9  1  0.333333  0.666667  0.000000  1
  Pb  Pb10  1  0.396459  0.397054  0.758902  1
  Pb  Pb11  1  0.602946  0.999405  0.758902  1
  Pb  Pb12  1  0.000595  0.603541  0.758902  1
  Pb  Pb13  1  0.602946  0.603541  0.241098  1
  Pb  Pb14  1  0.396459  0.999405  0.241098  1
  Pb  Pb15  1  0.000595  0.397054  0.241098  1
