# generated using pymatgen
data_Hf3Zr3Ti2(Pt2N)2
_symmetry_space_group_name_H-M   'P 1'
_cell_length_a   8.67734320
_cell_length_b   8.67734308
_cell_length_c   8.67734300
_cell_angle_alpha   60.00000412
_cell_angle_beta   60.00000459
_cell_angle_gamma   59.99999819
_symmetry_Int_Tables_number   1
_chemical_formula_structural   Hf3Zr3Ti2(Pt2N)2
_chemical_formula_sum   'Hf6 Zr6 Ti4 Pt8 N4'
_cell_volume   462.00357187
_cell_formula_units_Z   2
loop_
 _symmetry_equiv_pos_site_id
 _symmetry_equiv_pos_as_xyz
  1  'x, y, z'
loop_
 _atom_site_type_symbol
 _atom_site_label
 _atom_site_symmetry_multiplicity
 _atom_site_fract_x
 _atom_site_fract_y
 _atom_site_fract_z
 _atom_site_occupancy
  Hf  Hf0  1  0.815382  0.815382  0.184618  1
  Hf  Hf1  1  0.184618  0.184618  0.815382  1
  Hf  Hf2  1  0.815382  0.184618  0.815382  1
  Hf  Hf3  1  0.184618  0.815382  0.184618  1
  Hf  Hf4  1  0.184618  0.815382  0.815382  1
  Hf  Hf5  1  0.815382  0.184618  0.184618  1
  Zr  Zr6  1  0.436284  0.436284  0.063716  1
  Zr  Zr7  1  0.063716  0.063716  0.436284  1
  Zr  Zr8  1  0.436284  0.063716  0.436284  1
  Zr  Zr9  1  0.063716  0.436284  0.063716  1
  Zr  Zr10  1  0.063716  0.436284  0.436284  1
  Zr  Zr11  1  0.436284  0.063716  0.063716  1
  Ti  Ti12  1  0.125542  0.624819  0.624819  1
  Ti  Ti13  1  0.624819  0.125542  0.624819  1
  Ti  Ti14  1  0.624819  0.624819  0.125542  1
  Ti  Ti15  1  0.624819  0.624819  0.624819  1
  Pt  Pt16  1  0.763664  0.412112  0.412112  1
  Pt  Pt17  1  0.412112  0.763664  0.412112  1
  Pt  Pt18  1  0.412112  0.412112  0.763664  1
  Pt  Pt19  1  0.412112  0.412112  0.412112  1
  Pt  Pt20  1  0.480234  0.839922  0.839922  1
  Pt  Pt21  1  0.839922  0.480234  0.839922  1
  Pt  Pt22  1  0.839922  0.839922  0.480234  1
  Pt  Pt23  1  0.839922  0.839922  0.839922  1
  N  N24  1  0.632590  0.122470  0.122470  1
  N  N25  1  0.122470  0.632590  0.122470  1
  N  N26  1  0.122470  0.122470  0.632590  1
  N  N27  1  0.122470  0.122470  0.122470  1
