# generated using pymatgen
data_Mn4Br7O
_symmetry_space_group_name_H-M   'P 1'
_cell_length_a   7.88825262
_cell_length_b   7.88825261
_cell_length_c   7.88825316
_cell_angle_alpha   56.63306029
_cell_angle_beta   56.63307169
_cell_angle_gamma   56.63306472
_symmetry_Int_Tables_number   1
_chemical_formula_structural   Mn4Br7O
_chemical_formula_sum   'Mn4 Br7 O1'
_cell_volume   320.08512358
_cell_formula_units_Z   1
loop_
 _symmetry_equiv_pos_site_id
 _symmetry_equiv_pos_as_xyz
  1  'x, y, z'
loop_
 _atom_site_type_symbol
 _atom_site_label
 _atom_site_symmetry_multiplicity
 _atom_site_fract_x
 _atom_site_fract_y
 _atom_site_fract_z
 _atom_site_occupancy
  Mn  Mn0  1  0.595768  0.149972  0.149972  1
  Mn  Mn1  1  0.127361  0.127361  0.127361  1
  Mn  Mn2  1  0.149972  0.149972  0.595768  1
  Mn  Mn3  1  0.149972  0.595768  0.149972  1
  Br  Br4  1  0.377081  0.377081  0.869846  1
  Br  Br5  1  0.895439  0.895439  0.895439  1
  Br  Br6  1  0.876369  0.876369  0.376270  1
  Br  Br7  1  0.376270  0.876369  0.876369  1
  Br  Br8  1  0.377081  0.869846  0.377081  1
  Br  Br9  1  0.876369  0.376270  0.876369  1
  Br  Br10  1  0.869846  0.377081  0.377081  1
  O  O11  1  0.328471  0.328471  0.328471  1
