# generated using pymatgen
data_Tb2Co5B2
_symmetry_space_group_name_H-M   'P 1'
_cell_length_a   5.08762400
_cell_length_b   5.08762346
_cell_length_c   19.96184800
_cell_angle_alpha   90.00000000
_cell_angle_beta   90.00000000
_cell_angle_gamma   120.00000354
_symmetry_Int_Tables_number   1
_chemical_formula_structural   Tb2Co5B2
_chemical_formula_sum   'Tb8 Co20 B8'
_cell_volume   447.46732607
_cell_formula_units_Z   4
loop_
 _symmetry_equiv_pos_site_id
 _symmetry_equiv_pos_as_xyz
  1  'x, y, z'
loop_
 _atom_site_type_symbol
 _atom_site_label
 _atom_site_symmetry_multiplicity
 _atom_site_fract_x
 _atom_site_fract_y
 _atom_site_fract_z
 _atom_site_occupancy
  Tb  Tb0  1  0.666667  0.333333  0.825097  1
  Tb  Tb1  1  0.666667  0.333333  0.979633  1
  Tb  Tb2  1  0.333333  0.666667  0.479633  1
  Tb  Tb3  1  0.333333  0.666667  0.020367  1
  Tb  Tb4  1  0.333333  0.666667  0.174903  1
  Tb  Tb5  1  0.666667  0.333333  0.520367  1
  Tb  Tb6  1  0.666667  0.333333  0.674903  1
  Tb  Tb7  1  0.333333  0.666667  0.325097  1
  Co  Co8  1  0.161301  0.322601  0.894230  1
  Co  Co9  1  0.161301  0.838699  0.605770  1
  Co  Co10  1  0.838699  0.161301  0.394230  1
  Co  Co11  1  0.334416  0.167208  0.250000  1
  Co  Co12  1  0.322601  0.161301  0.394230  1
  Co  Co13  1  0.838699  0.677399  0.105770  1
  Co  Co14  1  0.838699  0.677399  0.394230  1
  Co  Co15  1  0.832792  0.665584  0.250000  1
  Co  Co16  1  0.677399  0.838699  0.605770  1
  Co  Co17  1  0.665584  0.832792  0.750000  1
  Co  Co18  1  0.838699  0.161301  0.105770  1
  Co  Co19  1  0.677399  0.838699  0.894230  1
  Co  Co20  1  0.000000  0.000000  0.000000  1
  Co  Co21  1  0.167208  0.334416  0.750000  1
  Co  Co22  1  0.167208  0.832792  0.750000  1
  Co  Co23  1  0.832792  0.167208  0.250000  1
  Co  Co24  1  0.322601  0.161301  0.105770  1
  Co  Co25  1  0.000000  0.000000  0.500000  1
  Co  Co26  1  0.161301  0.838699  0.894230  1
  Co  Co27  1  0.161301  0.322601  0.605770  1
  B  B28  1  0.333333  0.666667  0.825470  1
  B  B29  1  0.333333  0.666667  0.674530  1
  B  B30  1  0.666667  0.333333  0.325470  1
  B  B31  1  0.000000  0.000000  0.822761  1
  B  B32  1  0.666667  0.333333  0.174530  1
  B  B33  1  0.000000  0.000000  0.677239  1
  B  B34  1  0.000000  0.000000  0.322761  1
  B  B35  1  0.000000  0.000000  0.177239  1
