# generated using pymatgen
data_Tb3Y2Tm11(CdNi)4
_symmetry_space_group_name_H-M   'P 1'
_cell_length_a   9.48052449
_cell_length_b   9.47177139
_cell_length_c   9.45948600
_cell_angle_alpha   60.04289691
_cell_angle_beta   60.07338104
_cell_angle_gamma   59.93047963
_symmetry_Int_Tables_number   1
_chemical_formula_structural   Tb3Y2Tm11(CdNi)4
_chemical_formula_sum   'Tb3 Y2 Tm11 Cd4 Ni4'
_cell_volume   600.85273266
_cell_formula_units_Z   1
loop_
 _symmetry_equiv_pos_site_id
 _symmetry_equiv_pos_as_xyz
  1  'x, y, z'
loop_
 _atom_site_type_symbol
 _atom_site_label
 _atom_site_symmetry_multiplicity
 _atom_site_fract_x
 _atom_site_fract_y
 _atom_site_fract_z
 _atom_site_occupancy
  Tb  Tb0  1  0.598728  0.599838  0.600019  1
  Tb  Tb1  1  0.598728  0.599838  0.201414  1
  Tb  Tb2  1  0.599324  0.201525  0.599575  1
  Y  Y3  1  0.815688  0.815217  0.184548  1
  Y  Y4  1  0.185099  0.184488  0.815207  1
  Tm  Tm5  1  0.201794  0.599425  0.599390  1
  Tm  Tm6  1  0.062615  0.437855  0.437760  1
  Tm  Tm7  1  0.437717  0.062687  0.062696  1
  Tm  Tm8  1  0.437717  0.062687  0.436900  1
  Tm  Tm9  1  0.062615  0.437855  0.061769  1
  Tm  Tm10  1  0.437508  0.436640  0.062926  1
  Tm  Tm11  1  0.062539  0.062400  0.437530  1
  Tm  Tm12  1  0.187406  0.812676  0.812553  1
  Tm  Tm13  1  0.813135  0.186979  0.186949  1
  Tm  Tm14  1  0.813135  0.186979  0.812937  1
  Tm  Tm15  1  0.187406  0.812676  0.187365  1
  Cd  Cd16  1  0.833354  0.831044  0.829866  1
  Cd  Cd17  1  0.833354  0.831044  0.505736  1
  Cd  Cd18  1  0.831989  0.505484  0.831263  1
  Cd  Cd19  1  0.505969  0.830365  0.831833  1
  Ni  Ni20  1  0.390836  0.393874  0.391528  1
  Ni  Ni21  1  0.390836  0.393874  0.823763  1
  Ni  Ni22  1  0.387822  0.822970  0.394604  1
  Ni  Ni23  1  0.824685  0.391581  0.391867  1
