# generated using pymatgen
data_Tm5HgOs2
_symmetry_space_group_name_H-M   'P 1'
_cell_length_a   8.55577393
_cell_length_b   8.55577359
_cell_length_c   8.55577432
_cell_angle_alpha   126.70392836
_cell_angle_beta   126.70392424
_cell_angle_gamma   78.73423566
_symmetry_Int_Tables_number   1
_chemical_formula_structural   Tm5HgOs2
_chemical_formula_sum   'Tm10 Hg2 Os4'
_cell_volume   389.59539868
_cell_formula_units_Z   2
loop_
 _symmetry_equiv_pos_site_id
 _symmetry_equiv_pos_as_xyz
  1  'x, y, z'
loop_
 _atom_site_type_symbol
 _atom_site_label
 _atom_site_symmetry_multiplicity
 _atom_site_fract_x
 _atom_site_fract_y
 _atom_site_fract_z
 _atom_site_occupancy
  Tm  Tm0  1  0.000000  0.000000  0.000000  1
  Tm  Tm1  1  0.500000  0.500000  0.000000  1
  Tm  Tm2  1  0.790757  0.290757  0.816037  1
  Tm  Tm3  1  0.209243  0.709243  0.183963  1
  Tm  Tm4  1  0.474721  0.974721  0.183963  1
  Tm  Tm5  1  0.290757  0.474721  0.500000  1
  Tm  Tm6  1  0.025279  0.209243  0.500000  1
  Tm  Tm7  1  0.525279  0.025279  0.816037  1
  Tm  Tm8  1  0.709243  0.525279  0.500000  1
  Tm  Tm9  1  0.974721  0.790757  0.500000  1
  Hg  Hg10  1  0.250000  0.250000  0.000000  1
  Hg  Hg11  1  0.750000  0.750000  0.000000  1
  Os  Os12  1  0.141268  0.641268  0.782536  1
  Os  Os13  1  0.858732  0.358732  0.217464  1
  Os  Os14  1  0.641268  0.858732  0.500000  1
  Os  Os15  1  0.358732  0.141268  0.500000  1
