# generated using pymatgen
data_Ta17NbOs12
_symmetry_space_group_name_H-M   'P 1'
_cell_length_a   9.91288100
_cell_length_b   9.91288093
_cell_length_c   5.10235101
_cell_angle_alpha   89.99405134
_cell_angle_beta   90.00594742
_cell_angle_gamma   89.83135323
_symmetry_Int_Tables_number   1
_chemical_formula_structural   Ta17NbOs12
_chemical_formula_sum   'Ta17 Nb1 Os12'
_cell_volume   501.38141135
_cell_formula_units_Z   1
loop_
 _symmetry_equiv_pos_site_id
 _symmetry_equiv_pos_as_xyz
  1  'x, y, z'
loop_
 _atom_site_type_symbol
 _atom_site_label
 _atom_site_symmetry_multiplicity
 _atom_site_fract_x
 _atom_site_fract_y
 _atom_site_fract_z
 _atom_site_occupancy
  Ta  Ta0  1  0.103043  0.102849  0.503000  1
  Ta  Ta1  1  0.897151  0.896957  0.503000  1
  Ta  Ta2  1  0.398855  0.601145  0.995357  1
  Ta  Ta3  1  0.038068  0.370569  0.501009  1
  Ta  Ta4  1  0.961550  0.629384  0.500840  1
  Ta  Ta5  1  0.534865  0.130919  0.002237  1
  Ta  Ta6  1  0.465290  0.869819  0.002340  1
  Ta  Ta7  1  0.629431  0.961932  0.501009  1
  Ta  Ta8  1  0.370616  0.038450  0.500840  1
  Ta  Ta9  1  0.869081  0.465135  0.002237  1
  Ta  Ta10  1  0.130181  0.534710  0.002340  1
  Ta  Ta11  1  0.818822  0.181178  0.750821  1
  Ta  Ta12  1  0.181436  0.818564  0.750781  1
  Ta  Ta13  1  0.681160  0.681394  0.750436  1
  Ta  Ta14  1  0.318606  0.318840  0.750436  1
  Ta  Ta15  1  0.181983  0.818017  0.250557  1
  Ta  Ta16  1  0.818466  0.181534  0.250713  1
  Nb  Nb17  1  0.601703  0.398297  0.995492  1
  Os  Os18  1  0.499896  0.500104  0.478230  1
  Os  Os19  1  0.000038  0.999962  0.000790  1
  Os  Os20  1  0.758247  0.433899  0.500050  1
  Os  Os21  1  0.241808  0.566041  0.500329  1
  Os  Os22  1  0.259800  0.069330  0.001699  1
  Os  Os23  1  0.740103  0.930760  0.001865  1
  Os  Os24  1  0.566101  0.241753  0.500050  1
  Os  Os25  1  0.433959  0.758192  0.500329  1
  Os  Os26  1  0.930670  0.740200  0.001699  1
  Os  Os27  1  0.069240  0.259897  0.001865  1
  Os  Os28  1  0.318451  0.318621  0.249825  1
  Os  Os29  1  0.681379  0.681549  0.249825  1
