# generated using pymatgen
data_RbTc(OF2)2
_symmetry_space_group_name_H-M   'P 1'
_cell_length_a   5.77047400
_cell_length_b   5.77047400
_cell_length_c   9.63317600
_cell_angle_alpha   90.00000000
_cell_angle_beta   90.00000000
_cell_angle_gamma   90.00000000
_symmetry_Int_Tables_number   1
_chemical_formula_structural   RbTc(OF2)2
_chemical_formula_sum   'Rb2 Tc2 O4 F8'
_cell_volume   320.76906050
_cell_formula_units_Z   2
loop_
 _symmetry_equiv_pos_site_id
 _symmetry_equiv_pos_as_xyz
  1  'x, y, z'
loop_
 _atom_site_type_symbol
 _atom_site_label
 _atom_site_symmetry_multiplicity
 _atom_site_fract_x
 _atom_site_fract_y
 _atom_site_fract_z
 _atom_site_occupancy
  Rb  Rb0  1  0.000000  0.500000  0.385083  1
  Rb  Rb1  1  0.500000  0.000000  0.614917  1
  Tc  Tc2  1  0.500000  0.000000  0.188797  1
  Tc  Tc3  1  0.000000  0.500000  0.811204  1
  O  O4  1  0.663436  0.163439  0.079212  1
  O  O5  1  0.336563  0.836563  0.079212  1
  O  O6  1  0.163439  0.336563  0.920788  1
  O  O7  1  0.836563  0.663436  0.920788  1
  F  F8  1  0.269312  0.230690  0.217902  1
  F  F9  1  0.730688  0.769309  0.217902  1
  F  F10  1  0.655305  0.155305  0.353213  1
  F  F11  1  0.344695  0.844695  0.353213  1
  F  F12  1  0.155305  0.344695  0.646788  1
  F  F13  1  0.844695  0.655305  0.646788  1
  F  F14  1  0.769309  0.269312  0.782097  1
  F  F15  1  0.230690  0.730688  0.782097  1
