# generated using pymatgen
data_Ag3Hg(NO3)8
_symmetry_space_group_name_H-M   'P 1'
_cell_length_a   8.00054486
_cell_length_b   8.00054504
_cell_length_c   8.00054504
_cell_angle_alpha   89.65484830
_cell_angle_beta   89.65484996
_cell_angle_gamma   89.65484422
_symmetry_Int_Tables_number   1
_chemical_formula_structural   Ag3Hg(NO3)8
_chemical_formula_sum   'Ag3 Hg1 N8 O24'
_cell_volume   512.07687906
_cell_formula_units_Z   1
loop_
 _symmetry_equiv_pos_site_id
 _symmetry_equiv_pos_as_xyz
  1  'x, y, z'
loop_
 _atom_site_type_symbol
 _atom_site_label
 _atom_site_symmetry_multiplicity
 _atom_site_fract_x
 _atom_site_fract_y
 _atom_site_fract_z
 _atom_site_occupancy
  Ag  Ag0  1  0.000000  0.500000  0.500000  1
  Ag  Ag1  1  0.500000  0.500000  0.000000  1
  Ag  Ag2  1  0.500000  0.000000  0.500000  1
  Hg  Hg3  1  0.000000  0.000000  0.000000  1
  N  N4  1  0.334599  0.334599  0.334599  1
  N  N5  1  0.337399  0.167692  0.834066  1
  N  N6  1  0.167692  0.834066  0.337399  1
  N  N7  1  0.834066  0.337399  0.167692  1
  N  N8  1  0.665401  0.665401  0.665401  1
  N  N9  1  0.165934  0.662601  0.832308  1
  N  N10  1  0.832308  0.165934  0.662601  1
  N  N11  1  0.662601  0.832308  0.165934  1
  O  O12  1  0.733333  0.318626  0.048235  1
  O  O13  1  0.188173  0.953908  0.234637  1
  O  O14  1  0.267029  0.816215  0.457981  1
  O  O15  1  0.234637  0.188173  0.953908  1
  O  O16  1  0.233473  0.315390  0.454872  1
  O  O17  1  0.454872  0.233473  0.315390  1
  O  O18  1  0.315390  0.454872  0.233473  1
  O  O19  1  0.183785  0.542019  0.732971  1
  O  O20  1  0.951765  0.266667  0.681374  1
  O  O21  1  0.681374  0.951765  0.266667  1
  O  O22  1  0.046092  0.765363  0.811827  1
  O  O23  1  0.542019  0.732971  0.183785  1
  O  O24  1  0.811827  0.046092  0.765363  1
  O  O25  1  0.732971  0.183785  0.542019  1
  O  O26  1  0.765363  0.811827  0.046092  1
  O  O27  1  0.266667  0.681374  0.951765  1
  O  O28  1  0.766527  0.684610  0.545128  1
  O  O29  1  0.545128  0.766527  0.684610  1
  O  O30  1  0.684610  0.545128  0.766527  1
  O  O31  1  0.816215  0.457981  0.267029  1
  O  O32  1  0.048235  0.733333  0.318626  1
  O  O33  1  0.318626  0.048235  0.733333  1
  O  O34  1  0.953908  0.234637  0.188173  1
  O  O35  1  0.457981  0.267029  0.816215  1
