# generated using pymatgen
data_Yb2OsC2
_symmetry_space_group_name_H-M   'P 1'
_cell_length_a   5.15828900
_cell_length_b   6.51467400
_cell_length_c   10.09335700
_cell_angle_alpha   90.00000000
_cell_angle_beta   90.00000000
_cell_angle_gamma   90.00000000
_symmetry_Int_Tables_number   1
_chemical_formula_structural   Yb2OsC2
_chemical_formula_sum   'Yb8 Os4 C8'
_cell_volume   339.18293428
_cell_formula_units_Z   4
loop_
 _symmetry_equiv_pos_site_id
 _symmetry_equiv_pos_as_xyz
  1  'x, y, z'
loop_
 _atom_site_type_symbol
 _atom_site_label
 _atom_site_symmetry_multiplicity
 _atom_site_fract_x
 _atom_site_fract_y
 _atom_site_fract_z
 _atom_site_occupancy
  Yb  Yb0  1  0.250000  0.692342  0.547988  1
  Yb  Yb1  1  0.750000  0.307658  0.452012  1
  Yb  Yb2  1  0.750000  0.807658  0.047988  1
  Yb  Yb3  1  0.250000  0.192342  0.952012  1
  Yb  Yb4  1  0.250000  0.530800  0.222655  1
  Yb  Yb5  1  0.750000  0.469200  0.777345  1
  Yb  Yb6  1  0.750000  0.969200  0.722655  1
  Yb  Yb7  1  0.250000  0.030800  0.277345  1
  Os  Os8  1  0.250000  0.732691  0.852705  1
  Os  Os9  1  0.750000  0.267309  0.147295  1
  Os  Os10  1  0.750000  0.767309  0.352705  1
  Os  Os11  1  0.250000  0.232691  0.647295  1
  C  C12  1  0.250000  0.467702  0.760641  1
  C  C13  1  0.750000  0.532298  0.239359  1
  C  C14  1  0.750000  0.032298  0.260641  1
  C  C15  1  0.250000  0.967702  0.739359  1
  C  C16  1  0.250000  0.796198  0.031130  1
  C  C17  1  0.750000  0.203802  0.968870  1
  C  C18  1  0.750000  0.703802  0.531130  1
  C  C19  1  0.250000  0.296198  0.468870  1
