# generated using pymatgen
data_Sc3Ni8MoP6
_symmetry_space_group_name_H-M   'P 1'
_cell_length_a   3.64370500
_cell_length_b   10.52528000
_cell_length_c   12.12776800
_cell_angle_alpha   90.00000000
_cell_angle_beta   90.00000000
_cell_angle_gamma   90.00000000
_symmetry_Int_Tables_number   1
_chemical_formula_structural   Sc3Ni8MoP6
_chemical_formula_sum   'Sc6 Ni16 Mo2 P12'
_cell_volume   465.11221688
_cell_formula_units_Z   2
loop_
 _symmetry_equiv_pos_site_id
 _symmetry_equiv_pos_as_xyz
  1  'x, y, z'
loop_
 _atom_site_type_symbol
 _atom_site_label
 _atom_site_symmetry_multiplicity
 _atom_site_fract_x
 _atom_site_fract_y
 _atom_site_fract_z
 _atom_site_occupancy
  Sc  Sc0  1  0.751980  0.000000  0.472587  1
  Sc  Sc1  1  0.251980  0.500000  0.527413  1
  Sc  Sc2  1  0.251861  0.678791  0.791687  1
  Sc  Sc3  1  0.251861  0.321209  0.791687  1
  Sc  Sc4  1  0.751861  0.821209  0.208313  1
  Sc  Sc5  1  0.751861  0.178791  0.208313  1
  Ni  Ni6  1  0.751693  0.000000  0.014569  1
  Ni  Ni7  1  0.251693  0.500000  0.985431  1
  Ni  Ni8  1  0.251899  0.197835  0.568762  1
  Ni  Ni9  1  0.251899  0.802165  0.568762  1
  Ni  Ni10  1  0.751899  0.302165  0.431238  1
  Ni  Ni11  1  0.751899  0.697835  0.431238  1
  Ni  Ni12  1  0.251870  0.624926  0.293678  1
  Ni  Ni13  1  0.251870  0.375074  0.293678  1
  Ni  Ni14  1  0.751870  0.875074  0.706322  1
  Ni  Ni15  1  0.751870  0.124926  0.706322  1
  Ni  Ni16  1  0.251653  0.166912  0.012284  1
  Ni  Ni17  1  0.251653  0.833088  0.012284  1
  Ni  Ni18  1  0.751653  0.333088  0.987716  1
  Ni  Ni19  1  0.751653  0.666912  0.987716  1
  Ni  Ni20  1  0.251893  0.000000  0.299670  1
  Ni  Ni21  1  0.751893  0.500000  0.700330  1
  Mo  Mo22  1  0.251810  0.000000  0.841812  1
  Mo  Mo23  1  0.751810  0.500000  0.158188  1
  P  P24  1  0.251889  0.182123  0.383368  1
  P  P25  1  0.251889  0.817877  0.383368  1
  P  P26  1  0.751889  0.317877  0.616632  1
  P  P27  1  0.751889  0.682123  0.616632  1
  P  P28  1  0.251727  0.000000  0.124264  1
  P  P29  1  0.751727  0.500000  0.875736  1
  P  P30  1  0.251749  0.659068  0.111194  1
  P  P31  1  0.251749  0.340932  0.111194  1
  P  P32  1  0.751749  0.840932  0.888806  1
  P  P33  1  0.751749  0.159068  0.888806  1
  P  P34  1  0.251854  0.000000  0.643074  1
  P  P35  1  0.751854  0.500000  0.356926  1
