# generated using pymatgen
data_LiNd17(TmIr6)2
_symmetry_space_group_name_H-M   'P 1'
_cell_length_a   11.20175500
_cell_length_b   11.20175500
_cell_length_c   6.45485400
_cell_angle_alpha   90.00000000
_cell_angle_beta   90.00000000
_cell_angle_gamma   90.00000000
_symmetry_Int_Tables_number   1
_chemical_formula_structural   LiNd17(TmIr6)2
_chemical_formula_sum   'Li1 Nd17 Tm2 Ir12'
_cell_volume   809.95065886
_cell_formula_units_Z   1
loop_
 _symmetry_equiv_pos_site_id
 _symmetry_equiv_pos_as_xyz
  1  'x, y, z'
loop_
 _atom_site_type_symbol
 _atom_site_label
 _atom_site_symmetry_multiplicity
 _atom_site_fract_x
 _atom_site_fract_y
 _atom_site_fract_z
 _atom_site_occupancy
  Li  Li0  1  0.000000  0.000000  0.000000  1
  Nd  Nd1  1  0.083937  0.278179  0.114939  1
  Nd  Nd2  1  0.789725  0.414674  0.117924  1
  Nd  Nd3  1  0.210275  0.585326  0.117924  1
  Nd  Nd4  1  0.916063  0.721821  0.114939  1
  Nd  Nd5  1  0.410011  0.789081  0.384535  1
  Nd  Nd6  1  0.589989  0.210919  0.384535  1
  Nd  Nd7  1  0.292072  0.088650  0.383420  1
  Nd  Nd8  1  0.707928  0.911350  0.383420  1
  Nd  Nd9  1  0.414674  0.210275  0.882076  1
  Nd  Nd10  1  0.721821  0.083937  0.885061  1
  Nd  Nd11  1  0.278179  0.916063  0.885061  1
  Nd  Nd12  1  0.585326  0.789725  0.882076  1
  Nd  Nd13  1  0.088650  0.707928  0.616580  1
  Nd  Nd14  1  0.911350  0.292072  0.616580  1
  Nd  Nd15  1  0.210919  0.410011  0.615465  1
  Nd  Nd16  1  0.789081  0.589989  0.615465  1
  Nd  Nd17  1  0.000000  0.000000  0.500000  1
  Tm  Tm18  1  0.500000  0.500000  0.000000  1
  Tm  Tm19  1  0.500000  0.500000  0.500000  1
  Ir  Ir20  1  0.155762  0.845893  0.256712  1
  Ir  Ir21  1  0.352394  0.352310  0.247201  1
  Ir  Ir22  1  0.647606  0.647690  0.247201  1
  Ir  Ir23  1  0.844238  0.154107  0.256712  1
  Ir  Ir24  1  0.352310  0.647606  0.752799  1
  Ir  Ir25  1  0.154107  0.155762  0.743288  1
  Ir  Ir26  1  0.845893  0.844238  0.743288  1
  Ir  Ir27  1  0.647690  0.352394  0.752799  1
  Ir  Ir28  1  0.000000  0.500000  0.377374  1
  Ir  Ir29  1  0.500000  0.000000  0.114309  1
  Ir  Ir30  1  0.500000  0.000000  0.622626  1
  Ir  Ir31  1  0.000000  0.500000  0.885691  1
