# generated using pymatgen
data_Er3CdHg2C
_symmetry_space_group_name_H-M   'P 1'
_cell_length_a   9.46296413
_cell_length_b   9.46285341
_cell_length_c   9.46275562
_cell_angle_alpha   119.92284425
_cell_angle_beta   90.13806779
_cell_angle_gamma   119.91915828
_symmetry_Int_Tables_number   1
_chemical_formula_structural   Er3CdHg2C
_chemical_formula_sum   'Er12 Cd4 Hg8 C4'
_cell_volume   599.87996946
_cell_formula_units_Z   4
loop_
 _symmetry_equiv_pos_site_id
 _symmetry_equiv_pos_as_xyz
  1  'x, y, z'
loop_
 _atom_site_type_symbol
 _atom_site_label
 _atom_site_symmetry_multiplicity
 _atom_site_fract_x
 _atom_site_fract_y
 _atom_site_fract_z
 _atom_site_occupancy
  Er  Er0  1  0.935632  0.371263  0.185632  1
  Er  Er1  1  0.935734  0.750002  0.185723  1
  Er  Er2  1  0.314376  0.749994  0.185633  1
  Er  Er3  1  0.685727  0.249976  0.435728  1
  Er  Er4  1  0.685636  0.871272  0.435628  1
  Er  Er5  1  0.064380  0.249986  0.435602  1
  Er  Er6  1  0.314378  0.128729  0.564384  1
  Er  Er7  1  0.314267  0.750017  0.564268  1
  Er  Er8  1  0.935626  0.749992  0.564385  1
  Er  Er9  1  0.685631  0.250014  0.814385  1
  Er  Er10  1  0.064376  0.628751  0.814377  1
  Er  Er11  1  0.064280  0.250003  0.814275  1
  Cd  Cd12  1  0.999998  0.999994  0.999982  1
  Cd  Cd13  1  0.499988  0.999994  0.000009  1
  Cd  Cd14  1  0.499977  0.499997  0.999977  1
  Cd  Cd15  1  0.500010  0.500008  0.500017  1
  Hg  Hg16  1  0.712248  0.924621  0.136806  1
  Hg  Hg17  1  0.287602  0.075362  0.212198  1
  Hg  Hg18  1  0.287802  0.424615  0.212388  1
  Hg  Hg19  1  0.636865  0.424679  0.212248  1
  Hg  Hg20  1  0.363132  0.575336  0.787743  1
  Hg  Hg21  1  0.712198  0.575374  0.787606  1
  Hg  Hg22  1  0.712406  0.924672  0.787817  1
  Hg  Hg23  1  0.287752  0.075368  0.863186  1
  C  C24  1  0.000000  0.499996  0.999994  1
  C  C25  1  0.000000  0.000001  0.499999  1
  C  C26  1  0.500002  0.000008  0.500013  1
  C  C27  1  0.999988  0.499989  0.500002  1
