# generated using pymatgen
data_La2ZnSiI
_symmetry_space_group_name_H-M   'P 1'
_cell_length_a   4.22331300
_cell_length_b   4.22331382
_cell_length_c   17.88987100
_cell_angle_alpha   90.00000000
_cell_angle_beta   90.00000000
_cell_angle_gamma   120.00000144
_symmetry_Int_Tables_number   1
_chemical_formula_structural   La2ZnSiI
_chemical_formula_sum   'La4 Zn2 Si2 I2'
_cell_volume   276.34044766
_cell_formula_units_Z   2
loop_
 _symmetry_equiv_pos_site_id
 _symmetry_equiv_pos_as_xyz
  1  'x, y, z'
loop_
 _atom_site_type_symbol
 _atom_site_label
 _atom_site_symmetry_multiplicity
 _atom_site_fract_x
 _atom_site_fract_y
 _atom_site_fract_z
 _atom_site_occupancy
  La  La0  1  0.000000  0.000000  0.383370  1
  La  La1  1  0.000000  0.000000  0.883370  1
  La  La2  1  0.000000  0.000000  0.615827  1
  La  La3  1  0.000000  0.000000  0.115827  1
  Zn  Zn4  1  0.333333  0.666667  0.504153  1
  Zn  Zn5  1  0.666667  0.333333  0.004153  1
  Si  Si6  1  0.666667  0.333333  0.496367  1
  Si  Si7  1  0.333333  0.666667  0.996367  1
  I  I8  1  0.333333  0.666667  0.250284  1
  I  I9  1  0.666667  0.333333  0.750284  1
