# generated using pymatgen
data_Er7Pa(Ta3Ge4)4
_symmetry_space_group_name_H-M   'P 1'
_cell_length_a   6.99040397
_cell_length_b   7.14272872
_cell_length_c   13.50428417
_cell_angle_alpha   89.96589435
_cell_angle_beta   90.18985929
_cell_angle_gamma   90.03880845
_symmetry_Int_Tables_number   1
_chemical_formula_structural   Er7Pa(Ta3Ge4)4
_chemical_formula_sum   'Er7 Pa1 Ta12 Ge16'
_cell_volume   674.27248594
_cell_formula_units_Z   1
loop_
 _symmetry_equiv_pos_site_id
 _symmetry_equiv_pos_as_xyz
  1  'x, y, z'
loop_
 _atom_site_type_symbol
 _atom_site_label
 _atom_site_symmetry_multiplicity
 _atom_site_fract_x
 _atom_site_fract_y
 _atom_site_fract_z
 _atom_site_occupancy
  Er  Er0  1  0.995609  0.174561  0.406835  1
  Er  Er1  1  0.504120  0.674278  0.594458  1
  Er  Er2  1  0.004587  0.826096  0.904418  1
  Er  Er3  1  0.504194  0.673558  0.905003  1
  Er  Er4  1  0.004462  0.825643  0.594339  1
  Er  Er5  1  0.495475  0.325638  0.406189  1
  Er  Er6  1  0.993409  0.173904  0.094273  1
  Pa  Pa7  1  0.495956  0.326084  0.093761  1
  Ta  Ta8  1  0.665264  0.012920  0.750249  1
  Ta  Ta9  1  0.163445  0.486962  0.749644  1
  Ta  Ta10  1  0.336061  0.990407  0.248662  1
  Ta  Ta11  1  0.833041  0.511535  0.249254  1
  Ta  Ta12  1  0.840407  0.330752  0.626298  1
  Ta  Ta13  1  0.342491  0.170779  0.875407  1
  Ta  Ta14  1  0.163040  0.665943  0.126077  1
  Ta  Ta15  1  0.660916  0.831013  0.374096  1
  Ta  Ta16  1  0.158674  0.671035  0.373316  1
  Ta  Ta17  1  0.658880  0.831805  0.126568  1
  Ta  Ta18  1  0.839380  0.331443  0.874032  1
  Ta  Ta19  1  0.340441  0.169086  0.626377  1
  Ge  Ge20  1  0.804836  0.641188  0.749677  1
  Ge  Ge21  1  0.305624  0.858594  0.749526  1
  Ge  Ge22  1  0.191583  0.358968  0.251381  1
  Ge  Ge23  1  0.695977  0.139231  0.252365  1
  Ge  Ge24  1  0.539033  0.379969  0.749666  1
  Ge  Ge25  1  0.040067  0.120293  0.750074  1
  Ge  Ge26  1  0.460960  0.620717  0.251129  1
  Ge  Ge27  1  0.960775  0.878961  0.249511  1
  Ge  Ge28  1  0.676328  0.037973  0.542417  1
  Ge  Ge29  1  0.176300  0.461185  0.956629  1
  Ge  Ge30  1  0.320468  0.958411  0.041921  1
  Ge  Ge31  1  0.823802  0.537868  0.458053  1
  Ge  Ge32  1  0.323872  0.961828  0.457978  1
  Ge  Ge33  1  0.826730  0.542016  0.041378  1
  Ge  Ge34  1  0.677520  0.037356  0.956790  1
  Ge  Ge35  1  0.176275  0.461999  0.542246  1
