# generated using pymatgen
data_Dy2Fe11NiP7
_symmetry_space_group_name_H-M   'P 1'
_cell_length_a   8.97781990
_cell_length_b   8.96329809
_cell_length_c   3.63809400
_cell_angle_alpha   90.00000000
_cell_angle_beta   90.00000000
_cell_angle_gamma   119.82400169
_symmetry_Int_Tables_number   1
_chemical_formula_structural   Dy2Fe11NiP7
_chemical_formula_sum   'Dy2 Fe11 Ni1 P7'
_cell_volume   253.98657318
_cell_formula_units_Z   1
loop_
 _symmetry_equiv_pos_site_id
 _symmetry_equiv_pos_as_xyz
  1  'x, y, z'
loop_
 _atom_site_type_symbol
 _atom_site_label
 _atom_site_symmetry_multiplicity
 _atom_site_fract_x
 _atom_site_fract_y
 _atom_site_fract_z
 _atom_site_occupancy
  Dy  Dy0  1  0.999245  0.999838  0.000000  1
  Dy  Dy1  1  0.334625  0.667865  0.500000  1
  Fe  Fe2  1  0.297606  0.906847  0.000000  1
  Fe  Fe3  1  0.608601  0.702448  0.000000  1
  Fe  Fe4  1  0.818713  0.605185  0.000000  1
  Fe  Fe5  1  0.785206  0.178220  0.000000  1
  Fe  Fe6  1  0.392187  0.212625  0.000000  1
  Fe  Fe7  1  0.050322  0.767423  0.500000  1
  Fe  Fe8  1  0.714025  0.946282  0.500000  1
  Fe  Fe9  1  0.232280  0.285226  0.500000  1
  Fe  Fe10  1  0.889574  0.432788  0.500000  1
  Fe  Fe11  1  0.546677  0.116769  0.500000  1
  Fe  Fe12  1  0.569100  0.451337  0.500000  1
  Ni  Ni13  1  0.097420  0.395401  0.000000  1
  P  P14  1  0.076155  0.638009  0.000000  1
  P  P15  1  0.556138  0.923992  0.000000  1
  P  P16  1  0.373501  0.445436  0.000000  1
  P  P17  1  0.777792  0.733329  0.500000  1
  P  P18  1  0.949780  0.214448  0.500000  1
  P  P19  1  0.265005  0.044385  0.500000  1
  P  P20  1  0.666048  0.332146  0.000000  1
