# generated using pymatgen
data_Ba4DySbO8
_symmetry_space_group_name_H-M   'P 1'
_cell_length_a   7.46619348
_cell_length_b   7.46619359
_cell_length_c   6.02080500
_cell_angle_alpha   90.00000000
_cell_angle_beta   90.00000000
_cell_angle_gamma   132.61585964
_symmetry_Int_Tables_number   1
_chemical_formula_structural   Ba4DySbO8
_chemical_formula_sum   'Ba4 Dy1 Sb1 O8'
_cell_volume   246.98897873
_cell_formula_units_Z   1
loop_
 _symmetry_equiv_pos_site_id
 _symmetry_equiv_pos_as_xyz
  1  'x, y, z'
loop_
 _atom_site_type_symbol
 _atom_site_label
 _atom_site_symmetry_multiplicity
 _atom_site_fract_x
 _atom_site_fract_y
 _atom_site_fract_z
 _atom_site_occupancy
  Ba  Ba0  1  0.352752  0.647248  0.000000  1
  Ba  Ba1  1  0.852503  0.147497  0.500000  1
  Ba  Ba2  1  0.147497  0.852503  0.500000  1
  Ba  Ba3  1  0.647248  0.352752  0.000000  1
  Dy  Dy4  1  0.000000  0.000000  0.000000  1
  Sb  Sb5  1  0.500000  0.500000  0.500000  1
  O  O6  1  0.261125  0.261125  0.733891  1
  O  O7  1  0.738875  0.738875  0.266109  1
  O  O8  1  0.738875  0.738875  0.733891  1
  O  O9  1  0.261125  0.261125  0.266109  1
  O  O10  1  0.165544  0.834456  0.000000  1
  O  O11  1  0.650639  0.349361  0.500000  1
  O  O12  1  0.349361  0.650639  0.500000  1
  O  O13  1  0.834456  0.165544  0.000000  1
