# generated using pymatgen
data_RbAg2AsS3
_symmetry_space_group_name_H-M   'P 1'
_cell_length_a   8.43268200
_cell_length_b   9.54523472
_cell_length_c   9.98696392
_cell_angle_alpha   70.93388372
_cell_angle_beta   90.00000000
_cell_angle_gamma   90.00000000
_symmetry_Int_Tables_number   1
_chemical_formula_structural   RbAg2AsS3
_chemical_formula_sum   'Rb4 Ag8 As4 S12'
_cell_volume   759.77149825
_cell_formula_units_Z   4
loop_
 _symmetry_equiv_pos_site_id
 _symmetry_equiv_pos_as_xyz
  1  'x, y, z'
loop_
 _atom_site_type_symbol
 _atom_site_label
 _atom_site_symmetry_multiplicity
 _atom_site_fract_x
 _atom_site_fract_y
 _atom_site_fract_z
 _atom_site_occupancy
  Rb  Rb0  1  0.939671  0.247555  0.085009  1
  Rb  Rb1  1  0.439671  0.252445  0.914991  1
  Rb  Rb2  1  0.060329  0.752445  0.914991  1
  Rb  Rb3  1  0.560329  0.747555  0.085009  1
  Ag  Ag4  1  0.761564  0.936358  0.441532  1
  Ag  Ag5  1  0.261564  0.563642  0.558468  1
  Ag  Ag6  1  0.238436  0.063642  0.558468  1
  Ag  Ag7  1  0.738436  0.436358  0.441532  1
  Ag  Ag8  1  0.974181  0.214643  0.676694  1
  Ag  Ag9  1  0.474181  0.285357  0.323306  1
  Ag  Ag10  1  0.025819  0.785357  0.323306  1
  Ag  Ag11  1  0.525819  0.714643  0.676694  1
  As  As12  1  0.139502  0.445787  0.342902  1
  As  As13  1  0.639502  0.054213  0.657098  1
  As  As14  1  0.860498  0.554213  0.657098  1
  As  As15  1  0.360498  0.945787  0.342902  1
  S  S16  1  0.019070  0.212841  0.428385  1
  S  S17  1  0.519070  0.287159  0.571615  1
  S  S18  1  0.980930  0.787159  0.571615  1
  S  S19  1  0.480930  0.712841  0.428385  1
  S  S20  1  0.777500  0.054594  0.849466  1
  S  S21  1  0.277500  0.445406  0.150534  1
  S  S22  1  0.222500  0.945406  0.150534  1
  S  S23  1  0.722500  0.554594  0.849466  1
  S  S24  1  0.910462  0.574726  0.245283  1
  S  S25  1  0.410462  0.925274  0.754717  1
  S  S26  1  0.089538  0.425274  0.754717  1
  S  S27  1  0.589538  0.074726  0.245283  1
