# generated using pymatgen
data_Dy5Er5(TmIr2)2
_symmetry_space_group_name_H-M   'P 1'
_cell_length_a   6.35495309
_cell_length_b   7.23967458
_cell_length_c   9.15056872
_cell_angle_alpha   90.03338079
_cell_angle_beta   89.94969738
_cell_angle_gamma   90.05843868
_symmetry_Int_Tables_number   1
_chemical_formula_structural   Dy5Er5(TmIr2)2
_chemical_formula_sum   'Dy5 Er5 Tm2 Ir4'
_cell_volume   420.99701305
_cell_formula_units_Z   1
loop_
 _symmetry_equiv_pos_site_id
 _symmetry_equiv_pos_as_xyz
  1  'x, y, z'
loop_
 _atom_site_type_symbol
 _atom_site_label
 _atom_site_symmetry_multiplicity
 _atom_site_fract_x
 _atom_site_fract_y
 _atom_site_fract_z
 _atom_site_occupancy
  Dy  Dy0  1  0.671609  0.322919  0.562272  1
  Dy  Dy1  1  0.868824  0.534530  0.249704  1
  Dy  Dy2  1  0.631100  0.034228  0.249787  1
  Dy  Dy3  1  0.131585  0.466085  0.750216  1
  Dy  Dy4  1  0.368283  0.965568  0.750032  1
  Er  Er5  1  0.828654  0.822862  0.937633  1
  Er  Er6  1  0.670967  0.323168  0.938033  1
  Er  Er7  1  0.828863  0.823300  0.562920  1
  Er  Er8  1  0.328440  0.676879  0.436813  1
  Er  Er9  1  0.171045  0.176840  0.062521  1
  Tm  Tm10  1  0.328706  0.676881  0.062611  1
  Tm  Tm11  1  0.171327  0.176486  0.436582  1
  Ir  Ir12  1  0.047610  0.882679  0.250131  1
  Ir  Ir13  1  0.452122  0.382670  0.249374  1
  Ir  Ir14  1  0.953477  0.117004  0.750860  1
  Ir  Ir15  1  0.547388  0.617901  0.750511  1
