# generated using pymatgen
data_Er4Lu12Cd4Ru3Pt
_symmetry_space_group_name_H-M   'P 1'
_cell_length_a   9.51240832
_cell_length_b   9.51570653
_cell_length_c   9.51534971
_cell_angle_alpha   59.47896889
_cell_angle_beta   59.29893617
_cell_angle_gamma   59.29960300
_symmetry_Int_Tables_number   1
_chemical_formula_structural   Er4Lu12Cd4Ru3Pt
_chemical_formula_sum   'Er4 Lu12 Cd4 Ru3 Pt1'
_cell_volume   600.14589006
_cell_formula_units_Z   1
loop_
 _symmetry_equiv_pos_site_id
 _symmetry_equiv_pos_as_xyz
  1  'x, y, z'
loop_
 _atom_site_type_symbol
 _atom_site_label
 _atom_site_symmetry_multiplicity
 _atom_site_fract_x
 _atom_site_fract_y
 _atom_site_fract_z
 _atom_site_occupancy
  Er  Er0  1  0.556815  0.939673  0.564862  1
  Er  Er1  1  0.937767  0.560588  0.938531  1
  Er  Er2  1  0.556811  0.564902  0.939698  1
  Er  Er3  1  0.937714  0.938600  0.560558  1
  Lu  Lu4  1  0.346936  0.351212  0.351219  1
  Lu  Lu5  1  0.346687  0.350261  0.955340  1
  Lu  Lu6  1  0.346680  0.955304  0.350260  1
  Lu  Lu7  1  0.962544  0.345808  0.345814  1
  Lu  Lu8  1  0.815634  0.188457  0.188465  1
  Lu  Lu9  1  0.184485  0.812277  0.812218  1
  Lu  Lu10  1  0.186912  0.811405  0.188235  1
  Lu  Lu11  1  0.814031  0.189022  0.805713  1
  Lu  Lu12  1  0.186904  0.188265  0.811381  1
  Lu  Lu13  1  0.814057  0.805652  0.189014  1
  Lu  Lu14  1  0.939078  0.559294  0.559227  1
  Lu  Lu15  1  0.556973  0.938516  0.938536  1
  Cd  Cd16  1  0.580285  0.580079  0.580126  1
  Cd  Cd17  1  0.580927  0.580931  0.258063  1
  Cd  Cd18  1  0.580783  0.258036  0.581042  1
  Cd  Cd19  1  0.256166  0.581205  0.581166  1
  Ru  Ru20  1  0.145792  0.138832  0.138851  1
  Ru  Ru21  1  0.145430  0.142732  0.576165  1
  Ru  Ru22  1  0.145403  0.576192  0.142751  1
  Pt  Pt23  1  0.575189  0.142758  0.142767  1
