# generated using pymatgen
data_Hf8Nb12Si15Pt
_symmetry_space_group_name_H-M   'P 1'
_cell_length_a   6.67512797
_cell_length_b   6.88746257
_cell_length_c   13.12759500
_cell_angle_alpha   90.00000000
_cell_angle_beta   90.00000000
_cell_angle_gamma   89.93045249
_symmetry_Int_Tables_number   1
_chemical_formula_structural   Hf8Nb12Si15Pt
_chemical_formula_sum   'Hf8 Nb12 Si15 Pt1'
_cell_volume   603.53671893
_cell_formula_units_Z   1
loop_
 _symmetry_equiv_pos_site_id
 _symmetry_equiv_pos_as_xyz
  1  'x, y, z'
loop_
 _atom_site_type_symbol
 _atom_site_label
 _atom_site_symmetry_multiplicity
 _atom_site_fract_x
 _atom_site_fract_y
 _atom_site_fract_z
 _atom_site_occupancy
  Hf  Hf0  1  0.497237  0.673281  0.594329  1
  Hf  Hf1  1  0.997017  0.827013  0.906093  1
  Hf  Hf2  1  0.498602  0.325987  0.088926  1
  Hf  Hf3  1  0.003549  0.169298  0.409140  1
  Hf  Hf4  1  0.498602  0.325987  0.411074  1
  Hf  Hf5  1  0.003549  0.169298  0.090860  1
  Hf  Hf6  1  0.497237  0.673281  0.905671  1
  Hf  Hf7  1  0.997017  0.827013  0.593907  1
  Nb  Nb8  1  0.663461  0.171526  0.623812  1
  Nb  Nb9  1  0.163976  0.329014  0.876048  1
  Nb  Nb10  1  0.339050  0.824898  0.123749  1
  Nb  Nb11  1  0.841172  0.682797  0.378484  1
  Nb  Nb12  1  0.339050  0.824898  0.376251  1
  Nb  Nb13  1  0.841172  0.682797  0.121516  1
  Nb  Nb14  1  0.663461  0.171526  0.876188  1
  Nb  Nb15  1  0.163976  0.329014  0.623952  1
  Nb  Nb16  1  0.837523  0.498123  0.750000  1
  Nb  Nb17  1  0.336472  0.003217  0.750000  1
  Nb  Nb18  1  0.162090  0.504281  0.250000  1
  Nb  Nb19  1  0.663004  0.990179  0.250000  1
  Si  Si20  1  0.670769  0.966839  0.462067  1
  Si  Si21  1  0.169808  0.535433  0.038704  1
  Si  Si22  1  0.328542  0.033933  0.961001  1
  Si  Si23  1  0.828268  0.465605  0.538535  1
  Si  Si24  1  0.328542  0.033933  0.538999  1
  Si  Si25  1  0.828268  0.465605  0.961465  1
  Si  Si26  1  0.670769  0.966839  0.037933  1
  Si  Si27  1  0.169808  0.535433  0.461296  1
  Si  Si28  1  0.461587  0.387525  0.750000  1
  Si  Si29  1  0.959890  0.114021  0.750000  1
  Si  Si30  1  0.544008  0.609944  0.250000  1
  Si  Si31  1  0.042922  0.887602  0.250000  1
  Si  Si32  1  0.703052  0.861364  0.750000  1
  Si  Si33  1  0.204354  0.640203  0.750000  1
  Si  Si34  1  0.299316  0.138296  0.250000  1
  Pt  Pt35  1  0.782879  0.353996  0.250000  1
