# generated using pymatgen
data_Y4ZnGa23Pt9
_symmetry_space_group_name_H-M   'P 1'
_cell_length_a   7.57615341
_cell_length_b   7.58220450
_cell_length_c   13.27699559
_cell_angle_alpha   84.60279513
_cell_angle_beta   79.03046962
_cell_angle_gamma   60.11719577
_symmetry_Int_Tables_number   1
_chemical_formula_structural   Y4ZnGa23Pt9
_chemical_formula_sum   'Y4 Zn1 Ga23 Pt9'
_cell_volume   649.19864024
_cell_formula_units_Z   1
loop_
 _symmetry_equiv_pos_site_id
 _symmetry_equiv_pos_as_xyz
  1  'x, y, z'
loop_
 _atom_site_type_symbol
 _atom_site_label
 _atom_site_symmetry_multiplicity
 _atom_site_fract_x
 _atom_site_fract_y
 _atom_site_fract_z
 _atom_site_occupancy
  Y  Y0  1  0.393658  0.170011  0.808584  1
  Y  Y1  1  0.603672  0.831393  0.191776  1
  Y  Y2  1  0.730358  0.497580  0.808581  1
  Y  Y3  1  0.271093  0.499633  0.190049  1
  Zn  Zn4  1  0.685184  0.833094  0.941342  1
  Ga  Ga5  1  0.322836  0.160801  0.058180  1
  Ga  Ga6  1  0.145208  0.832794  0.562902  1
  Ga  Ga7  1  0.853956  0.166741  0.437458  1
  Ga  Ga8  1  0.479291  0.166272  0.559264  1
  Ga  Ga9  1  0.521551  0.833211  0.440850  1
  Ga  Ga10  1  0.219223  0.166979  0.326406  1
  Ga  Ga11  1  0.781015  0.833467  0.673233  1
  Ga  Ga12  1  0.437380  0.504824  0.673955  1
  Ga  Ga13  1  0.561585  0.495941  0.326652  1
  Ga  Ga14  1  0.108861  0.160914  0.673060  1
  Ga  Ga15  1  0.891061  0.838629  0.327972  1
  Ga  Ga16  1  0.355891  0.498963  0.938629  1
  Ga  Ga17  1  0.646501  0.507679  0.058426  1
  Ga  Ga18  1  0.018745  0.168199  0.945806  1
  Ga  Ga19  1  0.978625  0.831809  0.051793  1
  Ga  Ga20  1  0.186947  0.499345  0.440674  1
  Ga  Ga21  1  0.813442  0.501149  0.559256  1
  Ga  Ga22  1  0.736486  0.165223  0.182575  1
  Ga  Ga23  1  0.262951  0.836507  0.817347  1
  Ga  Ga24  1  0.052575  0.635511  0.818304  1
  Ga  Ga25  1  0.942025  0.365965  0.183193  1
  Ga  Ga26  1  0.853500  0.035787  0.818144  1
  Ga  Ga27  1  0.140352  0.960445  0.183593  1
  Pt  Pt28  1  0.121180  0.491902  0.640320  1
  Pt  Pt29  1  0.879667  0.508116  0.359712  1
  Pt  Pt30  1  0.659478  0.176915  0.000349  1
  Pt  Pt31  1  0.336813  0.829899  0.000783  1
  Pt  Pt32  1  0.538689  0.167130  0.359710  1
  Pt  Pt33  1  0.461645  0.832652  0.640106  1
  Pt  Pt34  1  0.780158  0.174201  0.638102  1
  Pt  Pt35  1  0.220390  0.826571  0.362304  1
  Pt  Pt36  1  0.008010  0.493749  0.000615  1
