# generated using pymatgen
data_Dy2TmCu12
_symmetry_space_group_name_H-M   'P 1'
_cell_length_a   5.00586381
_cell_length_b   5.00586407
_cell_length_c   10.54057489
_cell_angle_alpha   94.83777533
_cell_angle_beta   94.83777701
_cell_angle_gamma   120.09620430
_symmetry_Int_Tables_number   1
_chemical_formula_structural   Dy2TmCu12
_chemical_formula_sum   'Dy2 Tm1 Cu12'
_cell_volume   225.23990935
_cell_formula_units_Z   1
loop_
 _symmetry_equiv_pos_site_id
 _symmetry_equiv_pos_as_xyz
  1  'x, y, z'
loop_
 _atom_site_type_symbol
 _atom_site_label
 _atom_site_symmetry_multiplicity
 _atom_site_fract_x
 _atom_site_fract_y
 _atom_site_fract_z
 _atom_site_occupancy
  Dy  Dy0  1  0.999522  0.999522  0.998032  1
  Dy  Dy1  1  0.135478  0.135478  0.358792  1
  Tm  Tm2  1  0.862980  0.862980  0.642012  1
  Cu  Cu3  1  0.663041  0.337650  0.999485  1
  Cu  Cu4  1  0.337650  0.663041  0.999485  1
  Cu  Cu5  1  0.567725  0.067788  0.195348  1
  Cu  Cu6  1  0.067788  0.567725  0.195348  1
  Cu  Cu7  1  0.573600  0.573600  0.202668  1
  Cu  Cu8  1  0.810919  0.474503  0.406796  1
  Cu  Cu9  1  0.474503  0.810919  0.406796  1
  Cu  Cu10  1  0.527091  0.188623  0.595650  1
  Cu  Cu11  1  0.188623  0.527091  0.595650  1
  Cu  Cu12  1  0.426292  0.426292  0.796378  1
  Cu  Cu13  1  0.932510  0.432279  0.803781  1
  Cu  Cu14  1  0.432279  0.932510  0.803781  1
