# generated using pymatgen
data_SrAl2SiAg
_symmetry_space_group_name_H-M   'P 1'
_cell_length_a   4.25861087
_cell_length_b   4.25861188
_cell_length_c   6.52415409
_cell_angle_alpha   70.95123800
_cell_angle_beta   70.95123487
_cell_angle_gamma   89.99999922
_symmetry_Int_Tables_number   1
_chemical_formula_structural   SrAl2SiAg
_chemical_formula_sum   'Sr1 Al2 Si1 Ag1'
_cell_volume   104.96318831
_cell_formula_units_Z   1
loop_
 _symmetry_equiv_pos_site_id
 _symmetry_equiv_pos_as_xyz
  1  'x, y, z'
loop_
 _atom_site_type_symbol
 _atom_site_label
 _atom_site_symmetry_multiplicity
 _atom_site_fract_x
 _atom_site_fract_y
 _atom_site_fract_z
 _atom_site_occupancy
  Sr  Sr0  1  0.993121  0.993121  0.013758  1
  Al  Al1  1  0.751916  0.251916  0.496167  1
  Al  Al2  1  0.251916  0.751916  0.496167  1
  Si  Si3  1  0.387396  0.387396  0.225207  1
  Ag  Ag4  1  0.615650  0.615650  0.768700  1
