# generated using pymatgen
data_NaPr6FeBr12
_symmetry_space_group_name_H-M   'P 1'
_cell_length_a   9.58746812
_cell_length_b   9.56207608
_cell_length_c   9.57084665
_cell_angle_alpha   107.20509002
_cell_angle_beta   107.07300432
_cell_angle_gamma   107.13639915
_symmetry_Int_Tables_number   1
_chemical_formula_structural   NaPr6FeBr12
_chemical_formula_sum   'Na1 Pr6 Fe1 Br12'
_cell_volume   727.94964016
_cell_formula_units_Z   1
loop_
 _symmetry_equiv_pos_site_id
 _symmetry_equiv_pos_as_xyz
  1  'x, y, z'
loop_
 _atom_site_type_symbol
 _atom_site_label
 _atom_site_symmetry_multiplicity
 _atom_site_fract_x
 _atom_site_fract_y
 _atom_site_fract_z
 _atom_site_occupancy
  Na  Na0  1  0.500000  0.500000  0.500000  1
  Pr  Pr1  1  0.107901  0.314447  0.030440  1
  Pr  Pr2  1  0.315776  0.030559  0.108365  1
  Pr  Pr3  1  0.030374  0.107792  0.313835  1
  Pr  Pr4  1  0.969627  0.892208  0.686166  1
  Pr  Pr5  1  0.684224  0.969442  0.891635  1
  Pr  Pr6  1  0.892099  0.685553  0.969560  1
  Fe  Fe7  1  0.000000  0.000000  0.000000  1
  Br  Br8  1  0.219596  0.685488  0.073493  1
  Br  Br9  1  0.452737  0.372941  0.154523  1
  Br  Br10  1  0.685802  0.073620  0.219801  1
  Br  Br11  1  0.926178  0.779614  0.314137  1
  Br  Br12  1  0.154468  0.452514  0.372797  1
  Br  Br13  1  0.372750  0.154481  0.452695  1
  Br  Br14  1  0.627250  0.845519  0.547306  1
  Br  Br15  1  0.845533  0.547486  0.627203  1
  Br  Br16  1  0.073823  0.220386  0.685864  1
  Br  Br17  1  0.314199  0.926381  0.780199  1
  Br  Br18  1  0.547263  0.627059  0.845478  1
  Br  Br19  1  0.780404  0.314512  0.926507  1
