# generated using pymatgen
data_Yb2ErSbO6
_symmetry_space_group_name_H-M   'P 1'
_cell_length_a   5.80020700
_cell_length_b   5.56573276
_cell_length_c   9.75642056
_cell_angle_alpha   55.42647800
_cell_angle_beta   90.00000000
_cell_angle_gamma   90.00000000
_symmetry_Int_Tables_number   1
_chemical_formula_structural   Yb2ErSbO6
_chemical_formula_sum   'Yb4 Er2 Sb2 O12'
_cell_volume   259.33822330
_cell_formula_units_Z   2
loop_
 _symmetry_equiv_pos_site_id
 _symmetry_equiv_pos_as_xyz
  1  'x, y, z'
loop_
 _atom_site_type_symbol
 _atom_site_label
 _atom_site_symmetry_multiplicity
 _atom_site_fract_x
 _atom_site_fract_y
 _atom_site_fract_z
 _atom_site_occupancy
  Yb  Yb0  1  0.557387  0.767450  0.750653  1
  Yb  Yb1  1  0.057387  0.232550  0.749347  1
  Yb  Yb2  1  0.442613  0.232550  0.249347  1
  Yb  Yb3  1  0.942613  0.767450  0.250653  1
  Er  Er4  1  0.000000  0.500000  0.000000  1
  Er  Er5  1  0.500000  0.500000  0.500000  1
  Sb  Sb6  1  0.500000  0.000000  0.000000  1
  Sb  Sb7  1  0.000000  0.000000  0.500000  1
  O  O8  1  0.951366  0.648168  0.735460  1
  O  O9  1  0.451366  0.351832  0.764540  1
  O  O10  1  0.048634  0.351832  0.264540  1
  O  O11  1  0.548634  0.648168  0.235460  1
  O  O12  1  0.312914  0.767022  0.941778  1
  O  O13  1  0.812914  0.232978  0.558222  1
  O  O14  1  0.687086  0.232978  0.058222  1
  O  O15  1  0.187086  0.767022  0.441778  1
  O  O16  1  0.711272  0.884434  0.435093  1
  O  O17  1  0.211272  0.115566  0.064907  1
  O  O18  1  0.288728  0.115566  0.564907  1
  O  O19  1  0.788728  0.884434  0.935093  1
