# generated using pymatgen
data_Sr2NdAg5S6
_symmetry_space_group_name_H-M   'P 1'
_cell_length_a   4.11552100
_cell_length_b   7.22686330
_cell_length_c   11.29895154
_cell_angle_alpha   96.00647628
_cell_angle_beta   90.00000000
_cell_angle_gamma   106.54317497
_symmetry_Int_Tables_number   1
_chemical_formula_structural   Sr2NdAg5S6
_chemical_formula_sum   'Sr2 Nd1 Ag5 S6'
_cell_volume   320.22090329
_cell_formula_units_Z   1
loop_
 _symmetry_equiv_pos_site_id
 _symmetry_equiv_pos_as_xyz
  1  'x, y, z'
loop_
 _atom_site_type_symbol
 _atom_site_label
 _atom_site_symmetry_multiplicity
 _atom_site_fract_x
 _atom_site_fract_y
 _atom_site_fract_z
 _atom_site_occupancy
  Sr  Sr0  1  0.253625  0.507250  0.697139  1
  Sr  Sr1  1  0.746375  0.492750  0.302861  1
  Nd  Nd2  1  0.500000  0.000000  0.500000  1
  Ag  Ag3  1  0.014445  0.028891  0.256239  1
  Ag  Ag4  1  0.985555  0.971109  0.743761  1
  Ag  Ag5  1  0.346860  0.693720  0.036444  1
  Ag  Ag6  1  0.653140  0.306280  0.963556  1
  Ag  Ag7  1  0.000000  0.000000  0.000000  1
  S  S8  1  0.134165  0.268329  0.448946  1
  S  S9  1  0.865835  0.731671  0.551054  1
  S  S10  1  0.157215  0.314430  0.113733  1
  S  S11  1  0.842785  0.685570  0.886267  1
  S  S12  1  0.400745  0.801490  0.264473  1
  S  S13  1  0.599255  0.198510  0.735527  1
