# generated using pymatgen
data_Dy3Ho3CoRh
_symmetry_space_group_name_H-M   'P 1'
_cell_length_a   6.24804017
_cell_length_b   7.08281524
_cell_length_c   9.40176800
_cell_angle_alpha   89.98854540
_cell_angle_beta   89.83736628
_cell_angle_gamma   90.51224207
_symmetry_Int_Tables_number   1
_chemical_formula_structural   Dy3Ho3CoRh
_chemical_formula_sum   'Dy6 Ho6 Co2 Rh2'
_cell_volume   416.04483916
_cell_formula_units_Z   2
loop_
 _symmetry_equiv_pos_site_id
 _symmetry_equiv_pos_as_xyz
  1  'x, y, z'
loop_
 _atom_site_type_symbol
 _atom_site_label
 _atom_site_symmetry_multiplicity
 _atom_site_fract_x
 _atom_site_fract_y
 _atom_site_fract_z
 _atom_site_occupancy
  Dy  Dy0  1  0.628353  0.043148  0.249408  1
  Dy  Dy1  1  0.371647  0.956852  0.750592  1
  Dy  Dy2  1  0.143480  0.469364  0.750668  1
  Dy  Dy3  1  0.856520  0.530636  0.249332  1
  Dy  Dy4  1  0.326865  0.671723  0.433757  1
  Dy  Dy5  1  0.673135  0.328277  0.566243  1
  Ho  Ho6  1  0.175680  0.181882  0.064461  1
  Ho  Ho7  1  0.824320  0.818118  0.935539  1
  Ho  Ho8  1  0.672282  0.328455  0.934332  1
  Ho  Ho9  1  0.824233  0.818459  0.565450  1
  Ho  Ho10  1  0.327718  0.671545  0.065668  1
  Ho  Ho11  1  0.175767  0.181541  0.434550  1
  Co  Co12  1  0.444194  0.382945  0.247649  1
  Co  Co13  1  0.555806  0.617055  0.752351  1
  Rh  Rh14  1  0.947210  0.114144  0.751187  1
  Rh  Rh15  1  0.052790  0.885856  0.248813  1
