# generated using pymatgen
data_Sm3Th(CuAs2)4
_symmetry_space_group_name_H-M   'P 1'
_cell_length_a   3.98005200
_cell_length_b   3.98088629
_cell_length_c   19.97233596
_cell_angle_alpha   89.94412730
_cell_angle_beta   90.00000000
_cell_angle_gamma   90.00000000
_symmetry_Int_Tables_number   1
_chemical_formula_structural   Sm3Th(CuAs2)4
_chemical_formula_sum   'Sm3 Th1 Cu4 As8'
_cell_volume   316.44422536
_cell_formula_units_Z   1
loop_
 _symmetry_equiv_pos_site_id
 _symmetry_equiv_pos_as_xyz
  1  'x, y, z'
loop_
 _atom_site_type_symbol
 _atom_site_label
 _atom_site_symmetry_multiplicity
 _atom_site_fract_x
 _atom_site_fract_y
 _atom_site_fract_z
 _atom_site_occupancy
  Sm  Sm0  1  0.750000  0.740968  0.382827  1
  Sm  Sm1  1  0.250000  0.259610  0.620205  1
  Sm  Sm2  1  0.750000  0.757948  0.879716  1
  Th  Th3  1  0.250000  0.242837  0.116196  1
  Cu  Cu4  1  0.750000  0.238384  0.251780  1
  Cu  Cu5  1  0.250000  0.737768  0.251788  1
  Cu  Cu6  1  0.750000  0.261789  0.749645  1
  Cu  Cu7  1  0.250000  0.761635  0.749680  1
  As  As8  1  0.250000  0.746845  0.998497  1
  As  As9  1  0.750000  0.741487  0.171765  1
  As  As10  1  0.250000  0.239452  0.328318  1
  As  As11  1  0.750000  0.242336  0.500847  1
  As  As12  1  0.250000  0.757335  0.500971  1
  As  As13  1  0.750000  0.760521  0.672331  1
  As  As14  1  0.250000  0.259478  0.826969  1
  As  As15  1  0.750000  0.251607  0.998467  1
