# generated using pymatgen
data_Lu3Fe8Co3B4
_symmetry_space_group_name_H-M   'P 1'
_cell_length_a   5.00639000
_cell_length_b   5.00576518
_cell_length_c   9.96097200
_cell_angle_alpha   89.99991490
_cell_angle_beta   90.00017018
_cell_angle_gamma   120.00411591
_symmetry_Int_Tables_number   1
_chemical_formula_structural   Lu3Fe8Co3B4
_chemical_formula_sum   'Lu3 Fe8 Co3 B4'
_cell_volume   216.17700140
_cell_formula_units_Z   1
loop_
 _symmetry_equiv_pos_site_id
 _symmetry_equiv_pos_as_xyz
  1  'x, y, z'
loop_
 _atom_site_type_symbol
 _atom_site_label
 _atom_site_symmetry_multiplicity
 _atom_site_fract_x
 _atom_site_fract_y
 _atom_site_fract_z
 _atom_site_occupancy
  Lu  Lu0  1  0.999982  0.000000  0.999976  1
  Lu  Lu1  1  0.999992  0.000000  0.347419  1
  Lu  Lu2  1  0.999994  0.000000  0.652547  1
  Fe  Fe3  1  0.333343  0.666716  0.000021  1
  Fe  Fe4  1  0.666626  0.333284  0.000021  1
  Fe  Fe5  1  0.499994  0.000000  0.202003  1
  Fe  Fe6  1  0.499992  0.500003  0.201981  1
  Fe  Fe7  1  0.999989  0.499997  0.201981  1
  Fe  Fe8  1  0.499999  0.000000  0.798048  1
  Fe  Fe9  1  0.499998  0.499998  0.798027  1
  Fe  Fe10  1  0.000000  0.500002  0.798027  1
  Co  Co11  1  0.499998  0.000000  0.499974  1
  Co  Co12  1  0.500000  0.499999  0.499996  1
  Co  Co13  1  0.000000  0.500001  0.499996  1
  B  B14  1  0.333296  0.666601  0.352538  1
  B  B15  1  0.666695  0.333399  0.352538  1
  B  B16  1  0.666652  0.333302  0.647454  1
  B  B17  1  0.333349  0.666698  0.647454  1
