# generated using pymatgen
data_TmMnSbO6
_symmetry_space_group_name_H-M   'P 1'
_cell_length_a   5.12630872
_cell_length_b   5.12620052
_cell_length_c   4.84736535
_cell_angle_alpha   90.02983491
_cell_angle_beta   90.02889826
_cell_angle_gamma   119.95383412
_symmetry_Int_Tables_number   1
_chemical_formula_structural   TmMnSbO6
_chemical_formula_sum   'Tm1 Mn1 Sb1 O6'
_cell_volume   110.36677456
_cell_formula_units_Z   1
loop_
 _symmetry_equiv_pos_site_id
 _symmetry_equiv_pos_as_xyz
  1  'x, y, z'
loop_
 _atom_site_type_symbol
 _atom_site_label
 _atom_site_symmetry_multiplicity
 _atom_site_fract_x
 _atom_site_fract_y
 _atom_site_fract_z
 _atom_site_occupancy
  Tm  Tm0  1  0.517454  0.482556  0.500005  1
  Mn  Mn1  1  0.850494  0.149433  0.999970  1
  Sb  Sb2  1  0.184117  0.815890  0.000018  1
  O  O3  1  0.153980  0.129208  0.223292  1
  O  O4  1  0.527691  0.846603  0.223512  1
  O  O5  1  0.871527  0.472779  0.223536  1
  O  O6  1  0.527225  0.128478  0.776478  1
  O  O7  1  0.153420  0.472329  0.776497  1
  O  O8  1  0.870805  0.846032  0.776721  1
