# generated using pymatgen
data_Tb7Ho9Cd4(NiOs)2
_symmetry_space_group_name_H-M   'P 1'
_cell_length_a   9.58310730
_cell_length_b   9.58310769
_cell_length_c   9.67486700
_cell_angle_alpha   59.68274574
_cell_angle_beta   59.68274435
_cell_angle_gamma   59.55557479
_symmetry_Int_Tables_number   1
_chemical_formula_structural   Tb7Ho9Cd4(NiOs)2
_chemical_formula_sum   'Tb7 Ho9 Cd4 Ni2 Os2'
_cell_volume   623.12836365
_cell_formula_units_Z   1
loop_
 _symmetry_equiv_pos_site_id
 _symmetry_equiv_pos_as_xyz
  1  'x, y, z'
loop_
 _atom_site_type_symbol
 _atom_site_label
 _atom_site_symmetry_multiplicity
 _atom_site_fract_x
 _atom_site_fract_y
 _atom_site_fract_z
 _atom_site_occupancy
  Tb  Tb0  1  0.810146  0.810146  0.189854  1
  Tb  Tb1  1  0.940598  0.553935  0.566000  1
  Tb  Tb2  1  0.553935  0.940598  0.939468  1
  Tb  Tb3  1  0.553935  0.940598  0.566000  1
  Tb  Tb4  1  0.940598  0.553935  0.939468  1
  Tb  Tb5  1  0.565705  0.565705  0.934295  1
  Tb  Tb6  1  0.942326  0.942326  0.557674  1
  Ho  Ho7  1  0.350828  0.350828  0.341088  1
  Ho  Ho8  1  0.350828  0.350828  0.957257  1
  Ho  Ho9  1  0.351503  0.956233  0.346132  1
  Ho  Ho10  1  0.956233  0.351503  0.346132  1
  Ho  Ho11  1  0.811829  0.185680  0.189828  1
  Ho  Ho12  1  0.185680  0.811829  0.812663  1
  Ho  Ho13  1  0.185680  0.811829  0.189828  1
  Ho  Ho14  1  0.811829  0.185680  0.812663  1
  Ho  Ho15  1  0.187572  0.187572  0.812428  1
  Cd  Cd16  1  0.578161  0.578161  0.583961  1
  Cd  Cd17  1  0.578161  0.578161  0.259714  1
  Cd  Cd18  1  0.580048  0.256486  0.581732  1
  Cd  Cd19  1  0.256486  0.580048  0.581732  1
  Ni  Ni20  1  0.143167  0.576616  0.140108  1
  Ni  Ni21  1  0.576616  0.143167  0.140108  1
  Os  Os22  1  0.144067  0.144067  0.138223  1
  Os  Os23  1  0.144067  0.144067  0.573642  1
