# generated using pymatgen
data_Nd8CdNi2Hg
_symmetry_space_group_name_H-M   'P 1'
_cell_length_a   9.80643792
_cell_length_b   9.80643803
_cell_length_c   9.81411400
_cell_angle_alpha   59.97410353
_cell_angle_beta   59.97410316
_cell_angle_gamma   60.03717819
_symmetry_Int_Tables_number   1
_chemical_formula_structural   Nd8CdNi2Hg
_chemical_formula_sum   'Nd16 Cd2 Ni4 Hg2'
_cell_volume   667.28344107
_cell_formula_units_Z   2
loop_
 _symmetry_equiv_pos_site_id
 _symmetry_equiv_pos_as_xyz
  1  'x, y, z'
loop_
 _atom_site_type_symbol
 _atom_site_label
 _atom_site_symmetry_multiplicity
 _atom_site_fract_x
 _atom_site_fract_y
 _atom_site_fract_z
 _atom_site_occupancy
  Nd  Nd0  1  0.810037  0.189190  0.191972  1
  Nd  Nd1  1  0.189190  0.810037  0.808801  1
  Nd  Nd2  1  0.189190  0.810037  0.191972  1
  Nd  Nd3  1  0.810037  0.189190  0.808801  1
  Nd  Nd4  1  0.189633  0.189633  0.810367  1
  Nd  Nd5  1  0.806832  0.806832  0.193168  1
  Nd  Nd6  1  0.939009  0.561202  0.565064  1
  Nd  Nd7  1  0.561202  0.939009  0.934726  1
  Nd  Nd8  1  0.561202  0.939009  0.565064  1
  Nd  Nd9  1  0.939009  0.561202  0.934726  1
  Nd  Nd10  1  0.561584  0.561584  0.938416  1
  Nd  Nd11  1  0.935829  0.935829  0.564171  1
  Nd  Nd12  1  0.347653  0.347653  0.347889  1
  Nd  Nd13  1  0.347653  0.347653  0.956807  1
  Nd  Nd14  1  0.349962  0.952104  0.348967  1
  Nd  Nd15  1  0.952104  0.349962  0.348967  1
  Cd  Cd16  1  0.580435  0.263469  0.578049  1
  Cd  Cd17  1  0.263469  0.580435  0.578049  1
  Ni  Ni18  1  0.142055  0.142055  0.143343  1
  Ni  Ni19  1  0.142055  0.142055  0.572548  1
  Ni  Ni20  1  0.142165  0.573547  0.142144  1
  Ni  Ni21  1  0.573547  0.142165  0.142144  1
  Hg  Hg22  1  0.583077  0.583077  0.586311  1
  Hg  Hg23  1  0.583077  0.583077  0.247536  1
