# generated using pymatgen
data_Rb2PAuS4
_symmetry_space_group_name_H-M   'P 1'
_cell_length_a   7.05876300
_cell_length_b   6.97209074
_cell_length_c   9.82396272
_cell_angle_alpha   85.41899200
_cell_angle_beta   90.00000000
_cell_angle_gamma   90.00000000
_symmetry_Int_Tables_number   1
_chemical_formula_structural   Rb2PAuS4
_chemical_formula_sum   'Rb4 P2 Au2 S8'
_cell_volume   481.93528259
_cell_formula_units_Z   2
loop_
 _symmetry_equiv_pos_site_id
 _symmetry_equiv_pos_as_xyz
  1  'x, y, z'
loop_
 _atom_site_type_symbol
 _atom_site_label
 _atom_site_symmetry_multiplicity
 _atom_site_fract_x
 _atom_site_fract_y
 _atom_site_fract_z
 _atom_site_occupancy
  Rb  Rb0  1  0.250000  0.475888  0.165278  1
  Rb  Rb1  1  0.750000  0.524112  0.834722  1
  Rb  Rb2  1  0.250000  0.798274  0.536753  1
  Rb  Rb3  1  0.750000  0.201726  0.463247  1
  P  P4  1  0.750000  0.737169  0.275867  1
  P  P5  1  0.250000  0.262831  0.724133  1
  Au  Au6  1  0.000000  0.000000  0.000000  1
  Au  Au7  1  0.500000  0.000000  0.000000  1
  S  S8  1  0.250000  0.300536  0.517224  1
  S  S9  1  0.750000  0.699464  0.482776  1
  S  S10  1  0.250000  0.507495  0.822105  1
  S  S11  1  0.750000  0.492505  0.177895  1
  S  S12  1  0.495644  0.099154  0.768254  1
  S  S13  1  0.995644  0.900846  0.231746  1
  S  S14  1  0.004356  0.099154  0.768254  1
  S  S15  1  0.504356  0.900846  0.231746  1
