# generated using pymatgen
data_ErU(TcB4)2
_symmetry_space_group_name_H-M   'P 1'
_cell_length_a   3.59784500
_cell_length_b   5.93676305
_cell_length_c   11.47641900
_cell_angle_alpha   89.89387332
_cell_angle_beta   90.00000000
_cell_angle_gamma   90.00000000
_symmetry_Int_Tables_number   1
_chemical_formula_structural   ErU(TcB4)2
_chemical_formula_sum   'Er2 U2 Tc4 B16'
_cell_volume   245.13076234
_cell_formula_units_Z   2
loop_
 _symmetry_equiv_pos_site_id
 _symmetry_equiv_pos_as_xyz
  1  'x, y, z'
loop_
 _atom_site_type_symbol
 _atom_site_label
 _atom_site_symmetry_multiplicity
 _atom_site_fract_x
 _atom_site_fract_y
 _atom_site_fract_z
 _atom_site_occupancy
  Er  Er0  1  0.000000  0.127686  0.148344  1
  Er  Er1  1  0.000000  0.872314  0.851656  1
  U  U2  1  0.000000  0.628066  0.348873  1
  U  U3  1  0.000000  0.371934  0.651127  1
  Tc  Tc4  1  0.000000  0.635840  0.091827  1
  Tc  Tc5  1  0.000000  0.364160  0.908173  1
  Tc  Tc6  1  0.000000  0.140866  0.408434  1
  Tc  Tc7  1  0.000000  0.859134  0.591566  1
  B  B8  1  0.500000  0.788861  0.187062  1
  B  B9  1  0.500000  0.211139  0.812938  1
  B  B10  1  0.500000  0.291636  0.313782  1
  B  B11  1  0.500000  0.708364  0.686218  1
  B  B12  1  0.500000  0.864107  0.031268  1
  B  B13  1  0.500000  0.135893  0.968732  1
  B  B14  1  0.500000  0.367706  0.468518  1
  B  B15  1  0.500000  0.632294  0.531482  1
  B  B16  1  0.500000  0.886186  0.452802  1
  B  B17  1  0.500000  0.113814  0.547198  1
  B  B18  1  0.500000  0.386238  0.046456  1
  B  B19  1  0.500000  0.613762  0.953544  1
  B  B20  1  0.500000  0.974122  0.307910  1
  B  B21  1  0.500000  0.025878  0.692090  1
  B  B22  1  0.500000  0.478294  0.192704  1
  B  B23  1  0.500000  0.521706  0.807296  1
