# generated using pymatgen
data_Yb2Dy6Si8PdPt7
_symmetry_space_group_name_H-M   'P 1'
_cell_length_a   4.30524000
_cell_length_b   7.42150603
_cell_length_c   14.13554400
_cell_angle_alpha   89.99480428
_cell_angle_beta   90.00000000
_cell_angle_gamma   90.00000000
_symmetry_Int_Tables_number   1
_chemical_formula_structural   Yb2Dy6Si8PdPt7
_chemical_formula_sum   'Yb2 Dy6 Si8 Pd1 Pt7'
_cell_volume   451.64991863
_cell_formula_units_Z   1
loop_
 _symmetry_equiv_pos_site_id
 _symmetry_equiv_pos_as_xyz
  1  'x, y, z'
loop_
 _atom_site_type_symbol
 _atom_site_label
 _atom_site_symmetry_multiplicity
 _atom_site_fract_x
 _atom_site_fract_y
 _atom_site_fract_z
 _atom_site_occupancy
  Yb  Yb0  1  0.500000  0.795509  0.748795  1
  Yb  Yb1  1  0.500000  0.796295  0.251553  1
  Dy  Dy2  1  0.000000  0.200062  0.750915  1
  Dy  Dy3  1  0.000000  0.200937  0.248583  1
  Dy  Dy4  1  0.500000  0.707346  0.000452  1
  Dy  Dy5  1  0.000000  0.292964  0.499786  1
  Dy  Dy6  1  0.500000  0.700732  0.499487  1
  Dy  Dy7  1  0.000000  0.301030  0.999820  1
  Si  Si8  1  0.500000  0.405914  0.650245  1
  Si  Si9  1  0.000000  0.591454  0.854615  1
  Si  Si10  1  0.500000  0.409318  0.347015  1
  Si  Si11  1  0.000000  0.591108  0.148681  1
  Si  Si12  1  0.500000  0.092779  0.092395  1
  Si  Si13  1  0.000000  0.908464  0.407497  1
  Si  Si14  1  0.500000  0.092994  0.907289  1
  Si  Si15  1  0.000000  0.910214  0.591050  1
  Pd  Pd16  1  0.000000  0.582923  0.654820  1
  Pt  Pt17  1  0.500000  0.078785  0.606824  1
  Pt  Pt18  1  0.000000  0.920457  0.892675  1
  Pt  Pt19  1  0.500000  0.080923  0.392656  1
  Pt  Pt20  1  0.000000  0.920140  0.107087  1
  Pt  Pt21  1  0.500000  0.418661  0.156043  1
  Pt  Pt22  1  0.000000  0.580856  0.349896  1
  Pt  Pt23  1  0.500000  0.420134  0.841819  1
