# generated using pymatgen
data_Nd2Ho4FeBr10
_symmetry_space_group_name_H-M   'P 1'
_cell_length_a   7.42447451
_cell_length_b   9.11988966
_cell_length_c   9.33430398
_cell_angle_alpha   108.54652146
_cell_angle_beta   96.82493403
_cell_angle_gamma   103.33003468
_symmetry_Int_Tables_number   1
_chemical_formula_structural   Nd2Ho4FeBr10
_chemical_formula_sum   'Nd2 Ho4 Fe1 Br10'
_cell_volume   570.27086724
_cell_formula_units_Z   1
loop_
 _symmetry_equiv_pos_site_id
 _symmetry_equiv_pos_as_xyz
  1  'x, y, z'
loop_
 _atom_site_type_symbol
 _atom_site_label
 _atom_site_symmetry_multiplicity
 _atom_site_fract_x
 _atom_site_fract_y
 _atom_site_fract_z
 _atom_site_occupancy
  Nd  Nd0  1  0.464855  0.775139  0.585863  1
  Nd  Nd1  1  0.535145  0.224861  0.414137  1
  Ho  Ho2  1  0.377382  0.454304  0.747746  1
  Ho  Ho3  1  0.622618  0.545696  0.252254  1
  Ho  Ho4  1  0.855361  0.627892  0.677776  1
  Ho  Ho5  1  0.144639  0.372108  0.322224  1
  Fe  Fe6  1  0.500000  0.500000  0.500000  1
  Br  Br7  1  0.411009  0.137397  0.679235  1
  Br  Br8  1  0.588991  0.862603  0.320765  1
  Br  Br9  1  0.039917  0.676621  0.414617  1
  Br  Br10  1  0.960083  0.323379  0.585383  1
  Br  Br11  1  0.270081  0.745867  0.849275  1
  Br  Br12  1  0.729919  0.254133  0.150725  1
  Br  Br13  1  0.255183  0.416609  0.044967  1
  Br  Br14  1  0.744817  0.583391  0.955033  1
  Br  Br15  1  0.853608  0.943788  0.771821  1
  Br  Br16  1  0.146392  0.056212  0.228179  1
