# generated using pymatgen
data_Rb4TcPtI12
_symmetry_space_group_name_H-M   'P 1'
_cell_length_a   8.22150669
_cell_length_b   8.14583565
_cell_length_c   14.27636754
_cell_angle_alpha   55.86591376
_cell_angle_beta   89.91630101
_cell_angle_gamma   89.74294110
_symmetry_Int_Tables_number   1
_chemical_formula_structural   Rb4TcPtI12
_chemical_formula_sum   'Rb4 Tc1 Pt1 I12'
_cell_volume   791.38350466
_cell_formula_units_Z   1
loop_
 _symmetry_equiv_pos_site_id
 _symmetry_equiv_pos_as_xyz
  1  'x, y, z'
loop_
 _atom_site_type_symbol
 _atom_site_label
 _atom_site_symmetry_multiplicity
 _atom_site_fract_x
 _atom_site_fract_y
 _atom_site_fract_z
 _atom_site_occupancy
  Rb  Rb0  1  0.454982  0.736076  0.249258  1
  Rb  Rb1  1  0.954120  0.268870  0.248216  1
  Rb  Rb2  1  0.045880  0.731130  0.751784  1
  Rb  Rb3  1  0.545018  0.263924  0.750742  1
  Tc  Tc4  1  0.500000  0.000000  0.500000  1
  Pt  Pt5  1  0.000000  0.000000  0.000000  1
  I  I6  1  0.802653  0.290238  0.974603  1
  I  I7  1  0.494561  0.189012  0.267748  1
  I  I8  1  0.505439  0.810988  0.732252  1
  I  I9  1  0.264355  0.213129  0.982723  1
  I  I10  1  0.303042  0.706186  0.523126  1
  I  I11  1  0.227913  0.213011  0.484665  1
  I  I12  1  0.197347  0.709762  0.025397  1
  I  I13  1  0.772087  0.786989  0.515335  1
  I  I14  1  0.735645  0.786871  0.017277  1
  I  I15  1  0.993802  0.820419  0.227423  1
  I  I16  1  0.006198  0.179581  0.772577  1
  I  I17  1  0.696958  0.293814  0.476874  1
