# generated using pymatgen
data_HoTm2ReB7
_symmetry_space_group_name_H-M   'P 1'
_cell_length_a   7.99166510
_cell_length_b   7.99166520
_cell_length_c   9.30541600
_cell_angle_alpha   90.00000000
_cell_angle_beta   90.00000000
_cell_angle_gamma   154.64781313
_symmetry_Int_Tables_number   1
_chemical_formula_structural   HoTm2ReB7
_chemical_formula_sum   'Ho2 Tm4 Re2 B14'
_cell_volume   254.47076690
_cell_formula_units_Z   2
loop_
 _symmetry_equiv_pos_site_id
 _symmetry_equiv_pos_as_xyz
  1  'x, y, z'
loop_
 _atom_site_type_symbol
 _atom_site_label
 _atom_site_symmetry_multiplicity
 _atom_site_fract_x
 _atom_site_fract_y
 _atom_site_fract_z
 _atom_site_occupancy
  Ho  Ho0  1  0.243495  0.756505  0.250000  1
  Ho  Ho1  1  0.756505  0.243495  0.750000  1
  Tm  Tm2  1  0.894600  0.105400  0.059216  1
  Tm  Tm3  1  0.105400  0.894600  0.559216  1
  Tm  Tm4  1  0.105400  0.894600  0.940784  1
  Tm  Tm5  1  0.894600  0.105400  0.440784  1
  Re  Re6  1  0.052064  0.947936  0.250000  1
  Re  Re7  1  0.947936  0.052064  0.750000  1
  B  B8  1  0.454373  0.545627  0.250000  1
  B  B9  1  0.545627  0.454373  0.750000  1
  B  B10  1  0.727385  0.272615  0.033390  1
  B  B11  1  0.272615  0.727385  0.533390  1
  B  B12  1  0.272615  0.727385  0.966610  1
  B  B13  1  0.727385  0.272615  0.466610  1
  B  B14  1  0.632213  0.367787  0.349658  1
  B  B15  1  0.367787  0.632213  0.849658  1
  B  B16  1  0.367787  0.632213  0.650342  1
  B  B17  1  0.632213  0.367787  0.150342  1
  B  B18  1  0.519908  0.480092  0.405275  1
  B  B19  1  0.480092  0.519908  0.905275  1
  B  B20  1  0.480092  0.519908  0.594725  1
  B  B21  1  0.519908  0.480092  0.094725  1
