# generated using pymatgen
data_DyTh5SCl15
_symmetry_space_group_name_H-M   'P 1'
_cell_length_a   9.60591811
_cell_length_b   9.60591834
_cell_length_c   9.60591863
_cell_angle_alpha   110.11508721
_cell_angle_beta   109.15024901
_cell_angle_gamma   109.15024912
_symmetry_Int_Tables_number   1
_chemical_formula_structural   DyTh5SCl15
_chemical_formula_sum   'Dy1 Th5 S1 Cl15'
_cell_volume   682.26580127
_cell_formula_units_Z   1
loop_
 _symmetry_equiv_pos_site_id
 _symmetry_equiv_pos_as_xyz
  1  'x, y, z'
loop_
 _atom_site_type_symbol
 _atom_site_label
 _atom_site_symmetry_multiplicity
 _atom_site_fract_x
 _atom_site_fract_y
 _atom_site_fract_z
 _atom_site_occupancy
  Dy  Dy0  1  0.000000  0.243737  0.243737  1
  Th  Th1  1  0.000000  0.753339  0.753339  1
  Th  Th2  1  0.244231  0.000357  0.244588  1
  Th  Th3  1  0.755769  0.000357  0.756125  1
  Th  Th4  1  0.244231  0.244588  0.000357  1
  Th  Th5  1  0.755769  0.756125  0.000357  1
  S  S6  1  0.000000  0.004693  0.004693  1
  Cl  Cl7  1  0.497996  0.249171  0.249171  1
  Cl  Cl8  1  0.502004  0.751174  0.751174  1
  Cl  Cl9  1  0.000000  0.249171  0.751174  1
  Cl  Cl10  1  0.000000  0.751174  0.249171  1
  Cl  Cl11  1  0.242180  0.492286  0.250107  1
  Cl  Cl12  1  0.757820  0.007927  0.250107  1
  Cl  Cl13  1  0.749835  0.498711  0.748874  1
  Cl  Cl14  1  0.250165  0.999039  0.748874  1
  Cl  Cl15  1  0.242180  0.250107  0.492286  1
  Cl  Cl16  1  0.749835  0.748874  0.498711  1
  Cl  Cl17  1  0.757820  0.250107  0.007927  1
  Cl  Cl18  1  0.250165  0.748874  0.999039  1
  Cl  Cl19  1  0.000000  0.500297  0.500297  1
  Cl  Cl20  1  0.500000  0.999946  0.499946  1
  Cl  Cl21  1  0.500000  0.499946  0.999946  1
