# generated using pymatgen
data_Dy3Er(Zn14Cu3)2
_symmetry_space_group_name_H-M   'P 1'
_cell_length_a   8.88769100
_cell_length_b   8.88769159
_cell_length_c   8.65047500
_cell_angle_alpha   90.00000000
_cell_angle_beta   90.00000000
_cell_angle_gamma   120.00000898
_symmetry_Int_Tables_number   1
_chemical_formula_structural   Dy3Er(Zn14Cu3)2
_chemical_formula_sum   'Dy3 Er1 Zn28 Cu6'
_cell_volume   591.76390352
_cell_formula_units_Z   1
loop_
 _symmetry_equiv_pos_site_id
 _symmetry_equiv_pos_as_xyz
  1  'x, y, z'
loop_
 _atom_site_type_symbol
 _atom_site_label
 _atom_site_symmetry_multiplicity
 _atom_site_fract_x
 _atom_site_fract_y
 _atom_site_fract_z
 _atom_site_occupancy
  Dy  Dy0  1  0.000000  0.000000  0.250000  1
  Dy  Dy1  1  0.000000  0.000000  0.750000  1
  Dy  Dy2  1  0.333333  0.666667  0.750000  1
  Er  Er3  1  0.666667  0.333333  0.250000  1
  Zn  Zn4  1  0.333333  0.666667  0.403364  1
  Zn  Zn5  1  0.666667  0.333333  0.595960  1
  Zn  Zn6  1  0.666667  0.333333  0.904040  1
  Zn  Zn7  1  0.333333  0.666667  0.096636  1
  Zn  Zn8  1  0.333234  0.368709  0.250000  1
  Zn  Zn9  1  0.631291  0.964526  0.250000  1
  Zn  Zn10  1  0.035474  0.666766  0.250000  1
  Zn  Zn11  1  0.631291  0.666766  0.250000  1
  Zn  Zn12  1  0.035474  0.368709  0.250000  1
  Zn  Zn13  1  0.333234  0.964526  0.250000  1
  Zn  Zn14  1  0.667009  0.630947  0.750000  1
  Zn  Zn15  1  0.369053  0.036060  0.750000  1
  Zn  Zn16  1  0.963940  0.332991  0.750000  1
  Zn  Zn17  1  0.369053  0.332991  0.750000  1
  Zn  Zn18  1  0.963940  0.630947  0.750000  1
  Zn  Zn19  1  0.667009  0.036060  0.750000  1
  Zn  Zn20  1  0.164366  0.835634  0.520512  1
  Zn  Zn21  1  0.164366  0.328733  0.520512  1
  Zn  Zn22  1  0.671267  0.835634  0.520512  1
  Zn  Zn23  1  0.835491  0.164509  0.479255  1
  Zn  Zn24  1  0.835491  0.670981  0.479255  1
  Zn  Zn25  1  0.329019  0.164509  0.479255  1
  Zn  Zn26  1  0.835491  0.164509  0.020745  1
  Zn  Zn27  1  0.835491  0.670981  0.020745  1
  Zn  Zn28  1  0.329019  0.164509  0.020745  1
  Zn  Zn29  1  0.164366  0.835634  0.979488  1
  Zn  Zn30  1  0.164366  0.328733  0.979488  1
  Zn  Zn31  1  0.671267  0.835634  0.979488  1
  Cu  Cu32  1  0.500192  0.499808  0.500114  1
  Cu  Cu33  1  0.500192  0.000383  0.500114  1
  Cu  Cu34  1  0.999617  0.499808  0.500114  1
  Cu  Cu35  1  0.500192  0.499808  0.999886  1
  Cu  Cu36  1  0.500192  0.000383  0.999886  1
  Cu  Cu37  1  0.999617  0.499808  0.999886  1
