# generated using pymatgen
data_CePr3(AuCl6)4
_symmetry_space_group_name_H-M   'P 1'
_cell_length_a   7.63944492
_cell_length_b   9.87642963
_cell_length_c   14.03938600
_cell_angle_alpha   103.46964214
_cell_angle_beta   95.79393889
_cell_angle_gamma   112.13081678
_symmetry_Int_Tables_number   1
_chemical_formula_structural   CePr3(AuCl6)4
_chemical_formula_sum   'Ce1 Pr3 Au4 Cl24'
_cell_volume   933.07627678
_cell_formula_units_Z   1
loop_
 _symmetry_equiv_pos_site_id
 _symmetry_equiv_pos_as_xyz
  1  'x, y, z'
loop_
 _atom_site_type_symbol
 _atom_site_label
 _atom_site_symmetry_multiplicity
 _atom_site_fract_x
 _atom_site_fract_y
 _atom_site_fract_z
 _atom_site_occupancy
  Ce  Ce0  1  0.578718  0.920884  0.622165  1
  Pr  Pr1  1  0.420446  0.079931  0.377714  1
  Pr  Pr2  1  0.977236  0.313988  0.871673  1
  Pr  Pr3  1  0.024807  0.688263  0.129380  1
  Au  Au4  1  0.295821  0.633184  0.762846  1
  Au  Au5  1  0.703823  0.365980  0.236505  1
  Au  Au6  1  0.499760  0.500843  0.500671  1
  Au  Au7  1  0.000565  0.000108  0.999178  1
  Cl  Cl8  1  0.617461  0.732388  0.750302  1
  Cl  Cl9  1  0.381507  0.268187  0.247786  1
  Cl  Cl10  1  0.283732  0.856690  0.744387  1
  Cl  Cl11  1  0.721241  0.144951  0.256834  1
  Cl  Cl12  1  0.971962  0.538541  0.771165  1
  Cl  Cl13  1  0.027886  0.462072  0.229140  1
  Cl  Cl14  1  0.311880  0.408325  0.777216  1
  Cl  Cl15  1  0.686123  0.589686  0.220994  1
  Cl  Cl16  1  0.705614  0.378302  0.504679  1
  Cl  Cl17  1  0.297252  0.626267  0.496534  1
  Cl  Cl18  1  0.760320  0.730242  0.518357  1
  Cl  Cl19  1  0.237496  0.272911  0.482933  1
  Cl  Cl20  1  0.776264  0.102318  0.977203  1
  Cl  Cl21  1  0.225088  0.898614  0.022138  1
  Cl  Cl22  1  0.762425  0.791660  0.026766  1
  Cl  Cl23  1  0.238457  0.207887  0.970377  1
  Cl  Cl24  1  0.611045  0.191348  0.738455  1
  Cl  Cl25  1  0.387626  0.803360  0.259144  1
  Cl  Cl26  1  0.949911  0.048051  0.726327  1
  Cl  Cl27  1  0.040500  0.947398  0.272307  1
  Cl  Cl28  1  0.736022  0.050873  0.486317  1
  Cl  Cl29  1  0.268062  0.946415  0.521641  1
  Cl  Cl30  1  0.751552  0.432377  0.978670  1
  Cl  Cl31  1  0.249395  0.567957  0.020195  1
