# generated using pymatgen
data_KBr4
_symmetry_space_group_name_H-M   'P 1'
_cell_length_a   8.15539200
_cell_length_b   9.65799987
_cell_length_c   10.24400787
_cell_angle_alpha   66.93283823
_cell_angle_beta   90.00000000
_cell_angle_gamma   90.00000000
_symmetry_Int_Tables_number   1
_chemical_formula_structural   KBr4
_chemical_formula_sum   'K4 Br16'
_cell_volume   742.35490006
_cell_formula_units_Z   4
loop_
 _symmetry_equiv_pos_site_id
 _symmetry_equiv_pos_as_xyz
  1  'x, y, z'
loop_
 _atom_site_type_symbol
 _atom_site_label
 _atom_site_symmetry_multiplicity
 _atom_site_fract_x
 _atom_site_fract_y
 _atom_site_fract_z
 _atom_site_occupancy
  K  K0  1  0.618107  0.743224  0.709474  1
  K  K1  1  0.118107  0.256776  0.790526  1
  K  K2  1  0.381893  0.256776  0.290526  1
  K  K3  1  0.881893  0.743224  0.209474  1
  Br  Br4  1  0.363192  0.540348  0.517718  1
  Br  Br5  1  0.863192  0.459652  0.982282  1
  Br  Br6  1  0.636808  0.459652  0.482282  1
  Br  Br7  1  0.136808  0.540348  0.017718  1
  Br  Br8  1  0.035658  0.654251  0.564880  1
  Br  Br9  1  0.535658  0.345749  0.935120  1
  Br  Br10  1  0.964342  0.345749  0.435120  1
  Br  Br11  1  0.464342  0.654251  0.064880  1
  Br  Br12  1  0.200760  0.864334  0.609811  1
  Br  Br13  1  0.700760  0.135666  0.890189  1
  Br  Br14  1  0.799240  0.135666  0.390189  1
  Br  Br15  1  0.299240  0.864334  0.109811  1
  Br  Br16  1  0.372552  0.062773  0.649944  1
  Br  Br17  1  0.872552  0.937227  0.850056  1
  Br  Br18  1  0.627448  0.937227  0.350056  1
  Br  Br19  1  0.127448  0.062773  0.149944  1
