# generated using pymatgen
data_Ca12Np3Ga12Sn5O48
_symmetry_space_group_name_H-M   'P 1'
_cell_length_a   11.10978449
_cell_length_b   11.12594692
_cell_length_c   11.10978447
_cell_angle_alpha   109.50069675
_cell_angle_beta   109.44172908
_cell_angle_gamma   109.50069075
_symmetry_Int_Tables_number   1
_chemical_formula_structural   Ca12Np3Ga12Sn5O48
_chemical_formula_sum   'Ca12 Np3 Ga12 Sn5 O48'
_cell_volume   1056.74031227
_cell_formula_units_Z   1
loop_
 _symmetry_equiv_pos_site_id
 _symmetry_equiv_pos_as_xyz
  1  'x, y, z'
loop_
 _atom_site_type_symbol
 _atom_site_label
 _atom_site_symmetry_multiplicity
 _atom_site_fract_x
 _atom_site_fract_y
 _atom_site_fract_z
 _atom_site_occupancy
  Ca  Ca0  1  0.250710  0.378848  0.127979  1
  Ca  Ca1  1  0.749290  0.621152  0.872021  1
  Ca  Ca2  1  0.755563  0.129955  0.373225  1
  Ca  Ca3  1  0.126775  0.256731  0.382338  1
  Ca  Ca4  1  0.372021  0.750869  0.122731  1
  Ca  Ca5  1  0.244437  0.870045  0.626775  1
  Ca  Ca6  1  0.873225  0.743269  0.617662  1
  Ca  Ca7  1  0.627979  0.249131  0.877269  1
  Ca  Ca8  1  0.377269  0.128138  0.249290  1
  Ca  Ca9  1  0.622731  0.871862  0.750710  1
  Ca  Ca10  1  0.117662  0.374393  0.744437  1
  Ca  Ca11  1  0.882338  0.625607  0.255563  1
  Np  Np12  1  0.000000  0.000000  0.000000  1
  Np  Np13  1  0.500000  0.000000  0.500000  1
  Np  Np14  1  0.500000  0.500000  0.000000  1
  Ga  Ga15  1  0.243111  0.617044  0.371047  1
  Ga  Ga16  1  0.756889  0.382956  0.628953  1
  Ga  Ga17  1  0.749022  0.879355  0.129360  1
  Ga  Ga18  1  0.370640  0.249994  0.619662  1
  Ga  Ga19  1  0.629360  0.750006  0.380338  1
  Ga  Ga20  1  0.250978  0.120645  0.870640  1
  Ga  Ga21  1  0.128953  0.745997  0.872064  1
  Ga  Ga22  1  0.871047  0.254003  0.127936  1
  Ga  Ga23  1  0.627936  0.373933  0.256889  1
  Ga  Ga24  1  0.372064  0.626067  0.743111  1
  Ga  Ga25  1  0.880338  0.130333  0.750978  1
  Ga  Ga26  1  0.119662  0.869667  0.249022  1
  Sn  Sn27  1  0.000000  0.500000  0.500000  1
  Sn  Sn28  1  0.500000  0.000000  0.000000  1
  Sn  Sn29  1  0.500000  0.500000  0.500000  1
  Sn  Sn30  1  0.000000  0.000000  0.500000  1
  Sn  Sn31  1  0.000000  0.500000  0.000000  1
  O  O32  1  0.478004  0.378923  0.295758  1
  O  O33  1  0.521996  0.621077  0.704242  1
  O  O34  1  0.582527  0.180815  0.206300  1
  O  O35  1  0.916404  0.122031  0.597536  1
  O  O36  1  0.293700  0.474515  0.376227  1
  O  O37  1  0.314974  0.917500  0.293200  1
  O  O38  1  0.417473  0.819185  0.793700  1
  O  O39  1  0.083596  0.877969  0.402464  1
  O  O40  1  0.706300  0.525485  0.623773  1
  O  O41  1  0.685026  0.082500  0.706800  1
  O  O42  1  0.026132  0.320002  0.902962  1
  O  O43  1  0.204242  0.583165  0.182246  1
  O  O44  1  0.122016  0.020035  0.204831  1
  O  O45  1  0.973868  0.679998  0.097038  1
  O  O46  1  0.795758  0.416835  0.817754  1
  O  O47  1  0.877984  0.979965  0.795169  1
  O  O48  1  0.597038  0.917040  0.123170  1
  O  O49  1  0.180347  0.476733  0.599773  1
  O  O50  1  0.402962  0.082960  0.876830  1
  O  O51  1  0.819653  0.523267  0.400227  1
  O  O52  1  0.902464  0.024496  0.318869  1
  O  O53  1  0.380210  0.582352  0.897905  1
  O  O54  1  0.097536  0.975504  0.681131  1
  O  O55  1  0.619790  0.417648  0.102095  1
  O  O56  1  0.376830  0.293869  0.473868  1
  O  O57  1  0.582816  0.898019  0.377984  1
  O  O58  1  0.623170  0.706131  0.526132  1
  O  O59  1  0.417184  0.101981  0.622016  1
  O  O60  1  0.123773  0.598288  0.917473  1
  O  O61  1  0.017695  0.202142  0.119790  1
  O  O62  1  0.876227  0.401712  0.082527  1
  O  O63  1  0.982305  0.797858  0.880210  1
  O  O64  1  0.317754  0.900919  0.021996  1
  O  O65  1  0.919426  0.296386  0.319653  1
  O  O66  1  0.682246  0.099081  0.978004  1
  O  O67  1  0.080574  0.703614  0.680347  1
  O  O68  1  0.181131  0.205627  0.583596  1
  O  O69  1  0.478225  0.602526  0.185026  1
  O  O70  1  0.818869  0.794373  0.416404  1
  O  O71  1  0.521775  0.397474  0.814974  1
  O  O72  1  0.295169  0.315203  0.917184  1
  O  O73  1  0.704831  0.684797  0.082816  1
  O  O74  1  0.206800  0.124300  0.021775  1
  O  O75  1  0.793200  0.875700  0.978225  1
  O  O76  1  0.900227  0.376960  0.580574  1
  O  O77  1  0.099773  0.623040  0.419426  1
  O  O78  1  0.602095  0.184447  0.482305  1
  O  O79  1  0.397905  0.815553  0.517695  1
