# generated using pymatgen
data_Dy4Er(TcO6)2
_symmetry_space_group_name_H-M   'P 1'
_cell_length_a   6.81950531
_cell_length_b   6.81950471
_cell_length_c   7.51433206
_cell_angle_alpha   73.74811601
_cell_angle_beta   73.74811657
_cell_angle_gamma   49.13905607
_symmetry_Int_Tables_number   1
_chemical_formula_structural   Dy4Er(TcO6)2
_chemical_formula_sum   'Dy4 Er1 Tc2 O12'
_cell_volume   251.47096769
_cell_formula_units_Z   1
loop_
 _symmetry_equiv_pos_site_id
 _symmetry_equiv_pos_as_xyz
  1  'x, y, z'
loop_
 _atom_site_type_symbol
 _atom_site_label
 _atom_site_symmetry_multiplicity
 _atom_site_fract_x
 _atom_site_fract_y
 _atom_site_fract_z
 _atom_site_occupancy
  Dy  Dy0  1  0.695799  0.695799  0.642397  1
  Dy  Dy1  1  0.304201  0.304201  0.357603  1
  Dy  Dy2  1  0.684067  0.684067  0.176305  1
  Dy  Dy3  1  0.315933  0.315933  0.823695  1
  Er  Er4  1  0.000000  0.000000  0.500000  1
  Tc  Tc5  1  0.786064  0.213936  0.000000  1
  Tc  Tc6  1  0.213936  0.786064  0.000000  1
  O  O7  1  0.001596  0.001596  0.204976  1
  O  O8  1  0.998404  0.998404  0.795024  1
  O  O9  1  0.583431  0.086648  0.084657  1
  O  O10  1  0.416569  0.913352  0.915343  1
  O  O11  1  0.913352  0.416569  0.915343  1
  O  O12  1  0.086648  0.583431  0.084657  1
  O  O13  1  0.498854  0.498854  0.177717  1
  O  O14  1  0.501146  0.501146  0.822283  1
  O  O15  1  0.403456  0.901657  0.427278  1
  O  O16  1  0.596544  0.098343  0.572722  1
  O  O17  1  0.098343  0.596544  0.572722  1
  O  O18  1  0.901657  0.403456  0.427278  1
