# generated using pymatgen
data_Er3Tm7Bi5Ir
_symmetry_space_group_name_H-M   'P 1'
_cell_length_a   8.00991100
_cell_length_b   9.31852900
_cell_length_c   11.99983300
_cell_angle_alpha   90.00000000
_cell_angle_beta   90.00000000
_cell_angle_gamma   90.00000000
_symmetry_Int_Tables_number   1
_chemical_formula_structural   Er3Tm7Bi5Ir
_chemical_formula_sum   'Er6 Tm14 Bi10 Ir2'
_cell_volume   895.67459031
_cell_formula_units_Z   2
loop_
 _symmetry_equiv_pos_site_id
 _symmetry_equiv_pos_as_xyz
  1  'x, y, z'
loop_
 _atom_site_type_symbol
 _atom_site_label
 _atom_site_symmetry_multiplicity
 _atom_site_fract_x
 _atom_site_fract_y
 _atom_site_fract_z
 _atom_site_occupancy
  Er  Er0  1  0.573413  0.500000  0.773214  1
  Er  Er1  1  0.426587  0.500000  0.273214  1
  Er  Er2  1  0.259796  0.500000  0.993526  1
  Er  Er3  1  0.740204  0.500000  0.493526  1
  Er  Er4  1  0.089813  0.500000  0.717755  1
  Er  Er5  1  0.910187  0.500000  0.217755  1
  Tm  Tm6  1  0.432646  0.177207  0.563238  1
  Tm  Tm7  1  0.567354  0.822793  0.063238  1
  Tm  Tm8  1  0.070753  0.722201  0.435355  1
  Tm  Tm9  1  0.929247  0.277799  0.935355  1
  Tm  Tm10  1  0.070753  0.277799  0.435355  1
  Tm  Tm11  1  0.929247  0.722201  0.935355  1
  Tm  Tm12  1  0.432646  0.822793  0.563238  1
  Tm  Tm13  1  0.567354  0.177207  0.063238  1
  Tm  Tm14  1  0.909354  0.000000  0.206519  1
  Tm  Tm15  1  0.090646  0.000000  0.706519  1
  Tm  Tm16  1  0.196041  0.000000  0.997087  1
  Tm  Tm17  1  0.803959  0.000000  0.497087  1
  Tm  Tm18  1  0.377741  0.000000  0.304317  1
  Tm  Tm19  1  0.622259  0.000000  0.804317  1
  Bi  Bi20  1  0.814079  0.741216  0.672194  1
  Bi  Bi21  1  0.185921  0.258784  0.172194  1
  Bi  Bi22  1  0.680299  0.241879  0.325465  1
  Bi  Bi23  1  0.319701  0.758121  0.825465  1
  Bi  Bi24  1  0.680299  0.758121  0.325465  1
  Bi  Bi25  1  0.319701  0.241879  0.825465  1
  Bi  Bi26  1  0.814079  0.258784  0.672194  1
  Bi  Bi27  1  0.185921  0.741216  0.172194  1
  Bi  Bi28  1  0.349654  0.500000  0.528804  1
  Bi  Bi29  1  0.650346  0.500000  0.028804  1
  Ir  Ir30  1  0.170733  0.000000  0.486275  1
  Ir  Ir31  1  0.829267  0.000000  0.986275  1
