# generated using pymatgen
data_TbHoTm12Lu6(CoSb2)4
_symmetry_space_group_name_H-M   'P 1'
_cell_length_a   7.73952193
_cell_length_b   8.72857727
_cell_length_c   12.04349843
_cell_angle_alpha   90.02858727
_cell_angle_beta   89.97734105
_cell_angle_gamma   90.00112100
_symmetry_Int_Tables_number   1
_chemical_formula_structural   TbHoTm12Lu6(CoSb2)4
_chemical_formula_sum   'Tb1 Ho1 Tm12 Lu6 Co4 Sb8'
_cell_volume   813.59855403
_cell_formula_units_Z   1
loop_
 _symmetry_equiv_pos_site_id
 _symmetry_equiv_pos_as_xyz
  1  'x, y, z'
loop_
 _atom_site_type_symbol
 _atom_site_label
 _atom_site_symmetry_multiplicity
 _atom_site_fract_x
 _atom_site_fract_y
 _atom_site_fract_z
 _atom_site_occupancy
  Tb  Tb0  1  0.377059  0.249725  0.692167  1
  Ho  Ho1  1  0.877549  0.750236  0.808383  1
  Tm  Tm2  1  0.156145  0.750159  0.203640  1
  Tm  Tm3  1  0.656182  0.249811  0.296368  1
  Tm  Tm4  1  0.844376  0.249960  0.796285  1
  Tm  Tm5  1  0.344091  0.750078  0.703906  1
  Tm  Tm6  1  0.448932  0.750195  0.998040  1
  Tm  Tm7  1  0.948752  0.249811  0.502060  1
  Tm  Tm8  1  0.550024  0.249706  0.002193  1
  Tm  Tm9  1  0.049641  0.750276  0.497740  1
  Tm  Tm10  1  0.622186  0.750099  0.309083  1
  Tm  Tm11  1  0.122044  0.249908  0.190737  1
  Tm  Tm12  1  0.824033  0.535897  0.065650  1
  Tm  Tm13  1  0.324098  0.464352  0.434030  1
  Lu  Lu14  1  0.825281  0.963982  0.065512  1
  Lu  Lu15  1  0.325377  0.035799  0.434165  1
  Lu  Lu16  1  0.175270  0.462464  0.935166  1
  Lu  Lu17  1  0.675671  0.538073  0.564746  1
  Lu  Lu18  1  0.175031  0.037643  0.935227  1
  Lu  Lu19  1  0.675404  0.961837  0.564714  1
  Co  Co20  1  0.433603  0.750345  0.491054  1
  Co  Co21  1  0.933600  0.249611  0.008868  1
  Co  Co22  1  0.568040  0.249595  0.508328  1
  Co  Co23  1  0.067755  0.750453  0.991425  1
  Sb  Sb24  1  0.931545  0.991760  0.327612  1
  Sb  Sb25  1  0.431598  0.008248  0.172438  1
  Sb  Sb26  1  0.067902  0.492123  0.672011  1
  Sb  Sb27  1  0.569345  0.508862  0.828206  1
  Sb  Sb28  1  0.067784  0.007867  0.672029  1
  Sb  Sb29  1  0.569259  0.991147  0.828185  1
  Sb  Sb30  1  0.931173  0.508315  0.327611  1
  Sb  Sb31  1  0.431258  0.491664  0.172422  1
