# generated using pymatgen
data_PrTmReB6
_symmetry_space_group_name_H-M   'P 1'
_cell_length_a   3.72136100
_cell_length_b   9.23044500
_cell_length_c   11.71432700
_cell_angle_alpha   90.00000000
_cell_angle_beta   90.00000000
_cell_angle_gamma   90.00000000
_symmetry_Int_Tables_number   1
_chemical_formula_structural   PrTmReB6
_chemical_formula_sum   'Pr4 Tm4 Re4 B24'
_cell_volume   402.38500086
_cell_formula_units_Z   4
loop_
 _symmetry_equiv_pos_site_id
 _symmetry_equiv_pos_as_xyz
  1  'x, y, z'
loop_
 _atom_site_type_symbol
 _atom_site_label
 _atom_site_symmetry_multiplicity
 _atom_site_fract_x
 _atom_site_fract_y
 _atom_site_fract_z
 _atom_site_occupancy
  Pr  Pr0  1  0.000000  0.322424  0.414466  1
  Pr  Pr1  1  0.000000  0.677576  0.585534  1
  Pr  Pr2  1  0.000000  0.822424  0.085534  1
  Pr  Pr3  1  0.000000  0.177576  0.914466  1
  Tm  Tm4  1  0.000000  0.943131  0.369293  1
  Tm  Tm5  1  0.000000  0.056869  0.630707  1
  Tm  Tm6  1  0.000000  0.443131  0.130707  1
  Tm  Tm7  1  0.000000  0.556869  0.869293  1
  Re  Re8  1  0.000000  0.640113  0.318524  1
  Re  Re9  1  0.000000  0.359887  0.681476  1
  Re  Re10  1  0.000000  0.140113  0.181476  1
  Re  Re11  1  0.000000  0.859887  0.818524  1
  B  B12  1  0.500000  0.555798  0.429519  1
  B  B13  1  0.500000  0.444202  0.570481  1
  B  B14  1  0.500000  0.055798  0.070481  1
  B  B15  1  0.500000  0.944202  0.929519  1
  B  B16  1  0.500000  0.750899  0.415078  1
  B  B17  1  0.500000  0.249101  0.584922  1
  B  B18  1  0.500000  0.250899  0.084922  1
  B  B19  1  0.500000  0.749101  0.915078  1
  B  B20  1  0.500000  0.792095  0.265955  1
  B  B21  1  0.500000  0.207905  0.734045  1
  B  B22  1  0.500000  0.292095  0.234045  1
  B  B23  1  0.500000  0.707905  0.765955  1
  B  B24  1  0.500000  0.629025  0.186014  1
  B  B25  1  0.500000  0.370975  0.813986  1
  B  B26  1  0.500000  0.129025  0.313986  1
  B  B27  1  0.500000  0.870975  0.686014  1
  B  B28  1  0.500000  0.984063  0.213762  1
  B  B29  1  0.500000  0.015937  0.786238  1
  B  B30  1  0.500000  0.484063  0.286238  1
  B  B31  1  0.500000  0.515937  0.713762  1
  B  B32  1  0.500000  0.594766  0.025955  1
  B  B33  1  0.500000  0.405234  0.974045  1
  B  B34  1  0.500000  0.094766  0.474045  1
  B  B35  1  0.500000  0.905234  0.525955  1
