# generated using pymatgen
data_Ta3NbSi4Ir3Os
_symmetry_space_group_name_H-M   'P 1'
_cell_length_a   3.83426200
_cell_length_b   6.42584953
_cell_length_c   7.30199810
_cell_angle_alpha   89.78937930
_cell_angle_beta   90.00000000
_cell_angle_gamma   90.00000000
_symmetry_Int_Tables_number   1
_chemical_formula_structural   Ta3NbSi4Ir3Os
_chemical_formula_sum   'Ta3 Nb1 Si4 Ir3 Os1'
_cell_volume   179.90826643
_cell_formula_units_Z   1
loop_
 _symmetry_equiv_pos_site_id
 _symmetry_equiv_pos_as_xyz
  1  'x, y, z'
loop_
 _atom_site_type_symbol
 _atom_site_label
 _atom_site_symmetry_multiplicity
 _atom_site_fract_x
 _atom_site_fract_y
 _atom_site_fract_z
 _atom_site_occupancy
  Ta  Ta0  1  0.750000  0.526267  0.828594  1
  Ta  Ta1  1  0.750000  0.020357  0.675743  1
  Ta  Ta2  1  0.250000  0.478243  0.171574  1
  Nb  Nb3  1  0.250000  0.974838  0.325127  1
  Si  Si4  1  0.250000  0.229065  0.875688  1
  Si  Si5  1  0.250000  0.729292  0.623842  1
  Si  Si6  1  0.750000  0.772289  0.123732  1
  Si  Si7  1  0.750000  0.268164  0.376496  1
  Ir  Ir8  1  0.250000  0.352168  0.564404  1
  Ir  Ir9  1  0.750000  0.645415  0.435788  1
  Ir  Ir10  1  0.750000  0.151598  0.062145  1
  Os  Os11  1  0.250000  0.852306  0.936867  1
