# generated using pymatgen
data_Tb6P13Ir20
_symmetry_space_group_name_H-M   'P 1'
_cell_length_a   13.35967100
_cell_length_b   13.35966898
_cell_length_c   3.97418600
_cell_angle_alpha   90.00000000
_cell_angle_beta   90.00000000
_cell_angle_gamma   119.99999759
_symmetry_Int_Tables_number   1
_chemical_formula_structural   Tb6P13Ir20
_chemical_formula_sum   'Tb6 P13 Ir20'
_cell_volume   614.28553939
_cell_formula_units_Z   1
loop_
 _symmetry_equiv_pos_site_id
 _symmetry_equiv_pos_as_xyz
  1  'x, y, z'
loop_
 _atom_site_type_symbol
 _atom_site_label
 _atom_site_symmetry_multiplicity
 _atom_site_fract_x
 _atom_site_fract_y
 _atom_site_fract_z
 _atom_site_occupancy
  Tb  Tb0  1  0.527371  0.716192  0.247243  1
  Tb  Tb1  1  0.283808  0.811179  0.247243  1
  Tb  Tb2  1  0.188821  0.472629  0.247243  1
  Tb  Tb3  1  0.472629  0.283808  0.752757  1
  Tb  Tb4  1  0.716192  0.188821  0.752757  1
  Tb  Tb5  1  0.811179  0.527371  0.752757  1
  P  P6  1  0.526319  0.140098  0.250629  1
  P  P7  1  0.859902  0.386221  0.250629  1
  P  P8  1  0.613779  0.473681  0.250629  1
  P  P9  1  0.944984  0.711096  0.258105  1
  P  P10  1  0.288904  0.233888  0.258105  1
  P  P11  1  0.766112  0.055016  0.258105  1
  P  P12  1  0.386221  0.526319  0.749371  1
  P  P13  1  0.473681  0.859902  0.749371  1
  P  P14  1  0.140098  0.613779  0.749371  1
  P  P15  1  0.711096  0.766112  0.741895  1
  P  P16  1  0.233888  0.944984  0.741895  1
  P  P17  1  0.055016  0.288904  0.741895  1
  P  P18  1  0.000000  0.000000  0.000000  1
  Ir  Ir19  1  0.333333  0.666667  0.750902  1
  Ir  Ir20  1  0.917230  0.247139  0.252806  1
  Ir  Ir21  1  0.752861  0.670090  0.252806  1
  Ir  Ir22  1  0.329910  0.082770  0.252806  1
  Ir  Ir23  1  0.438004  0.022885  0.751601  1
  Ir  Ir24  1  0.977115  0.415120  0.751601  1
  Ir  Ir25  1  0.584880  0.561996  0.751601  1
  Ir  Ir26  1  0.666667  0.333333  0.249098  1
  Ir  Ir27  1  0.097193  0.186392  0.251412  1
  Ir  Ir28  1  0.813608  0.910801  0.251412  1
  Ir  Ir29  1  0.089199  0.902807  0.251412  1
  Ir  Ir30  1  0.022885  0.584880  0.248399  1
  Ir  Ir31  1  0.415120  0.438004  0.248399  1
  Ir  Ir32  1  0.561996  0.977115  0.248399  1
  Ir  Ir33  1  0.670090  0.917230  0.747194  1
  Ir  Ir34  1  0.082770  0.752861  0.747194  1
  Ir  Ir35  1  0.247139  0.329910  0.747194  1
  Ir  Ir36  1  0.902807  0.813608  0.748588  1
  Ir  Ir37  1  0.186392  0.089199  0.748588  1
  Ir  Ir38  1  0.910801  0.097193  0.748588  1
