# generated using pymatgen
data_Pr3Y2Zr(SnIr)6
_symmetry_space_group_name_H-M   'P 1'
_cell_length_a   7.54128089
_cell_length_b   7.59710949
_cell_length_c   7.99622400
_cell_angle_alpha   90.00000000
_cell_angle_beta   90.00000000
_cell_angle_gamma   120.26402192
_symmetry_Int_Tables_number   1
_chemical_formula_structural   Pr3Y2Zr(SnIr)6
_chemical_formula_sum   'Pr3 Y2 Zr1 Sn6 Ir6'
_cell_volume   395.68310219
_cell_formula_units_Z   1
loop_
 _symmetry_equiv_pos_site_id
 _symmetry_equiv_pos_as_xyz
  1  'x, y, z'
loop_
 _atom_site_type_symbol
 _atom_site_label
 _atom_site_symmetry_multiplicity
 _atom_site_fract_x
 _atom_site_fract_y
 _atom_site_fract_z
 _atom_site_occupancy
  Pr  Pr0  1  0.593223  0.589390  0.750000  1
  Pr  Pr1  1  0.000322  0.412491  0.750000  1
  Pr  Pr2  1  0.406902  0.995893  0.750000  1
  Y  Y3  1  0.405236  0.003688  0.250000  1
  Y  Y4  1  0.595806  0.597097  0.250000  1
  Zr  Zr5  1  0.999427  0.398343  0.250000  1
  Sn  Sn6  1  0.260962  0.258875  0.494902  1
  Sn  Sn7  1  0.260962  0.258875  0.005098  1
  Sn  Sn8  1  0.738415  0.996902  0.005290  1
  Sn  Sn9  1  0.000382  0.745388  0.485877  1
  Sn  Sn10  1  0.738415  0.996902  0.494710  1
  Sn  Sn11  1  0.000382  0.745388  0.014123  1
  Ir  Ir12  1  0.680581  0.336243  0.476993  1
  Ir  Ir13  1  0.680581  0.336243  0.023007  1
  Ir  Ir14  1  0.319182  0.655544  0.025676  1
  Ir  Ir15  1  0.319182  0.655544  0.474324  1
  Ir  Ir16  1  0.000006  0.002217  0.750000  1
  Ir  Ir17  1  0.000036  0.014977  0.250000  1
