# generated using pymatgen
data_CaLu(Ga2Ag)2
_symmetry_space_group_name_H-M   'P 1'
_cell_length_a   4.34809600
_cell_length_b   6.96005329
_cell_length_c   10.36575616
_cell_angle_alpha   90.92264644
_cell_angle_beta   90.00000000
_cell_angle_gamma   90.00000000
_symmetry_Int_Tables_number   1
_chemical_formula_structural   CaLu(Ga2Ag)2
_chemical_formula_sum   'Ca2 Lu2 Ga8 Ag4'
_cell_volume   313.65799791
_cell_formula_units_Z   2
loop_
 _symmetry_equiv_pos_site_id
 _symmetry_equiv_pos_as_xyz
  1  'x, y, z'
loop_
 _atom_site_type_symbol
 _atom_site_label
 _atom_site_symmetry_multiplicity
 _atom_site_fract_x
 _atom_site_fract_y
 _atom_site_fract_z
 _atom_site_occupancy
  Ca  Ca0  1  0.750000  0.724736  0.326213  1
  Ca  Ca1  1  0.250000  0.275264  0.673787  1
  Lu  Lu2  1  0.250000  0.775976  0.829248  1
  Lu  Lu3  1  0.750000  0.224024  0.170752  1
  Ga  Ga4  1  0.250000  0.704082  0.536663  1
  Ga  Ga5  1  0.750000  0.295918  0.463337  1
  Ga  Ga6  1  0.750000  0.798517  0.033945  1
  Ga  Ga7  1  0.250000  0.201483  0.966055  1
  Ga  Ga8  1  0.250000  0.930964  0.151077  1
  Ga  Ga9  1  0.750000  0.069036  0.848923  1
  Ga  Ga10  1  0.750000  0.574869  0.653664  1
  Ga  Ga11  1  0.250000  0.425131  0.346336  1
  Ag  Ag12  1  0.250000  0.542741  0.098073  1
  Ag  Ag13  1  0.750000  0.457259  0.901927  1
  Ag  Ag14  1  0.750000  0.957979  0.599125  1
  Ag  Ag15  1  0.250000  0.042021  0.400875  1
