# generated using pymatgen
data_Tb3Y(Zn5In)2
_symmetry_space_group_name_H-M   'P 1'
_cell_length_a   4.48745800
_cell_length_b   7.16131431
_cell_length_c   9.80851442
_cell_angle_alpha   89.96643138
_cell_angle_beta   90.00000000
_cell_angle_gamma   90.00000000
_symmetry_Int_Tables_number   1
_chemical_formula_structural   Tb3Y(Zn5In)2
_chemical_formula_sum   'Tb3 Y1 Zn10 In2'
_cell_volume   315.20731851
_cell_formula_units_Z   1
loop_
 _symmetry_equiv_pos_site_id
 _symmetry_equiv_pos_as_xyz
  1  'x, y, z'
loop_
 _atom_site_type_symbol
 _atom_site_label
 _atom_site_symmetry_multiplicity
 _atom_site_fract_x
 _atom_site_fract_y
 _atom_site_fract_z
 _atom_site_occupancy
  Tb  Tb0  1  0.250000  0.315747  0.677740  1
  Tb  Tb1  1  0.250000  0.816042  0.822303  1
  Tb  Tb2  1  0.750000  0.191197  0.166770  1
  Y  Y3  1  0.750000  0.691101  0.333142  1
  Zn  Zn4  1  0.750000  0.471325  0.900296  1
  Zn  Zn5  1  0.750000  0.971254  0.599683  1
  Zn  Zn6  1  0.250000  0.909378  0.145087  1
  Zn  Zn7  1  0.250000  0.409513  0.354881  1
  Zn  Zn8  1  0.750000  0.102113  0.843847  1
  Zn  Zn9  1  0.750000  0.602120  0.656153  1
  Zn  Zn10  1  0.250000  0.181221  0.961005  1
  Zn  Zn11  1  0.250000  0.681270  0.539012  1
  Zn  Zn12  1  0.750000  0.803579  0.032865  1
  Zn  Zn13  1  0.750000  0.303811  0.467244  1
  In  In14  1  0.250000  0.525130  0.088735  1
  In  In15  1  0.250000  0.025200  0.411238  1
