# generated using pymatgen
data_Dy4Al7Ga10SiIr6
_symmetry_space_group_name_H-M   'P 1'
_cell_length_a   7.54896602
_cell_length_b   7.53744397
_cell_length_c   9.51557966
_cell_angle_alpha   90.00942639
_cell_angle_beta   90.15762744
_cell_angle_gamma   119.89027562
_symmetry_Int_Tables_number   1
_chemical_formula_structural   Dy4Al7Ga10SiIr6
_chemical_formula_sum   'Dy4 Al7 Ga10 Si1 Ir6'
_cell_volume   469.41205912
_cell_formula_units_Z   1
loop_
 _symmetry_equiv_pos_site_id
 _symmetry_equiv_pos_as_xyz
  1  'x, y, z'
loop_
 _atom_site_type_symbol
 _atom_site_label
 _atom_site_symmetry_multiplicity
 _atom_site_fract_x
 _atom_site_fract_y
 _atom_site_fract_z
 _atom_site_occupancy
  Dy  Dy0  1  0.000085  0.663581  0.753581  1
  Dy  Dy1  1  0.003091  0.334943  0.249392  1
  Dy  Dy2  1  0.675457  0.004609  0.752598  1
  Dy  Dy3  1  0.326064  0.999444  0.246279  1
  Al  Al4  1  0.660318  0.994032  0.076361  1
  Al  Al5  1  0.663697  0.998125  0.426029  1
  Al  Al6  1  0.335094  0.001202  0.572201  1
  Al  Al7  1  0.336619  0.332857  0.055945  1
  Al  Al8  1  0.667042  0.667392  0.942203  1
  Al  Al9  1  0.668500  0.668318  0.556429  1
  Al  Al10  1  0.332933  0.332923  0.443854  1
  Ga  Ga11  1  0.130505  0.125869  0.749408  1
  Ga  Ga12  1  0.870581  0.878142  0.250139  1
  Ga  Ga13  1  0.999351  0.333342  0.576836  1
  Ga  Ga14  1  0.000264  0.667408  0.422081  1
  Ga  Ga15  1  0.997001  0.670089  0.081696  1
  Ga  Ga16  1  0.336132  0.998648  0.918083  1
  Ga  Ga17  1  0.346483  0.549471  0.749128  1
  Ga  Ga18  1  0.654001  0.446769  0.249515  1
  Ga  Ga19  1  0.549440  0.345636  0.749472  1
  Ga  Ga20  1  0.452946  0.657734  0.250259  1
  Si  Si21  1  0.999147  0.332002  0.930247  1
  Ir  Ir22  1  0.667550  0.326416  0.500099  1
  Ir  Ir23  1  0.331742  0.673073  0.500816  1
  Ir  Ir24  1  0.318671  0.657688  0.999474  1
  Ir  Ir25  1  0.680559  0.328739  0.998301  1
  Ir  Ir26  1  0.000117  0.000347  0.500593  1
  Ir  Ir27  1  0.996609  0.011201  0.998979  1
