# generated using pymatgen
data_Sm2Y4CoP12Rh17
_symmetry_space_group_name_H-M   'P 1'
_cell_length_a   3.89716900
_cell_length_b   11.19833900
_cell_length_c   12.82322600
_cell_angle_alpha   90.00000000
_cell_angle_beta   90.00000000
_cell_angle_gamma   90.00000000
_symmetry_Int_Tables_number   1
_chemical_formula_structural   Sm2Y4CoP12Rh17
_chemical_formula_sum   'Sm2 Y4 Co1 P12 Rh17'
_cell_volume   559.62891581
_cell_formula_units_Z   1
loop_
 _symmetry_equiv_pos_site_id
 _symmetry_equiv_pos_as_xyz
  1  'x, y, z'
loop_
 _atom_site_type_symbol
 _atom_site_label
 _atom_site_symmetry_multiplicity
 _atom_site_fract_x
 _atom_site_fract_y
 _atom_site_fract_z
 _atom_site_occupancy
  Sm  Sm0  1  0.000000  0.500000  0.521233  1
  Sm  Sm1  1  0.500000  0.000000  0.478222  1
  Y  Y2  1  0.500000  0.817656  0.202912  1
  Y  Y3  1  0.500000  0.182344  0.202912  1
  Y  Y4  1  0.000000  0.687893  0.797255  1
  Y  Y5  1  0.000000  0.312107  0.797255  1
  Co  Co6  1  0.500000  0.000000  0.021964  1
  P  P7  1  0.500000  0.500000  0.879810  1
  P  P8  1  0.000000  0.000000  0.119260  1
  P  P9  1  0.500000  0.500000  0.348148  1
  P  P10  1  0.000000  0.000000  0.649731  1
  P  P11  1  0.500000  0.314575  0.619615  1
  P  P12  1  0.500000  0.685425  0.619615  1
  P  P13  1  0.000000  0.185493  0.380646  1
  P  P14  1  0.000000  0.814507  0.380646  1
  P  P15  1  0.500000  0.855803  0.895947  1
  P  P16  1  0.500000  0.144197  0.895947  1
  P  P17  1  0.000000  0.655528  0.106314  1
  P  P18  1  0.000000  0.344472  0.106314  1
  Rh  Rh19  1  0.500000  0.500000  0.167116  1
  Rh  Rh20  1  0.000000  0.000000  0.831014  1
  Rh  Rh21  1  0.500000  0.500000  0.703424  1
  Rh  Rh22  1  0.000000  0.000000  0.296977  1
  Rh  Rh23  1  0.000000  0.500000  0.980560  1
  Rh  Rh24  1  0.500000  0.331261  0.994148  1
  Rh  Rh25  1  0.500000  0.668739  0.994148  1
  Rh  Rh26  1  0.000000  0.160214  0.005748  1
  Rh  Rh27  1  0.000000  0.839786  0.005748  1
  Rh  Rh28  1  0.500000  0.293159  0.429796  1
  Rh  Rh29  1  0.500000  0.706841  0.429796  1
  Rh  Rh30  1  0.000000  0.206974  0.569828  1
  Rh  Rh31  1  0.000000  0.793026  0.569828  1
  Rh  Rh32  1  0.500000  0.873640  0.711809  1
  Rh  Rh33  1  0.500000  0.126360  0.711809  1
  Rh  Rh34  1  0.000000  0.627373  0.287251  1
  Rh  Rh35  1  0.000000  0.372627  0.287251  1
