# generated using pymatgen
data_Ho3TmCo16(TcP3)4
_symmetry_space_group_name_H-M   'P 1'
_cell_length_a   3.69995000
_cell_length_b   10.32756904
_cell_length_c   11.78443405
_cell_angle_alpha   89.98935991
_cell_angle_beta   90.00000000
_cell_angle_gamma   90.00000000
_symmetry_Int_Tables_number   1
_chemical_formula_structural   Ho3TmCo16(TcP3)4
_chemical_formula_sum   'Ho3 Tm1 Co16 Tc4 P12'
_cell_volume   450.30076536
_cell_formula_units_Z   1
loop_
 _symmetry_equiv_pos_site_id
 _symmetry_equiv_pos_as_xyz
  1  'x, y, z'
loop_
 _atom_site_type_symbol
 _atom_site_label
 _atom_site_symmetry_multiplicity
 _atom_site_fract_x
 _atom_site_fract_y
 _atom_site_fract_z
 _atom_site_occupancy
  Ho  Ho0  1  0.250000  0.915967  0.204698  1
  Ho  Ho1  1  0.750000  0.415916  0.295508  1
  Ho  Ho2  1  0.750000  0.084054  0.795293  1
  Tm  Tm3  1  0.250000  0.583897  0.704613  1
  Co  Co4  1  0.250000  0.407155  0.488869  1
  Co  Co5  1  0.250000  0.093030  0.988726  1
  Co  Co6  1  0.750000  0.593038  0.511930  1
  Co  Co7  1  0.750000  0.906985  0.011269  1
  Co  Co8  1  0.250000  0.221967  0.176696  1
  Co  Co9  1  0.250000  0.278245  0.676735  1
  Co  Co10  1  0.750000  0.777613  0.823103  1
  Co  Co11  1  0.750000  0.721870  0.323387  1
  Co  Co12  1  0.250000  0.885594  0.702475  1
  Co  Co13  1  0.250000  0.614160  0.202415  1
  Co  Co14  1  0.750000  0.114136  0.297572  1
  Co  Co15  1  0.750000  0.386453  0.797253  1
  Co  Co16  1  0.250000  0.464201  0.931152  1
  Co  Co17  1  0.250000  0.035945  0.431596  1
  Co  Co18  1  0.750000  0.535983  0.068204  1
  Co  Co19  1  0.750000  0.963784  0.568523  1
  Tc  Tc20  1  0.250000  0.710955  0.989422  1
  Tc  Tc21  1  0.250000  0.788806  0.489596  1
  Tc  Tc22  1  0.750000  0.289067  0.010426  1
  Tc  Tc23  1  0.750000  0.211265  0.510684  1
  P  P24  1  0.250000  0.420712  0.113061  1
  P  P25  1  0.250000  0.079343  0.613194  1
  P  P26  1  0.750000  0.579281  0.886225  1
  P  P27  1  0.750000  0.920631  0.386832  1
  P  P28  1  0.250000  0.269369  0.865587  1
  P  P29  1  0.250000  0.230694  0.365625  1
  P  P30  1  0.750000  0.730715  0.134399  1
  P  P31  1  0.750000  0.768606  0.634625  1
  P  P32  1  0.250000  0.596356  0.390868  1
  P  P33  1  0.250000  0.903645  0.890946  1
  P  P34  1  0.750000  0.404195  0.609370  1
  P  P35  1  0.750000  0.096368  0.109121  1
