# generated using pymatgen
data_TaTi2Mn4NbP4
_symmetry_space_group_name_H-M   'P 1'
_cell_length_a   3.50447200
_cell_length_b   6.19650809
_cell_length_c   7.22943807
_cell_angle_alpha   89.70620191
_cell_angle_beta   90.00000000
_cell_angle_gamma   90.00000000
_symmetry_Int_Tables_number   1
_chemical_formula_structural   TaTi2Mn4NbP4
_chemical_formula_sum   'Ta1 Ti2 Mn4 Nb1 P4'
_cell_volume   156.98871979
_cell_formula_units_Z   1
loop_
 _symmetry_equiv_pos_site_id
 _symmetry_equiv_pos_as_xyz
  1  'x, y, z'
loop_
 _atom_site_type_symbol
 _atom_site_label
 _atom_site_symmetry_multiplicity
 _atom_site_fract_x
 _atom_site_fract_y
 _atom_site_fract_z
 _atom_site_occupancy
  Ta  Ta0  1  0.250000  0.032281  0.827249  1
  Ti  Ti1  1  0.250000  0.531153  0.671941  1
  Ti  Ti2  1  0.750000  0.468786  0.328054  1
  Mn  Mn3  1  0.750000  0.861993  0.560639  1
  Mn  Mn4  1  0.250000  0.138457  0.441234  1
  Mn  Mn5  1  0.750000  0.360166  0.939388  1
  Mn  Mn6  1  0.250000  0.639102  0.059673  1
  Nb  Nb7  1  0.750000  0.967968  0.171809  1
  P  P8  1  0.250000  0.272621  0.134895  1
  P  P9  1  0.750000  0.727848  0.864631  1
  P  P10  1  0.250000  0.759737  0.372130  1
  P  P11  1  0.750000  0.239887  0.628356  1
