# generated using pymatgen
data_Ba3CdRhO6
_symmetry_space_group_name_H-M   'P 1'
_cell_length_a   7.16380465
_cell_length_b   7.16380524
_cell_length_c   7.16380518
_cell_angle_alpha   91.60597238
_cell_angle_beta   91.60597332
_cell_angle_gamma   91.60595660
_symmetry_Int_Tables_number   1
_chemical_formula_structural   Ba3CdRhO6
_chemical_formula_sum   'Ba6 Cd2 Rh2 O12'
_cell_volume   367.20570061
_cell_formula_units_Z   2
loop_
 _symmetry_equiv_pos_site_id
 _symmetry_equiv_pos_as_xyz
  1  'x, y, z'
loop_
 _atom_site_type_symbol
 _atom_site_label
 _atom_site_symmetry_multiplicity
 _atom_site_fract_x
 _atom_site_fract_y
 _atom_site_fract_z
 _atom_site_occupancy
  Ba  Ba0  1  0.750000  0.387727  0.112273  1
  Ba  Ba1  1  0.112273  0.750000  0.387727  1
  Ba  Ba2  1  0.250000  0.612273  0.887727  1
  Ba  Ba3  1  0.387727  0.112273  0.750000  1
  Ba  Ba4  1  0.612273  0.887727  0.250000  1
  Ba  Ba5  1  0.887727  0.250000  0.612273  1
  Cd  Cd6  1  0.250000  0.250000  0.250000  1
  Cd  Cd7  1  0.750000  0.750000  0.750000  1
  Rh  Rh8  1  0.500000  0.500000  0.500000  1
  Rh  Rh9  1  0.000000  0.000000  0.000000  1
  O  O10  1  0.086541  0.272565  0.955432  1
  O  O11  1  0.955432  0.086541  0.272565  1
  O  O12  1  0.272565  0.955432  0.086541  1
  O  O13  1  0.413459  0.544568  0.227435  1
  O  O14  1  0.227435  0.413459  0.544568  1
  O  O15  1  0.544568  0.227435  0.413459  1
  O  O16  1  0.913459  0.727435  0.044568  1
  O  O17  1  0.044568  0.913459  0.727435  1
  O  O18  1  0.727435  0.044568  0.913459  1
  O  O19  1  0.586541  0.455432  0.772565  1
  O  O20  1  0.455432  0.772565  0.586541  1
  O  O21  1  0.772565  0.586541  0.455432  1
