# generated using pymatgen
data_YbDyLu2(B6Ru)2
_symmetry_space_group_name_H-M   'P 1'
_cell_length_a   3.61372400
_cell_length_b   9.07569040
_cell_length_c   11.47068008
_cell_angle_alpha   89.86322615
_cell_angle_beta   90.00000000
_cell_angle_gamma   90.00000000
_symmetry_Int_Tables_number   1
_chemical_formula_structural   YbDyLu2(B6Ru)2
_chemical_formula_sum   'Yb2 Dy2 Lu4 B24 Ru4'
_cell_volume   376.20328379
_cell_formula_units_Z   2
loop_
 _symmetry_equiv_pos_site_id
 _symmetry_equiv_pos_as_xyz
  1  'x, y, z'
loop_
 _atom_site_type_symbol
 _atom_site_label
 _atom_site_symmetry_multiplicity
 _atom_site_fract_x
 _atom_site_fract_y
 _atom_site_fract_z
 _atom_site_occupancy
  Yb  Yb0  1  0.000000  0.324500  0.414816  1
  Yb  Yb1  1  0.000000  0.675500  0.585184  1
  Dy  Dy2  1  0.000000  0.821955  0.086148  1
  Dy  Dy3  1  0.000000  0.178045  0.913852  1
  Lu  Lu4  1  0.000000  0.942210  0.370316  1
  Lu  Lu5  1  0.000000  0.057790  0.629684  1
  Lu  Lu6  1  0.000000  0.442960  0.130649  1
  Lu  Lu7  1  0.000000  0.557040  0.869351  1
  B  B8  1  0.500000  0.554379  0.432256  1
  B  B9  1  0.500000  0.445621  0.567744  1
  B  B10  1  0.500000  0.054201  0.067086  1
  B  B11  1  0.500000  0.945799  0.932914  1
  B  B12  1  0.500000  0.749185  0.417876  1
  B  B13  1  0.500000  0.250815  0.582124  1
  B  B14  1  0.500000  0.249789  0.081570  1
  B  B15  1  0.500000  0.750211  0.918430  1
  B  B16  1  0.500000  0.791846  0.264683  1
  B  B17  1  0.500000  0.208154  0.735317  1
  B  B18  1  0.500000  0.291123  0.234715  1
  B  B19  1  0.500000  0.708877  0.765285  1
  B  B20  1  0.500000  0.630529  0.184584  1
  B  B21  1  0.500000  0.369471  0.815416  1
  B  B22  1  0.500000  0.130360  0.314829  1
  B  B23  1  0.500000  0.869640  0.685171  1
  B  B24  1  0.500000  0.982878  0.212373  1
  B  B25  1  0.500000  0.017122  0.787627  1
  B  B26  1  0.500000  0.483171  0.287614  1
  B  B27  1  0.500000  0.516829  0.712386  1
  B  B28  1  0.500000  0.601048  0.027656  1
  B  B29  1  0.500000  0.398952  0.972344  1
  B  B30  1  0.500000  0.098385  0.472994  1
  B  B31  1  0.500000  0.901615  0.527006  1
  Ru  Ru32  1  0.000000  0.640230  0.318231  1
  Ru  Ru33  1  0.000000  0.359770  0.681769  1
  Ru  Ru34  1  0.000000  0.137950  0.179073  1
  Ru  Ru35  1  0.000000  0.862050  0.820927  1
