# generated using pymatgen
data_Y7HoSc11Si16Ag
_symmetry_space_group_name_H-M   'P 1'
_cell_length_a   7.04247903
_cell_length_b   7.40110615
_cell_length_c   14.03493001
_cell_angle_alpha   89.99868099
_cell_angle_beta   89.99497548
_cell_angle_gamma   89.90983129
_symmetry_Int_Tables_number   1
_chemical_formula_structural   Y7HoSc11Si16Ag
_chemical_formula_sum   'Y7 Ho1 Sc11 Si16 Ag1'
_cell_volume   731.52960632
_cell_formula_units_Z   1
loop_
 _symmetry_equiv_pos_site_id
 _symmetry_equiv_pos_as_xyz
  1  'x, y, z'
loop_
 _atom_site_type_symbol
 _atom_site_label
 _atom_site_symmetry_multiplicity
 _atom_site_fract_x
 _atom_site_fract_y
 _atom_site_fract_z
 _atom_site_occupancy
  Y  Y0  1  0.011017  0.174562  0.096511  1
  Y  Y1  1  0.989846  0.815046  0.901113  1
  Y  Y2  1  0.484288  0.673016  0.901464  1
  Y  Y3  1  0.989869  0.815286  0.598620  1
  Y  Y4  1  0.510719  0.323882  0.096597  1
  Y  Y5  1  0.011336  0.174744  0.403757  1
  Y  Y6  1  0.510797  0.324039  0.403786  1
  Ho  Ho7  1  0.484306  0.673549  0.598794  1
  Sc  Sc8  1  0.838636  0.497998  0.250151  1
  Sc  Sc9  1  0.340666  0.002720  0.250091  1
  Sc  Sc10  1  0.656735  0.998160  0.749819  1
  Sc  Sc11  1  0.325015  0.182839  0.626930  1
  Sc  Sc12  1  0.671393  0.823187  0.375355  1
  Sc  Sc13  1  0.170807  0.678812  0.373974  1
  Sc  Sc14  1  0.671434  0.823572  0.124865  1
  Sc  Sc15  1  0.836542  0.327426  0.626469  1
  Sc  Sc16  1  0.325042  0.182870  0.872933  1
  Sc  Sc17  1  0.836821  0.327395  0.873089  1
  Sc  Sc18  1  0.170797  0.678986  0.126180  1
  Si  Si19  1  0.027107  0.099115  0.749855  1
  Si  Si20  1  0.968983  0.886836  0.250117  1
  Si  Si21  1  0.467709  0.618238  0.250084  1
  Si  Si22  1  0.537557  0.383887  0.749687  1
  Si  Si23  1  0.287902  0.883310  0.749642  1
  Si  Si24  1  0.713822  0.126771  0.250168  1
  Si  Si25  1  0.212958  0.373231  0.250141  1
  Si  Si26  1  0.775613  0.628606  0.749640  1
  Si  Si27  1  0.162120  0.460412  0.531677  1
  Si  Si28  1  0.843612  0.535315  0.461747  1
  Si  Si29  1  0.345133  0.964297  0.463124  1
  Si  Si30  1  0.843629  0.535192  0.038424  1
  Si  Si31  1  0.656331  0.033601  0.540783  1
  Si  Si32  1  0.161087  0.459647  0.968760  1
  Si  Si33  1  0.656627  0.034403  0.959388  1
  Si  Si34  1  0.345077  0.964976  0.037132  1
  Ag  Ag35  1  0.158667  0.514076  0.749132  1
