# generated using pymatgen
data_Li3Ti(Rh3W)2
_symmetry_space_group_name_H-M   'P 1'
_cell_length_a   4.28892000
_cell_length_b   6.10815800
_cell_length_c   12.77762200
_cell_angle_alpha   90.00000000
_cell_angle_beta   90.00000000
_cell_angle_gamma   90.00000000
_symmetry_Int_Tables_number   1
_chemical_formula_structural   Li3Ti(Rh3W)2
_chemical_formula_sum   'Li6 Ti2 Rh12 W4'
_cell_volume   334.74048748
_cell_formula_units_Z   2
loop_
 _symmetry_equiv_pos_site_id
 _symmetry_equiv_pos_as_xyz
  1  'x, y, z'
loop_
 _atom_site_type_symbol
 _atom_site_label
 _atom_site_symmetry_multiplicity
 _atom_site_fract_x
 _atom_site_fract_y
 _atom_site_fract_z
 _atom_site_occupancy
  Li  Li0  1  0.000006  0.000000  0.999344  1
  Li  Li1  1  0.499405  0.500000  0.166272  1
  Li  Li2  1  0.999405  0.000000  0.333727  1
  Li  Li3  1  0.500006  0.500000  0.500655  1
  Li  Li4  1  0.000583  0.000000  0.666769  1
  Li  Li5  1  0.500583  0.500000  0.833231  1
  Ti  Ti6  1  0.000263  0.500000  0.668727  1
  Ti  Ti7  1  0.500263  0.000000  0.831272  1
  Rh  Rh8  1  0.500002  0.252219  0.002072  1
  Rh  Rh9  1  0.500002  0.747781  0.002072  1
  Rh  Rh10  1  0.999702  0.249891  0.166855  1
  Rh  Rh11  1  0.999702  0.750109  0.166855  1
  Rh  Rh12  1  0.499704  0.250109  0.333145  1
  Rh  Rh13  1  0.499704  0.749891  0.333145  1
  Rh  Rh14  1  0.000002  0.247781  0.497927  1
  Rh  Rh15  1  0.000002  0.752219  0.497927  1
  Rh  Rh16  1  0.500307  0.251329  0.665730  1
  Rh  Rh17  1  0.500307  0.748671  0.665730  1
  Rh  Rh18  1  0.000309  0.248671  0.834270  1
  Rh  Rh19  1  0.000309  0.751329  0.834270  1
  W  W20  1  0.000021  0.500000  0.995645  1
  W  W21  1  0.499697  0.000000  0.166069  1
  W  W22  1  0.999694  0.500000  0.333932  1
  W  W23  1  0.500021  0.000000  0.504354  1
