# generated using pymatgen
data_Yb12InGe7Pd8
_symmetry_space_group_name_H-M   'P 1'
_cell_length_a   5.59490300
_cell_length_b   8.18790111
_cell_length_c   13.44561541
_cell_angle_alpha   89.91800857
_cell_angle_beta   90.00000000
_cell_angle_gamma   90.00000000
_symmetry_Int_Tables_number   1
_chemical_formula_structural   Yb12InGe7Pd8
_chemical_formula_sum   'Yb12 In1 Ge7 Pd8'
_cell_volume   615.94990232
_cell_formula_units_Z   1
loop_
 _symmetry_equiv_pos_site_id
 _symmetry_equiv_pos_as_xyz
  1  'x, y, z'
loop_
 _atom_site_type_symbol
 _atom_site_label
 _atom_site_symmetry_multiplicity
 _atom_site_fract_x
 _atom_site_fract_y
 _atom_site_fract_z
 _atom_site_occupancy
  Yb  Yb0  1  0.649533  0.253843  0.255785  1
  Yb  Yb1  1  0.351829  0.746624  0.746972  1
  Yb  Yb2  1  0.351829  0.753376  0.253028  1
  Yb  Yb3  1  0.649533  0.246157  0.744215  1
  Yb  Yb4  1  0.153370  0.399939  0.104421  1
  Yb  Yb5  1  0.856012  0.611136  0.897582  1
  Yb  Yb6  1  0.855780  0.608207  0.600856  1
  Yb  Yb7  1  0.855780  0.891793  0.399144  1
  Yb  Yb8  1  0.144448  0.391805  0.399673  1
  Yb  Yb9  1  0.144448  0.108195  0.600327  1
  Yb  Yb10  1  0.153370  0.100061  0.895579  1
  Yb  Yb11  1  0.856012  0.888864  0.102418  1
  In  In12  1  0.660514  0.250000  0.000000  1
  Ge  Ge13  1  0.146379  0.105444  0.250745  1
  Ge  Ge14  1  0.854393  0.896223  0.747662  1
  Ge  Ge15  1  0.854393  0.603777  0.252338  1
  Ge  Ge16  1  0.146379  0.394556  0.749255  1
  Ge  Ge17  1  0.340105  0.750000  0.000000  1
  Ge  Ge18  1  0.348678  0.750000  0.500000  1
  Ge  Ge19  1  0.651278  0.250000  0.500000  1
  Pd  Pd20  1  0.366814  0.027000  0.093579  1
  Pd  Pd21  1  0.622148  0.951213  0.906629  1
  Pd  Pd22  1  0.620809  0.961802  0.589715  1
  Pd  Pd23  1  0.620809  0.538198  0.410285  1
  Pd  Pd24  1  0.378198  0.038156  0.409611  1
  Pd  Pd25  1  0.378198  0.461844  0.590389  1
  Pd  Pd26  1  0.366814  0.473000  0.906421  1
  Pd  Pd27  1  0.622148  0.548787  0.093371  1
