# generated using pymatgen
data_Tb3YbGa15(SiIr2)3
_symmetry_space_group_name_H-M   'P 1'
_cell_length_a   7.57988840
_cell_length_b   7.51909269
_cell_length_c   9.48613340
_cell_angle_alpha   89.98887657
_cell_angle_beta   89.86752881
_cell_angle_gamma   119.90771343
_symmetry_Int_Tables_number   1
_chemical_formula_structural   Tb3YbGa15(SiIr2)3
_chemical_formula_sum   'Tb3 Yb1 Ga15 Si3 Ir6'
_cell_volume   468.65099286
_cell_formula_units_Z   1
loop_
 _symmetry_equiv_pos_site_id
 _symmetry_equiv_pos_as_xyz
  1  'x, y, z'
loop_
 _atom_site_type_symbol
 _atom_site_label
 _atom_site_symmetry_multiplicity
 _atom_site_fract_x
 _atom_site_fract_y
 _atom_site_fract_z
 _atom_site_occupancy
  Tb  Tb0  1  0.996775  0.666518  0.248196  1
  Tb  Tb1  1  0.004627  0.339726  0.750447  1
  Tb  Tb2  1  0.672803  0.003134  0.247579  1
  Yb  Yb3  1  0.323972  0.993817  0.749885  1
  Ga  Ga4  1  0.130293  0.128044  0.250888  1
  Ga  Ga5  1  0.872283  0.869313  0.750978  1
  Ga  Ga6  1  0.340415  0.004816  0.421876  1
  Ga  Ga7  1  0.000539  0.328085  0.421469  1
  Ga  Ga8  1  0.664652  0.002050  0.580819  1
  Ga  Ga9  1  0.660010  0.998266  0.917045  1
  Ga  Ga10  1  0.339066  0.003537  0.079083  1
  Ga  Ga11  1  0.332990  0.327709  0.569475  1
  Ga  Ga12  1  0.660519  0.668449  0.432549  1
  Ga  Ga13  1  0.660652  0.667992  0.069667  1
  Ga  Ga14  1  0.337452  0.328740  0.929489  1
  Ga  Ga15  1  0.335895  0.546098  0.251139  1
  Ga  Ga16  1  0.662151  0.454832  0.751581  1
  Ga  Ga17  1  0.548764  0.341153  0.250737  1
  Ga  Ga18  1  0.452780  0.661973  0.750760  1
  Si  Si19  1  0.001059  0.329063  0.071965  1
  Si  Si20  1  0.999107  0.671185  0.930140  1
  Si  Si21  1  0.000932  0.666605  0.566827  1
  Ir  Ir22  1  0.696858  0.343355  0.002767  1
  Ir  Ir23  1  0.303868  0.656056  0.999293  1
  Ir  Ir24  1  0.316106  0.668651  0.502720  1
  Ir  Ir25  1  0.686513  0.343736  0.500929  1
  Ir  Ir26  1  0.999112  0.000315  0.001199  1
  Ir  Ir27  1  0.999806  0.986781  0.500495  1
