# generated using pymatgen
data_Nb3V2Ga2SiB
_symmetry_space_group_name_H-M   'P 1'
_cell_length_a   7.64753005
_cell_length_b   7.64752897
_cell_length_c   5.10827100
_cell_angle_alpha   90.00000000
_cell_angle_beta   90.00000000
_cell_angle_gamma   119.95485057
_symmetry_Int_Tables_number   1
_chemical_formula_structural   Nb3V2Ga2SiB
_chemical_formula_sum   'Nb6 V4 Ga4 Si2 B2'
_cell_volume   258.84768699
_cell_formula_units_Z   2
loop_
 _symmetry_equiv_pos_site_id
 _symmetry_equiv_pos_as_xyz
  1  'x, y, z'
loop_
 _atom_site_type_symbol
 _atom_site_label
 _atom_site_symmetry_multiplicity
 _atom_site_fract_x
 _atom_site_fract_y
 _atom_site_fract_z
 _atom_site_occupancy
  Nb  Nb0  1  0.755024  0.755024  0.250000  1
  Nb  Nb1  1  0.246894  0.999056  0.250000  1
  Nb  Nb2  1  0.999056  0.246894  0.250000  1
  Nb  Nb3  1  0.244082  0.244082  0.750000  1
  Nb  Nb4  1  0.755956  0.005731  0.750000  1
  Nb  Nb5  1  0.005731  0.755956  0.750000  1
  V  V6  1  0.667423  0.329562  0.503441  1
  V  V7  1  0.329562  0.667423  0.503441  1
  V  V8  1  0.329562  0.667423  0.996559  1
  V  V9  1  0.667423  0.329562  0.996559  1
  Ga  Ga10  1  0.406391  0.406391  0.250000  1
  Ga  Ga11  1  0.593316  0.997270  0.250000  1
  Ga  Ga12  1  0.997270  0.593316  0.250000  1
  Ga  Ga13  1  0.595629  0.595629  0.750000  1
  Si  Si14  1  0.407517  0.000934  0.750000  1
  Si  Si15  1  0.000934  0.407517  0.750000  1
  B  B16  1  0.999114  0.999114  0.499295  1
  B  B17  1  0.999114  0.999114  0.000705  1
