# generated using pymatgen
data_Dy16Ni3Ag4Ir
_symmetry_space_group_name_H-M   'P 1'
_cell_length_a   9.51254180
_cell_length_b   9.44108571
_cell_length_c   9.44108600
_cell_angle_alpha   59.99999897
_cell_angle_beta   60.24817703
_cell_angle_gamma   60.24817388
_symmetry_Int_Tables_number   1
_chemical_formula_structural   Dy16Ni3Ag4Ir
_chemical_formula_sum   'Dy16 Ni3 Ag4 Ir1'
_cell_volume   601.78926886
_cell_formula_units_Z   1
loop_
 _symmetry_equiv_pos_site_id
 _symmetry_equiv_pos_as_xyz
  1  'x, y, z'
loop_
 _atom_site_type_symbol
 _atom_site_label
 _atom_site_symmetry_multiplicity
 _atom_site_fract_x
 _atom_site_fract_y
 _atom_site_fract_z
 _atom_site_occupancy
  Dy  Dy0  1  0.596702  0.604659  0.604659  1
  Dy  Dy1  1  0.596702  0.604659  0.193979  1
  Dy  Dy2  1  0.596702  0.193979  0.604659  1
  Dy  Dy3  1  0.196191  0.601270  0.601270  1
  Dy  Dy4  1  0.064634  0.437897  0.437897  1
  Dy  Dy5  1  0.438837  0.061720  0.061720  1
  Dy  Dy6  1  0.438837  0.061720  0.437724  1
  Dy  Dy7  1  0.064634  0.437897  0.059571  1
  Dy  Dy8  1  0.438837  0.437724  0.061720  1
  Dy  Dy9  1  0.064634  0.059571  0.437897  1
  Dy  Dy10  1  0.184180  0.815739  0.815739  1
  Dy  Dy11  1  0.816600  0.185742  0.185742  1
  Dy  Dy12  1  0.816600  0.185742  0.811916  1
  Dy  Dy13  1  0.184180  0.815739  0.184342  1
  Dy  Dy14  1  0.816600  0.811916  0.185742  1
  Dy  Dy15  1  0.184180  0.184342  0.815739  1
  Ni  Ni16  1  0.392691  0.393294  0.393294  1
  Ni  Ni17  1  0.392691  0.393294  0.820724  1
  Ni  Ni18  1  0.392691  0.820724  0.393294  1
  Ag  Ag19  1  0.832778  0.831962  0.831962  1
  Ag  Ag20  1  0.832778  0.831962  0.503299  1
  Ag  Ag21  1  0.832778  0.503299  0.831962  1
  Ag  Ag22  1  0.503630  0.832124  0.832124  1
  Ir  Ir23  1  0.820918  0.393028  0.393028  1
