# generated using pymatgen
data_Y4LuSn3
_symmetry_space_group_name_H-M   'P 1'
_cell_length_a   8.95146500
_cell_length_b   8.95146547
_cell_length_c   6.53629700
_cell_angle_alpha   89.99987558
_cell_angle_beta   89.99987463
_cell_angle_gamma   120.00001923
_symmetry_Int_Tables_number   1
_chemical_formula_structural   Y4LuSn3
_chemical_formula_sum   'Y8 Lu2 Sn6'
_cell_volume   453.57654035
_cell_formula_units_Z   2
loop_
 _symmetry_equiv_pos_site_id
 _symmetry_equiv_pos_as_xyz
  1  'x, y, z'
loop_
 _atom_site_type_symbol
 _atom_site_label
 _atom_site_symmetry_multiplicity
 _atom_site_fract_x
 _atom_site_fract_y
 _atom_site_fract_z
 _atom_site_occupancy
  Y  Y0  1  0.760177  0.760178  0.249061  1
  Y  Y1  1  0.239818  0.999998  0.249065  1
  Y  Y2  1  0.999997  0.239818  0.249065  1
  Y  Y3  1  0.666666  0.333338  0.499997  1
  Y  Y4  1  0.333338  0.666666  0.499997  1
  Y  Y5  1  0.239821  0.239821  0.750938  1
  Y  Y6  1  0.760190  0.000004  0.750941  1
  Y  Y7  1  0.000005  0.760190  0.750941  1
  Lu  Lu8  1  0.666660  0.333331  0.999996  1
  Lu  Lu9  1  0.333332  0.666660  0.999996  1
  Sn  Sn10  1  0.604284  0.000001  0.246744  1
  Sn  Sn11  1  0.000000  0.604284  0.246744  1
  Sn  Sn12  1  0.395714  0.395714  0.246744  1
  Sn  Sn13  1  0.395717  0.999999  0.753256  1
  Sn  Sn14  1  0.999999  0.395717  0.753256  1
  Sn  Sn15  1  0.604285  0.604285  0.753261  1
