# generated using pymatgen
data_LiDy2Ho4Co17P12
_symmetry_space_group_name_H-M   'P 1'
_cell_length_a   3.69506300
_cell_length_b   10.51250500
_cell_length_c   12.15165300
_cell_angle_alpha   90.00000000
_cell_angle_beta   90.00000000
_cell_angle_gamma   90.00000000
_symmetry_Int_Tables_number   1
_chemical_formula_structural   LiDy2Ho4Co17P12
_chemical_formula_sum   'Li1 Dy2 Ho4 Co17 P12'
_cell_volume   472.02328413
_cell_formula_units_Z   1
loop_
 _symmetry_equiv_pos_site_id
 _symmetry_equiv_pos_as_xyz
  1  'x, y, z'
loop_
 _atom_site_type_symbol
 _atom_site_label
 _atom_site_symmetry_multiplicity
 _atom_site_fract_x
 _atom_site_fract_y
 _atom_site_fract_z
 _atom_site_occupancy
  Li  Li0  1  0.500000  0.500000  0.152375  1
  Dy  Dy1  1  0.000000  0.500000  0.522669  1
  Dy  Dy2  1  0.500000  0.000000  0.478242  1
  Ho  Ho3  1  0.500000  0.819289  0.206469  1
  Ho  Ho4  1  0.500000  0.180711  0.206469  1
  Ho  Ho5  1  0.000000  0.682317  0.794334  1
  Ho  Ho6  1  0.000000  0.317683  0.794334  1
  Co  Co7  1  0.000000  0.500000  0.985880  1
  Co  Co8  1  0.500000  0.000000  0.012387  1
  Co  Co9  1  0.500000  0.296368  0.431808  1
  Co  Co10  1  0.500000  0.703632  0.431808  1
  Co  Co11  1  0.000000  0.202225  0.570453  1
  Co  Co12  1  0.000000  0.797775  0.570453  1
  Co  Co13  1  0.500000  0.879660  0.709372  1
  Co  Co14  1  0.500000  0.120340  0.709372  1
  Co  Co15  1  0.000000  0.622223  0.292660  1
  Co  Co16  1  0.000000  0.377777  0.292660  1
  Co  Co17  1  0.500000  0.330942  0.995068  1
  Co  Co18  1  0.500000  0.669058  0.995068  1
  Co  Co19  1  0.000000  0.164978  0.003317  1
  Co  Co20  1  0.000000  0.835022  0.003317  1
  Co  Co21  1  0.000000  0.000000  0.840423  1
  Co  Co22  1  0.500000  0.500000  0.704332  1
  Co  Co23  1  0.000000  0.000000  0.296362  1
  P  P24  1  0.500000  0.310009  0.616993  1
  P  P25  1  0.500000  0.689991  0.616993  1
  P  P26  1  0.000000  0.189560  0.384786  1
  P  P27  1  0.000000  0.810440  0.384786  1
  P  P28  1  0.500000  0.500000  0.884104  1
  P  P29  1  0.000000  0.000000  0.116939  1
  P  P30  1  0.500000  0.847433  0.891515  1
  P  P31  1  0.500000  0.152567  0.891515  1
  P  P32  1  0.000000  0.657232  0.105801  1
  P  P33  1  0.000000  0.342768  0.105801  1
  P  P34  1  0.500000  0.500000  0.345437  1
  P  P35  1  0.000000  0.000000  0.655698  1
