# generated using pymatgen
data_Tb2Ce(ThIr6)3
_symmetry_space_group_name_H-M   'P 1'
_cell_length_a   5.35140800
_cell_length_b   5.35140690
_cell_length_c   17.66791700
_cell_angle_alpha   90.00000000
_cell_angle_beta   90.00000000
_cell_angle_gamma   120.00000682
_symmetry_Int_Tables_number   1
_chemical_formula_structural   Tb2Ce(ThIr6)3
_chemical_formula_sum   'Tb2 Ce1 Th3 Ir18'
_cell_volume   438.17943373
_cell_formula_units_Z   1
loop_
 _symmetry_equiv_pos_site_id
 _symmetry_equiv_pos_as_xyz
  1  'x, y, z'
loop_
 _atom_site_type_symbol
 _atom_site_label
 _atom_site_symmetry_multiplicity
 _atom_site_fract_x
 _atom_site_fract_y
 _atom_site_fract_z
 _atom_site_occupancy
  Tb  Tb0  1  0.333333  0.666667  0.961350  1
  Tb  Tb1  1  0.666667  0.333333  0.038198  1
  Ce  Ce2  1  0.333333  0.666667  0.543601  1
  Th  Th3  1  0.666667  0.333333  0.459438  1
  Th  Th4  1  0.333333  0.666667  0.754041  1
  Th  Th5  1  0.666667  0.333333  0.245606  1
  Ir  Ir6  1  0.167293  0.832707  0.372451  1
  Ir  Ir7  1  0.167293  0.334585  0.372451  1
  Ir  Ir8  1  0.665415  0.832707  0.372451  1
  Ir  Ir9  1  0.832853  0.167147  0.627162  1
  Ir  Ir10  1  0.832853  0.665705  0.627162  1
  Ir  Ir11  1  0.334295  0.167147  0.627162  1
  Ir  Ir12  1  0.832881  0.167119  0.874951  1
  Ir  Ir13  1  0.832881  0.665760  0.874951  1
  Ir  Ir14  1  0.334240  0.167119  0.874951  1
  Ir  Ir15  1  0.167138  0.832862  0.124839  1
  Ir  Ir16  1  0.167138  0.334277  0.124839  1
  Ir  Ir17  1  0.665723  0.832862  0.124839  1
  Ir  Ir18  1  0.333333  0.666667  0.249151  1
  Ir  Ir19  1  0.666667  0.333333  0.750604  1
  Ir  Ir20  1  0.000000  0.000000  0.248582  1
  Ir  Ir21  1  0.000000  0.000000  0.751143  1
  Ir  Ir22  1  0.000000  0.000000  0.500251  1
  Ir  Ir23  1  0.000000  0.000000  0.999825  1
