# generated using pymatgen
data_SmEr3(Rh2O7)2
_symmetry_space_group_name_H-M   'P 1'
_cell_length_a   7.22183174
_cell_length_b   7.22183144
_cell_length_c   7.24799762
_cell_angle_alpha   60.11934805
_cell_angle_beta   60.11935273
_cell_angle_gamma   59.99999820
_symmetry_Int_Tables_number   1
_chemical_formula_structural   SmEr3(Rh2O7)2
_chemical_formula_sum   'Sm1 Er3 Rh4 O14'
_cell_volume   267.78044505
_cell_formula_units_Z   1
loop_
 _symmetry_equiv_pos_site_id
 _symmetry_equiv_pos_as_xyz
  1  'x, y, z'
loop_
 _atom_site_type_symbol
 _atom_site_label
 _atom_site_symmetry_multiplicity
 _atom_site_fract_x
 _atom_site_fract_y
 _atom_site_fract_z
 _atom_site_occupancy
  Sm  Sm0  1  0.125000  0.125000  0.625000  1
  Er  Er1  1  0.125000  0.125000  0.125000  1
  Er  Er2  1  0.125000  0.625000  0.125000  1
  Er  Er3  1  0.625000  0.125000  0.125000  1
  Rh  Rh4  1  0.625000  0.625000  0.625000  1
  Rh  Rh5  1  0.625000  0.625000  0.125000  1
  Rh  Rh6  1  0.125000  0.625000  0.625000  1
  Rh  Rh7  1  0.625000  0.125000  0.625000  1
  O  O8  1  0.253020  0.253020  0.240940  1
  O  O9  1  0.287642  0.712574  0.287211  1
  O  O10  1  0.962076  0.962076  0.533049  1
  O  O11  1  0.542801  0.962076  0.533049  1
  O  O12  1  0.712574  0.712574  0.287211  1
  O  O13  1  0.962076  0.542801  0.533049  1
  O  O14  1  0.707199  0.287924  0.716951  1
  O  O15  1  0.287924  0.287924  0.716951  1
  O  O16  1  0.712574  0.287642  0.287211  1
  O  O17  1  0.287924  0.707199  0.716951  1
  O  O18  1  0.962358  0.537426  0.962789  1
  O  O19  1  0.537426  0.537426  0.962789  1
  O  O20  1  0.996980  0.996980  0.009060  1
  O  O21  1  0.537426  0.962358  0.962789  1
