# generated using pymatgen
data_Er12Fe4BiIr
_symmetry_space_group_name_H-M   'P 1'
_cell_length_a   8.26772982
_cell_length_b   8.26726748
_cell_length_c   8.26773056
_cell_angle_alpha   111.01382462
_cell_angle_beta   111.21323405
_cell_angle_gamma   106.23647514
_symmetry_Int_Tables_number   1
_chemical_formula_structural   Er12Fe4BiIr
_chemical_formula_sum   'Er12 Fe4 Bi1 Ir1'
_cell_volume   433.97759933
_cell_formula_units_Z   1
loop_
 _symmetry_equiv_pos_site_id
 _symmetry_equiv_pos_as_xyz
  1  'x, y, z'
loop_
 _atom_site_type_symbol
 _atom_site_label
 _atom_site_symmetry_multiplicity
 _atom_site_fract_x
 _atom_site_fract_y
 _atom_site_fract_z
 _atom_site_occupancy
  Er  Er0  1  0.282680  0.183665  0.466364  1
  Er  Er1  1  0.717320  0.816335  0.533636  1
  Er  Er2  1  0.282699  0.816335  0.099015  1
  Er  Er3  1  0.717301  0.183665  0.900985  1
  Er  Er4  1  0.615530  0.309633  0.305912  1
  Er  Er5  1  0.384470  0.690367  0.694088  1
  Er  Er6  1  0.003722  0.309633  0.694103  1
  Er  Er7  1  0.996278  0.690367  0.305897  1
  Er  Er8  1  0.212727  0.411396  0.198670  1
  Er  Er9  1  0.787273  0.588604  0.801330  1
  Er  Er10  1  0.212725  0.014049  0.801325  1
  Er  Er11  1  0.787275  0.985951  0.198675  1
  Fe  Fe12  1  0.999976  0.384634  0.384658  1
  Fe  Fe13  1  0.000024  0.615366  0.615342  1
  Fe  Fe14  1  0.393537  0.893511  0.499974  1
  Fe  Fe15  1  0.606463  0.106489  0.500026  1
  Bi  Bi16  1  0.500000  0.500000  0.000000  1
  Ir  Ir17  1  0.000000  0.000000  0.000000  1
