# generated using pymatgen
data_NdCu2Pt2Au
_symmetry_space_group_name_H-M   'P 1'
_cell_length_a   5.24856733
_cell_length_b   5.24856729
_cell_length_c   5.24856731
_cell_angle_alpha   121.12281025
_cell_angle_beta   116.55878763
_cell_angle_gamma   92.06368770
_symmetry_Int_Tables_number   1
_chemical_formula_structural   NdCu2Pt2Au
_chemical_formula_sum   'Nd1 Cu2 Pt2 Au1'
_cell_volume   103.75778774
_cell_formula_units_Z   1
loop_
 _symmetry_equiv_pos_site_id
 _symmetry_equiv_pos_as_xyz
  1  'x, y, z'
loop_
 _atom_site_type_symbol
 _atom_site_label
 _atom_site_symmetry_multiplicity
 _atom_site_fract_x
 _atom_site_fract_y
 _atom_site_fract_z
 _atom_site_occupancy
  Nd  Nd0  1  0.002987  0.002987  0.000000  1
  Cu  Cu1  1  0.619150  0.870519  0.251369  1
  Cu  Cu2  1  0.619150  0.367781  0.748631  1
  Pt  Pt3  1  0.123862  0.373771  0.750091  1
  Pt  Pt4  1  0.623678  0.373771  0.249909  1
  Au  Au5  1  0.261172  0.761172  0.500000  1
