# generated using pymatgen
data_NdEuHgPt2
_symmetry_space_group_name_H-M   'P 1'
_cell_length_a   7.89602300
_cell_length_b   7.89992400
_cell_length_c   3.92172700
_cell_angle_alpha   90.00000000
_cell_angle_beta   90.00000000
_cell_angle_gamma   90.00000000
_symmetry_Int_Tables_number   1
_chemical_formula_structural   NdEuHgPt2
_chemical_formula_sum   'Nd2 Eu2 Hg2 Pt4'
_cell_volume   244.62941466
_cell_formula_units_Z   2
loop_
 _symmetry_equiv_pos_site_id
 _symmetry_equiv_pos_as_xyz
  1  'x, y, z'
loop_
 _atom_site_type_symbol
 _atom_site_label
 _atom_site_symmetry_multiplicity
 _atom_site_fract_x
 _atom_site_fract_y
 _atom_site_fract_z
 _atom_site_occupancy
  Nd  Nd0  1  0.171244  0.669551  0.500000  1
  Nd  Nd1  1  0.671244  0.830450  0.500000  1
  Eu  Eu2  1  0.327816  0.172954  0.500000  1
  Eu  Eu3  1  0.827816  0.327047  0.500000  1
  Hg  Hg4  1  0.999870  0.000486  0.000000  1
  Hg  Hg5  1  0.499870  0.499514  0.000000  1
  Pt  Pt6  1  0.628237  0.122795  0.000000  1
  Pt  Pt7  1  0.128237  0.377206  0.000000  1
  Pt  Pt8  1  0.872834  0.632767  0.000000  1
  Pt  Pt9  1  0.372835  0.867233  0.000000  1
