# generated using pymatgen
data_Ce9Tm(Ir2Os)2
_symmetry_space_group_name_H-M   'P 1'
_cell_length_a   11.07912800
_cell_length_b   11.07912800
_cell_length_c   6.23497200
_cell_angle_alpha   90.00000000
_cell_angle_beta   90.00000000
_cell_angle_gamma   90.00000000
_symmetry_Int_Tables_number   1
_chemical_formula_structural   Ce9Tm(Ir2Os)2
_chemical_formula_sum   'Ce18 Tm2 Ir8 Os4'
_cell_volume   765.32458968
_cell_formula_units_Z   2
loop_
 _symmetry_equiv_pos_site_id
 _symmetry_equiv_pos_as_xyz
  1  'x, y, z'
loop_
 _atom_site_type_symbol
 _atom_site_label
 _atom_site_symmetry_multiplicity
 _atom_site_fract_x
 _atom_site_fract_y
 _atom_site_fract_z
 _atom_site_occupancy
  Ce  Ce0  1  0.291335  0.089694  0.374755  1
  Ce  Ce1  1  0.291335  0.910306  0.874755  1
  Ce  Ce2  1  0.708665  0.089694  0.874755  1
  Ce  Ce3  1  0.708665  0.910306  0.374755  1
  Ce  Ce4  1  0.588702  0.789959  0.877212  1
  Ce  Ce5  1  0.588702  0.210041  0.377212  1
  Ce  Ce6  1  0.411298  0.789959  0.377212  1
  Ce  Ce7  1  0.411298  0.210041  0.877212  1
  Ce  Ce8  1  0.210041  0.411298  0.622788  1
  Ce  Ce9  1  0.210041  0.588702  0.122788  1
  Ce  Ce10  1  0.789959  0.411298  0.122788  1
  Ce  Ce11  1  0.789959  0.588702  0.622788  1
  Ce  Ce12  1  0.910306  0.708665  0.125245  1
  Ce  Ce13  1  0.910306  0.291335  0.625245  1
  Ce  Ce14  1  0.089694  0.708665  0.625245  1
  Ce  Ce15  1  0.089694  0.291335  0.125245  1
  Ce  Ce16  1  0.000000  0.000000  0.500000  1
  Ce  Ce17  1  0.000000  0.000000  0.000000  1
  Tm  Tm18  1  0.500000  0.500000  0.000000  1
  Tm  Tm19  1  0.500000  0.500000  0.500000  1
  Ir  Ir20  1  0.844177  0.155823  0.250000  1
  Ir  Ir21  1  0.844177  0.844177  0.750000  1
  Ir  Ir22  1  0.155823  0.155823  0.750000  1
  Ir  Ir23  1  0.155823  0.844177  0.250000  1
  Ir  Ir24  1  0.653726  0.346274  0.750000  1
  Ir  Ir25  1  0.653726  0.653726  0.250000  1
  Ir  Ir26  1  0.346274  0.346274  0.250000  1
  Ir  Ir27  1  0.346274  0.653726  0.750000  1
  Os  Os28  1  0.500000  0.000000  0.122088  1
  Os  Os29  1  0.500000  0.000000  0.622088  1
  Os  Os30  1  0.000000  0.500000  0.877912  1
  Os  Os31  1  0.000000  0.500000  0.377912  1
