# generated using pymatgen
data_Yb4FeNiOs6
_symmetry_space_group_name_H-M   'P 1'
_cell_length_a   5.31436224
_cell_length_b   5.31436298
_cell_length_c   8.51921400
_cell_angle_alpha   90.00000000
_cell_angle_beta   90.00000000
_cell_angle_gamma   121.96228584
_symmetry_Int_Tables_number   1
_chemical_formula_structural   Yb4FeNiOs6
_chemical_formula_sum   'Yb4 Fe1 Ni1 Os6'
_cell_volume   204.12720030
_cell_formula_units_Z   1
loop_
 _symmetry_equiv_pos_site_id
 _symmetry_equiv_pos_as_xyz
  1  'x, y, z'
loop_
 _atom_site_type_symbol
 _atom_site_label
 _atom_site_symmetry_multiplicity
 _atom_site_fract_x
 _atom_site_fract_y
 _atom_site_fract_z
 _atom_site_occupancy
  Yb  Yb0  1  0.332236  0.667764  0.432886  1
  Yb  Yb1  1  0.669550  0.330450  0.562162  1
  Yb  Yb2  1  0.669550  0.330450  0.937838  1
  Yb  Yb3  1  0.332236  0.667764  0.067114  1
  Fe  Fe4  1  0.170954  0.829046  0.750000  1
  Ni  Ni5  1  0.823106  0.176894  0.250000  1
  Os  Os6  1  0.003697  0.996303  0.499853  1
  Os  Os7  1  0.003697  0.996303  0.000147  1
  Os  Os8  1  0.818948  0.662002  0.250000  1
  Os  Os9  1  0.337998  0.181052  0.250000  1
  Os  Os10  1  0.179601  0.341572  0.750000  1
  Os  Os11  1  0.658428  0.820399  0.750000  1
