# generated using pymatgen
data_Er2Tm2ScOs7
_symmetry_space_group_name_H-M   'P 1'
_cell_length_a   5.36929700
_cell_length_b   5.36895613
_cell_length_c   8.82142901
_cell_angle_alpha   89.99999859
_cell_angle_beta   90.00107857
_cell_angle_gamma   60.00493288
_symmetry_Int_Tables_number   1
_chemical_formula_structural   Er2Tm2ScOs7
_chemical_formula_sum   'Er2 Tm2 Sc1 Os7'
_cell_volume   220.24113838
_cell_formula_units_Z   1
loop_
 _symmetry_equiv_pos_site_id
 _symmetry_equiv_pos_as_xyz
  1  'x, y, z'
loop_
 _atom_site_type_symbol
 _atom_site_label
 _atom_site_symmetry_multiplicity
 _atom_site_fract_x
 _atom_site_fract_y
 _atom_site_fract_z
 _atom_site_occupancy
  Er  Er0  1  0.333338  0.333327  0.575636  1
  Er  Er1  1  0.666662  0.666673  0.424364  1
  Tm  Tm2  1  0.666681  0.666667  0.060695  1
  Tm  Tm3  1  0.333319  0.333333  0.939305  1
  Sc  Sc4  1  0.000000  0.000000  0.500000  1
  Os  Os5  1  0.000000  0.000000  0.000000  1
  Os  Os6  1  0.827166  0.345669  0.755462  1
  Os  Os7  1  0.345651  0.827172  0.755454  1
  Os  Os8  1  0.827167  0.827161  0.755470  1
  Os  Os9  1  0.172834  0.654331  0.244538  1
  Os  Os10  1  0.654349  0.172828  0.244546  1
  Os  Os11  1  0.172833  0.172839  0.244530  1
