# generated using pymatgen
data_TbY3(ReB2)6
_symmetry_space_group_name_H-M   'P 1'
_cell_length_a   6.23189647
_cell_length_b   6.23133629
_cell_length_c   7.51746433
_cell_angle_alpha   89.39901313
_cell_angle_beta   89.44239471
_cell_angle_gamma   113.87668664
_symmetry_Int_Tables_number   1
_chemical_formula_structural   TbY3(ReB2)6
_chemical_formula_sum   'Tb1 Y3 Re6 B12'
_cell_volume   266.89673919
_cell_formula_units_Z   1
loop_
 _symmetry_equiv_pos_site_id
 _symmetry_equiv_pos_as_xyz
  1  'x, y, z'
loop_
 _atom_site_type_symbol
 _atom_site_label
 _atom_site_symmetry_multiplicity
 _atom_site_fract_x
 _atom_site_fract_y
 _atom_site_fract_z
 _atom_site_occupancy
  Tb  Tb0  1  0.900206  0.557150  0.322384  1
  Y  Y1  1  0.442848  0.099857  0.177909  1
  Y  Y2  1  0.099880  0.442916  0.677888  1
  Y  Y3  1  0.557087  0.900073  0.822082  1
  Re  Re4  1  0.411918  0.588223  0.249936  1
  Re  Re5  1  0.588214  0.411807  0.749896  1
  Re  Re6  1  0.009556  0.192999  0.088559  1
  Re  Re7  1  0.806782  0.990465  0.411455  1
  Re  Re8  1  0.990425  0.806823  0.911409  1
  Re  Re9  1  0.193149  0.009617  0.588614  1
  B  B10  1  0.751487  0.848234  0.130260  1
  B  B11  1  0.151855  0.248473  0.369707  1
  B  B12  1  0.248512  0.151826  0.869679  1
  B  B13  1  0.848154  0.751591  0.630439  1
  B  B14  1  0.412502  0.840128  0.479750  1
  B  B15  1  0.159938  0.587460  0.020170  1
  B  B16  1  0.587419  0.159904  0.520228  1
  B  B17  1  0.840075  0.412553  0.979686  1
  B  B18  1  0.556752  0.649719  0.535583  1
  B  B19  1  0.350248  0.443294  0.964410  1
  B  B20  1  0.443265  0.350205  0.464378  1
  B  B21  1  0.649728  0.556683  0.035577  1
