# generated using pymatgen
data_TbHo15(AlIr)4
_symmetry_space_group_name_H-M   'P 1'
_cell_length_a   9.50785816
_cell_length_b   9.50785865
_cell_length_c   9.50673900
_cell_angle_alpha   60.00389890
_cell_angle_beta   60.00389718
_cell_angle_gamma   59.96252740
_symmetry_Int_Tables_number   1
_chemical_formula_structural   TbHo15(AlIr)4
_chemical_formula_sum   'Tb1 Ho15 Al4 Ir4'
_cell_volume   607.55333949
_cell_formula_units_Z   1
loop_
 _symmetry_equiv_pos_site_id
 _symmetry_equiv_pos_as_xyz
  1  'x, y, z'
loop_
 _atom_site_type_symbol
 _atom_site_label
 _atom_site_symmetry_multiplicity
 _atom_site_fract_x
 _atom_site_fract_y
 _atom_site_fract_z
 _atom_site_occupancy
  Tb  Tb0  1  0.436951  0.436951  0.063049  1
  Ho  Ho1  1  0.647888  0.647888  0.053779  1
  Ho  Ho2  1  0.194837  0.806783  0.193642  1
  Ho  Ho3  1  0.060848  0.437774  0.061855  1
  Ho  Ho4  1  0.194837  0.806783  0.804738  1
  Ho  Ho5  1  0.060848  0.437774  0.439524  1
  Ho  Ho6  1  0.806783  0.194837  0.193642  1
  Ho  Ho7  1  0.647888  0.647888  0.650445  1
  Ho  Ho8  1  0.806783  0.194837  0.804738  1
  Ho  Ho9  1  0.194696  0.194696  0.805304  1
  Ho  Ho10  1  0.056487  0.647094  0.648210  1
  Ho  Ho11  1  0.437774  0.060848  0.061855  1
  Ho  Ho12  1  0.062109  0.062109  0.437891  1
  Ho  Ho13  1  0.647094  0.056487  0.648210  1
  Ho  Ho14  1  0.805756  0.805756  0.194244  1
  Ho  Ho15  1  0.437774  0.060848  0.439524  1
  Al  Al16  1  0.422007  0.422007  0.422264  1
  Al  Al17  1  0.422007  0.422007  0.733724  1
  Al  Al18  1  0.422168  0.734019  0.421907  1
  Al  Al19  1  0.734019  0.422168  0.421907  1
  Ir  Ir20  1  0.424632  0.859424  0.857972  1
  Ir  Ir21  1  0.858194  0.858194  0.858436  1
  Ir  Ir22  1  0.859424  0.424632  0.857972  1
  Ir  Ir23  1  0.858194  0.858194  0.425176  1
