# generated using pymatgen
data_Yb8TmPt6
_symmetry_space_group_name_H-M   'P 1'
_cell_length_a   7.50609973
_cell_length_b   7.50609827
_cell_length_c   7.50609934
_cell_angle_alpha   70.28316332
_cell_angle_beta   70.28315846
_cell_angle_gamma   70.28317626
_symmetry_Int_Tables_number   1
_chemical_formula_structural   Yb8TmPt6
_chemical_formula_sum   'Yb8 Tm1 Pt6'
_cell_volume   362.64938058
_cell_formula_units_Z   1
loop_
 _symmetry_equiv_pos_site_id
 _symmetry_equiv_pos_as_xyz
  1  'x, y, z'
loop_
 _atom_site_type_symbol
 _atom_site_label
 _atom_site_symmetry_multiplicity
 _atom_site_fract_x
 _atom_site_fract_y
 _atom_site_fract_z
 _atom_site_occupancy
  Yb  Yb0  1  0.401326  0.668063  0.151574  1
  Yb  Yb1  1  0.201394  0.201394  0.201394  1
  Yb  Yb2  1  0.848426  0.598674  0.331937  1
  Yb  Yb3  1  0.668063  0.151574  0.401326  1
  Yb  Yb4  1  0.331937  0.848426  0.598674  1
  Yb  Yb5  1  0.151574  0.401326  0.668063  1
  Yb  Yb6  1  0.798606  0.798606  0.798606  1
  Yb  Yb7  1  0.598674  0.331937  0.848426  1
  Tm  Tm8  1  0.000000  0.000000  0.000000  1
  Pt  Pt9  1  0.845230  0.399091  0.045449  1
  Pt  Pt10  1  0.600909  0.954551  0.154770  1
  Pt  Pt11  1  0.045449  0.845230  0.399091  1
  Pt  Pt12  1  0.954551  0.154770  0.600909  1
  Pt  Pt13  1  0.399091  0.045449  0.845230  1
  Pt  Pt14  1  0.154770  0.600909  0.954551  1
