# generated using pymatgen
data_Sr3Ce(Al3Pd)6
_symmetry_space_group_name_H-M   'P 1'
_cell_length_a   7.74080500
_cell_length_b   7.74238955
_cell_length_c   9.71102300
_cell_angle_alpha   90.00000000
_cell_angle_beta   90.00000000
_cell_angle_gamma   119.41957177
_symmetry_Int_Tables_number   1
_chemical_formula_structural   Sr3Ce(Al3Pd)6
_chemical_formula_sum   'Sr3 Ce1 Al18 Pd6'
_cell_volume   506.95248333
_cell_formula_units_Z   1
loop_
 _symmetry_equiv_pos_site_id
 _symmetry_equiv_pos_as_xyz
  1  'x, y, z'
loop_
 _atom_site_type_symbol
 _atom_site_label
 _atom_site_symmetry_multiplicity
 _atom_site_fract_x
 _atom_site_fract_y
 _atom_site_fract_z
 _atom_site_occupancy
  Sr  Sr0  1  0.994631  0.670247  0.250000  1
  Sr  Sr1  1  0.003122  0.330226  0.750000  1
  Sr  Sr2  1  0.671173  0.995150  0.250000  1
  Ce  Ce3  1  0.330477  0.002080  0.750000  1
  Al  Al4  1  0.137653  0.136330  0.250000  1
  Al  Al5  1  0.869787  0.865240  0.750000  1
  Al  Al6  1  0.005709  0.335179  0.073315  1
  Al  Al7  1  0.997539  0.666346  0.923313  1
  Al  Al8  1  0.997539  0.666346  0.576687  1
  Al  Al9  1  0.334916  0.004922  0.429743  1
  Al  Al10  1  0.005709  0.335179  0.426685  1
  Al  Al11  1  0.663965  0.997003  0.576469  1
  Al  Al12  1  0.663965  0.997003  0.923531  1
  Al  Al13  1  0.334916  0.004922  0.070257  1
  Al  Al14  1  0.334228  0.332527  0.555488  1
  Al  Al15  1  0.663219  0.663389  0.454526  1
  Al  Al16  1  0.663219  0.663389  0.045474  1
  Al  Al17  1  0.334228  0.332527  0.944512  1
  Al  Al18  1  0.342215  0.543193  0.250000  1
  Al  Al19  1  0.652476  0.453038  0.750000  1
  Al  Al20  1  0.542309  0.341106  0.250000  1
  Al  Al21  1  0.458555  0.665620  0.750000  1
  Pd  Pd22  1  0.670698  0.328987  0.998360  1
  Pd  Pd23  1  0.328457  0.670198  0.997935  1
  Pd  Pd24  1  0.328457  0.670198  0.502065  1
  Pd  Pd25  1  0.670698  0.328987  0.501640  1
  Pd  Pd26  1  0.000069  0.000336  0.998177  1
  Pd  Pd27  1  0.000069  0.000336  0.501823  1
