# generated using pymatgen
data_TbEr(Pa2Ga5)2
_symmetry_space_group_name_H-M   'P 1'
_cell_length_a   6.07989600
_cell_length_b   9.50354900
_cell_length_c   11.64877900
_cell_angle_alpha   90.00000000
_cell_angle_beta   90.00000000
_cell_angle_gamma   90.00000000
_symmetry_Int_Tables_number   1
_chemical_formula_structural   TbEr(Pa2Ga5)2
_chemical_formula_sum   'Tb2 Er2 Pa8 Ga20'
_cell_volume   673.07331817
_cell_formula_units_Z   2
loop_
 _symmetry_equiv_pos_site_id
 _symmetry_equiv_pos_as_xyz
  1  'x, y, z'
loop_
 _atom_site_type_symbol
 _atom_site_label
 _atom_site_symmetry_multiplicity
 _atom_site_fract_x
 _atom_site_fract_y
 _atom_site_fract_z
 _atom_site_occupancy
  Tb  Tb0  1  0.856977  0.750000  0.072382  1
  Tb  Tb1  1  0.643023  0.750000  0.572382  1
  Er  Er2  1  0.143236  0.250000  0.927396  1
  Er  Er3  1  0.356764  0.250000  0.427396  1
  Pa  Pa4  1  0.881609  0.503653  0.351907  1
  Pa  Pa5  1  0.618391  0.996347  0.851907  1
  Pa  Pa6  1  0.118589  0.003960  0.648062  1
  Pa  Pa7  1  0.381411  0.496040  0.148062  1
  Pa  Pa8  1  0.118589  0.496040  0.648062  1
  Pa  Pa9  1  0.381411  0.003960  0.148062  1
  Pa  Pa10  1  0.881609  0.996347  0.351907  1
  Pa  Pa11  1  0.618391  0.503653  0.851907  1
  Ga  Ga12  1  0.871833  0.052647  0.090738  1
  Ga  Ga13  1  0.628167  0.447353  0.590738  1
  Ga  Ga14  1  0.128387  0.551758  0.909213  1
  Ga  Ga15  1  0.371613  0.948242  0.409213  1
  Ga  Ga16  1  0.128387  0.948242  0.909213  1
  Ga  Ga17  1  0.371613  0.551758  0.409213  1
  Ga  Ga18  1  0.871833  0.447353  0.090738  1
  Ga  Ga19  1  0.628167  0.052647  0.590738  1
  Ga  Ga20  1  0.157733  0.750000  0.263591  1
  Ga  Ga21  1  0.342267  0.750000  0.763591  1
  Ga  Ga22  1  0.842900  0.250000  0.736791  1
  Ga  Ga23  1  0.657100  0.250000  0.236791  1
  Ga  Ga24  1  0.389051  0.750000  0.995021  1
  Ga  Ga25  1  0.110949  0.750000  0.495021  1
  Ga  Ga26  1  0.610040  0.250000  0.004836  1
  Ga  Ga27  1  0.889960  0.250000  0.504836  1
  Ga  Ga28  1  0.595702  0.750000  0.292782  1
  Ga  Ga29  1  0.904298  0.750000  0.792782  1
  Ga  Ga30  1  0.403977  0.250000  0.707360  1
  Ga  Ga31  1  0.096023  0.250000  0.207360  1
