# generated using pymatgen
data_Cs2NbV(AgTe2)4
_symmetry_space_group_name_H-M   'P 1'
_cell_length_a   11.13062857
_cell_length_b   11.12722025
_cell_length_c   8.73489000
_cell_angle_alpha   90.00000000
_cell_angle_beta   90.00000000
_cell_angle_gamma   146.40061197
_symmetry_Int_Tables_number   1
_chemical_formula_structural   Cs2NbV(AgTe2)4
_chemical_formula_sum   'Cs2 Nb1 V1 Ag4 Te8'
_cell_volume   598.67256438
_cell_formula_units_Z   1
loop_
 _symmetry_equiv_pos_site_id
 _symmetry_equiv_pos_as_xyz
  1  'x, y, z'
loop_
 _atom_site_type_symbol
 _atom_site_label
 _atom_site_symmetry_multiplicity
 _atom_site_fract_x
 _atom_site_fract_y
 _atom_site_fract_z
 _atom_site_occupancy
  Cs  Cs0  1  0.466459  0.833157  0.250000  1
  Cs  Cs1  1  0.832469  0.466561  0.750000  1
  Nb  Nb2  1  0.777278  0.994011  0.750000  1
  V  V3  1  0.992933  0.777461  0.250000  1
  Ag  Ag4  1  0.909365  0.909282  0.499858  1
  Ag  Ag5  1  0.909365  0.909282  0.000142  1
  Ag  Ag6  1  0.271881  0.496708  0.750000  1
  Ag  Ag7  1  0.496466  0.271114  0.250000  1
  Te  Te8  1  0.654577  0.636632  0.250000  1
  Te  Te9  1  0.003379  0.232733  0.003198  1
  Te  Te10  1  0.003379  0.232733  0.496802  1
  Te  Te11  1  0.450639  0.875484  0.750000  1
  Te  Te12  1  0.883249  0.466626  0.250000  1
  Te  Te13  1  0.222614  0.991818  0.005555  1
  Te  Te14  1  0.632992  0.644241  0.750000  1
  Te  Te15  1  0.222614  0.991818  0.494445  1
