# generated using pymatgen
data_Tb5EuFe3(Co5P4)3
_symmetry_space_group_name_H-M   'P 1'
_cell_length_a   3.69253400
_cell_length_b   10.56908100
_cell_length_c   12.16745500
_cell_angle_alpha   90.00000000
_cell_angle_beta   90.00000000
_cell_angle_gamma   90.00000000
_symmetry_Int_Tables_number   1
_chemical_formula_structural   Tb5EuFe3(Co5P4)3
_chemical_formula_sum   'Tb5 Eu1 Fe3 Co15 P12'
_cell_volume   474.85550583
_cell_formula_units_Z   1
loop_
 _symmetry_equiv_pos_site_id
 _symmetry_equiv_pos_as_xyz
  1  'x, y, z'
loop_
 _atom_site_type_symbol
 _atom_site_label
 _atom_site_symmetry_multiplicity
 _atom_site_fract_x
 _atom_site_fract_y
 _atom_site_fract_z
 _atom_site_occupancy
  Tb  Tb0  1  0.500000  0.000000  0.477127  1
  Tb  Tb1  1  0.500000  0.816838  0.204749  1
  Tb  Tb2  1  0.500000  0.183162  0.204749  1
  Tb  Tb3  1  0.000000  0.681626  0.795857  1
  Tb  Tb4  1  0.000000  0.318374  0.795857  1
  Eu  Eu5  1  0.000000  0.500000  0.524062  1
  Fe  Fe6  1  0.500000  0.500000  0.155747  1
  Fe  Fe7  1  0.000000  0.000000  0.841716  1
  Fe  Fe8  1  0.000000  0.500000  0.988144  1
  Co  Co9  1  0.500000  0.500000  0.703136  1
  Co  Co10  1  0.000000  0.000000  0.297475  1
  Co  Co11  1  0.500000  0.000000  0.014036  1
  Co  Co12  1  0.500000  0.331460  0.993625  1
  Co  Co13  1  0.500000  0.668540  0.993625  1
  Co  Co14  1  0.000000  0.165824  0.006503  1
  Co  Co15  1  0.000000  0.834176  0.006503  1
  Co  Co16  1  0.500000  0.294913  0.429164  1
  Co  Co17  1  0.500000  0.705087  0.429164  1
  Co  Co18  1  0.000000  0.200943  0.570400  1
  Co  Co19  1  0.000000  0.799057  0.570400  1
  Co  Co20  1  0.500000  0.880627  0.710728  1
  Co  Co21  1  0.500000  0.119373  0.710728  1
  Co  Co22  1  0.000000  0.619969  0.288961  1
  Co  Co23  1  0.000000  0.380031  0.288961  1
  P  P24  1  0.500000  0.500000  0.884516  1
  P  P25  1  0.000000  0.000000  0.117450  1
  P  P26  1  0.500000  0.500000  0.340561  1
  P  P27  1  0.000000  0.000000  0.657561  1
  P  P28  1  0.500000  0.307897  0.616546  1
  P  P29  1  0.500000  0.692103  0.616546  1
  P  P30  1  0.000000  0.189459  0.383726  1
  P  P31  1  0.000000  0.810541  0.383726  1
  P  P32  1  0.500000  0.849413  0.893477  1
  P  P33  1  0.500000  0.150587  0.893477  1
  P  P34  1  0.000000  0.651259  0.105497  1
  P  P35  1  0.000000  0.348741  0.105497  1
