# generated using pymatgen
data_MnTc2Ag6F18
_symmetry_space_group_name_H-M   'P 1'
_cell_length_a   9.90535799
_cell_length_b   9.90865937
_cell_length_c   5.33610003
_cell_angle_alpha   90.10735862
_cell_angle_beta   89.87322352
_cell_angle_gamma   119.97928099
_symmetry_Int_Tables_number   1
_chemical_formula_structural   MnTc2Ag6F18
_chemical_formula_sum   'Mn1 Tc2 Ag6 F18'
_cell_volume   453.65851643
_cell_formula_units_Z   1
loop_
 _symmetry_equiv_pos_site_id
 _symmetry_equiv_pos_as_xyz
  1  'x, y, z'
loop_
 _atom_site_type_symbol
 _atom_site_label
 _atom_site_symmetry_multiplicity
 _atom_site_fract_x
 _atom_site_fract_y
 _atom_site_fract_z
 _atom_site_occupancy
  Mn  Mn0  1  0.666659  0.333256  0.498870  1
  Tc  Tc1  1  0.333298  0.666742  0.500931  1
  Tc  Tc2  1  0.000036  0.000052  0.997798  1
  Ag  Ag3  1  0.990050  0.618130  0.001668  1
  Ag  Ag4  1  0.994381  0.293017  0.502601  1
  Ag  Ag5  1  0.382166  0.372474  0.001320  1
  Ag  Ag6  1  0.299018  0.006162  0.501229  1
  Ag  Ag7  1  0.706929  0.700930  0.502403  1
  Ag  Ag8  1  0.627653  0.009393  0.000826  1
  F  F9  1  0.086674  0.895671  0.792463  1
  F  F10  1  0.223792  0.745766  0.291464  1
  F  F11  1  0.145319  0.554263  0.712532  1
  F  F12  1  0.408433  0.854635  0.712422  1
  F  F13  1  0.254474  0.477974  0.291290  1
  F  F14  1  0.104452  0.190702  0.792662  1
  F  F15  1  0.190461  0.104864  0.203513  1
  F  F16  1  0.445740  0.591533  0.712402  1
  F  F17  1  0.522075  0.776093  0.291126  1
  F  F18  1  0.487595  0.259729  0.699810  1
  F  F19  1  0.594886  0.440015  0.297770  1
  F  F20  1  0.809329  0.913549  0.792696  1
  F  F21  1  0.560035  0.154501  0.297573  1
  F  F22  1  0.771626  0.512116  0.699929  1
  F  F23  1  0.914155  0.809535  0.203449  1
  F  F24  1  0.740154  0.228084  0.699679  1
  F  F25  1  0.845603  0.405031  0.297752  1
  F  F26  1  0.895009  0.085781  0.203825  1
