# generated using pymatgen
data_Y8Sc12In7Sb9
_symmetry_space_group_name_H-M   'P 1'
_cell_length_a   7.82844700
_cell_length_b   7.84463699
_cell_length_c   14.75218600
_cell_angle_alpha   90.00000000
_cell_angle_beta   90.00000000
_cell_angle_gamma   90.15304433
_symmetry_Int_Tables_number   1
_chemical_formula_structural   Y8Sc12In7Sb9
_chemical_formula_sum   'Y8 Sc12 In7 Sb9'
_cell_volume   905.94805511
_cell_formula_units_Z   1
loop_
 _symmetry_equiv_pos_site_id
 _symmetry_equiv_pos_as_xyz
  1  'x, y, z'
loop_
 _atom_site_type_symbol
 _atom_site_label
 _atom_site_symmetry_multiplicity
 _atom_site_fract_x
 _atom_site_fract_y
 _atom_site_fract_z
 _atom_site_occupancy
  Y  Y0  1  0.523964  0.318456  0.902577  1
  Y  Y1  1  0.023562  0.181922  0.593272  1
  Y  Y2  1  0.477557  0.683534  0.406239  1
  Y  Y3  1  0.978333  0.817450  0.093405  1
  Y  Y4  1  0.477557  0.683534  0.093761  1
  Y  Y5  1  0.978333  0.817450  0.406595  1
  Y  Y6  1  0.523964  0.318456  0.597423  1
  Y  Y7  1  0.023562  0.181922  0.906728  1
  Sc  Sc8  1  0.362739  0.843297  0.875863  1
  Sc  Sc9  1  0.863306  0.656560  0.626001  1
  Sc  Sc10  1  0.636269  0.158191  0.376373  1
  Sc  Sc11  1  0.134385  0.342357  0.123986  1
  Sc  Sc12  1  0.636269  0.158191  0.123627  1
  Sc  Sc13  1  0.134385  0.342357  0.376014  1
  Sc  Sc14  1  0.362739  0.843297  0.624137  1
  Sc  Sc15  1  0.863306  0.656560  0.873999  1
  Sc  Sc16  1  0.189749  0.505327  0.750000  1
  Sc  Sc17  1  0.688963  0.997124  0.750000  1
  Sc  Sc18  1  0.807959  0.494902  0.250000  1
  Sc  Sc19  1  0.308113  0.006734  0.250000  1
  In  In20  1  0.058939  0.877948  0.750000  1
  In  In21  1  0.439264  0.379405  0.250000  1
  In  In22  1  0.939211  0.121015  0.250000  1
  In  In23  1  0.322483  0.143297  0.750000  1
  In  In24  1  0.832895  0.347765  0.750000  1
  In  In25  1  0.677201  0.857333  0.250000  1
  In  In26  1  0.177244  0.643046  0.250000  1
  Sb  Sb27  1  0.295030  0.043645  0.044840  1
  Sb  Sb28  1  0.793238  0.457450  0.456482  1
  Sb  Sb29  1  0.705027  0.955073  0.544848  1
  Sb  Sb30  1  0.206573  0.542292  0.955151  1
  Sb  Sb31  1  0.705027  0.955073  0.955152  1
  Sb  Sb32  1  0.206573  0.542292  0.544849  1
  Sb  Sb33  1  0.295030  0.043645  0.455160  1
  Sb  Sb34  1  0.793238  0.457450  0.043518  1
  Sb  Sb35  1  0.558010  0.625646  0.750000  1
