# generated using pymatgen
data_SrDy(Al5Ru)4
_symmetry_space_group_name_H-M   'P 1'
_cell_length_a   6.89400204
_cell_length_b   6.89400249
_cell_length_c   9.18677800
_cell_angle_alpha   90.00000000
_cell_angle_beta   90.00000000
_cell_angle_gamma   96.82251455
_symmetry_Int_Tables_number   1
_chemical_formula_structural   SrDy(Al5Ru)4
_chemical_formula_sum   'Sr1 Dy1 Al20 Ru4'
_cell_volume   433.53068769
_cell_formula_units_Z   1
loop_
 _symmetry_equiv_pos_site_id
 _symmetry_equiv_pos_as_xyz
  1  'x, y, z'
loop_
 _atom_site_type_symbol
 _atom_site_label
 _atom_site_symmetry_multiplicity
 _atom_site_fract_x
 _atom_site_fract_y
 _atom_site_fract_z
 _atom_site_occupancy
  Sr  Sr0  1  0.877337  0.122663  0.750000  1
  Dy  Dy1  1  0.125641  0.874359  0.250000  1
  Al  Al2  1  0.622790  0.377210  0.542106  1
  Al  Al3  1  0.376959  0.623041  0.448050  1
  Al  Al4  1  0.376959  0.623041  0.051950  1
  Al  Al5  1  0.622790  0.377210  0.957894  1
  Al  Al6  1  0.226047  0.227105  0.496905  1
  Al  Al7  1  0.772895  0.773953  0.496905  1
  Al  Al8  1  0.772895  0.773953  0.003095  1
  Al  Al9  1  0.226047  0.227105  0.003095  1
  Al  Al10  1  0.844756  0.155244  0.101116  1
  Al  Al11  1  0.161397  0.838603  0.901293  1
  Al  Al12  1  0.161397  0.838603  0.598707  1
  Al  Al13  1  0.844756  0.155244  0.398884  1
  Al  Al14  1  0.860776  0.592081  0.750000  1
  Al  Al15  1  0.139796  0.415947  0.250000  1
  Al  Al16  1  0.407919  0.139224  0.750000  1
  Al  Al17  1  0.584053  0.860204  0.250000  1
  Al  Al18  1  0.221835  0.479171  0.750000  1
  Al  Al19  1  0.780032  0.521202  0.250000  1
  Al  Al20  1  0.520829  0.778165  0.750000  1
  Al  Al21  1  0.478798  0.219968  0.250000  1
  Ru  Ru22  1  0.999695  0.503047  0.497873  1
  Ru  Ru23  1  0.999695  0.503047  0.002127  1
  Ru  Ru24  1  0.496953  0.000305  0.002127  1
  Ru  Ru25  1  0.496953  0.000305  0.497873  1
