# generated using pymatgen
data_SmMg2Ni7B2
_symmetry_space_group_name_H-M   'P 1'
_cell_length_a   5.00801104
_cell_length_b   5.00801121
_cell_length_c   7.50377963
_cell_angle_alpha   109.53136126
_cell_angle_beta   109.53135833
_cell_angle_gamma   59.92623096
_symmetry_Int_Tables_number   1
_chemical_formula_structural   SmMg2Ni7B2
_chemical_formula_sum   'Sm1 Mg2 Ni7 B2'
_cell_volume   150.24623395
_cell_formula_units_Z   1
loop_
 _symmetry_equiv_pos_site_id
 _symmetry_equiv_pos_as_xyz
  1  'x, y, z'
loop_
 _atom_site_type_symbol
 _atom_site_label
 _atom_site_symmetry_multiplicity
 _atom_site_fract_x
 _atom_site_fract_y
 _atom_site_fract_z
 _atom_site_occupancy
  Sm  Sm0  1  0.500000  0.500000  0.500001  1
  Mg  Mg1  1  0.350477  0.350477  0.050076  1
  Mg  Mg2  1  0.649523  0.649523  0.949924  1
  Ni  Ni3  1  0.000000  0.000000  0.000000  1
  Ni  Ni4  1  0.931101  0.931101  0.290950  1
  Ni  Ni5  1  0.931205  0.427839  0.291524  1
  Ni  Ni6  1  0.427839  0.931205  0.291524  1
  Ni  Ni7  1  0.572160  0.068794  0.708476  1
  Ni  Ni8  1  0.068794  0.572160  0.708476  1
  Ni  Ni9  1  0.068898  0.068898  0.709050  1
  B  B10  1  0.832942  0.832942  0.498274  1
  B  B11  1  0.167057  0.167057  0.501726  1
