# generated using pymatgen
data_GdMo2O7F
_symmetry_space_group_name_H-M   'P 1'
_cell_length_a   6.70868900
_cell_length_b   4.43381853
_cell_length_c   11.58622326
_cell_angle_alpha   89.59622153
_cell_angle_beta   90.00000000
_cell_angle_gamma   90.00000000
_symmetry_Int_Tables_number   1
_chemical_formula_structural   GdMo2O7F
_chemical_formula_sum   'Gd2 Mo4 O14 F2'
_cell_volume   344.62492305
_cell_formula_units_Z   2
loop_
 _symmetry_equiv_pos_site_id
 _symmetry_equiv_pos_as_xyz
  1  'x, y, z'
loop_
 _atom_site_type_symbol
 _atom_site_label
 _atom_site_symmetry_multiplicity
 _atom_site_fract_x
 _atom_site_fract_y
 _atom_site_fract_z
 _atom_site_occupancy
  Gd  Gd0  1  0.803377  0.000000  0.750000  1
  Gd  Gd1  1  0.196623  0.000000  0.250000  1
  Mo  Mo2  1  0.335001  0.900530  0.594639  1
  Mo  Mo3  1  0.335001  0.099470  0.905361  1
  Mo  Mo4  1  0.664999  0.099470  0.405361  1
  Mo  Mo5  1  0.664999  0.900530  0.094639  1
  O  O6  1  0.343159  0.510573  0.597215  1
  O  O7  1  0.343159  0.489427  0.902785  1
  O  O8  1  0.656841  0.489427  0.402785  1
  O  O9  1  0.656841  0.510573  0.097215  1
  O  O10  1  0.082941  0.984870  0.626968  1
  O  O11  1  0.082941  0.015130  0.873032  1
  O  O12  1  0.917059  0.015130  0.373032  1
  O  O13  1  0.917059  0.984870  0.126968  1
  O  O14  1  0.647929  0.001432  0.565791  1
  O  O15  1  0.647929  0.998568  0.934209  1
  O  O16  1  0.352071  0.998568  0.434209  1
  O  O17  1  0.352071  0.001432  0.065791  1
  O  O18  1  0.440657  0.000000  0.750000  1
  O  O19  1  0.559343  0.000000  0.250000  1
  F  F20  1  0.802863  0.500000  0.750000  1
  F  F21  1  0.197137  0.500000  0.250000  1
