# generated using pymatgen
data_Sm8Ga(Pd11Au)2
_symmetry_space_group_name_H-M   'P 1'
_cell_length_a   8.41867300
_cell_length_b   8.51904100
_cell_length_c   8.47428900
_cell_angle_alpha   90.00000000
_cell_angle_beta   90.00000000
_cell_angle_gamma   90.00000000
_symmetry_Int_Tables_number   1
_chemical_formula_structural   Sm8Ga(Pd11Au)2
_chemical_formula_sum   'Sm8 Ga1 Pd22 Au2'
_cell_volume   607.76770611
_cell_formula_units_Z   1
loop_
 _symmetry_equiv_pos_site_id
 _symmetry_equiv_pos_as_xyz
  1  'x, y, z'
loop_
 _atom_site_type_symbol
 _atom_site_label
 _atom_site_symmetry_multiplicity
 _atom_site_fract_x
 _atom_site_fract_y
 _atom_site_fract_z
 _atom_site_occupancy
  Sm  Sm0  1  0.251749  0.248419  0.256316  1
  Sm  Sm1  1  0.748251  0.751581  0.743684  1
  Sm  Sm2  1  0.748251  0.751581  0.256316  1
  Sm  Sm3  1  0.748251  0.248419  0.743684  1
  Sm  Sm4  1  0.251749  0.248419  0.743684  1
  Sm  Sm5  1  0.251749  0.751581  0.256316  1
  Sm  Sm6  1  0.251749  0.751581  0.743684  1
  Sm  Sm7  1  0.748251  0.248419  0.256316  1
  Ga  Ga8  1  0.000000  0.000000  0.000000  1
  Pd  Pd9  1  0.000000  0.259810  0.500000  1
  Pd  Pd10  1  0.500000  0.257991  0.000000  1
  Pd  Pd11  1  0.000000  0.740190  0.500000  1
  Pd  Pd12  1  0.500000  0.742009  0.000000  1
  Pd  Pd13  1  0.500000  0.000000  0.259873  1
  Pd  Pd14  1  0.260671  0.000000  0.500000  1
  Pd  Pd15  1  0.500000  0.000000  0.740127  1
  Pd  Pd16  1  0.739329  0.000000  0.500000  1
  Pd  Pd17  1  0.000000  0.500000  0.260365  1
  Pd  Pd18  1  0.000000  0.500000  0.739635  1
  Pd  Pd19  1  0.253303  0.500000  0.500000  1
  Pd  Pd20  1  0.746697  0.500000  0.500000  1
  Pd  Pd21  1  0.500000  0.253090  0.500000  1
  Pd  Pd22  1  0.500000  0.746910  0.500000  1
  Pd  Pd23  1  0.500000  0.500000  0.255355  1
  Pd  Pd24  1  0.500000  0.500000  0.744645  1
  Pd  Pd25  1  0.293431  0.000000  0.000000  1
  Pd  Pd26  1  0.706569  0.000000  0.000000  1
  Pd  Pd27  1  0.000000  0.289712  0.000000  1
  Pd  Pd28  1  0.000000  0.710288  0.000000  1
  Pd  Pd29  1  0.000000  0.000000  0.291668  1
  Pd  Pd30  1  0.000000  0.000000  0.708332  1
  Au  Au31  1  0.261909  0.500000  0.000000  1
  Au  Au32  1  0.738091  0.500000  0.000000  1
