# generated using pymatgen
data_Sm3InPd(PtAu)2
_symmetry_space_group_name_H-M   'P 1'
_cell_length_a   7.70933972
_cell_length_b   7.70933969
_cell_length_c   3.88840400
_cell_angle_alpha   90.00000000
_cell_angle_beta   90.00000000
_cell_angle_gamma   121.02228739
_symmetry_Int_Tables_number   1
_chemical_formula_structural   Sm3InPd(PtAu)2
_chemical_formula_sum   'Sm3 In1 Pd1 Pt2 Au2'
_cell_volume   198.04769442
_cell_formula_units_Z   1
loop_
 _symmetry_equiv_pos_site_id
 _symmetry_equiv_pos_as_xyz
  1  'x, y, z'
loop_
 _atom_site_type_symbol
 _atom_site_label
 _atom_site_symmetry_multiplicity
 _atom_site_fract_x
 _atom_site_fract_y
 _atom_site_fract_z
 _atom_site_occupancy
  Sm  Sm0  1  0.600029  0.012689  0.500000  1
  Sm  Sm1  1  0.012689  0.600029  0.500000  1
  Sm  Sm2  1  0.380951  0.380951  0.500000  1
  In  In3  1  0.742778  0.742778  0.000000  1
  Pd  Pd4  1  0.986526  0.986526  0.500000  1
  Pt  Pt5  1  0.348092  0.670217  0.000000  1
  Pt  Pt6  1  0.670217  0.348092  0.000000  1
  Au  Au7  1  0.262520  0.996196  0.000000  1
  Au  Au8  1  0.996196  0.262520  0.000000  1
