# generated using pymatgen
data_Tm6Lu4Si5Sb
_symmetry_space_group_name_H-M   'P 1'
_cell_length_a   8.36417500
_cell_length_b   8.38718614
_cell_length_c   6.19084100
_cell_angle_alpha   90.00000000
_cell_angle_beta   90.00000000
_cell_angle_gamma   119.90929549
_symmetry_Int_Tables_number   1
_chemical_formula_structural   Tm6Lu4Si5Sb
_chemical_formula_sum   'Tm6 Lu4 Si5 Sb1'
_cell_volume   376.45744765
_cell_formula_units_Z   1
loop_
 _symmetry_equiv_pos_site_id
 _symmetry_equiv_pos_as_xyz
  1  'x, y, z'
loop_
 _atom_site_type_symbol
 _atom_site_label
 _atom_site_symmetry_multiplicity
 _atom_site_fract_x
 _atom_site_fract_y
 _atom_site_fract_z
 _atom_site_occupancy
  Tm  Tm0  1  0.765433  0.000000  0.750000  1
  Tm  Tm1  1  0.756041  0.756700  0.250000  1
  Tm  Tm2  1  0.999341  0.243300  0.250000  1
  Tm  Tm3  1  0.987532  0.747811  0.750000  1
  Tm  Tm4  1  0.239721  0.252189  0.750000  1
  Tm  Tm5  1  0.240811  0.000000  0.250000  1
  Lu  Lu6  1  0.674509  0.343063  0.003486  1
  Lu  Lu7  1  0.331445  0.656937  0.496514  1
  Lu  Lu8  1  0.331445  0.656937  0.003486  1
  Lu  Lu9  1  0.674509  0.343063  0.496514  1
  Si  Si10  1  0.394293  0.392071  0.250000  1
  Si  Si11  1  0.002223  0.607929  0.250000  1
  Si  Si12  1  0.998890  0.395130  0.750000  1
  Si  Si13  1  0.603761  0.604870  0.750000  1
  Si  Si14  1  0.606331  0.000000  0.250000  1
  Sb  Sb15  1  0.393718  0.000000  0.750000  1
