# generated using pymatgen
data_ErTm5TcOs
_symmetry_space_group_name_H-M   'P 1'
_cell_length_a   6.21580400
_cell_length_b   7.36431400
_cell_length_c   8.94921300
_cell_angle_alpha   90.00000000
_cell_angle_beta   90.00000000
_cell_angle_gamma   90.00000000
_symmetry_Int_Tables_number   1
_chemical_formula_structural   ErTm5TcOs
_chemical_formula_sum   'Er2 Tm10 Tc2 Os2'
_cell_volume   409.65141012
_cell_formula_units_Z   2
loop_
 _symmetry_equiv_pos_site_id
 _symmetry_equiv_pos_as_xyz
  1  'x, y, z'
loop_
 _atom_site_type_symbol
 _atom_site_label
 _atom_site_symmetry_multiplicity
 _atom_site_fract_x
 _atom_site_fract_y
 _atom_site_fract_z
 _atom_site_occupancy
  Er  Er0  1  0.876042  0.539108  0.250000  1
  Er  Er1  1  0.623958  0.039108  0.250000  1
  Tm  Tm2  1  0.337383  0.674751  0.061904  1
  Tm  Tm3  1  0.162617  0.174751  0.438096  1
  Tm  Tm4  1  0.664430  0.324935  0.562892  1
  Tm  Tm5  1  0.835570  0.824935  0.937108  1
  Tm  Tm6  1  0.664430  0.324935  0.937108  1
  Tm  Tm7  1  0.835570  0.824935  0.562892  1
  Tm  Tm8  1  0.337383  0.674751  0.438096  1
  Tm  Tm9  1  0.162617  0.174751  0.061904  1
  Tm  Tm10  1  0.129611  0.459647  0.750000  1
  Tm  Tm11  1  0.370389  0.959647  0.750000  1
  Tc  Tc12  1  0.039324  0.883642  0.250000  1
  Tc  Tc13  1  0.460676  0.383642  0.250000  1
  Os  Os14  1  0.959936  0.118230  0.750000  1
  Os  Os15  1  0.540064  0.618230  0.750000  1
