# generated using pymatgen
data_Hf16Sc2Re5P2W3
_symmetry_space_group_name_H-M   'P 1'
_cell_length_a   8.65343165
_cell_length_b   8.64411060
_cell_length_c   8.55948000
_cell_angle_alpha   90.00000000
_cell_angle_beta   90.00000000
_cell_angle_gamma   120.08045387
_symmetry_Int_Tables_number   1
_chemical_formula_structural   Hf16Sc2Re5P2W3
_chemical_formula_sum   'Hf16 Sc2 Re5 P2 W3'
_cell_volume   554.03096617
_cell_formula_units_Z   1
loop_
 _symmetry_equiv_pos_site_id
 _symmetry_equiv_pos_as_xyz
  1  'x, y, z'
loop_
 _atom_site_type_symbol
 _atom_site_label
 _atom_site_symmetry_multiplicity
 _atom_site_fract_x
 _atom_site_fract_y
 _atom_site_fract_z
 _atom_site_occupancy
  Hf  Hf0  1  0.196535  0.803407  0.451604  1
  Hf  Hf1  1  0.196503  0.393054  0.451883  1
  Hf  Hf2  1  0.607910  0.803907  0.451197  1
  Hf  Hf3  1  0.803454  0.196243  0.550379  1
  Hf  Hf4  1  0.803404  0.607549  0.549297  1
  Hf  Hf5  1  0.392158  0.196211  0.549429  1
  Hf  Hf6  1  0.803454  0.196243  0.949621  1
  Hf  Hf7  1  0.803404  0.607549  0.950703  1
  Hf  Hf8  1  0.392158  0.196211  0.950571  1
  Hf  Hf9  1  0.196535  0.803407  0.048396  1
  Hf  Hf10  1  0.196503  0.393054  0.048117  1
  Hf  Hf11  1  0.607910  0.803907  0.048803  1
  Hf  Hf12  1  0.539557  0.460090  0.250000  1
  Hf  Hf13  1  0.538864  0.079063  0.250000  1
  Hf  Hf14  1  0.921469  0.461261  0.250000  1
  Hf  Hf15  1  0.078003  0.539190  0.750000  1
  Sc  Sc16  1  0.459366  0.540406  0.750000  1
  Sc  Sc17  1  0.459216  0.918852  0.750000  1
  Re  Re18  1  0.889275  0.778890  0.250000  1
  Re  Re19  1  0.221329  0.111105  0.250000  1
  Re  Re20  1  0.110497  0.889107  0.750000  1
  Re  Re21  1  0.111095  0.221999  0.750000  1
  Re  Re22  1  0.778836  0.889084  0.750000  1
  P  P23  1  0.333121  0.667274  0.250000  1
  P  P24  1  0.667776  0.334280  0.750000  1
  W  W25  1  0.890726  0.109853  0.250000  1
  W  W26  1  0.000472  0.999401  0.501987  1
  W  W27  1  0.000472  0.999401  0.998013  1
