# generated using pymatgen
data_Pa2PdSe6
_symmetry_space_group_name_H-M   'P 1'
_cell_length_a   7.59599188
_cell_length_b   7.59599230
_cell_length_c   11.50242934
_cell_angle_alpha   58.55728555
_cell_angle_beta   58.55728356
_cell_angle_gamma   29.85272999
_symmetry_Int_Tables_number   1
_chemical_formula_structural   Pa2PdSe6
_chemical_formula_sum   'Pa2 Pd1 Se6'
_cell_volume   278.08291130
_cell_formula_units_Z   1
loop_
 _symmetry_equiv_pos_site_id
 _symmetry_equiv_pos_as_xyz
  1  'x, y, z'
loop_
 _atom_site_type_symbol
 _atom_site_label
 _atom_site_symmetry_multiplicity
 _atom_site_fract_x
 _atom_site_fract_y
 _atom_site_fract_z
 _atom_site_occupancy
  Pa  Pa0  1  0.319577  0.319577  0.293820  1
  Pa  Pa1  1  0.680423  0.680423  0.706180  1
  Pd  Pd2  1  0.000000  0.000000  0.000000  1
  Se  Se3  1  0.800362  0.800362  0.125137  1
  Se  Se4  1  0.199638  0.199638  0.874863  1
  Se  Se5  1  0.338424  0.338424  0.530328  1
  Se  Se6  1  0.982907  0.982907  0.227328  1
  Se  Se7  1  0.017093  0.017093  0.772672  1
  Se  Se8  1  0.661576  0.661576  0.469672  1
