# generated using pymatgen
data_Ba4Si8IrOs4Pt3
_symmetry_space_group_name_H-M   'P 1'
_cell_length_a   6.76678590
_cell_length_b   7.83272081
_cell_length_c   8.03496889
_cell_angle_alpha   88.38651910
_cell_angle_beta   89.88004818
_cell_angle_gamma   90.00786157
_symmetry_Int_Tables_number   1
_chemical_formula_structural   Ba4Si8IrOs4Pt3
_chemical_formula_sum   'Ba4 Si8 Ir1 Os4 Pt3'
_cell_volume   425.70239937
_cell_formula_units_Z   1
loop_
 _symmetry_equiv_pos_site_id
 _symmetry_equiv_pos_as_xyz
  1  'x, y, z'
loop_
 _atom_site_type_symbol
 _atom_site_label
 _atom_site_symmetry_multiplicity
 _atom_site_fract_x
 _atom_site_fract_y
 _atom_site_fract_z
 _atom_site_occupancy
  Ba  Ba0  1  0.382158  0.004475  0.260123  1
  Ba  Ba1  1  0.883515  0.494744  0.742201  1
  Ba  Ba2  1  0.117110  0.505002  0.261960  1
  Ba  Ba3  1  0.618109  0.996384  0.741663  1
  Si  Si4  1  0.344414  0.314070  0.941545  1
  Si  Si5  1  0.068557  0.129603  0.580161  1
  Si  Si6  1  0.577765  0.368144  0.418194  1
  Si  Si7  1  0.922682  0.878518  0.417575  1
  Si  Si8  1  0.851063  0.187310  0.062999  1
  Si  Si9  1  0.653718  0.685628  0.058430  1
  Si  Si10  1  0.152649  0.813041  0.940145  1
  Si  Si11  1  0.428177  0.626562  0.582456  1
  Ir  Ir12  1  0.835477  0.173483  0.363878  1
  Os  Os13  1  0.103623  0.110532  0.876443  1
  Os  Os14  1  0.603075  0.388280  0.120949  1
  Os  Os15  1  0.895885  0.888267  0.121112  1
  Os  Os16  1  0.396144  0.611047  0.878147  1
  Pt  Pt17  1  0.333703  0.326514  0.634038  1
  Pt  Pt18  1  0.666621  0.672754  0.365633  1
  Pt  Pt19  1  0.165556  0.825641  0.632349  1
