# generated using pymatgen
data_Li2CaHoSi4
_symmetry_space_group_name_H-M   'P 1'
_cell_length_a   3.78356400
_cell_length_b   7.79005632
_cell_length_c   10.40990339
_cell_angle_alpha   89.35075212
_cell_angle_beta   90.00000000
_cell_angle_gamma   90.00000000
_symmetry_Int_Tables_number   1
_chemical_formula_structural   Li2CaHoSi4
_chemical_formula_sum   'Li4 Ca2 Ho2 Si8'
_cell_volume   306.80363303
_cell_formula_units_Z   2
loop_
 _symmetry_equiv_pos_site_id
 _symmetry_equiv_pos_as_xyz
  1  'x, y, z'
loop_
 _atom_site_type_symbol
 _atom_site_label
 _atom_site_symmetry_multiplicity
 _atom_site_fract_x
 _atom_site_fract_y
 _atom_site_fract_z
 _atom_site_occupancy
  Li  Li0  1  0.250000  0.999077  0.389602  1
  Li  Li1  1  0.750000  0.000923  0.610398  1
  Li  Li2  1  0.250000  0.491371  0.110362  1
  Li  Li3  1  0.750000  0.508629  0.889638  1
  Ca  Ca4  1  0.250000  0.636868  0.634885  1
  Ca  Ca5  1  0.750000  0.363132  0.365115  1
  Ho  Ho6  1  0.250000  0.129755  0.865075  1
  Ho  Ho7  1  0.750000  0.870245  0.134925  1
  Si  Si8  1  0.750000  0.261826  0.061330  1
  Si  Si9  1  0.250000  0.738174  0.938670  1
  Si  Si10  1  0.750000  0.773805  0.426470  1
  Si  Si11  1  0.250000  0.226195  0.573530  1
  Si  Si12  1  0.750000  0.844060  0.827370  1
  Si  Si13  1  0.250000  0.155940  0.172630  1
  Si  Si14  1  0.750000  0.330993  0.684047  1
  Si  Si15  1  0.250000  0.669007  0.315953  1
