# generated using pymatgen
data_La6Dy(YRh3)2
_symmetry_space_group_name_H-M   'P 1'
_cell_length_a   7.64464077
_cell_length_b   7.64464059
_cell_length_c   7.64464173
_cell_angle_alpha   70.93603517
_cell_angle_beta   70.93602478
_cell_angle_gamma   70.93602795
_symmetry_Int_Tables_number   1
_chemical_formula_structural   La6Dy(YRh3)2
_chemical_formula_sum   'La6 Dy1 Y2 Rh6'
_cell_volume   386.81033743
_cell_formula_units_Z   1
loop_
 _symmetry_equiv_pos_site_id
 _symmetry_equiv_pos_as_xyz
  1  'x, y, z'
loop_
 _atom_site_type_symbol
 _atom_site_label
 _atom_site_symmetry_multiplicity
 _atom_site_fract_x
 _atom_site_fract_y
 _atom_site_fract_z
 _atom_site_occupancy
  La  La0  1  0.159924  0.388797  0.671233  1
  La  La1  1  0.671233  0.159924  0.388797  1
  La  La2  1  0.388797  0.671233  0.159924  1
  La  La3  1  0.840076  0.611203  0.328767  1
  La  La4  1  0.328767  0.840076  0.611203  1
  La  La5  1  0.611203  0.328767  0.840076  1
  Dy  Dy6  1  0.000000  0.000000  0.000000  1
  Y  Y7  1  0.801904  0.801904  0.801904  1
  Y  Y8  1  0.198096  0.198096  0.198096  1
  Rh  Rh9  1  0.957192  0.161488  0.593357  1
  Rh  Rh10  1  0.593357  0.957192  0.161488  1
  Rh  Rh11  1  0.161488  0.593357  0.957192  1
  Rh  Rh12  1  0.042808  0.838512  0.406643  1
  Rh  Rh13  1  0.406643  0.042808  0.838512  1
  Rh  Rh14  1  0.838512  0.406643  0.042808  1
