# generated using pymatgen
data_SrFe2(Sb6Ir)2
_symmetry_space_group_name_H-M   'P 1'
_cell_length_a   8.05835134
_cell_length_b   8.08722126
_cell_length_c   8.05835075
_cell_angle_alpha   109.43839111
_cell_angle_beta   109.36201665
_cell_angle_gamma   109.46827526
_symmetry_Int_Tables_number   1
_chemical_formula_structural   SrFe2(Sb6Ir)2
_chemical_formula_sum   'Sr1 Fe2 Sb12 Ir2'
_cell_volume   404.98984151
_cell_formula_units_Z   1
loop_
 _symmetry_equiv_pos_site_id
 _symmetry_equiv_pos_as_xyz
  1  'x, y, z'
loop_
 _atom_site_type_symbol
 _atom_site_label
 _atom_site_symmetry_multiplicity
 _atom_site_fract_x
 _atom_site_fract_y
 _atom_site_fract_z
 _atom_site_occupancy
  Sr  Sr0  1  0.000000  0.000000  0.000000  1
  Fe  Fe1  1  0.000000  0.500000  0.000000  1
  Fe  Fe2  1  0.500000  0.500000  0.500000  1
  Sb  Sb3  1  0.344931  0.190320  0.845388  1
  Sb  Sb4  1  0.655069  0.809680  0.154612  1
  Sb  Sb5  1  0.666607  0.503700  0.837092  1
  Sb  Sb6  1  0.333393  0.496300  0.162908  1
  Sb  Sb7  1  0.179693  0.833653  0.331393  1
  Sb  Sb8  1  0.820307  0.166347  0.668607  1
  Sb  Sb9  1  0.502261  0.833653  0.653959  1
  Sb  Sb10  1  0.497739  0.166347  0.346041  1
  Sb  Sb11  1  0.848204  0.346379  0.179672  1
  Sb  Sb12  1  0.151796  0.653621  0.820328  1
  Sb  Sb13  1  0.833292  0.653621  0.501825  1
  Sb  Sb14  1  0.166708  0.346379  0.498175  1
  Ir  Ir15  1  0.000000  0.000000  0.500000  1
  Ir  Ir16  1  0.500000  0.000000  0.000000  1
