# generated using pymatgen
data_Ca2Yb5CeBi6
_symmetry_space_group_name_H-M   'P 1'
_cell_length_a   8.38002373
_cell_length_b   8.28658004
_cell_length_c   8.37750214
_cell_angle_alpha   109.24946506
_cell_angle_beta   109.69852454
_cell_angle_gamma   109.24591570
_symmetry_Int_Tables_number   1
_chemical_formula_structural   Ca2Yb5CeBi6
_chemical_formula_sum   'Ca2 Yb5 Ce1 Bi6'
_cell_volume   449.03353624
_cell_formula_units_Z   1
loop_
 _symmetry_equiv_pos_site_id
 _symmetry_equiv_pos_as_xyz
  1  'x, y, z'
loop_
 _atom_site_type_symbol
 _atom_site_label
 _atom_site_symmetry_multiplicity
 _atom_site_fract_x
 _atom_site_fract_y
 _atom_site_fract_z
 _atom_site_occupancy
  Ca  Ca0  1  0.639728  0.642751  0.645645  1
  Ca  Ca1  1  0.854069  0.496546  0.994096  1
  Yb  Yb2  1  0.505463  0.002614  0.859940  1
  Yb  Yb3  1  0.500298  0.000820  0.351082  1
  Yb  Yb4  1  0.350856  0.500440  0.999704  1
  Yb  Yb5  1  0.000039  0.352624  0.499992  1
  Yb  Yb6  1  0.148707  0.149669  0.149077  1
  Ce  Ce7  1  0.000628  0.851742  0.500449  1
  Bi  Bi8  1  0.753501  0.873513  0.129508  1
  Bi  Bi9  1  0.370569  0.243583  0.624159  1
  Bi  Bi10  1  0.245450  0.629384  0.375997  1
  Bi  Bi11  1  0.875628  0.119410  0.746317  1
  Bi  Bi12  1  0.630113  0.383291  0.254231  1
  Bi  Bi13  1  0.124952  0.753611  0.869803  1
