# generated using pymatgen
data_TbFeP3Ir3W
_symmetry_space_group_name_H-M   'P 1'
_cell_length_a   3.94063000
_cell_length_b   10.74305700
_cell_length_c   12.40400900
_cell_angle_alpha   90.00000000
_cell_angle_beta   90.00000000
_cell_angle_gamma   90.00000000
_symmetry_Int_Tables_number   1
_chemical_formula_structural   TbFeP3Ir3W
_chemical_formula_sum   'Tb4 Fe4 P12 Ir12 W4'
_cell_volume   525.11643621
_cell_formula_units_Z   4
loop_
 _symmetry_equiv_pos_site_id
 _symmetry_equiv_pos_as_xyz
  1  'x, y, z'
loop_
 _atom_site_type_symbol
 _atom_site_label
 _atom_site_symmetry_multiplicity
 _atom_site_fract_x
 _atom_site_fract_y
 _atom_site_fract_z
 _atom_site_occupancy
  Tb  Tb0  1  0.250000  0.582440  0.709878  1
  Tb  Tb1  1  0.250000  0.917560  0.209878  1
  Tb  Tb2  1  0.750000  0.417560  0.290122  1
  Tb  Tb3  1  0.750000  0.082440  0.790122  1
  Fe  Fe4  1  0.250000  0.460170  0.937636  1
  Fe  Fe5  1  0.250000  0.039830  0.437636  1
  Fe  Fe6  1  0.750000  0.539830  0.062364  1
  Fe  Fe7  1  0.750000  0.960170  0.562364  1
  P  P8  1  0.250000  0.426717  0.106835  1
  P  P9  1  0.250000  0.073283  0.606835  1
  P  P10  1  0.750000  0.573283  0.893165  1
  P  P11  1  0.750000  0.926717  0.393165  1
  P  P12  1  0.250000  0.270169  0.871352  1
  P  P13  1  0.250000  0.229831  0.371352  1
  P  P14  1  0.750000  0.729831  0.128648  1
  P  P15  1  0.750000  0.770169  0.628648  1
  P  P16  1  0.250000  0.598514  0.390815  1
  P  P17  1  0.250000  0.901486  0.890815  1
  P  P18  1  0.750000  0.401486  0.609185  1
  P  P19  1  0.750000  0.098514  0.109185  1
  Ir  Ir20  1  0.250000  0.404372  0.483012  1
  Ir  Ir21  1  0.250000  0.095628  0.983012  1
  Ir  Ir22  1  0.750000  0.595628  0.516988  1
  Ir  Ir23  1  0.750000  0.904372  0.016988  1
  Ir  Ir24  1  0.250000  0.233776  0.180099  1
  Ir  Ir25  1  0.250000  0.266224  0.680099  1
  Ir  Ir26  1  0.750000  0.766224  0.819901  1
  Ir  Ir27  1  0.750000  0.733776  0.319901  1
  Ir  Ir28  1  0.250000  0.888086  0.700287  1
  Ir  Ir29  1  0.250000  0.611914  0.200287  1
  Ir  Ir30  1  0.750000  0.111914  0.299713  1
  Ir  Ir31  1  0.750000  0.388086  0.799713  1
  W  W32  1  0.250000  0.705071  0.984549  1
  W  W33  1  0.250000  0.794929  0.484549  1
  W  W34  1  0.750000  0.294929  0.015451  1
  W  W35  1  0.750000  0.205071  0.515451  1
