# generated using pymatgen
data_Li4PrNd(SmSi4)2
_symmetry_space_group_name_H-M   'P 1'
_cell_length_a   3.87024700
_cell_length_b   7.70734475
_cell_length_c   10.45729080
_cell_angle_alpha   89.82189845
_cell_angle_beta   90.00000000
_cell_angle_gamma   90.00000000
_symmetry_Int_Tables_number   1
_chemical_formula_structural   Li4PrNd(SmSi4)2
_chemical_formula_sum   'Li4 Pr1 Nd1 Sm2 Si8'
_cell_volume   311.93244924
_cell_formula_units_Z   1
loop_
 _symmetry_equiv_pos_site_id
 _symmetry_equiv_pos_as_xyz
  1  'x, y, z'
loop_
 _atom_site_type_symbol
 _atom_site_label
 _atom_site_symmetry_multiplicity
 _atom_site_fract_x
 _atom_site_fract_y
 _atom_site_fract_z
 _atom_site_occupancy
  Li  Li0  1  0.250000  0.995472  0.389782  1
  Li  Li1  1  0.750000  0.005621  0.609893  1
  Li  Li2  1  0.250000  0.492624  0.109184  1
  Li  Li3  1  0.750000  0.506433  0.891824  1
  Pr  Pr4  1  0.250000  0.639369  0.635580  1
  Nd  Nd5  1  0.750000  0.361584  0.364049  1
  Sm  Sm6  1  0.250000  0.136220  0.864881  1
  Sm  Sm7  1  0.750000  0.863211  0.135017  1
  Si  Si8  1  0.750000  0.269748  0.068644  1
  Si  Si9  1  0.250000  0.729645  0.932020  1
  Si  Si10  1  0.750000  0.775893  0.426285  1
  Si  Si11  1  0.250000  0.225359  0.572198  1
  Si  Si12  1  0.750000  0.838674  0.824099  1
  Si  Si13  1  0.250000  0.161046  0.176686  1
  Si  Si14  1  0.750000  0.333482  0.680497  1
  Si  Si15  1  0.250000  0.665618  0.319360  1
