# generated using pymatgen
data_Ac4(NdPt)3
_symmetry_space_group_name_H-M   'P 1'
_cell_length_a   6.69028400
_cell_length_b   10.59907433
_cell_length_c   10.59907408
_cell_angle_alpha   120.15034389
_cell_angle_beta   90.00000000
_cell_angle_gamma   90.00000000
_symmetry_Int_Tables_number   1
_chemical_formula_structural   Ac4(NdPt)3
_chemical_formula_sum   'Ac8 Nd6 Pt6'
_cell_volume   649.90685024
_cell_formula_units_Z   2
loop_
 _symmetry_equiv_pos_site_id
 _symmetry_equiv_pos_as_xyz
  1  'x, y, z'
loop_
 _atom_site_type_symbol
 _atom_site_label
 _atom_site_symmetry_multiplicity
 _atom_site_fract_x
 _atom_site_fract_y
 _atom_site_fract_z
 _atom_site_occupancy
  Ac  Ac0  1  0.461665  0.333069  0.666931  1
  Ac  Ac1  1  0.961665  0.666931  0.333069  1
  Ac  Ac2  1  0.245352  0.129548  0.870452  1
  Ac  Ac3  1  0.246363  0.739957  0.869899  1
  Ac  Ac4  1  0.246363  0.130101  0.260043  1
  Ac  Ac5  1  0.745352  0.870452  0.129548  1
  Ac  Ac6  1  0.746363  0.260043  0.130101  1
  Ac  Ac7  1  0.746363  0.869899  0.739957  1
  Nd  Nd8  1  0.432531  0.539254  0.460746  1
  Nd  Nd9  1  0.433470  0.921926  0.460673  1
  Nd  Nd10  1  0.433470  0.539327  0.078074  1
  Nd  Nd11  1  0.932531  0.460746  0.539254  1
  Nd  Nd12  1  0.933470  0.078074  0.539327  1
  Nd  Nd13  1  0.933470  0.460673  0.921926  1
  Pt  Pt14  1  0.197741  0.809724  0.190276  1
  Pt  Pt15  1  0.198022  0.380851  0.189970  1
  Pt  Pt16  1  0.198022  0.810030  0.619149  1
  Pt  Pt17  1  0.697741  0.190276  0.809724  1
  Pt  Pt18  1  0.698022  0.619149  0.810030  1
  Pt  Pt19  1  0.698022  0.189970  0.380851  1
