# generated using pymatgen
data_YHoFe2(CoO5)2
_symmetry_space_group_name_H-M   'P 1'
_cell_length_a   5.77339600
_cell_length_b   7.27096584
_cell_length_c   8.51509899
_cell_angle_alpha   90.05518036
_cell_angle_beta   90.00000000
_cell_angle_gamma   90.00000000
_symmetry_Int_Tables_number   1
_chemical_formula_structural   YHoFe2(CoO5)2
_chemical_formula_sum   'Y2 Ho2 Fe4 Co4 O20'
_cell_volume   357.44806548
_cell_formula_units_Z   2
loop_
 _symmetry_equiv_pos_site_id
 _symmetry_equiv_pos_as_xyz
  1  'x, y, z'
loop_
 _atom_site_type_symbol
 _atom_site_label
 _atom_site_symmetry_multiplicity
 _atom_site_fract_x
 _atom_site_fract_y
 _atom_site_fract_z
 _atom_site_occupancy
  Y  Y0  1  0.500000  0.365990  0.330048  1
  Y  Y1  1  0.500000  0.634010  0.669952  1
  Ho  Ho2  1  0.500000  0.133899  0.830400  1
  Ho  Ho3  1  0.500000  0.866101  0.169600  1
  Fe  Fe4  1  0.000000  0.108915  0.147177  1
  Fe  Fe5  1  0.000000  0.891085  0.852823  1
  Fe  Fe6  1  0.000000  0.390536  0.647581  1
  Fe  Fe7  1  0.000000  0.609464  0.352419  1
  Co  Co8  1  0.250532  0.000000  0.500000  1
  Co  Co9  1  0.749468  0.000000  0.500000  1
  Co  Co10  1  0.749439  0.500000  0.000000  1
  Co  Co11  1  0.250561  0.500000  0.000000  1
  O  O12  1  0.235354  0.000000  0.000000  1
  O  O13  1  0.764646  0.000000  0.000000  1
  O  O14  1  0.766617  0.500000  0.500000  1
  O  O15  1  0.233383  0.500000  0.500000  1
  O  O16  1  0.000000  0.353420  0.069110  1
  O  O17  1  0.000000  0.646580  0.930890  1
  O  O18  1  0.000000  0.146577  0.568830  1
  O  O19  1  0.000000  0.853423  0.431170  1
  O  O20  1  0.259612  0.104968  0.297583  1
  O  O21  1  0.740388  0.895032  0.702417  1
  O  O22  1  0.259612  0.895032  0.702417  1
  O  O23  1  0.740209  0.393065  0.798085  1
  O  O24  1  0.740388  0.104968  0.297583  1
  O  O25  1  0.259791  0.606935  0.201915  1
  O  O26  1  0.740209  0.606935  0.201915  1
  O  O27  1  0.259791  0.393065  0.798085  1
  O  O28  1  0.500000  0.341005  0.055715  1
  O  O29  1  0.500000  0.658995  0.944285  1
  O  O30  1  0.500000  0.158424  0.557231  1
  O  O31  1  0.500000  0.841576  0.442769  1
