# generated using pymatgen
data_U8Nb12Ga(SiGe4)3
_symmetry_space_group_name_H-M   'P 1'
_cell_length_a   7.13960877
_cell_length_b   7.15169809
_cell_length_c   13.22809426
_cell_angle_alpha   89.99936676
_cell_angle_beta   89.98240777
_cell_angle_gamma   90.00926356
_symmetry_Int_Tables_number   1
_chemical_formula_structural   U8Nb12Ga(SiGe4)3
_chemical_formula_sum   'U8 Nb12 Ga1 Si3 Ge12'
_cell_volume   675.43077032
_cell_formula_units_Z   1
loop_
 _symmetry_equiv_pos_site_id
 _symmetry_equiv_pos_as_xyz
  1  'x, y, z'
loop_
 _atom_site_type_symbol
 _atom_site_label
 _atom_site_symmetry_multiplicity
 _atom_site_fract_x
 _atom_site_fract_y
 _atom_site_fract_z
 _atom_site_occupancy
  U  U0  1  0.989737  0.326984  0.223329  1
  U  U1  1  0.004802  0.668879  0.719981  1
  U  U2  1  0.173225  0.490754  0.471364  1
  U  U3  1  0.510874  0.821645  0.030449  1
  U  U4  1  0.826047  0.507575  0.973767  1
  U  U5  1  0.492430  0.174104  0.530342  1
  U  U6  1  0.329893  0.999443  0.776739  1
  U  U7  1  0.676935  0.006552  0.281331  1
  Nb  Nb8  1  0.164998  0.168324  0.998153  1
  Nb  Nb9  1  0.833607  0.835605  0.499472  1
  Nb  Nb10  1  0.337537  0.665095  0.250211  1
  Nb  Nb11  1  0.662517  0.333557  0.749039  1
  Nb  Nb12  1  0.154516  0.002400  0.376555  1
  Nb  Nb13  1  0.840663  0.000586  0.873989  1
  Nb  Nb14  1  0.496006  0.656076  0.625298  1
  Nb  Nb15  1  0.337128  0.499193  0.872955  1
  Nb  Nb16  1  0.505486  0.347696  0.124911  1
  Nb  Nb17  1  0.661275  0.496895  0.373862  1
  Nb  Nb18  1  0.003115  0.164378  0.623683  1
  Nb  Nb19  1  0.998350  0.836619  0.124811  1
  Ga  Ga20  1  0.298597  0.033081  0.180848  1
  Si  Si21  1  0.872245  0.204378  0.434115  1
  Si  Si22  1  0.294398  0.374828  0.682429  1
  Si  Si23  1  0.705486  0.628662  0.184940  1
  Ge  Ge24  1  0.705453  0.967341  0.680819  1
  Ge  Ge25  1  0.467433  0.796785  0.431658  1
  Ge  Ge26  1  0.201924  0.529963  0.069372  1
  Ge  Ge27  1  0.531580  0.202041  0.932787  1
  Ge  Ge28  1  0.797074  0.467112  0.566321  1
  Ge  Ge29  1  0.030626  0.299199  0.817144  1
  Ge  Ge30  1  0.968450  0.701793  0.317479  1
  Ge  Ge31  1  0.372848  0.293742  0.316411  1
  Ge  Ge32  1  0.626187  0.701686  0.817684  1
  Ge  Ge33  1  0.201327  0.872718  0.568423  1
  Ge  Ge34  1  0.128799  0.798485  0.930492  1
  Ge  Ge35  1  0.798432  0.125825  0.068837  1
