# generated using pymatgen
data_Cs12Na8Hf4Bi11Sb
_symmetry_space_group_name_H-M   'P 1'
_cell_length_a   11.98109711
_cell_length_b   11.98109664
_cell_length_c   17.97282164
_cell_angle_alpha   90.00597397
_cell_angle_beta   90.00597871
_cell_angle_gamma   142.91398781
_symmetry_Int_Tables_number   1
_chemical_formula_structural   Cs12Na8Hf4Bi11Sb
_chemical_formula_sum   'Cs12 Na8 Hf4 Bi11 Sb1'
_cell_volume   1555.73727540
_cell_formula_units_Z   1
loop_
 _symmetry_equiv_pos_site_id
 _symmetry_equiv_pos_as_xyz
  1  'x, y, z'
loop_
 _atom_site_type_symbol
 _atom_site_label
 _atom_site_symmetry_multiplicity
 _atom_site_fract_x
 _atom_site_fract_y
 _atom_site_fract_z
 _atom_site_occupancy
  Cs  Cs0  1  0.942703  0.605226  0.827786  1
  Cs  Cs1  1  0.557694  0.893766  0.328282  1
  Cs  Cs2  1  0.394794  0.057112  0.172073  1
  Cs  Cs3  1  0.057112  0.394794  0.172073  1
  Cs  Cs4  1  0.893766  0.557694  0.328282  1
  Cs  Cs5  1  0.442289  0.105176  0.671377  1
  Cs  Cs6  1  0.605226  0.942703  0.827786  1
  Cs  Cs7  1  0.276340  0.276340  0.321460  1
  Cs  Cs8  1  0.777957  0.777957  0.180322  1
  Cs  Cs9  1  0.221728  0.221728  0.820918  1
  Cs  Cs10  1  0.721953  0.721953  0.678833  1
  Cs  Cs11  1  0.105176  0.442289  0.671377  1
  Na  Na12  1  0.918480  0.081514  0.000006  1
  Na  Na13  1  0.582418  0.420411  0.499312  1
  Na  Na14  1  0.081514  0.918480  0.000006  1
  Na  Na15  1  0.420411  0.582418  0.499312  1
  Na  Na16  1  0.753494  0.246529  0.999979  1
  Na  Na17  1  0.746445  0.253272  0.499856  1
  Na  Na18  1  0.246529  0.753494  0.999979  1
  Na  Na19  1  0.253272  0.746445  0.499856  1
  Hf  Hf20  1  0.585520  0.414496  0.000064  1
  Hf  Hf21  1  0.913810  0.083367  0.499203  1
  Hf  Hf22  1  0.414496  0.585520  0.000064  1
  Hf  Hf23  1  0.083367  0.913810  0.499203  1
  Bi  Bi24  1  0.875656  0.560620  0.095605  1
  Bi  Bi25  1  0.439638  0.124362  0.904518  1
  Bi  Bi26  1  0.624256  0.938929  0.594831  1
  Bi  Bi27  1  0.938929  0.624256  0.594831  1
  Bi  Bi28  1  0.124362  0.439638  0.904518  1
  Bi  Bi29  1  0.560620  0.875656  0.095605  1
  Bi  Bi30  1  0.375012  0.060371  0.404326  1
  Bi  Bi31  1  0.206124  0.206124  0.588814  1
  Bi  Bi32  1  0.705099  0.705099  0.910768  1
  Bi  Bi33  1  0.294991  0.294991  0.089425  1
  Bi  Bi34  1  0.060371  0.375012  0.404326  1
  Sb  Sb35  1  0.798450  0.798450  0.415026  1
