# generated using pymatgen
data_CaTb5Mn2(VC6)2
_symmetry_space_group_name_H-M   'P 1'
_cell_length_a   8.17752320
_cell_length_b   8.18888008
_cell_length_c   5.00142300
_cell_angle_alpha   90.00000000
_cell_angle_beta   90.00000000
_cell_angle_gamma   120.20244992
_symmetry_Int_Tables_number   1
_chemical_formula_structural   CaTb5Mn2(VC6)2
_chemical_formula_sum   'Ca1 Tb5 Mn2 V2 C12'
_cell_volume   289.45491313
_cell_formula_units_Z   1
loop_
 _symmetry_equiv_pos_site_id
 _symmetry_equiv_pos_as_xyz
  1  'x, y, z'
loop_
 _atom_site_type_symbol
 _atom_site_label
 _atom_site_symmetry_multiplicity
 _atom_site_fract_x
 _atom_site_fract_y
 _atom_site_fract_z
 _atom_site_occupancy
  Ca  Ca0  1  0.610044  0.679410  0.750000  1
  Tb  Tb1  1  0.935359  0.620259  0.250000  1
  Tb  Tb2  1  0.682233  0.063292  0.250000  1
  Tb  Tb3  1  0.317121  0.937354  0.750000  1
  Tb  Tb4  1  0.063661  0.380737  0.750000  1
  Tb  Tb5  1  0.382436  0.320105  0.250000  1
  Mn  Mn6  1  0.668171  0.331168  0.750000  1
  Mn  Mn7  1  0.331921  0.667071  0.250000  1
  V  V8  1  0.999003  0.999188  0.496953  1
  V  V9  1  0.999003  0.999188  0.003047  1
  C  C10  1  0.961066  0.765423  0.750000  1
  C  C11  1  0.194441  0.961867  0.250000  1
  C  C12  1  0.766023  0.808561  0.250000  1
  C  C13  1  0.235263  0.196762  0.750000  1
  C  C14  1  0.810947  0.041365  0.750000  1
  C  C15  1  0.039867  0.232453  0.250000  1
  C  C16  1  0.862517  0.572754  0.750000  1
  C  C17  1  0.289658  0.863447  0.250000  1
  C  C18  1  0.572928  0.712901  0.250000  1
  C  C19  1  0.428648  0.285970  0.750000  1
  C  C20  1  0.137881  0.426476  0.250000  1
  C  C21  1  0.711810  0.134250  0.750000  1
