# generated using pymatgen
data_Yb9Pd5Pt
_symmetry_space_group_name_H-M   'P 1'
_cell_length_a   7.52136791
_cell_length_b   7.54621264
_cell_length_c   7.51388999
_cell_angle_alpha   70.84783068
_cell_angle_beta   71.04240125
_cell_angle_gamma   71.04379196
_symmetry_Int_Tables_number   1
_chemical_formula_structural   Yb9Pd5Pt
_chemical_formula_sum   'Yb9 Pd5 Pt1'
_cell_volume   369.47021091
_cell_formula_units_Z   1
loop_
 _symmetry_equiv_pos_site_id
 _symmetry_equiv_pos_as_xyz
  1  'x, y, z'
loop_
 _atom_site_type_symbol
 _atom_site_label
 _atom_site_symmetry_multiplicity
 _atom_site_fract_x
 _atom_site_fract_y
 _atom_site_fract_z
 _atom_site_occupancy
  Yb  Yb0  1  0.000873  0.002467  0.998537  1
  Yb  Yb1  1  0.798693  0.797490  0.798693  1
  Yb  Yb2  1  0.199907  0.203914  0.197613  1
  Yb  Yb3  1  0.327942  0.601050  0.844156  1
  Yb  Yb4  1  0.845667  0.331565  0.603969  1
  Yb  Yb5  1  0.600347  0.845468  0.332144  1
  Yb  Yb6  1  0.673462  0.398285  0.151575  1
  Yb  Yb7  1  0.155143  0.665800  0.403379  1
  Yb  Yb8  1  0.395448  0.157954  0.669681  1
  Pd  Pd9  1  0.160101  0.955981  0.587975  1
  Pd  Pd10  1  0.590118  0.156661  0.957065  1
  Pd  Pd11  1  0.954955  0.593118  0.162829  1
  Pd  Pd12  1  0.841834  0.043861  0.409277  1
  Pd  Pd13  1  0.410599  0.837530  0.045076  1
  Pt  Pt14  1  0.044912  0.408855  0.838033  1
