# generated using pymatgen
data_Ti5GaSn3
_symmetry_space_group_name_H-M   'P 1'
_cell_length_a   8.27352800
_cell_length_b   8.27352763
_cell_length_c   5.55285600
_cell_angle_alpha   90.00000000
_cell_angle_beta   90.00000000
_cell_angle_gamma   120.00000148
_symmetry_Int_Tables_number   1
_chemical_formula_structural   Ti5GaSn3
_chemical_formula_sum   'Ti10 Ga2 Sn6'
_cell_volume   329.17625430
_cell_formula_units_Z   2
loop_
 _symmetry_equiv_pos_site_id
 _symmetry_equiv_pos_as_xyz
  1  'x, y, z'
loop_
 _atom_site_type_symbol
 _atom_site_label
 _atom_site_symmetry_multiplicity
 _atom_site_fract_x
 _atom_site_fract_y
 _atom_site_fract_z
 _atom_site_occupancy
  Ti  Ti0  1  0.333333  0.666667  0.000000  1
  Ti  Ti1  1  0.666667  0.333333  0.500000  1
  Ti  Ti2  1  0.666667  0.333333  0.000000  1
  Ti  Ti3  1  0.333333  0.666667  0.500000  1
  Ti  Ti4  1  0.268861  0.000000  0.250000  1
  Ti  Ti5  1  0.268861  0.268861  0.750000  1
  Ti  Ti6  1  0.000000  0.731139  0.750000  1
  Ti  Ti7  1  0.000000  0.268861  0.250000  1
  Ti  Ti8  1  0.731139  0.731139  0.250000  1
  Ti  Ti9  1  0.731139  0.000000  0.750000  1
  Ga  Ga10  1  0.000000  0.000000  0.000000  1
  Ga  Ga11  1  0.000000  0.000000  0.500000  1
  Sn  Sn12  1  0.613205  0.000000  0.250000  1
  Sn  Sn13  1  0.613205  0.613205  0.750000  1
  Sn  Sn14  1  0.000000  0.386795  0.750000  1
  Sn  Sn15  1  0.000000  0.613205  0.250000  1
  Sn  Sn16  1  0.386795  0.386795  0.250000  1
  Sn  Sn17  1  0.386795  0.000000  0.750000  1
