# generated using pymatgen
data_Dy4HfRu3F28
_symmetry_space_group_name_H-M   'P 1'
_cell_length_a   5.58777397
_cell_length_b   8.91358269
_cell_length_c   11.96220400
_cell_angle_alpha   63.17279139
_cell_angle_beta   89.90950014
_cell_angle_gamma   89.95121883
_symmetry_Int_Tables_number   1
_chemical_formula_structural   Dy4HfRu3F28
_chemical_formula_sum   'Dy4 Hf1 Ru3 F28'
_cell_volume   531.67657764
_cell_formula_units_Z   1
loop_
 _symmetry_equiv_pos_site_id
 _symmetry_equiv_pos_as_xyz
  1  'x, y, z'
loop_
 _atom_site_type_symbol
 _atom_site_label
 _atom_site_symmetry_multiplicity
 _atom_site_fract_x
 _atom_site_fract_y
 _atom_site_fract_z
 _atom_site_occupancy
  Dy  Dy0  1  0.757901  0.809062  0.769127  1
  Dy  Dy1  1  0.256773  0.189474  0.725036  1
  Dy  Dy2  1  0.241320  0.187882  0.235680  1
  Dy  Dy3  1  0.742207  0.812625  0.267154  1
  Hf  Hf4  1  0.752907  0.271662  0.955979  1
  Ru  Ru5  1  0.255243  0.728217  0.543841  1
  Ru  Ru6  1  0.245057  0.726558  0.046143  1
  Ru  Ru7  1  0.745605  0.274451  0.453979  1
  F  F8  1  0.449586  0.704353  0.920455  1
  F  F9  1  0.946715  0.296168  0.580839  1
  F  F10  1  0.531569  0.293724  0.078550  1
  F  F11  1  0.048997  0.706752  0.419104  1
  F  F12  1  0.450752  0.286472  0.541802  1
  F  F13  1  0.954036  0.720502  0.954511  1
  F  F14  1  0.544865  0.716561  0.453423  1
  F  F15  1  0.045891  0.282814  0.050041  1
  F  F16  1  0.771764  0.521689  0.857310  1
  F  F17  1  0.262879  0.488613  0.640069  1
  F  F18  1  0.229721  0.486889  0.142250  1
  F  F19  1  0.736092  0.513481  0.359131  1
  F  F20  1  0.757976  0.022284  0.057786  1
  F  F21  1  0.258245  0.967533  0.451970  1
  F  F22  1  0.248566  0.965069  0.952557  1
  F  F23  1  0.745071  0.036193  0.546331  1
  F  F24  1  0.972014  0.733843  0.639358  1
  F  F25  1  0.477355  0.266625  0.850560  1
  F  F26  1  0.033562  0.270459  0.360709  1
  F  F27  1  0.526942  0.724933  0.144241  1
  F  F28  1  0.046447  0.745415  0.175382  1
  F  F29  1  0.548566  0.253485  0.324833  1
  F  F30  1  0.967487  0.246851  0.829856  1
  F  F31  1  0.458121  0.749065  0.671315  1
  F  F32  1  0.422306  0.972978  0.234877  1
  F  F33  1  0.921299  0.028437  0.269506  1
  F  F34  1  0.572442  0.026672  0.764058  1
  F  F35  1  0.073724  0.972213  0.732244  1
