# generated using pymatgen
data_TbLu9In8(RuPt)2
_symmetry_space_group_name_H-M   'P 1'
_cell_length_a   3.55206900
_cell_length_b   7.97683884
_cell_length_c   18.14366223
_cell_angle_alpha   89.97813879
_cell_angle_beta   90.00000000
_cell_angle_gamma   90.00000000
_symmetry_Int_Tables_number   1
_chemical_formula_structural   TbLu9In8(RuPt)2
_chemical_formula_sum   'Tb1 Lu9 In8 Ru2 Pt2'
_cell_volume   514.08760428
_cell_formula_units_Z   1
loop_
 _symmetry_equiv_pos_site_id
 _symmetry_equiv_pos_as_xyz
  1  'x, y, z'
loop_
 _atom_site_type_symbol
 _atom_site_label
 _atom_site_symmetry_multiplicity
 _atom_site_fract_x
 _atom_site_fract_y
 _atom_site_fract_z
 _atom_site_occupancy
  Tb  Tb0  1  0.000000  0.500000  0.500000  1
  Lu  Lu1  1  0.000000  0.117318  0.411744  1
  Lu  Lu2  1  0.000000  0.882682  0.588256  1
  Lu  Lu3  1  0.000000  0.381641  0.913679  1
  Lu  Lu4  1  0.000000  0.618359  0.086321  1
  Lu  Lu5  1  0.000000  0.237336  0.222503  1
  Lu  Lu6  1  0.000000  0.762664  0.777497  1
  Lu  Lu7  1  0.000000  0.246290  0.720807  1
  Lu  Lu8  1  0.000000  0.753710  0.279193  1
  Lu  Lu9  1  0.000000  0.000000  0.000000  1
  In  In10  1  0.500000  0.424576  0.350863  1
  In  In11  1  0.500000  0.575424  0.649137  1
  In  In12  1  0.500000  0.068704  0.850931  1
  In  In13  1  0.500000  0.931296  0.149069  1
  In  In14  1  0.500000  0.292039  0.065272  1
  In  In15  1  0.500000  0.707961  0.934728  1
  In  In16  1  0.500000  0.203523  0.568455  1
  In  In17  1  0.500000  0.796477  0.431545  1
  Ru  Ru18  1  0.500000  0.023872  0.303487  1
  Ru  Ru19  1  0.500000  0.976128  0.696513  1
  Pt  Pt20  1  0.500000  0.474215  0.803649  1
  Pt  Pt21  1  0.500000  0.525785  0.196351  1
