# generated using pymatgen
data_PuUReB6
_symmetry_space_group_name_H-M   'P 1'
_cell_length_a   3.64101100
_cell_length_b   9.31331600
_cell_length_c   11.39908800
_cell_angle_alpha   90.00000000
_cell_angle_beta   90.00000000
_cell_angle_gamma   90.00000000
_symmetry_Int_Tables_number   1
_chemical_formula_structural   PuUReB6
_chemical_formula_sum   'Pu4 U4 Re4 B24'
_cell_volume   386.54177461
_cell_formula_units_Z   4
loop_
 _symmetry_equiv_pos_site_id
 _symmetry_equiv_pos_as_xyz
  1  'x, y, z'
loop_
 _atom_site_type_symbol
 _atom_site_label
 _atom_site_symmetry_multiplicity
 _atom_site_fract_x
 _atom_site_fract_y
 _atom_site_fract_z
 _atom_site_occupancy
  Pu  Pu0  1  0.000000  0.335752  0.407241  1
  Pu  Pu1  1  0.000000  0.664248  0.592759  1
  Pu  Pu2  1  0.000000  0.835752  0.092759  1
  Pu  Pu3  1  0.000000  0.164248  0.907241  1
  U  U4  1  0.000000  0.955909  0.395870  1
  U  U5  1  0.000000  0.044091  0.604130  1
  U  U6  1  0.000000  0.455909  0.104130  1
  U  U7  1  0.000000  0.544091  0.895870  1
  Re  Re8  1  0.000000  0.645252  0.318856  1
  Re  Re9  1  0.000000  0.354748  0.681144  1
  Re  Re10  1  0.000000  0.145252  0.181144  1
  Re  Re11  1  0.000000  0.854748  0.818856  1
  B  B12  1  0.500000  0.551487  0.431556  1
  B  B13  1  0.500000  0.448513  0.568444  1
  B  B14  1  0.500000  0.051487  0.068444  1
  B  B15  1  0.500000  0.948513  0.931556  1
  B  B16  1  0.500000  0.742895  0.423259  1
  B  B17  1  0.500000  0.257105  0.576741  1
  B  B18  1  0.500000  0.242895  0.076741  1
  B  B19  1  0.500000  0.757105  0.923259  1
  B  B20  1  0.500000  0.802175  0.274156  1
  B  B21  1  0.500000  0.197825  0.725844  1
  B  B22  1  0.500000  0.302175  0.225844  1
  B  B23  1  0.500000  0.697825  0.774156  1
  B  B24  1  0.500000  0.643492  0.188191  1
  B  B25  1  0.500000  0.356508  0.811809  1
  B  B26  1  0.500000  0.143492  0.311809  1
  B  B27  1  0.500000  0.856508  0.688191  1
  B  B28  1  0.500000  0.987551  0.219344  1
  B  B29  1  0.500000  0.012449  0.780656  1
  B  B30  1  0.500000  0.487551  0.280656  1
  B  B31  1  0.500000  0.512449  0.719344  1
  B  B32  1  0.500000  0.640999  0.038960  1
  B  B33  1  0.500000  0.359001  0.961040  1
  B  B34  1  0.500000  0.140999  0.461040  1
  B  B35  1  0.500000  0.859001  0.538960  1
