# generated using pymatgen
data_Tm2Mn5(PRh)7
_symmetry_space_group_name_H-M   'P 1'
_cell_length_a   9.44168727
_cell_length_b   9.42582832
_cell_length_c   3.77311100
_cell_angle_alpha   90.00000000
_cell_angle_beta   90.00000000
_cell_angle_gamma   120.17748763
_symmetry_Int_Tables_number   1
_chemical_formula_structural   Tm2Mn5(PRh)7
_chemical_formula_sum   'Tm2 Mn5 P7 Rh7'
_cell_volume   290.28182195
_cell_formula_units_Z   1
loop_
 _symmetry_equiv_pos_site_id
 _symmetry_equiv_pos_as_xyz
  1  'x, y, z'
loop_
 _atom_site_type_symbol
 _atom_site_label
 _atom_site_symmetry_multiplicity
 _atom_site_fract_x
 _atom_site_fract_y
 _atom_site_fract_z
 _atom_site_occupancy
  Tm  Tm0  1  0.000023  0.001069  0.000000  1
  Tm  Tm1  1  0.666410  0.332834  0.500000  1
  Mn  Mn2  1  0.219485  0.395846  0.000000  1
  Mn  Mn3  1  0.601558  0.822960  0.000000  1
  Mn  Mn4  1  0.176053  0.777079  0.000000  1
  Mn  Mn5  1  0.432180  0.888303  0.500000  1
  Mn  Mn6  1  0.112067  0.548500  0.500000  1
  P  P7  1  0.442817  0.368919  0.000000  1
  P  P8  1  0.628961  0.072740  0.000000  1
  P  P9  1  0.926355  0.555810  0.000000  1
  P  P10  1  0.056777  0.270528  0.500000  1
  P  P11  1  0.731175  0.789169  0.500000  1
  P  P12  1  0.213331  0.943125  0.500000  1
  P  P13  1  0.333047  0.666798  0.000000  1
  Rh  Rh14  1  0.699639  0.602337  0.000000  1
  Rh  Rh15  1  0.398619  0.096457  0.000000  1
  Rh  Rh16  1  0.903839  0.302563  0.000000  1
  Rh  Rh17  1  0.275696  0.220950  0.500000  1
  Rh  Rh18  1  0.775857  0.054398  0.500000  1
  Rh  Rh19  1  0.944711  0.722871  0.500000  1
  Rh  Rh20  1  0.461400  0.566747  0.500000  1
