# generated using pymatgen
data_Lu9ScCd3Re
_symmetry_space_group_name_H-M   'P 1'
_cell_length_a   9.31105600
_cell_length_b   9.31105597
_cell_length_c   9.60921800
_cell_angle_alpha   90.00000000
_cell_angle_beta   90.00000000
_cell_angle_gamma   120.00000010
_symmetry_Int_Tables_number   1
_chemical_formula_structural   Lu9ScCd3Re
_chemical_formula_sum   'Lu18 Sc2 Cd6 Re2'
_cell_volume   721.46713660
_cell_formula_units_Z   2
loop_
 _symmetry_equiv_pos_site_id
 _symmetry_equiv_pos_as_xyz
  1  'x, y, z'
loop_
 _atom_site_type_symbol
 _atom_site_label
 _atom_site_symmetry_multiplicity
 _atom_site_fract_x
 _atom_site_fract_y
 _atom_site_fract_z
 _atom_site_occupancy
  Lu  Lu0  1  0.209055  0.790945  0.443641  1
  Lu  Lu1  1  0.209055  0.418109  0.443641  1
  Lu  Lu2  1  0.581891  0.790945  0.443641  1
  Lu  Lu3  1  0.790945  0.209055  0.556359  1
  Lu  Lu4  1  0.790945  0.581891  0.556359  1
  Lu  Lu5  1  0.418109  0.209055  0.556359  1
  Lu  Lu6  1  0.790945  0.209055  0.943641  1
  Lu  Lu7  1  0.790945  0.581891  0.943641  1
  Lu  Lu8  1  0.418109  0.209055  0.943641  1
  Lu  Lu9  1  0.209055  0.790945  0.056359  1
  Lu  Lu10  1  0.209055  0.418109  0.056359  1
  Lu  Lu11  1  0.581891  0.790945  0.056359  1
  Lu  Lu12  1  0.538775  0.461225  0.250000  1
  Lu  Lu13  1  0.538775  0.077550  0.250000  1
  Lu  Lu14  1  0.922450  0.461225  0.250000  1
  Lu  Lu15  1  0.461225  0.538775  0.750000  1
  Lu  Lu16  1  0.461225  0.922450  0.750000  1
  Lu  Lu17  1  0.077550  0.538775  0.750000  1
  Sc  Sc18  1  0.000000  0.000000  0.500000  1
  Sc  Sc19  1  0.000000  0.000000  0.000000  1
  Cd  Cd20  1  0.888887  0.111113  0.250000  1
  Cd  Cd21  1  0.888887  0.777776  0.250000  1
  Cd  Cd22  1  0.222224  0.111113  0.250000  1
  Cd  Cd23  1  0.111113  0.888887  0.750000  1
  Cd  Cd24  1  0.111113  0.222224  0.750000  1
  Cd  Cd25  1  0.777776  0.888887  0.750000  1
  Re  Re26  1  0.333333  0.666667  0.250000  1
  Re  Re27  1  0.666667  0.333333  0.750000  1
