# generated using pymatgen
data_Ho2Lu2ReTcB12
_symmetry_space_group_name_H-M   'P 1'
_cell_length_a   3.64108700
_cell_length_b   9.09585640
_cell_length_c   11.47483800
_cell_angle_alpha   90.04963951
_cell_angle_beta   90.00000000
_cell_angle_gamma   90.00000000
_symmetry_Int_Tables_number   1
_chemical_formula_structural   Ho2Lu2ReTcB12
_chemical_formula_sum   'Ho4 Lu4 Re2 Tc2 B24'
_cell_volume   380.03277347
_cell_formula_units_Z   2
loop_
 _symmetry_equiv_pos_site_id
 _symmetry_equiv_pos_as_xyz
  1  'x, y, z'
loop_
 _atom_site_type_symbol
 _atom_site_label
 _atom_site_symmetry_multiplicity
 _atom_site_fract_x
 _atom_site_fract_y
 _atom_site_fract_z
 _atom_site_occupancy
  Ho  Ho0  1  0.000000  0.323472  0.414040  1
  Ho  Ho1  1  0.000000  0.676528  0.585960  1
  Ho  Ho2  1  0.000000  0.822927  0.086114  1
  Ho  Ho3  1  0.000000  0.177073  0.913886  1
  Lu  Lu4  1  0.000000  0.942579  0.370199  1
  Lu  Lu5  1  0.000000  0.057421  0.629801  1
  Lu  Lu6  1  0.000000  0.444077  0.130282  1
  Lu  Lu7  1  0.000000  0.555923  0.869718  1
  Re  Re8  1  0.000000  0.139558  0.180195  1
  Re  Re9  1  0.000000  0.860442  0.819805  1
  Tc  Tc10  1  0.000000  0.639526  0.320060  1
  Tc  Tc11  1  0.000000  0.360474  0.679940  1
  B  B12  1  0.500000  0.553628  0.432818  1
  B  B13  1  0.500000  0.446372  0.567182  1
  B  B14  1  0.500000  0.053540  0.067114  1
  B  B15  1  0.500000  0.946460  0.932886  1
  B  B16  1  0.500000  0.750588  0.418619  1
  B  B17  1  0.500000  0.249412  0.581381  1
  B  B18  1  0.500000  0.251069  0.081330  1
  B  B19  1  0.500000  0.748931  0.918670  1
  B  B20  1  0.500000  0.793044  0.265367  1
  B  B21  1  0.500000  0.206956  0.734633  1
  B  B22  1  0.500000  0.293412  0.234851  1
  B  B23  1  0.500000  0.706588  0.765149  1
  B  B24  1  0.500000  0.630269  0.184863  1
  B  B25  1  0.500000  0.369731  0.815137  1
  B  B26  1  0.500000  0.130009  0.315459  1
  B  B27  1  0.500000  0.869991  0.684541  1
  B  B28  1  0.500000  0.981349  0.212574  1
  B  B29  1  0.500000  0.018651  0.787426  1
  B  B30  1  0.500000  0.481822  0.287587  1
  B  B31  1  0.500000  0.518178  0.712413  1
  B  B32  1  0.500000  0.598239  0.027216  1
  B  B33  1  0.500000  0.401761  0.972784  1
  B  B34  1  0.500000  0.098143  0.472629  1
  B  B35  1  0.500000  0.901857  0.527371  1
