# generated using pymatgen
data_Ho4ZnSb5Rh7
_symmetry_space_group_name_H-M   'P 1'
_cell_length_a   7.54933520
_cell_length_b   7.54923577
_cell_length_c   7.54923500
_cell_angle_alpha   108.89017692
_cell_angle_beta   109.76284074
_cell_angle_gamma   109.76284754
_symmetry_Int_Tables_number   1
_chemical_formula_structural   Ho4ZnSb5Rh7
_chemical_formula_sum   'Ho4 Zn1 Sb5 Rh7'
_cell_volume   331.17368104
_cell_formula_units_Z   1
loop_
 _symmetry_equiv_pos_site_id
 _symmetry_equiv_pos_as_xyz
  1  'x, y, z'
loop_
 _atom_site_type_symbol
 _atom_site_label
 _atom_site_symmetry_multiplicity
 _atom_site_fract_x
 _atom_site_fract_y
 _atom_site_fract_z
 _atom_site_occupancy
  Ho  Ho0  1  0.514270  0.010931  0.010931  1
  Ho  Ho1  1  0.000012  0.496675  0.010958  1
  Ho  Ho2  1  0.000012  0.010958  0.496675  1
  Ho  Ho3  1  0.485708  0.496675  0.496675  1
  Zn  Zn4  1  0.000005  0.317515  0.317515  1
  Sb  Sb5  1  0.685459  0.002213  0.687673  1
  Sb  Sb6  1  0.685459  0.687673  0.002213  1
  Sb  Sb7  1  0.999999  0.675059  0.675059  1
  Sb  Sb8  1  0.314538  0.002209  0.316750  1
  Sb  Sb9  1  0.314538  0.316750  0.002209  1
  Rh  Rh10  1  0.999999  0.994770  0.994770  1
  Rh  Rh11  1  0.500009  0.751499  0.251499  1
  Rh  Rh12  1  0.751161  0.496386  0.247552  1
  Rh  Rh13  1  0.248832  0.745239  0.496395  1
  Rh  Rh14  1  0.248832  0.496395  0.745239  1
  Rh  Rh15  1  0.500009  0.251499  0.751499  1
  Rh  Rh16  1  0.751161  0.247552  0.496386  1
