# generated using pymatgen
data_Tb5Er15CoBi8Ir3
_symmetry_space_group_name_H-M   'P 1'
_cell_length_a   7.95319961
_cell_length_b   8.96727500
_cell_length_c   12.44666736
_cell_angle_alpha   90.00000000
_cell_angle_beta   90.31049492
_cell_angle_gamma   90.00000000
_symmetry_Int_Tables_number   1
_chemical_formula_structural   Tb5Er15CoBi8Ir3
_chemical_formula_sum   'Tb5 Er15 Co1 Bi8 Ir3'
_cell_volume   887.66496063
_cell_formula_units_Z   1
loop_
 _symmetry_equiv_pos_site_id
 _symmetry_equiv_pos_as_xyz
  1  'x, y, z'
loop_
 _atom_site_type_symbol
 _atom_site_label
 _atom_site_symmetry_multiplicity
 _atom_site_fract_x
 _atom_site_fract_y
 _atom_site_fract_z
 _atom_site_occupancy
  Tb  Tb0  1  0.657049  0.750000  0.700223  1
  Tb  Tb1  1  0.338722  0.250000  0.292134  1
  Tb  Tb2  1  0.840021  0.750000  0.207181  1
  Tb  Tb3  1  0.124038  0.750000  0.806305  1
  Tb  Tb4  1  0.379621  0.750000  0.312946  1
  Er  Er5  1  0.160306  0.250000  0.793393  1
  Er  Er6  1  0.875460  0.250000  0.191617  1
  Er  Er7  1  0.623332  0.250000  0.691987  1
  Er  Er8  1  0.556883  0.750000  0.996829  1
  Er  Er9  1  0.446264  0.250000  0.001119  1
  Er  Er10  1  0.055544  0.250000  0.501838  1
  Er  Er11  1  0.946693  0.750000  0.498638  1
  Er  Er12  1  0.825513  0.455891  0.933318  1
  Er  Er13  1  0.175398  0.541463  0.066593  1
  Er  Er14  1  0.325372  0.542838  0.565529  1
  Er  Er15  1  0.175398  0.958537  0.066593  1
  Er  Er16  1  0.673456  0.463021  0.436732  1
  Er  Er17  1  0.825513  0.044109  0.933318  1
  Er  Er18  1  0.673456  0.036979  0.436732  1
  Er  Er19  1  0.325372  0.957162  0.565529  1
  Co  Co20  1  0.567508  0.750000  0.492118  1
  Bi  Bi21  1  0.932453  0.010233  0.671531  1
  Bi  Bi22  1  0.064990  0.991796  0.328804  1
  Bi  Bi23  1  0.434081  0.991937  0.827130  1
  Bi  Bi24  1  0.064990  0.508204  0.328804  1
  Bi  Bi25  1  0.567034  0.008610  0.172319  1
  Bi  Bi26  1  0.932453  0.489767  0.671531  1
  Bi  Bi27  1  0.567034  0.491390  0.172319  1
  Bi  Bi28  1  0.434081  0.508063  0.827130  1
  Ir  Ir29  1  0.929294  0.750000  0.990888  1
  Ir  Ir30  1  0.072367  0.250000  0.009542  1
  Ir  Ir31  1  0.430304  0.250000  0.509330  1
