# generated using pymatgen
data_TbHo4Np2O12
_symmetry_space_group_name_H-M   'P 1'
_cell_length_a   6.52450695
_cell_length_b   6.62891852
_cell_length_c   6.55170590
_cell_angle_alpha   99.77710408
_cell_angle_beta   98.89589001
_cell_angle_gamma   99.02439994
_symmetry_Int_Tables_number   1
_chemical_formula_structural   TbHo4Np2O12
_chemical_formula_sum   'Tb1 Ho4 Np2 O12'
_cell_volume   270.96593440
_cell_formula_units_Z   1
loop_
 _symmetry_equiv_pos_site_id
 _symmetry_equiv_pos_as_xyz
  1  'x, y, z'
loop_
 _atom_site_type_symbol
 _atom_site_label
 _atom_site_symmetry_multiplicity
 _atom_site_fract_x
 _atom_site_fract_y
 _atom_site_fract_z
 _atom_site_occupancy
  Tb  Tb0  1  0.607216  0.134593  0.311716  1
  Ho  Ho1  1  0.860475  0.692491  0.394377  1
  Ho  Ho2  1  0.389361  0.854726  0.683186  1
  Ho  Ho3  1  0.305642  0.611201  0.141710  1
  Ho  Ho4  1  0.144892  0.315544  0.607079  1
  Np  Np5  1  0.693368  0.399171  0.862674  1
  Np  Np6  1  0.000905  0.002891  0.999076  1
  O  O7  1  0.432885  0.176759  0.595310  1
  O  O8  1  0.586019  0.423975  0.165260  1
  O  O9  1  0.175927  0.580125  0.431528  1
  O  O10  1  0.565525  0.816832  0.409809  1
  O  O11  1  0.424579  0.573234  0.822669  1
  O  O12  1  0.813854  0.420929  0.575569  1
  O  O13  1  0.070329  0.321039  0.938046  1
  O  O14  1  0.688325  0.050714  0.926250  1
  O  O15  1  0.053824  0.920604  0.683593  1
  O  O16  1  0.928062  0.683023  0.061013  1
  O  O17  1  0.311423  0.943669  0.072335  1
  O  O18  1  0.947387  0.078480  0.318797  1
