# generated using pymatgen
data_V(S4Cl)4
_symmetry_space_group_name_H-M   'P 1'
_cell_length_a   15.60620657
_cell_length_b   12.74837502
_cell_length_c   12.38262995
_cell_angle_alpha   76.76221910
_cell_angle_beta   52.67154987
_cell_angle_gamma   50.56623590
_symmetry_Int_Tables_number   1
_chemical_formula_structural   V(S4Cl)4
_chemical_formula_sum   'V2 S32 Cl8'
_cell_volume   1463.28880438
_cell_formula_units_Z   2
loop_
 _symmetry_equiv_pos_site_id
 _symmetry_equiv_pos_as_xyz
  1  'x, y, z'
loop_
 _atom_site_type_symbol
 _atom_site_label
 _atom_site_symmetry_multiplicity
 _atom_site_fract_x
 _atom_site_fract_y
 _atom_site_fract_z
 _atom_site_occupancy
  V  V0  1  0.247767  0.252233  0.252233  1
  V  V1  1  0.997767  0.002233  0.002233  1
  S  S2  1  0.524867  0.466175  0.263933  1
  S  S3  1  0.319811  0.882508  0.163197  1
  S  S4  1  0.745025  0.263933  0.466175  1
  S  S5  1  0.811437  0.528687  0.327419  1
  S  S6  1  0.634484  0.163197  0.882508  1
  S  S7  1  0.178490  0.309242  0.648690  1
  S  S8  1  0.596393  0.927919  0.589226  1
  S  S9  1  0.324563  0.818020  0.329677  1
  S  S10  1  0.634851  0.648937  0.337601  1
  S  S11  1  0.332457  0.327419  0.528687  1
  S  S12  1  0.721313  0.438563  0.917543  1
  S  S13  1  0.783825  0.725133  0.504975  1
  S  S14  1  0.322081  0.653607  0.363538  1
  S  S15  1  0.912399  0.871389  0.615149  1
  S  S16  1  0.601310  0.386423  0.071510  1
  S  S17  1  0.886462  0.589226  0.927919  1
  S  S18  1  0.266700  0.545183  0.728234  1
  S  S19  1  0.704817  0.983300  0.790117  1
  S  S20  1  0.431980  0.925437  0.722260  1
  S  S21  1  0.367492  0.930189  0.615516  1
  S  S22  1  0.378611  0.337601  0.648937  1
  S  S23  1  0.940758  0.071510  0.386423  1
  S  S24  1  0.086803  0.615516  0.930189  1
  S  S25  1  0.527740  0.329677  0.818020  1
  S  S26  1  0.521766  0.790117  0.983300  1
  S  S27  1  0.922581  0.917543  0.438563  1
  S  S28  1  0.660774  0.363538  0.653607  1
  S  S29  1  0.863577  0.648690  0.309242  1
  S  S30  1  0.920323  0.722260  0.925437  1
  S  S31  1  0.601063  0.615149  0.871389  1
  S  S32  1  0.459883  0.728234  0.545183  1
  S  S33  1  0.986067  0.504975  0.725133  1
  Cl  Cl34  1  0.180745  0.818579  0.982529  1
  Cl  Cl35  1  0.973460  0.182638  0.027971  1
  Cl  Cl36  1  0.018146  0.982529  0.818579  1
  Cl  Cl37  1  0.815931  0.027971  0.182638  1
  Cl  Cl38  1  0.431421  0.069255  0.231854  1
  Cl  Cl39  1  0.267471  0.231854  0.069255  1
  Cl  Cl40  1  0.222029  0.434069  0.276540  1
  Cl  Cl41  1  0.067362  0.276540  0.434069  1
