# generated using pymatgen
data_DyY5B14OsW
_symmetry_space_group_name_H-M   'P 1'
_cell_length_a   8.13114901
_cell_length_b   8.13114909
_cell_length_c   9.41068001
_cell_angle_alpha   90.00545493
_cell_angle_beta   89.99454543
_cell_angle_gamma   155.11162447
_symmetry_Int_Tables_number   1
_chemical_formula_structural   DyY5B14OsW
_chemical_formula_sum   'Dy1 Y5 B14 Os1 W1'
_cell_volume   261.85086660
_cell_formula_units_Z   1
loop_
 _symmetry_equiv_pos_site_id
 _symmetry_equiv_pos_as_xyz
  1  'x, y, z'
loop_
 _atom_site_type_symbol
 _atom_site_label
 _atom_site_symmetry_multiplicity
 _atom_site_fract_x
 _atom_site_fract_y
 _atom_site_fract_z
 _atom_site_occupancy
  Dy  Dy0  1  0.107060  0.892940  0.941332  1
  Y  Y1  1  0.894044  0.105956  0.437478  1
  Y  Y2  1  0.107087  0.892913  0.558828  1
  Y  Y3  1  0.894053  0.105947  0.062520  1
  Y  Y4  1  0.243450  0.756550  0.250007  1
  Y  Y5  1  0.754980  0.245020  0.750028  1
  B  B6  1  0.726545  0.273455  0.465348  1
  B  B7  1  0.271972  0.728028  0.532016  1
  B  B8  1  0.726519  0.273481  0.034620  1
  B  B9  1  0.271950  0.728050  0.967973  1
  B  B10  1  0.631813  0.368187  0.151127  1
  B  B11  1  0.365249  0.634751  0.852786  1
  B  B12  1  0.631818  0.368182  0.348810  1
  B  B13  1  0.365247  0.634753  0.647216  1
  B  B14  1  0.521326  0.478674  0.096544  1
  B  B15  1  0.480281  0.519719  0.908972  1
  B  B16  1  0.521289  0.478711  0.403399  1
  B  B17  1  0.480249  0.519751  0.591005  1
  B  B18  1  0.458436  0.541564  0.250001  1
  B  B19  1  0.545008  0.454992  0.750054  1
  Os  Os20  1  0.054260  0.945740  0.249920  1
  W  W21  1  0.947366  0.052634  0.750016  1
