# generated using pymatgen
data_Cs6ScCr(IrBr9)2
_symmetry_space_group_name_H-M   'P 1'
_cell_length_a   7.84111100
_cell_length_b   7.84111047
_cell_length_c   19.54236900
_cell_angle_alpha   90.00000000
_cell_angle_beta   90.00000000
_cell_angle_gamma   119.99999800
_symmetry_Int_Tables_number   1
_chemical_formula_structural   Cs6ScCr(IrBr9)2
_chemical_formula_sum   'Cs6 Sc1 Cr1 Ir2 Br18'
_cell_volume   1040.55016954
_cell_formula_units_Z   1
loop_
 _symmetry_equiv_pos_site_id
 _symmetry_equiv_pos_as_xyz
  1  'x, y, z'
loop_
 _atom_site_type_symbol
 _atom_site_label
 _atom_site_symmetry_multiplicity
 _atom_site_fract_x
 _atom_site_fract_y
 _atom_site_fract_z
 _atom_site_occupancy
  Cs  Cs0  1  0.666667  0.333333  0.933036  1
  Cs  Cs1  1  0.333333  0.666667  0.434005  1
  Cs  Cs2  1  0.666667  0.333333  0.570778  1
  Cs  Cs3  1  0.333333  0.666667  0.070261  1
  Cs  Cs4  1  0.000000  0.000000  0.748897  1
  Cs  Cs5  1  0.000000  0.000000  0.247700  1
  Sc  Sc6  1  0.666667  0.333333  0.337690  1
  Cr  Cr7  1  0.333333  0.666667  0.836067  1
  Ir  Ir8  1  0.333333  0.666667  0.668053  1
  Ir  Ir9  1  0.666667  0.333333  0.168487  1
  Br  Br10  1  0.827997  0.655993  0.407470  1
  Br  Br11  1  0.180504  0.361010  0.904407  1
  Br  Br12  1  0.180504  0.819496  0.904407  1
  Br  Br13  1  0.182443  0.364886  0.594995  1
  Br  Br14  1  0.638990  0.819496  0.904407  1
  Br  Br15  1  0.344007  0.172003  0.407470  1
  Br  Br16  1  0.040189  0.520094  0.749004  1
  Br  Br17  1  0.827997  0.172003  0.407470  1
  Br  Br18  1  0.513501  0.027003  0.244077  1
  Br  Br19  1  0.479906  0.520094  0.749004  1
  Br  Br20  1  0.513501  0.486499  0.244077  1
  Br  Br21  1  0.972997  0.486499  0.244077  1
  Br  Br22  1  0.364886  0.182443  0.095057  1
  Br  Br23  1  0.479906  0.959811  0.749004  1
  Br  Br24  1  0.817557  0.635114  0.095057  1
  Br  Br25  1  0.182443  0.817557  0.594995  1
  Br  Br26  1  0.635114  0.817557  0.594995  1
  Br  Br27  1  0.817557  0.182443  0.095057  1
