# generated using pymatgen
data_Dy7Ho3Tl5In3Ni4
_symmetry_space_group_name_H-M   'P 1'
_cell_length_a   3.59450100
_cell_length_b   8.10992614
_cell_length_c   18.05365173
_cell_angle_alpha   89.97919829
_cell_angle_beta   90.00000000
_cell_angle_gamma   90.00000000
_symmetry_Int_Tables_number   1
_chemical_formula_structural   Dy7Ho3Tl5In3Ni4
_chemical_formula_sum   'Dy7 Ho3 Tl5 In3 Ni4'
_cell_volume   526.28445171
_cell_formula_units_Z   1
loop_
 _symmetry_equiv_pos_site_id
 _symmetry_equiv_pos_as_xyz
  1  'x, y, z'
loop_
 _atom_site_type_symbol
 _atom_site_label
 _atom_site_symmetry_multiplicity
 _atom_site_fract_x
 _atom_site_fract_y
 _atom_site_fract_z
 _atom_site_occupancy
  Dy  Dy0  1  0.500000  0.756124  0.719804  1
  Dy  Dy1  1  0.500000  0.257033  0.781287  1
  Dy  Dy2  1  0.500000  0.497526  0.000654  1
  Dy  Dy3  1  0.500000  0.743473  0.219125  1
  Dy  Dy4  1  0.500000  0.243172  0.279955  1
  Dy  Dy5  1  0.500000  0.001055  0.499935  1
  Dy  Dy6  1  0.500000  0.615393  0.409303  1
  Ho  Ho7  1  0.500000  0.383643  0.589687  1
  Ho  Ho8  1  0.500000  0.883932  0.910349  1
  Ho  Ho9  1  0.500000  0.116972  0.088669  1
  Tl  Tl10  1  0.000000  0.796202  0.066538  1
  Tl  Tl11  1  0.000000  0.924982  0.347072  1
  Tl  Tl12  1  0.000000  0.079257  0.653306  1
  Tl  Tl13  1  0.000000  0.576536  0.848364  1
  Tl  Tl14  1  0.000000  0.701624  0.565708  1
  In  In15  1  0.000000  0.200721  0.933349  1
  In  In16  1  0.000000  0.297265  0.433121  1
  In  In17  1  0.000000  0.419801  0.153178  1
  Ni  Ni18  1  0.000000  0.979029  0.805776  1
  Ni  Ni19  1  0.000000  0.519608  0.302830  1
  Ni  Ni20  1  0.000000  0.477168  0.696653  1
  Ni  Ni21  1  0.000000  0.029483  0.195337  1
