# generated using pymatgen
data_LiAg3(PdO3)2
_symmetry_space_group_name_H-M   'P 1'
_cell_length_a   5.32454067
_cell_length_b   5.32466685
_cell_length_c   6.52918925
_cell_angle_alpha   74.25505041
_cell_angle_beta   97.79799583
_cell_angle_gamma   120.00078176
_symmetry_Int_Tables_number   1
_chemical_formula_structural   LiAg3(PdO3)2
_chemical_formula_sum   'Li1 Ag3 Pd2 O6'
_cell_volume   154.29519097
_cell_formula_units_Z   1
loop_
 _symmetry_equiv_pos_site_id
 _symmetry_equiv_pos_as_xyz
  1  'x, y, z'
loop_
 _atom_site_type_symbol
 _atom_site_label
 _atom_site_symmetry_multiplicity
 _atom_site_fract_x
 _atom_site_fract_y
 _atom_site_fract_z
 _atom_site_occupancy
  Li  Li0  1  0.333333  0.166667  0.500000  1
  Ag  Ag1  1  0.677603  0.338800  0.000000  1
  Ag  Ag2  1  0.333333  0.666667  0.000000  1
  Ag  Ag3  1  0.989064  0.994533  0.000000  1
  Pd  Pd4  1  0.999957  0.499978  0.500000  1
  Pd  Pd5  1  0.666710  0.833355  0.500000  1
  O  O6  1  0.333333  0.769583  0.665627  1
  O  O7  1  0.992838  0.111974  0.665670  1
  O  O8  1  0.673829  0.452468  0.665670  1
  O  O9  1  0.673829  0.221359  0.334330  1
  O  O10  1  0.333333  0.563751  0.334373  1
  O  O11  1  0.992838  0.880865  0.334330  1
