# generated using pymatgen
data_Dy2ErTh(Al3Rh)6
_symmetry_space_group_name_H-M   'P 1'
_cell_length_a   7.57304108
_cell_length_b   7.59002487
_cell_length_c   9.47217800
_cell_angle_alpha   90.00000000
_cell_angle_beta   90.00000000
_cell_angle_gamma   119.36655435
_symmetry_Int_Tables_number   1
_chemical_formula_structural   Dy2ErTh(Al3Rh)6
_chemical_formula_sum   'Dy2 Er1 Th1 Al18 Rh6'
_cell_volume   474.49415176
_cell_formula_units_Z   1
loop_
 _symmetry_equiv_pos_site_id
 _symmetry_equiv_pos_as_xyz
  1  'x, y, z'
loop_
 _atom_site_type_symbol
 _atom_site_label
 _atom_site_symmetry_multiplicity
 _atom_site_fract_x
 _atom_site_fract_y
 _atom_site_fract_z
 _atom_site_occupancy
  Dy  Dy0  1  0.004454  0.327964  0.250000  1
  Dy  Dy1  1  0.672005  0.994497  0.750000  1
  Er  Er2  1  0.327672  0.005072  0.250000  1
  Th  Th3  1  0.994717  0.671294  0.750000  1
  Al  Al4  1  0.130955  0.132447  0.750000  1
  Al  Al5  1  0.872359  0.874537  0.250000  1
  Al  Al6  1  0.001363  0.331000  0.572463  1
  Al  Al7  1  0.999473  0.664412  0.417381  1
  Al  Al8  1  0.999473  0.664412  0.082619  1
  Al  Al9  1  0.340263  0.005325  0.927781  1
  Al  Al10  1  0.001363  0.331000  0.927537  1
  Al  Al11  1  0.664071  0.000595  0.076884  1
  Al  Al12  1  0.664071  0.000595  0.423116  1
  Al  Al13  1  0.340263  0.005325  0.572219  1
  Al  Al14  1  0.332219  0.332068  0.054748  1
  Al  Al15  1  0.663265  0.666670  0.956278  1
  Al  Al16  1  0.663265  0.666670  0.543722  1
  Al  Al17  1  0.332219  0.332068  0.445252  1
  Al  Al18  1  0.344171  0.549006  0.750000  1
  Al  Al19  1  0.657762  0.447452  0.250000  1
  Al  Al20  1  0.545254  0.336476  0.750000  1
  Al  Al21  1  0.448710  0.661134  0.250000  1
  Rh  Rh22  1  0.673364  0.329299  0.499942  1
  Rh  Rh23  1  0.326425  0.671860  0.500190  1
  Rh  Rh24  1  0.326425  0.671860  0.999810  1
  Rh  Rh25  1  0.673364  0.329299  0.000058  1
  Rh  Rh26  1  0.000528  0.998831  0.499992  1
  Rh  Rh27  1  0.000528  0.998831  0.000008  1
