# generated using pymatgen
data_KBa2(H6Pt)2
_symmetry_space_group_name_H-M   'P 1'
_cell_length_a   5.47561700
_cell_length_b   5.47561688
_cell_length_c   9.09656000
_cell_angle_alpha   90.00000000
_cell_angle_beta   90.00000000
_cell_angle_gamma   120.00000675
_symmetry_Int_Tables_number   1
_chemical_formula_structural   KBa2(H6Pt)2
_chemical_formula_sum   'K1 Ba2 H12 Pt2'
_cell_volume   236.19674463
_cell_formula_units_Z   1
loop_
 _symmetry_equiv_pos_site_id
 _symmetry_equiv_pos_as_xyz
  1  'x, y, z'
loop_
 _atom_site_type_symbol
 _atom_site_label
 _atom_site_symmetry_multiplicity
 _atom_site_fract_x
 _atom_site_fract_y
 _atom_site_fract_z
 _atom_site_occupancy
  K  K0  1  0.666667  0.333333  0.362635  1
  Ba  Ba1  1  0.000000  0.000000  0.004950  1
  Ba  Ba2  1  0.333333  0.666667  0.622918  1
  H  H3  1  0.188605  0.811395  0.340815  1
  H  H4  1  0.622790  0.811395  0.340815  1
  H  H5  1  0.188605  0.377210  0.340815  1
  H  H6  1  0.813637  0.186363  0.660196  1
  H  H7  1  0.372725  0.186363  0.660196  1
  H  H8  1  0.813637  0.627275  0.660196  1
  H  H9  1  0.521591  0.043181  0.872113  1
  H  H10  1  0.521591  0.478409  0.872113  1
  H  H11  1  0.956819  0.478409  0.872113  1
  H  H12  1  0.474554  0.949109  0.129310  1
  H  H13  1  0.474554  0.525446  0.129310  1
  H  H14  1  0.050891  0.525446  0.129310  1
  Pt  Pt15  1  0.666667  0.333333  0.765476  1
  Pt  Pt16  1  0.333333  0.666667  0.236719  1
