# generated using pymatgen
data_Li8Dy2Y2Ho4Sn5Sb3
_symmetry_space_group_name_H-M   'P 1'
_cell_length_a   9.36757603
_cell_length_b   9.36659304
_cell_length_c   7.18307600
_cell_angle_alpha   89.99999279
_cell_angle_beta   90.00240805
_cell_angle_gamma   119.99653753
_symmetry_Int_Tables_number   1
_chemical_formula_structural   Li8Dy2Y2Ho4Sn5Sb3
_chemical_formula_sum   'Li8 Dy2 Y2 Ho4 Sn5 Sb3'
_cell_volume   545.83970318
_cell_formula_units_Z   1
loop_
 _symmetry_equiv_pos_site_id
 _symmetry_equiv_pos_as_xyz
  1  'x, y, z'
loop_
 _atom_site_type_symbol
 _atom_site_label
 _atom_site_symmetry_multiplicity
 _atom_site_fract_x
 _atom_site_fract_y
 _atom_site_fract_z
 _atom_site_occupancy
  Li  Li0  1  0.166813  0.333692  0.282999  1
  Li  Li1  1  0.166813  0.833121  0.282999  1
  Li  Li2  1  0.666226  0.833112  0.282925  1
  Li  Li3  1  0.833075  0.666106  0.785429  1
  Li  Li4  1  0.833075  0.166967  0.785429  1
  Li  Li5  1  0.333936  0.166967  0.785553  1
  Li  Li6  1  0.333309  0.666655  0.678642  1
  Li  Li7  1  0.666571  0.333284  0.182722  1
  Dy  Dy8  1  0.999877  0.999939  0.497552  1
  Dy  Dy9  1  0.000045  0.000022  0.004119  1
  Y  Y10  1  0.511719  0.023509  0.490654  1
  Y  Y11  1  0.511719  0.488208  0.490654  1
  Ho  Ho12  1  0.976529  0.488264  0.490455  1
  Ho  Ho13  1  0.490414  0.980776  0.995689  1
  Ho  Ho14  1  0.490414  0.509639  0.995689  1
  Ho  Ho15  1  0.019064  0.509532  0.995796  1
  Sn  Sn16  1  0.833653  0.666874  0.232310  1
  Sn  Sn17  1  0.833653  0.166780  0.232310  1
  Sn  Sn18  1  0.333136  0.166569  0.231845  1
  Sn  Sn19  1  0.333200  0.666600  0.257151  1
  Sn  Sn20  1  0.666986  0.333492  0.758644  1
  Sb  Sb21  1  0.166565  0.333409  0.734059  1
  Sb  Sb22  1  0.166565  0.833156  0.734059  1
  Sb  Sb23  1  0.666649  0.833324  0.734314  1
