# generated using pymatgen
data_TbYb(CoO2)6
_symmetry_space_group_name_H-M   'P 1'
_cell_length_a   4.92193909
_cell_length_b   5.53941081
_cell_length_c   8.50656900
_cell_angle_alpha   89.99966802
_cell_angle_beta   89.99994938
_cell_angle_gamma   73.10748774
_symmetry_Int_Tables_number   1
_chemical_formula_structural   TbYb(CoO2)6
_chemical_formula_sum   'Tb1 Yb1 Co6 O12'
_cell_volume   221.92120948
_cell_formula_units_Z   1
loop_
 _symmetry_equiv_pos_site_id
 _symmetry_equiv_pos_as_xyz
  1  'x, y, z'
loop_
 _atom_site_type_symbol
 _atom_site_label
 _atom_site_symmetry_multiplicity
 _atom_site_fract_x
 _atom_site_fract_y
 _atom_site_fract_z
 _atom_site_occupancy
  Tb  Tb0  1  0.000000  0.500000  0.166740  1
  Yb  Yb1  1  0.499999  0.500001  0.667011  1
  Co  Co2  1  0.500000  0.000000  0.166606  1
  Co  Co3  1  0.500000  0.000000  0.833541  1
  Co  Co4  1  0.500001  0.999999  0.499773  1
  Co  Co5  1  0.000000  0.000000  0.666590  1
  Co  Co6  1  0.000000  0.000000  0.335617  1
  Co  Co7  1  0.000000  0.000000  0.997692  1
  O  O8  1  0.773142  0.191134  0.166689  1
  O  O9  1  0.271260  0.186144  0.666600  1
  O  O10  1  0.226858  0.808867  0.166690  1
  O  O11  1  0.728741  0.813855  0.666602  1
  O  O12  1  0.268241  0.193051  0.000960  1
  O  O13  1  0.772105  0.187495  0.503678  1
  O  O14  1  0.268359  0.192904  0.332304  1
  O  O15  1  0.772314  0.186899  0.829647  1
  O  O16  1  0.731642  0.807095  0.332304  1
  O  O17  1  0.227686  0.813101  0.829648  1
  O  O18  1  0.731758  0.806950  0.000961  1
  O  O19  1  0.227894  0.812505  0.503679  1
