# generated using pymatgen
data_LaPa(CoP)4
_symmetry_space_group_name_H-M   'P 1'
_cell_length_a   4.01059000
_cell_length_b   4.01059000
_cell_length_c   9.05940600
_cell_angle_alpha   90.00000000
_cell_angle_beta   90.00000000
_cell_angle_gamma   90.00000000
_symmetry_Int_Tables_number   1
_chemical_formula_structural   LaPa(CoP)4
_chemical_formula_sum   'La1 Pa1 Co4 P4'
_cell_volume   145.71902487
_cell_formula_units_Z   1
loop_
 _symmetry_equiv_pos_site_id
 _symmetry_equiv_pos_as_xyz
  1  'x, y, z'
loop_
 _atom_site_type_symbol
 _atom_site_label
 _atom_site_symmetry_multiplicity
 _atom_site_fract_x
 _atom_site_fract_y
 _atom_site_fract_z
 _atom_site_occupancy
  La  La0  1  0.500000  0.000000  0.248954  1
  Pa  Pa1  1  0.000000  0.500000  0.747303  1
  Co  Co2  1  0.000000  0.500000  0.101991  1
  Co  Co3  1  0.000000  0.000000  0.512632  1
  Co  Co4  1  0.500000  0.000000  0.881557  1
  Co  Co5  1  0.500000  0.500000  0.512632  1
  P  P6  1  0.000000  0.500000  0.371529  1
  P  P7  1  0.000000  0.000000  0.994230  1
  P  P8  1  0.500000  0.000000  0.634946  1
  P  P9  1  0.500000  0.500000  0.994230  1
