# generated using pymatgen
data_Tm5(Lu5Bi4)3
_symmetry_space_group_name_H-M   'P 1'
_cell_length_a   8.13754313
_cell_length_b   9.38688300
_cell_length_c   11.83656718
_cell_angle_alpha   90.00000000
_cell_angle_beta   90.02011094
_cell_angle_gamma   90.00000000
_symmetry_Int_Tables_number   1
_chemical_formula_structural   Tm5(Lu5Bi4)3
_chemical_formula_sum   'Tm5 Lu15 Bi12'
_cell_volume   904.14992078
_cell_formula_units_Z   1
loop_
 _symmetry_equiv_pos_site_id
 _symmetry_equiv_pos_as_xyz
  1  'x, y, z'
loop_
 _atom_site_type_symbol
 _atom_site_label
 _atom_site_symmetry_multiplicity
 _atom_site_fract_x
 _atom_site_fract_y
 _atom_site_fract_z
 _atom_site_occupancy
  Tm  Tm0  1  0.855444  0.250000  0.217151  1
  Tm  Tm1  1  0.188087  0.250000  0.781608  1
  Tm  Tm2  1  0.811921  0.750000  0.218384  1
  Tm  Tm3  1  0.311853  0.750000  0.281626  1
  Tm  Tm4  1  0.688113  0.250000  0.718398  1
  Lu  Lu5  1  0.025911  0.250000  0.511081  1
  Lu  Lu6  1  0.974260  0.750000  0.489080  1
  Lu  Lu7  1  0.474156  0.750000  0.010897  1
  Lu  Lu8  1  0.525799  0.250000  0.989040  1
  Lu  Lu9  1  0.355424  0.250000  0.282735  1
  Lu  Lu10  1  0.644475  0.750000  0.717351  1
  Lu  Lu11  1  0.144542  0.750000  0.782743  1
  Lu  Lu12  1  0.194104  0.066380  0.060487  1
  Lu  Lu13  1  0.805914  0.933627  0.939472  1
  Lu  Lu14  1  0.305913  0.933610  0.560497  1
  Lu  Lu15  1  0.805914  0.566373  0.939472  1
  Lu  Lu16  1  0.694013  0.066341  0.439635  1
  Lu  Lu17  1  0.194104  0.433620  0.060487  1
  Lu  Lu18  1  0.694013  0.433659  0.439635  1
  Lu  Lu19  1  0.305913  0.566390  0.560497  1
  Bi  Bi20  1  0.407227  0.250000  0.542234  1
  Bi  Bi21  1  0.592787  0.750000  0.457746  1
  Bi  Bi22  1  0.092773  0.750000  0.042273  1
  Bi  Bi23  1  0.907341  0.250000  0.957391  1
  Bi  Bi24  1  0.067001  0.003617  0.326083  1
  Bi  Bi25  1  0.933133  0.996207  0.673986  1
  Bi  Bi26  1  0.433117  0.996161  0.826009  1
  Bi  Bi27  1  0.933133  0.503793  0.673986  1
  Bi  Bi28  1  0.566747  0.003763  0.173963  1
  Bi  Bi29  1  0.067001  0.496383  0.326083  1
  Bi  Bi30  1  0.566747  0.496237  0.173963  1
  Bi  Bi31  1  0.433117  0.503839  0.826009  1
