# generated using pymatgen
data_Tb16MgCo4Au3
_symmetry_space_group_name_H-M   'P 1'
_cell_length_a   9.41735372
_cell_length_b   9.46513228
_cell_length_c   9.46513300
_cell_angle_alpha   60.00000099
_cell_angle_beta   59.83202991
_cell_angle_gamma   59.83202182
_symmetry_Int_Tables_number   1
_chemical_formula_structural   Tb16MgCo4Au3
_chemical_formula_sum   'Tb16 Mg1 Co4 Au3'
_cell_volume   595.05892886
_cell_formula_units_Z   1
loop_
 _symmetry_equiv_pos_site_id
 _symmetry_equiv_pos_as_xyz
  1  'x, y, z'
loop_
 _atom_site_type_symbol
 _atom_site_label
 _atom_site_symmetry_multiplicity
 _atom_site_fract_x
 _atom_site_fract_y
 _atom_site_fract_z
 _atom_site_occupancy
  Tb  Tb0  1  0.807549  0.190379  0.190379  1
  Tb  Tb1  1  0.185768  0.814144  0.814144  1
  Tb  Tb2  1  0.185768  0.814144  0.185944  1
  Tb  Tb3  1  0.807549  0.190379  0.811694  1
  Tb  Tb4  1  0.185768  0.185944  0.814144  1
  Tb  Tb5  1  0.807549  0.811694  0.190379  1
  Tb  Tb6  1  0.936146  0.562395  0.562396  1
  Tb  Tb7  1  0.562283  0.936792  0.936793  1
  Tb  Tb8  1  0.562284  0.936792  0.564131  1
  Tb  Tb9  1  0.936146  0.562395  0.939064  1
  Tb  Tb10  1  0.562284  0.564130  0.936793  1
  Tb  Tb11  1  0.936146  0.939063  0.562396  1
  Tb  Tb12  1  0.348415  0.346372  0.346372  1
  Tb  Tb13  1  0.348415  0.346372  0.958840  1
  Tb  Tb14  1  0.348415  0.958840  0.346372  1
  Tb  Tb15  1  0.932797  0.355734  0.355734  1
  Mg  Mg16  1  0.311950  0.562683  0.562683  1
  Co  Co17  1  0.135274  0.144120  0.144120  1
  Co  Co18  1  0.135274  0.144120  0.576486  1
  Co  Co19  1  0.135274  0.576486  0.144120  1
  Co  Co20  1  0.575344  0.141552  0.141552  1
  Au  Au21  1  0.584534  0.592102  0.592102  1
  Au  Au22  1  0.584534  0.592102  0.231262  1
  Au  Au23  1  0.584534  0.231262  0.592102  1
