# generated using pymatgen
data_Tb2Pa2Tc7Ir
_symmetry_space_group_name_H-M   'P 1'
_cell_length_a   5.20015800
_cell_length_b   5.20015756
_cell_length_c   9.48321800
_cell_angle_alpha   90.00000000
_cell_angle_beta   90.00000000
_cell_angle_gamma   119.99999008
_symmetry_Int_Tables_number   1
_chemical_formula_structural   Tb2Pa2Tc7Ir
_chemical_formula_sum   'Tb2 Pa2 Tc7 Ir1'
_cell_volume   222.08511484
_cell_formula_units_Z   1
loop_
 _symmetry_equiv_pos_site_id
 _symmetry_equiv_pos_as_xyz
  1  'x, y, z'
loop_
 _atom_site_type_symbol
 _atom_site_label
 _atom_site_symmetry_multiplicity
 _atom_site_fract_x
 _atom_site_fract_y
 _atom_site_fract_z
 _atom_site_occupancy
  Tb  Tb0  1  0.666667  0.333333  0.935528  1
  Tb  Tb1  1  0.333333  0.666667  0.064472  1
  Pa  Pa2  1  0.333333  0.666667  0.437343  1
  Pa  Pa3  1  0.666667  0.333333  0.562657  1
  Tc  Tc4  1  0.000000  0.000000  0.500000  1
  Tc  Tc5  1  0.830409  0.169591  0.248969  1
  Tc  Tc6  1  0.830409  0.660818  0.248969  1
  Tc  Tc7  1  0.339182  0.169591  0.248969  1
  Tc  Tc8  1  0.169591  0.830409  0.751031  1
  Tc  Tc9  1  0.169591  0.339182  0.751031  1
  Tc  Tc10  1  0.660818  0.830409  0.751031  1
  Ir  Ir11  1  0.000000  0.000000  0.000000  1
