# generated using pymatgen
data_TaTiNb2AlC3
_symmetry_space_group_name_H-M   'P 1'
_cell_length_a   3.11581000
_cell_length_b   3.11581120
_cell_length_c   24.15541900
_cell_angle_alpha   90.00000000
_cell_angle_beta   90.00000000
_cell_angle_gamma   119.99998725
_symmetry_Int_Tables_number   1
_chemical_formula_structural   TaTiNb2AlC3
_chemical_formula_sum   'Ta2 Ti2 Nb4 Al2 C6'
_cell_volume   203.08945010
_cell_formula_units_Z   2
loop_
 _symmetry_equiv_pos_site_id
 _symmetry_equiv_pos_as_xyz
  1  'x, y, z'
loop_
 _atom_site_type_symbol
 _atom_site_label
 _atom_site_symmetry_multiplicity
 _atom_site_fract_x
 _atom_site_fract_y
 _atom_site_fract_z
 _atom_site_occupancy
  Ta  Ta0  1  0.666667  0.333333  0.552756  1
  Ta  Ta1  1  0.333333  0.666667  0.052756  1
  Ti  Ti2  1  0.333333  0.666667  0.445489  1
  Ti  Ti3  1  0.666667  0.333333  0.945489  1
  Nb  Nb4  1  0.000000  0.000000  0.342814  1
  Nb  Nb5  1  0.000000  0.000000  0.842814  1
  Nb  Nb6  1  0.000000  0.000000  0.658392  1
  Nb  Nb7  1  0.000000  0.000000  0.158392  1
  Al  Al8  1  0.666667  0.333333  0.750853  1
  Al  Al9  1  0.333333  0.666667  0.250853  1
  C  C10  1  0.666667  0.333333  0.394170  1
  C  C11  1  0.333333  0.666667  0.894170  1
  C  C12  1  0.333333  0.666667  0.606578  1
  C  C13  1  0.000000  0.000000  0.998948  1
  C  C14  1  0.666667  0.333333  0.106578  1
  C  C15  1  0.000000  0.000000  0.498948  1
