# generated using pymatgen
data_CeY(B4Os)2
_symmetry_space_group_name_H-M   'P 1'
_cell_length_a   3.59813100
_cell_length_b   5.99903444
_cell_length_c   11.63238325
_cell_angle_alpha   90.19600373
_cell_angle_beta   90.00000000
_cell_angle_gamma   90.00000000
_symmetry_Int_Tables_number   1
_chemical_formula_structural   CeY(B4Os)2
_chemical_formula_sum   'Ce2 Y2 B16 Os4'
_cell_volume   251.08715010
_cell_formula_units_Z   2
loop_
 _symmetry_equiv_pos_site_id
 _symmetry_equiv_pos_as_xyz
  1  'x, y, z'
loop_
 _atom_site_type_symbol
 _atom_site_label
 _atom_site_symmetry_multiplicity
 _atom_site_fract_x
 _atom_site_fract_y
 _atom_site_fract_z
 _atom_site_occupancy
  Ce  Ce0  1  0.000000  0.129393  0.650938  1
  Ce  Ce1  1  0.000000  0.870607  0.349062  1
  Y  Y2  1  0.000000  0.627703  0.851920  1
  Y  Y3  1  0.000000  0.372297  0.148080  1
  B  B4  1  0.500000  0.474462  0.691946  1
  B  B5  1  0.500000  0.525538  0.308054  1
  B  B6  1  0.500000  0.972588  0.810457  1
  B  B7  1  0.500000  0.027412  0.189543  1
  B  B8  1  0.500000  0.288715  0.815335  1
  B  B9  1  0.500000  0.711285  0.184665  1
  B  B10  1  0.500000  0.785922  0.687010  1
  B  B11  1  0.500000  0.214078  0.312990  1
  B  B12  1  0.500000  0.363507  0.969656  1
  B  B13  1  0.500000  0.636493  0.030344  1
  B  B14  1  0.500000  0.862389  0.530598  1
  B  B15  1  0.500000  0.137611  0.469402  1
  B  B16  1  0.500000  0.388809  0.546442  1
  B  B17  1  0.500000  0.611191  0.453558  1
  B  B18  1  0.500000  0.887197  0.954101  1
  B  B19  1  0.500000  0.112803  0.045899  1
  Os  Os20  1  0.000000  0.139570  0.905979  1
  Os  Os21  1  0.000000  0.860430  0.094021  1
  Os  Os22  1  0.000000  0.640516  0.594235  1
  Os  Os23  1  0.000000  0.359484  0.405765  1
