# generated using pymatgen
data_Dy2Mg3Pa2ZnRh4
_symmetry_space_group_name_H-M   'P 1'
_cell_length_a   3.86447800
_cell_length_b   7.25659393
_cell_length_c   8.79682162
_cell_angle_alpha   93.31732688
_cell_angle_beta   90.00000000
_cell_angle_gamma   90.00000000
_symmetry_Int_Tables_number   1
_chemical_formula_structural   Dy2Mg3Pa2ZnRh4
_chemical_formula_sum   'Dy2 Mg3 Pa2 Zn1 Rh4'
_cell_volume   246.27544672
_cell_formula_units_Z   1
loop_
 _symmetry_equiv_pos_site_id
 _symmetry_equiv_pos_as_xyz
  1  'x, y, z'
loop_
 _atom_site_type_symbol
 _atom_site_label
 _atom_site_symmetry_multiplicity
 _atom_site_fract_x
 _atom_site_fract_y
 _atom_site_fract_z
 _atom_site_occupancy
  Dy  Dy0  1  0.250000  0.054229  0.329423  1
  Dy  Dy1  1  0.750000  0.958091  0.674567  1
  Mg  Mg2  1  0.250000  0.130166  0.939920  1
  Mg  Mg3  1  0.750000  0.868820  0.061090  1
  Mg  Mg4  1  0.250000  0.631049  0.551434  1
  Pa  Pa5  1  0.250000  0.535844  0.192866  1
  Pa  Pa6  1  0.750000  0.459998  0.809277  1
  Zn  Zn7  1  0.750000  0.362975  0.443889  1
  Rh  Rh8  1  0.750000  0.739612  0.349019  1
  Rh  Rh9  1  0.250000  0.262332  0.647953  1
  Rh  Rh10  1  0.750000  0.284801  0.128822  1
  Rh  Rh11  1  0.250000  0.712082  0.871739  1
