# generated using pymatgen
data_CaPrTiVO6
_symmetry_space_group_name_H-M   'P 1'
_cell_length_a   7.83981707
_cell_length_b   9.52703807
_cell_length_c   7.83981765
_cell_angle_alpha   113.78098886
_cell_angle_beta   91.11098914
_cell_angle_gamma   113.78098596
_symmetry_Int_Tables_number   1
_chemical_formula_structural   CaPrTiVO6
_chemical_formula_sum   'Ca4 Pr4 Ti4 V4 O24'
_cell_volume   478.62354490
_cell_formula_units_Z   4
loop_
 _symmetry_equiv_pos_site_id
 _symmetry_equiv_pos_as_xyz
  1  'x, y, z'
loop_
 _atom_site_type_symbol
 _atom_site_label
 _atom_site_symmetry_multiplicity
 _atom_site_fract_x
 _atom_site_fract_y
 _atom_site_fract_z
 _atom_site_occupancy
  Ca  Ca0  1  0.107128  0.250472  0.654486  1
  Ca  Ca1  1  0.607128  0.250472  0.154486  1
  Ca  Ca2  1  0.904486  0.750472  0.857128  1
  Ca  Ca3  1  0.404486  0.750472  0.357128  1
  Pr  Pr4  1  0.596502  0.250069  0.642315  1
  Pr  Pr5  1  0.096502  0.250069  0.142315  1
  Pr  Pr6  1  0.392315  0.750069  0.846502  1
  Pr  Pr7  1  0.892315  0.750069  0.346502  1
  Ti  Ti8  1  0.248608  0.000981  0.752484  1
  Ti  Ti9  1  0.748608  0.000981  0.252484  1
  Ti  Ti10  1  0.002484  0.500981  0.998608  1
  Ti  Ti11  1  0.502484  0.500981  0.498608  1
  V  V12  1  0.499666  0.499912  0.000045  1
  V  V13  1  0.250045  0.999912  0.249666  1
  V  V14  1  0.999666  0.499912  0.500045  1
  V  V15  1  0.750045  0.999912  0.749666  1
  O  O16  1  0.574215  0.753020  0.097197  1
  O  O17  1  0.074215  0.753020  0.597197  1
  O  O18  1  0.847197  0.253020  0.824215  1
  O  O19  1  0.347197  0.253020  0.324215  1
  O  O20  1  0.028711  0.043478  0.812685  1
  O  O21  1  0.528711  0.043478  0.312685  1
  O  O22  1  0.062685  0.543478  0.778711  1
  O  O23  1  0.562685  0.543478  0.278711  1
  O  O24  1  0.227329  0.457582  0.018052  1
  O  O25  1  0.727329  0.457582  0.518052  1
  O  O26  1  0.268052  0.957582  0.977329  1
  O  O27  1  0.768052  0.957582  0.477329  1
  O  O28  1  0.230548  0.043517  0.523739  1
  O  O29  1  0.730548  0.043517  0.023739  1
  O  O30  1  0.273739  0.543517  0.480548  1
  O  O31  1  0.773739  0.543517  0.980548  1
  O  O32  1  0.435971  0.454200  0.718899  1
  O  O33  1  0.935971  0.454200  0.218899  1
  O  O34  1  0.468899  0.954200  0.685971  1
  O  O35  1  0.968899  0.954200  0.185971  1
  O  O36  1  0.655338  0.746766  0.676083  1
  O  O37  1  0.155338  0.746766  0.176083  1
  O  O38  1  0.926083  0.246766  0.405338  1
  O  O39  1  0.426083  0.246766  0.905338  1
