# generated using pymatgen
data_Hf3NiAsPOs3
_symmetry_space_group_name_H-M   'P 1'
_cell_length_a   6.49950900
_cell_length_b   6.49950933
_cell_length_c   3.87000400
_cell_angle_alpha   90.00000000
_cell_angle_beta   90.00000000
_cell_angle_gamma   120.00000340
_symmetry_Int_Tables_number   1
_chemical_formula_structural   Hf3NiAsPOs3
_chemical_formula_sum   'Hf3 Ni1 As1 P1 Os3'
_cell_volume   141.58040547
_cell_formula_units_Z   1
loop_
 _symmetry_equiv_pos_site_id
 _symmetry_equiv_pos_as_xyz
  1  'x, y, z'
loop_
 _atom_site_type_symbol
 _atom_site_label
 _atom_site_symmetry_multiplicity
 _atom_site_fract_x
 _atom_site_fract_y
 _atom_site_fract_z
 _atom_site_occupancy
  Hf  Hf0  1  0.390875  0.402334  0.500000  1
  Hf  Hf1  1  0.597666  0.988541  0.500000  1
  Hf  Hf2  1  0.011459  0.609125  0.500000  1
  Ni  Ni3  1  0.000000  0.000000  0.500000  1
  As  As4  1  0.666667  0.333333  0.000000  1
  P  P5  1  0.333333  0.666667  0.000000  1
  Os  Os6  1  0.753293  0.764354  0.000000  1
  Os  Os7  1  0.235646  0.988939  0.000000  1
  Os  Os8  1  0.011061  0.246707  0.000000  1
