# generated using pymatgen
data_Er4MnB12Rh
_symmetry_space_group_name_H-M   'P 1'
_cell_length_a   3.59580900
_cell_length_b   9.08485408
_cell_length_c   11.45303875
_cell_angle_alpha   90.22852833
_cell_angle_beta   90.00000000
_cell_angle_gamma   90.00000000
_symmetry_Int_Tables_number   1
_chemical_formula_structural   Er4MnB12Rh
_chemical_formula_sum   'Er8 Mn2 B24 Rh2'
_cell_volume   374.13802301
_cell_formula_units_Z   2
loop_
 _symmetry_equiv_pos_site_id
 _symmetry_equiv_pos_as_xyz
  1  'x, y, z'
loop_
 _atom_site_type_symbol
 _atom_site_label
 _atom_site_symmetry_multiplicity
 _atom_site_fract_x
 _atom_site_fract_y
 _atom_site_fract_z
 _atom_site_occupancy
  Er  Er0  1  0.500000  0.318573  0.410310  1
  Er  Er1  1  0.500000  0.681427  0.589690  1
  Er  Er2  1  0.500000  0.171636  0.917358  1
  Er  Er3  1  0.500000  0.828364  0.082642  1
  Er  Er4  1  0.500000  0.439712  0.126440  1
  Er  Er5  1  0.500000  0.560288  0.873560  1
  Er  Er6  1  0.500000  0.051943  0.629851  1
  Er  Er7  1  0.500000  0.948057  0.370149  1
  Mn  Mn8  1  0.500000  0.139664  0.179750  1
  Mn  Mn9  1  0.500000  0.860336  0.820250  1
  B  B10  1  0.000000  0.108765  0.470451  1
  B  B11  1  0.000000  0.891235  0.529549  1
  B  B12  1  0.000000  0.391385  0.969983  1
  B  B13  1  0.000000  0.608615  0.030017  1
  B  B14  1  0.000000  0.133093  0.313274  1
  B  B15  1  0.000000  0.866907  0.686726  1
  B  B16  1  0.000000  0.366662  0.816654  1
  B  B17  1  0.000000  0.633338  0.183346  1
  B  B18  1  0.000000  0.053651  0.067838  1
  B  B19  1  0.000000  0.946349  0.932162  1
  B  B20  1  0.000000  0.446184  0.565942  1
  B  B21  1  0.000000  0.553816  0.434058  1
  B  B22  1  0.000000  0.482590  0.287321  1
  B  B23  1  0.000000  0.517410  0.712679  1
  B  B24  1  0.000000  0.013733  0.788266  1
  B  B25  1  0.000000  0.986267  0.211734  1
  B  B26  1  0.000000  0.246102  0.081732  1
  B  B27  1  0.000000  0.753898  0.918268  1
  B  B28  1  0.000000  0.250214  0.578630  1
  B  B29  1  0.000000  0.749786  0.421370  1
  B  B30  1  0.000000  0.291238  0.233540  1
  B  B31  1  0.000000  0.708762  0.766460  1
  B  B32  1  0.000000  0.206653  0.735399  1
  B  B33  1  0.000000  0.793347  0.264601  1
  Rh  Rh34  1  0.500000  0.361235  0.678726  1
  Rh  Rh35  1  0.500000  0.638765  0.321274  1
