# generated using pymatgen
data_Y2Tm10ZnCo4Sn
_symmetry_space_group_name_H-M   'P 1'
_cell_length_a   8.24167167
_cell_length_b   8.21009630
_cell_length_c   8.21009702
_cell_angle_alpha   112.02625496
_cell_angle_beta   109.35521206
_cell_angle_gamma   106.92684807
_symmetry_Int_Tables_number   1
_chemical_formula_structural   Y2Tm10ZnCo4Sn
_chemical_formula_sum   'Y2 Tm10 Zn1 Co4 Sn1'
_cell_volume   427.56912339
_cell_formula_units_Z   1
loop_
 _symmetry_equiv_pos_site_id
 _symmetry_equiv_pos_as_xyz
  1  'x, y, z'
loop_
 _atom_site_type_symbol
 _atom_site_label
 _atom_site_symmetry_multiplicity
 _atom_site_fract_x
 _atom_site_fract_y
 _atom_site_fract_z
 _atom_site_occupancy
  Y  Y0  1  0.430255  0.230011  0.200245  1
  Y  Y1  1  0.569745  0.769989  0.799755  1
  Tm  Tm2  1  0.028630  0.229492  0.799138  1
  Tm  Tm3  1  0.971370  0.770508  0.200862  1
  Tm  Tm4  1  0.179464  0.281778  0.464522  1
  Tm  Tm5  1  0.820536  0.718222  0.535478  1
  Tm  Tm6  1  0.179464  0.714942  0.897685  1
  Tm  Tm7  1  0.820536  0.285058  0.102315  1
  Tm  Tm8  1  0.322140  0.635962  0.309809  1
  Tm  Tm9  1  0.677860  0.364038  0.690191  1
  Tm  Tm10  1  0.322140  0.012330  0.686179  1
  Tm  Tm11  1  0.677860  0.987670  0.313821  1
  Zn  Zn12  1  0.000000  0.000000  0.000000  1
  Co  Co13  1  0.345925  0.998203  0.347722  1
  Co  Co14  1  0.654075  0.001797  0.652278  1
  Co  Co15  1  0.113149  0.614747  0.498401  1
  Co  Co16  1  0.886851  0.385253  0.501599  1
  Sn  Sn17  1  0.500000  0.500000  0.000000  1
