# generated using pymatgen
data_CaYb2ScBi3
_symmetry_space_group_name_H-M   'P 1'
_cell_length_a   8.01863131
_cell_length_b   8.27452762
_cell_length_c   8.27820039
_cell_angle_alpha   110.08402055
_cell_angle_beta   108.84150143
_cell_angle_gamma   108.83749889
_symmetry_Int_Tables_number   1
_chemical_formula_structural   CaYb2ScBi3
_chemical_formula_sum   'Ca2 Yb4 Sc2 Bi6'
_cell_volume   426.13270331
_cell_formula_units_Z   2
loop_
 _symmetry_equiv_pos_site_id
 _symmetry_equiv_pos_as_xyz
  1  'x, y, z'
loop_
 _atom_site_type_symbol
 _atom_site_label
 _atom_site_symmetry_multiplicity
 _atom_site_fract_x
 _atom_site_fract_y
 _atom_site_fract_z
 _atom_site_occupancy
  Ca  Ca0  1  0.502172  0.002055  0.647947  1
  Ca  Ca1  1  0.354224  0.354107  0.352053  1
  Yb  Yb2  1  0.500545  0.998054  0.146202  1
  Yb  Yb3  1  0.999950  0.645967  0.498409  1
  Yb  Yb4  1  0.854344  0.851853  0.853798  1
  Yb  Yb5  1  0.001540  0.147557  0.501591  1
  Sc  Sc6  1  0.139582  0.500103  0.999696  1
  Sc  Sc7  1  0.639886  0.500407  0.000304  1
  Bi  Bi8  1  0.377782  0.617416  0.762712  1
  Bi  Bi9  1  0.877778  0.262311  0.117785  1
  Bi  Bi10  1  0.616083  0.737988  0.355034  1
  Bi  Bi11  1  0.115069  0.854703  0.237288  1
  Bi  Bi12  1  0.259994  0.144528  0.882215  1
  Bi  Bi13  1  0.761049  0.382952  0.644966  1
