# generated using pymatgen
data_La2Co(Sb2Ir)2
_symmetry_space_group_name_H-M   'P 1'
_cell_length_a   4.60245800
_cell_length_b   11.06871200
_cell_length_c   16.21236000
_cell_angle_alpha   90.00000000
_cell_angle_beta   90.00000000
_cell_angle_gamma   90.00000000
_symmetry_Int_Tables_number   1
_chemical_formula_structural   La2Co(Sb2Ir)2
_chemical_formula_sum   'La8 Co4 Sb16 Ir8'
_cell_volume   825.91082889
_cell_formula_units_Z   4
loop_
 _symmetry_equiv_pos_site_id
 _symmetry_equiv_pos_as_xyz
  1  'x, y, z'
loop_
 _atom_site_type_symbol
 _atom_site_label
 _atom_site_symmetry_multiplicity
 _atom_site_fract_x
 _atom_site_fract_y
 _atom_site_fract_z
 _atom_site_occupancy
  La  La0  1  0.250000  0.744712  0.508290  1
  La  La1  1  0.250000  0.755288  0.008290  1
  La  La2  1  0.750000  0.255288  0.491710  1
  La  La3  1  0.750000  0.244712  0.991710  1
  La  La4  1  0.250000  0.588429  0.746879  1
  La  La5  1  0.250000  0.911571  0.246879  1
  La  La6  1  0.750000  0.411571  0.253121  1
  La  La7  1  0.750000  0.088429  0.753121  1
  Co  Co8  1  0.250000  0.468143  0.556465  1
  Co  Co9  1  0.250000  0.031857  0.056465  1
  Co  Co10  1  0.750000  0.531857  0.443535  1
  Co  Co11  1  0.750000  0.968143  0.943535  1
  Sb  Sb12  1  0.250000  0.282375  0.646733  1
  Sb  Sb13  1  0.250000  0.217625  0.146733  1
  Sb  Sb14  1  0.750000  0.717625  0.353267  1
  Sb  Sb15  1  0.750000  0.782375  0.853267  1
  Sb  Sb16  1  0.250000  0.885866  0.711606  1
  Sb  Sb17  1  0.250000  0.614134  0.211606  1
  Sb  Sb18  1  0.750000  0.114134  0.288394  1
  Sb  Sb19  1  0.750000  0.385866  0.788394  1
  Sb  Sb20  1  0.250000  0.061276  0.903045  1
  Sb  Sb21  1  0.250000  0.438724  0.403045  1
  Sb  Sb22  1  0.750000  0.938724  0.096955  1
  Sb  Sb23  1  0.750000  0.561276  0.596955  1
  Sb  Sb24  1  0.250000  0.449610  0.931350  1
  Sb  Sb25  1  0.250000  0.050390  0.431350  1
  Sb  Sb26  1  0.750000  0.550390  0.068650  1
  Sb  Sb27  1  0.750000  0.949610  0.568650  1
  Ir  Ir28  1  0.250000  0.058383  0.593465  1
  Ir  Ir29  1  0.250000  0.441617  0.093465  1
  Ir  Ir30  1  0.750000  0.941617  0.406535  1
  Ir  Ir31  1  0.750000  0.558383  0.906535  1
  Ir  Ir32  1  0.250000  0.275220  0.818094  1
  Ir  Ir33  1  0.250000  0.224780  0.318094  1
  Ir  Ir34  1  0.750000  0.724780  0.181906  1
  Ir  Ir35  1  0.750000  0.775220  0.681906  1
