# generated using pymatgen
data_Rb4Au6Se5
_symmetry_space_group_name_H-M   'P 1'
_cell_length_a   10.53672800
_cell_length_b   10.53672703
_cell_length_c   10.64587800
_cell_angle_alpha   90.00000000
_cell_angle_beta   90.00000000
_cell_angle_gamma   120.00000305
_symmetry_Int_Tables_number   1
_chemical_formula_structural   Rb4Au6Se5
_chemical_formula_sum   'Rb8 Au12 Se10'
_cell_volume   1023.58426597
_cell_formula_units_Z   2
loop_
 _symmetry_equiv_pos_site_id
 _symmetry_equiv_pos_as_xyz
  1  'x, y, z'
loop_
 _atom_site_type_symbol
 _atom_site_label
 _atom_site_symmetry_multiplicity
 _atom_site_fract_x
 _atom_site_fract_y
 _atom_site_fract_z
 _atom_site_occupancy
  Rb  Rb0  1  0.420503  0.062735  0.250000  1
  Rb  Rb1  1  0.937265  0.357768  0.250000  1
  Rb  Rb2  1  0.642232  0.579497  0.250000  1
  Rb  Rb3  1  0.579497  0.642232  0.750000  1
  Rb  Rb4  1  0.357768  0.937265  0.750000  1
  Rb  Rb5  1  0.000000  0.000000  0.000000  1
  Rb  Rb6  1  0.000000  0.000000  0.500000  1
  Rb  Rb7  1  0.062735  0.420503  0.750000  1
  Au  Au8  1  0.826913  0.546472  0.594650  1
  Au  Au9  1  0.719559  0.173087  0.594650  1
  Au  Au10  1  0.453528  0.280441  0.594650  1
  Au  Au11  1  0.280441  0.453528  0.405350  1
  Au  Au12  1  0.719559  0.173087  0.905350  1
  Au  Au13  1  0.826913  0.546472  0.905350  1
  Au  Au14  1  0.173087  0.719559  0.094650  1
  Au  Au15  1  0.546472  0.826913  0.094650  1
  Au  Au16  1  0.546472  0.826913  0.405350  1
  Au  Au17  1  0.173087  0.719559  0.405350  1
  Au  Au18  1  0.280441  0.453528  0.094650  1
  Au  Au19  1  0.453528  0.280441  0.905350  1
  Se  Se20  1  0.739203  0.965561  0.250000  1
  Se  Se21  1  0.333333  0.666667  0.538422  1
  Se  Se22  1  0.333333  0.666667  0.961578  1
  Se  Se23  1  0.666667  0.333333  0.038422  1
  Se  Se24  1  0.666667  0.333333  0.461578  1
  Se  Se25  1  0.965561  0.739203  0.750000  1
  Se  Se26  1  0.773641  0.034439  0.750000  1
  Se  Se27  1  0.260797  0.226359  0.750000  1
  Se  Se28  1  0.034439  0.773641  0.250000  1
  Se  Se29  1  0.226359  0.260797  0.250000  1
