# generated using pymatgen
data_Pr2Er5Co4Sn13
_symmetry_space_group_name_H-M   'P 1'
_cell_length_a   11.16618600
_cell_length_b   11.16618600
_cell_length_c   4.49919600
_cell_angle_alpha   90.00000000
_cell_angle_beta   90.00000000
_cell_angle_gamma   90.00000000
_symmetry_Int_Tables_number   1
_chemical_formula_structural   Pr2Er5Co4Sn13
_chemical_formula_sum   'Pr2 Er5 Co4 Sn13'
_cell_volume   560.97644834
_cell_formula_units_Z   1
loop_
 _symmetry_equiv_pos_site_id
 _symmetry_equiv_pos_as_xyz
  1  'x, y, z'
loop_
 _atom_site_type_symbol
 _atom_site_label
 _atom_site_symmetry_multiplicity
 _atom_site_fract_x
 _atom_site_fract_y
 _atom_site_fract_z
 _atom_site_occupancy
  Pr  Pr0  1  0.500000  0.000000  0.500000  1
  Pr  Pr1  1  0.000000  0.500000  0.500000  1
  Er  Er2  1  0.000000  0.000000  0.000000  1
  Er  Er3  1  0.335849  0.674759  0.500000  1
  Er  Er4  1  0.664151  0.325241  0.500000  1
  Er  Er5  1  0.325241  0.335849  0.500000  1
  Er  Er6  1  0.674759  0.664151  0.500000  1
  Co  Co7  1  0.123251  0.724822  0.000000  1
  Co  Co8  1  0.876749  0.275178  0.000000  1
  Co  Co9  1  0.275178  0.123251  0.000000  1
  Co  Co10  1  0.724822  0.876749  0.000000  1
  Sn  Sn11  1  0.284942  0.890586  0.000000  1
  Sn  Sn12  1  0.715058  0.109414  0.000000  1
  Sn  Sn13  1  0.109414  0.284942  0.000000  1
  Sn  Sn14  1  0.890586  0.715058  0.000000  1
  Sn  Sn15  1  0.077750  0.807913  0.500000  1
  Sn  Sn16  1  0.922250  0.192087  0.500000  1
  Sn  Sn17  1  0.192087  0.077750  0.500000  1
  Sn  Sn18  1  0.807913  0.922250  0.500000  1
  Sn  Sn19  1  0.521828  0.780040  0.000000  1
  Sn  Sn20  1  0.478172  0.219960  0.000000  1
  Sn  Sn21  1  0.219960  0.521828  0.000000  1
  Sn  Sn22  1  0.780040  0.478172  0.000000  1
  Sn  Sn23  1  0.500000  0.500000  0.000000  1
