# generated using pymatgen
data_Ni8Ge4Mo11WC2
_symmetry_space_group_name_H-M   'P 1'
_cell_length_a   7.81067528
_cell_length_b   7.80775023
_cell_length_c   7.80775060
_cell_angle_alpha   60.05688291
_cell_angle_beta   59.98760852
_cell_angle_gamma   59.98760805
_symmetry_Int_Tables_number   1
_chemical_formula_structural   Ni8Ge4Mo11WC2
_chemical_formula_sum   'Ni8 Ge4 Mo11 W1 C2'
_cell_volume   336.76763143
_cell_formula_units_Z   1
loop_
 _symmetry_equiv_pos_site_id
 _symmetry_equiv_pos_as_xyz
  1  'x, y, z'
loop_
 _atom_site_type_symbol
 _atom_site_label
 _atom_site_symmetry_multiplicity
 _atom_site_fract_x
 _atom_site_fract_y
 _atom_site_fract_z
 _atom_site_occupancy
  Ni  Ni0  1  0.333132  0.334014  0.999721  1
  Ni  Ni1  1  0.334284  0.333150  0.333150  1
  Ni  Ni2  1  0.250389  0.915966  0.915966  1
  Ni  Ni3  1  0.917679  0.915966  0.915966  1
  Ni  Ni4  1  0.999415  0.333150  0.333150  1
  Ni  Ni5  1  0.333132  0.999721  0.334014  1
  Ni  Ni6  1  0.916313  0.917489  0.249886  1
  Ni  Ni7  1  0.916313  0.249886  0.917489  1
  Ge  Ge8  1  0.124371  0.624704  0.126553  1
  Ge  Ge9  1  0.124371  0.126553  0.624704  1
  Ge  Ge10  1  0.624883  0.124823  0.124823  1
  Ge  Ge11  1  0.125471  0.124823  0.124823  1
  Mo  Mo12  1  0.692576  0.692592  0.307501  1
  Mo  Mo13  1  0.692576  0.307501  0.692592  1
  Mo  Mo14  1  0.307331  0.692592  0.307501  1
  Mo  Mo15  1  0.557794  0.941577  0.557356  1
  Mo  Mo16  1  0.557845  0.942155  0.942155  1
  Mo  Mo17  1  0.942146  0.557854  0.557854  1
  Mo  Mo18  1  0.943274  0.557356  0.941577  1
  Mo  Mo19  1  0.307331  0.307501  0.692592  1
  Mo  Mo20  1  0.557794  0.557356  0.941577  1
  Mo  Mo21  1  0.943274  0.941577  0.557356  1
  Mo  Mo22  1  0.691540  0.308460  0.308460  1
  W  W23  1  0.307491  0.692509  0.692509  1
  C  C24  1  0.499312  0.500688  0.500688  1
  C  C25  1  0.749963  0.750037  0.750037  1
