# generated using pymatgen
data_Y3TmV4(WO6)4
_symmetry_space_group_name_H-M   'P 1'
_cell_length_a   5.23020280
_cell_length_b   7.43454379
_cell_length_c   11.18364074
_cell_angle_alpha   90.07436391
_cell_angle_beta   89.94345216
_cell_angle_gamma   89.97106165
_symmetry_Int_Tables_number   1
_chemical_formula_structural   Y3TmV4(WO6)4
_chemical_formula_sum   'Y3 Tm1 V4 W4 O24'
_cell_volume   434.86597371
_cell_formula_units_Z   1
loop_
 _symmetry_equiv_pos_site_id
 _symmetry_equiv_pos_as_xyz
  1  'x, y, z'
loop_
 _atom_site_type_symbol
 _atom_site_label
 _atom_site_symmetry_multiplicity
 _atom_site_fract_x
 _atom_site_fract_y
 _atom_site_fract_z
 _atom_site_occupancy
  Y  Y0  1  0.543648  0.253651  0.045214  1
  Y  Y1  1  0.044598  0.753745  0.454591  1
  Y  Y2  1  0.955623  0.253802  0.545567  1
  Tm  Tm3  1  0.453549  0.753525  0.954284  1
  V  V4  1  0.050870  0.507689  0.133576  1
  V  V5  1  0.550642  0.006467  0.365834  1
  V  V6  1  0.449150  0.506829  0.634602  1
  V  V7  1  0.948741  0.005622  0.865973  1
  W  W8  1  0.056399  0.997780  0.142834  1
  W  W9  1  0.556562  0.498200  0.356126  1
  W  W10  1  0.443706  0.997994  0.644513  1
  W  W11  1  0.942565  0.499595  0.856860  1
  O  O12  1  0.754587  0.547881  0.019633  1
  O  O13  1  0.763228  0.955070  0.029288  1
  O  O14  1  0.184815  0.755027  0.114262  1
  O  O15  1  0.935076  0.246193  0.142243  1
  O  O16  1  0.374239  0.071030  0.206330  1
  O  O17  1  0.391809  0.436217  0.213623  1
  O  O18  1  0.892526  0.935600  0.285715  1
  O  O19  1  0.875556  0.571146  0.293443  1
  O  O20  1  0.435211  0.746261  0.356503  1
  O  O21  1  0.680462  0.254916  0.383489  1
  O  O22  1  0.265504  0.457841  0.470431  1
  O  O23  1  0.257276  0.044519  0.480278  1
  O  O24  1  0.742951  0.544672  0.520054  1
  O  O25  1  0.734756  0.957732  0.530080  1
  O  O26  1  0.319727  0.755092  0.616338  1
  O  O27  1  0.564876  0.246224  0.644005  1
  O  O28  1  0.124297  0.071089  0.706607  1
  O  O29  1  0.106645  0.436878  0.713803  1
  O  O30  1  0.605712  0.934686  0.787683  1
  O  O31  1  0.623362  0.573779  0.795122  1
  O  O32  1  0.070735  0.746273  0.857211  1
  O  O33  1  0.820707  0.255496  0.884023  1
  O  O34  1  0.235472  0.459405  0.970301  1
  O  O35  1  0.244419  0.042478  0.979558  1
