# generated using pymatgen
data_TmSi2(AsRh3)2
_symmetry_space_group_name_H-M   'P 1'
_cell_length_a   7.15386800
_cell_length_b   7.15182168
_cell_length_c   3.77379200
_cell_angle_alpha   90.00000000
_cell_angle_beta   90.00000000
_cell_angle_gamma   120.00945617
_symmetry_Int_Tables_number   1
_chemical_formula_structural   TmSi2(AsRh3)2
_chemical_formula_sum   'Tm1 Si2 As2 Rh6'
_cell_volume   167.19558327
_cell_formula_units_Z   1
loop_
 _symmetry_equiv_pos_site_id
 _symmetry_equiv_pos_as_xyz
  1  'x, y, z'
loop_
 _atom_site_type_symbol
 _atom_site_label
 _atom_site_symmetry_multiplicity
 _atom_site_fract_x
 _atom_site_fract_y
 _atom_site_fract_z
 _atom_site_occupancy
  Tm  Tm0  1  0.992999  0.985998  0.000000  1
  Si  Si1  1  0.804363  0.608723  0.500000  1
  Si  Si2  1  0.333899  0.667799  0.000000  1
  As  As3  1  0.381736  0.193117  0.500000  1
  As  As4  1  0.811382  0.193117  0.500000  1
  Rh  Rh5  1  0.531969  0.063938  0.000000  1
  Rh  Rh6  1  0.605654  0.798901  0.500000  1
  Rh  Rh7  1  0.202416  0.404831  0.500000  1
  Rh  Rh8  1  0.542810  0.475670  0.000000  1
  Rh  Rh9  1  0.193247  0.798901  0.500000  1
  Rh  Rh10  1  0.932861  0.475670  0.000000  1
