# generated using pymatgen
data_Tb9Y6Lu5Sn16
_symmetry_space_group_name_H-M   'P 1'
_cell_length_a   8.00495195
_cell_length_b   8.16042007
_cell_length_c   15.45968000
_cell_angle_alpha   90.03027564
_cell_angle_beta   89.95954972
_cell_angle_gamma   90.06310399
_symmetry_Int_Tables_number   1
_chemical_formula_structural   Tb9Y6Lu5Sn16
_chemical_formula_sum   'Tb9 Y6 Lu5 Sn16'
_cell_volume   1009.88358449
_cell_formula_units_Z   1
loop_
 _symmetry_equiv_pos_site_id
 _symmetry_equiv_pos_as_xyz
  1  'x, y, z'
loop_
 _atom_site_type_symbol
 _atom_site_label
 _atom_site_symmetry_multiplicity
 _atom_site_fract_x
 _atom_site_fract_y
 _atom_site_fract_z
 _atom_site_occupancy
  Tb  Tb0  1  0.866140  0.662202  0.878063  1
  Tb  Tb1  1  0.518897  0.320162  0.903467  1
  Tb  Tb2  1  0.019945  0.178940  0.597451  1
  Tb  Tb3  1  0.480893  0.679689  0.403651  1
  Tb  Tb4  1  0.980025  0.820376  0.096554  1
  Tb  Tb5  1  0.481308  0.680379  0.095094  1
  Tb  Tb6  1  0.980908  0.820673  0.403284  1
  Tb  Tb7  1  0.519237  0.320828  0.597439  1
  Tb  Tb8  1  0.018965  0.178440  0.902987  1
  Y  Y9  1  0.865242  0.662462  0.623225  1
  Y  Y10  1  0.634478  0.162134  0.377593  1
  Y  Y11  1  0.135553  0.337542  0.120953  1
  Y  Y12  1  0.634421  0.162937  0.122737  1
  Y  Y13  1  0.134120  0.337300  0.377608  1
  Y  Y14  1  0.365932  0.837578  0.622940  1
  Lu  Lu15  1  0.364484  0.838503  0.876024  1
  Lu  Lu16  1  0.197462  0.503581  0.750811  1
  Lu  Lu17  1  0.696342  0.996353  0.750535  1
  Lu  Lu18  1  0.803636  0.496714  0.250071  1
  Lu  Lu19  1  0.303297  0.002886  0.249484  1
  Sn  Sn20  1  0.295287  0.035010  0.040512  1
  Sn  Sn21  1  0.794053  0.463597  0.457640  1
  Sn  Sn22  1  0.706372  0.963735  0.542834  1
  Sn  Sn23  1  0.208063  0.539972  0.956416  1
  Sn  Sn24  1  0.700988  0.962629  0.957110  1
  Sn  Sn25  1  0.205715  0.536226  0.543182  1
  Sn  Sn26  1  0.293899  0.036215  0.457229  1
  Sn  Sn27  1  0.793993  0.463461  0.042926  1
  Sn  Sn28  1  0.561365  0.618746  0.751042  1
  Sn  Sn29  1  0.062971  0.881998  0.750998  1
  Sn  Sn30  1  0.437726  0.383261  0.250131  1
  Sn  Sn31  1  0.938276  0.117253  0.249316  1
  Sn  Sn32  1  0.328763  0.148955  0.750635  1
  Sn  Sn33  1  0.828274  0.350083  0.750514  1
  Sn  Sn34  1  0.671511  0.849895  0.249880  1
  Sn  Sn35  1  0.171459  0.649284  0.249660  1
