# generated using pymatgen
data_Hf6Ga5(SiNi8)2
_symmetry_space_group_name_H-M   'P 1'
_cell_length_a   8.18455143
_cell_length_b   8.18455146
_cell_length_c   8.20609000
_cell_angle_alpha   59.91290883
_cell_angle_beta   59.91290871
_cell_angle_gamma   60.17417837
_symmetry_Int_Tables_number   1
_chemical_formula_structural   Hf6Ga5(SiNi8)2
_chemical_formula_sum   'Hf6 Ga5 Si2 Ni16'
_cell_volume   388.69146055
_cell_formula_units_Z   1
loop_
 _symmetry_equiv_pos_site_id
 _symmetry_equiv_pos_as_xyz
  1  'x, y, z'
loop_
 _atom_site_type_symbol
 _atom_site_label
 _atom_site_symmetry_multiplicity
 _atom_site_fract_x
 _atom_site_fract_y
 _atom_site_fract_z
 _atom_site_occupancy
  Hf  Hf0  1  0.795156  0.204844  0.795156  1
  Hf  Hf1  1  0.795088  0.795088  0.204912  1
  Hf  Hf2  1  0.204844  0.795156  0.795156  1
  Hf  Hf3  1  0.204912  0.204912  0.795088  1
  Hf  Hf4  1  0.795156  0.204844  0.204844  1
  Hf  Hf5  1  0.204844  0.795156  0.204844  1
  Ga  Ga6  1  0.000000  0.500000  0.000000  1
  Ga  Ga7  1  0.500000  0.500000  0.500000  1
  Ga  Ga8  1  0.500000  0.000000  0.500000  1
  Ga  Ga9  1  0.000000  0.500000  0.500000  1
  Ga  Ga10  1  0.500000  0.000000  0.000000  1
  Si  Si11  1  0.500000  0.500000  0.000000  1
  Si  Si12  1  0.000000  0.000000  0.500000  1
  Ni  Ni13  1  0.164618  0.164618  0.174624  1
  Ni  Ni14  1  0.618036  0.618036  0.140503  1
  Ni  Ni15  1  0.381964  0.381964  0.376575  1
  Ni  Ni16  1  0.174624  0.496140  0.164618  1
  Ni  Ni17  1  0.164618  0.164618  0.496140  1
  Ni  Ni18  1  0.140503  0.623425  0.618036  1
  Ni  Ni19  1  0.623425  0.140503  0.618036  1
  Ni  Ni20  1  0.835382  0.835382  0.825376  1
  Ni  Ni21  1  0.859497  0.376575  0.381964  1
  Ni  Ni22  1  0.381964  0.381964  0.859497  1
  Ni  Ni23  1  0.376575  0.859497  0.381964  1
  Ni  Ni24  1  0.503860  0.825376  0.835382  1
  Ni  Ni25  1  0.618036  0.618036  0.623425  1
  Ni  Ni26  1  0.835382  0.835382  0.503860  1
  Ni  Ni27  1  0.496140  0.174624  0.164618  1
  Ni  Ni28  1  0.825376  0.503860  0.835382  1
