# generated using pymatgen
data_Pt(Se4Cl)2
_symmetry_space_group_name_H-M   'P 1'
_cell_length_a   9.21511000
_cell_length_b   10.26084800
_cell_length_c   14.46839900
_cell_angle_alpha   90.00000000
_cell_angle_beta   90.00000000
_cell_angle_gamma   90.00000000
_symmetry_Int_Tables_number   1
_chemical_formula_structural   Pt(Se4Cl)2
_chemical_formula_sum   'Pt4 Se32 Cl8'
_cell_volume   1368.05719610
_cell_formula_units_Z   4
loop_
 _symmetry_equiv_pos_site_id
 _symmetry_equiv_pos_as_xyz
  1  'x, y, z'
loop_
 _atom_site_type_symbol
 _atom_site_label
 _atom_site_symmetry_multiplicity
 _atom_site_fract_x
 _atom_site_fract_y
 _atom_site_fract_z
 _atom_site_occupancy
  Pt  Pt0  1  0.500000  0.000000  0.000000  1
  Pt  Pt1  1  0.500000  0.500000  0.500000  1
  Pt  Pt2  1  0.000000  0.500000  0.000000  1
  Pt  Pt3  1  0.000000  0.000000  0.500000  1
  Se  Se4  1  0.306500  0.030601  0.887544  1
  Se  Se5  1  0.129931  0.154019  0.973017  1
  Se  Se6  1  0.923537  0.622924  0.622302  1
  Se  Se7  1  0.193500  0.530601  0.112456  1
  Se  Se8  1  0.576463  0.122924  0.377698  1
  Se  Se9  1  0.870069  0.845981  0.026983  1
  Se  Se10  1  0.370069  0.654019  0.026983  1
  Se  Se11  1  0.693500  0.969399  0.112456  1
  Se  Se12  1  0.087696  0.194820  0.282167  1
  Se  Se13  1  0.193500  0.030601  0.387544  1
  Se  Se14  1  0.923537  0.122924  0.877698  1
  Se  Se15  1  0.306500  0.530601  0.612456  1
  Se  Se16  1  0.912304  0.805180  0.717833  1
  Se  Se17  1  0.629931  0.345981  0.973017  1
  Se  Se18  1  0.412304  0.194820  0.782167  1
  Se  Se19  1  0.870069  0.345981  0.473017  1
  Se  Se20  1  0.806500  0.969399  0.612456  1
  Se  Se21  1  0.412304  0.694820  0.717833  1
  Se  Se22  1  0.912304  0.305180  0.782167  1
  Se  Se23  1  0.076463  0.377076  0.377698  1
  Se  Se24  1  0.423537  0.877076  0.622302  1
  Se  Se25  1  0.576463  0.622924  0.122302  1
  Se  Se26  1  0.693500  0.469399  0.387544  1
  Se  Se27  1  0.587696  0.305180  0.282167  1
  Se  Se28  1  0.423537  0.377076  0.877698  1
  Se  Se29  1  0.087696  0.694820  0.217833  1
  Se  Se30  1  0.076463  0.877076  0.122302  1
  Se  Se31  1  0.370069  0.154019  0.473017  1
  Se  Se32  1  0.129931  0.654019  0.526983  1
  Se  Se33  1  0.806500  0.469399  0.887544  1
  Se  Se34  1  0.629931  0.845981  0.526983  1
  Se  Se35  1  0.587696  0.805180  0.217833  1
  Cl  Cl36  1  0.908974  0.344797  0.102220  1
  Cl  Cl37  1  0.908974  0.844797  0.397780  1
  Cl  Cl38  1  0.091026  0.155203  0.602220  1
  Cl  Cl39  1  0.408974  0.155203  0.102220  1
  Cl  Cl40  1  0.591026  0.344797  0.602220  1
  Cl  Cl41  1  0.091026  0.655203  0.897780  1
  Cl  Cl42  1  0.408974  0.655203  0.397780  1
  Cl  Cl43  1  0.591026  0.844797  0.897780  1
