# generated using pymatgen
data_Rb2EuTa6Cl18
_symmetry_space_group_name_H-M   'P 1'
_cell_length_a   10.34625137
_cell_length_b   10.30875625
_cell_length_c   10.30072827
_cell_angle_alpha   55.02169766
_cell_angle_beta   54.99389693
_cell_angle_gamma   54.93537040
_symmetry_Int_Tables_number   1
_chemical_formula_structural   Rb2EuTa6Cl18
_chemical_formula_sum   'Rb2 Eu1 Ta6 Cl18'
_cell_volume   686.18073592
_cell_formula_units_Z   1
loop_
 _symmetry_equiv_pos_site_id
 _symmetry_equiv_pos_as_xyz
  1  'x, y, z'
loop_
 _atom_site_type_symbol
 _atom_site_label
 _atom_site_symmetry_multiplicity
 _atom_site_fract_x
 _atom_site_fract_y
 _atom_site_fract_z
 _atom_site_occupancy
  Rb  Rb0  1  0.276510  0.276602  0.276823  1
  Rb  Rb1  1  0.723490  0.723397  0.723177  1
  Eu  Eu2  1  0.000000  0.000000  0.000000  1
  Ta  Ta3  1  0.645537  0.419582  0.299186  1
  Ta  Ta4  1  0.579490  0.700953  0.354537  1
  Ta  Ta5  1  0.300014  0.645822  0.419398  1
  Ta  Ta6  1  0.699986  0.354177  0.580602  1
  Ta  Ta7  1  0.420510  0.299047  0.645463  1
  Ta  Ta8  1  0.354463  0.580417  0.700814  1
  Cl  Cl9  1  0.828730  0.323779  0.036477  1
  Cl  Cl10  1  0.769465  0.642296  0.088365  1
  Cl  Cl11  1  0.434531  0.577659  0.163288  1
  Cl  Cl12  1  0.676489  0.962636  0.171518  1
  Cl  Cl13  1  0.357270  0.912241  0.229699  1
  Cl  Cl14  1  0.038070  0.828294  0.323499  1
  Cl  Cl15  1  0.910959  0.229869  0.357143  1
  Cl  Cl16  1  0.834082  0.566315  0.422661  1
  Cl  Cl17  1  0.578844  0.163535  0.432884  1
  Cl  Cl18  1  0.421156  0.836464  0.567117  1
  Cl  Cl19  1  0.165918  0.433686  0.577339  1
  Cl  Cl20  1  0.089040  0.770132  0.642857  1
  Cl  Cl21  1  0.961929  0.171705  0.676501  1
  Cl  Cl22  1  0.642729  0.087758  0.770302  1
  Cl  Cl23  1  0.323511  0.037364  0.828482  1
  Cl  Cl24  1  0.565470  0.422341  0.836712  1
  Cl  Cl25  1  0.230536  0.357704  0.911635  1
  Cl  Cl26  1  0.171270  0.676221  0.963523  1
