# generated using pymatgen
data_Ca2La2TbRu2
_symmetry_space_group_name_H-M   'P 1'
_cell_length_a   6.64871552
_cell_length_b   7.35218553
_cell_length_c   9.01893500
_cell_angle_alpha   96.27604025
_cell_angle_beta   111.62915749
_cell_angle_gamma   90.00000116
_symmetry_Int_Tables_number   1
_chemical_formula_structural   Ca2La2TbRu2
_chemical_formula_sum   'Ca4 La4 Tb2 Ru4'
_cell_volume   406.98317725
_cell_formula_units_Z   2
loop_
 _symmetry_equiv_pos_site_id
 _symmetry_equiv_pos_as_xyz
  1  'x, y, z'
loop_
 _atom_site_type_symbol
 _atom_site_label
 _atom_site_symmetry_multiplicity
 _atom_site_fract_x
 _atom_site_fract_y
 _atom_site_fract_z
 _atom_site_occupancy
  Ca  Ca0  1  0.628784  0.816899  0.422211  1
  Ca  Ca1  1  0.206573  0.683101  0.577789  1
  Ca  Ca2  1  0.371216  0.183101  0.577789  1
  Ca  Ca3  1  0.793427  0.316899  0.422211  1
  La  La4  1  0.986717  0.905418  0.184249  1
  La  La5  1  0.802469  0.594582  0.815751  1
  La  La6  1  0.013283  0.094582  0.815751  1
  La  La7  1  0.197531  0.405418  0.184249  1
  Tb  Tb8  1  0.434909  0.750000  0.000000  1
  Tb  Tb9  1  0.565091  0.250000  0.000000  1
  Ru  Ru10  1  0.837983  0.589251  0.199557  1
  Ru  Ru11  1  0.638426  0.910749  0.800443  1
  Ru  Ru12  1  0.162017  0.410749  0.800443  1
  Ru  Ru13  1  0.361574  0.089251  0.199557  1
