# generated using pymatgen
data_Sc6Al8IrOs3
_symmetry_space_group_name_H-M   'P 1'
_cell_length_a   9.19983668
_cell_length_b   9.12469940
_cell_length_c   8.46235500
_cell_angle_alpha   90.00000000
_cell_angle_beta   90.00000000
_cell_angle_gamma   119.92579900
_symmetry_Int_Tables_number   1
_chemical_formula_structural   Sc6Al8IrOs3
_chemical_formula_sum   'Sc12 Al16 Ir2 Os6'
_cell_volume   615.66546289
_cell_formula_units_Z   2
loop_
 _symmetry_equiv_pos_site_id
 _symmetry_equiv_pos_as_xyz
  1  'x, y, z'
loop_
 _atom_site_type_symbol
 _atom_site_label
 _atom_site_symmetry_multiplicity
 _atom_site_fract_x
 _atom_site_fract_y
 _atom_site_fract_z
 _atom_site_occupancy
  Sc  Sc0  1  0.341582  0.017719  0.062461  1
  Sc  Sc1  1  0.658418  0.982281  0.937539  1
  Sc  Sc2  1  0.999576  0.334517  0.057351  1
  Sc  Sc3  1  0.658418  0.982281  0.562461  1
  Sc  Sc4  1  0.999576  0.334517  0.442649  1
  Sc  Sc5  1  0.000424  0.665483  0.942649  1
  Sc  Sc6  1  0.341582  0.017719  0.437539  1
  Sc  Sc7  1  0.000424  0.665483  0.557351  1
  Sc  Sc8  1  0.665074  0.666455  0.063034  1
  Sc  Sc9  1  0.334926  0.333545  0.936966  1
  Sc  Sc10  1  0.334926  0.333545  0.563034  1
  Sc  Sc11  1  0.665074  0.666455  0.436966  1
  Al  Al12  1  0.342586  0.841915  0.750000  1
  Al  Al13  1  0.652561  0.500634  0.750000  1
  Al  Al14  1  0.657414  0.158085  0.250000  1
  Al  Al15  1  0.347439  0.499366  0.250000  1
  Al  Al16  1  0.830977  0.331587  0.750000  1
  Al  Al17  1  0.169023  0.668413  0.250000  1
  Al  Al18  1  0.338552  0.662848  0.504533  1
  Al  Al19  1  0.661448  0.337152  0.495467  1
  Al  Al20  1  0.661448  0.337152  0.004533  1
  Al  Al21  1  0.338552  0.662848  0.995467  1
  Al  Al22  1  0.177943  0.011638  0.750000  1
  Al  Al23  1  0.822057  0.988362  0.250000  1
  Al  Al24  1  0.012215  0.178102  0.750000  1
  Al  Al25  1  0.987785  0.821898  0.250000  1
  Al  Al26  1  0.828633  0.833286  0.750000  1
  Al  Al27  1  0.171367  0.166714  0.250000  1
  Ir  Ir28  1  0.000000  0.000000  0.500000  1
  Ir  Ir29  1  0.000000  0.000000  0.000000  1
  Os  Os30  1  0.149425  0.500429  0.750000  1
  Os  Os31  1  0.850575  0.499571  0.250000  1
  Os  Os32  1  0.505249  0.671722  0.750000  1
  Os  Os33  1  0.500899  0.165444  0.750000  1
  Os  Os34  1  0.494751  0.328278  0.250000  1
  Os  Os35  1  0.499101  0.834556  0.250000  1
