# generated using pymatgen
data_Y8Lu12SiBi11
_symmetry_space_group_name_H-M   'P 1'
_cell_length_a   8.11210068
_cell_length_b   9.34476800
_cell_length_c   11.95075735
_cell_angle_alpha   90.00000000
_cell_angle_beta   90.21731171
_cell_angle_gamma   90.00000000
_symmetry_Int_Tables_number   1
_chemical_formula_structural   Y8Lu12SiBi11
_chemical_formula_sum   'Y8 Lu12 Si1 Bi11'
_cell_volume   905.92899679
_cell_formula_units_Z   1
loop_
 _symmetry_equiv_pos_site_id
 _symmetry_equiv_pos_as_xyz
  1  'x, y, z'
loop_
 _atom_site_type_symbol
 _atom_site_label
 _atom_site_symmetry_multiplicity
 _atom_site_fract_x
 _atom_site_fract_y
 _atom_site_fract_z
 _atom_site_occupancy
  Y  Y0  1  0.190682  0.750000  0.724345  1
  Y  Y1  1  0.669262  0.750000  0.790790  1
  Y  Y2  1  0.813329  0.250000  0.280836  1
  Y  Y3  1  0.315098  0.250000  0.219305  1
  Y  Y4  1  0.353695  0.750000  0.204748  1
  Y  Y5  1  0.851017  0.750000  0.283817  1
  Y  Y6  1  0.649899  0.250000  0.784387  1
  Y  Y7  1  0.148824  0.250000  0.717539  1
  Lu  Lu8  1  0.037221  0.750000  0.989552  1
  Lu  Lu9  1  0.524029  0.750000  0.510830  1
  Lu  Lu10  1  0.981532  0.250000  0.009032  1
  Lu  Lu11  1  0.477743  0.250000  0.489623  1
  Lu  Lu12  1  0.311725  0.451213  0.941115  1
  Lu  Lu13  1  0.808162  0.066237  0.559247  1
  Lu  Lu14  1  0.681114  0.925708  0.053466  1
  Lu  Lu15  1  0.191962  0.567144  0.439746  1
  Lu  Lu16  1  0.681114  0.574292  0.053466  1
  Lu  Lu17  1  0.191962  0.932856  0.439746  1
  Lu  Lu18  1  0.311725  0.048787  0.941115  1
  Lu  Lu19  1  0.808162  0.433763  0.559247  1
  Si  Si20  1  0.408024  0.750000  0.962661  1
  Bi  Bi21  1  0.434754  0.004336  0.671899  1
  Bi  Bi22  1  0.933981  0.497972  0.828404  1
  Bi  Bi23  1  0.564818  0.504783  0.327792  1
  Bi  Bi24  1  0.064395  0.996665  0.171933  1
  Bi  Bi25  1  0.564818  0.995217  0.327792  1
  Bi  Bi26  1  0.064395  0.503335  0.171933  1
  Bi  Bi27  1  0.434754  0.495664  0.671899  1
  Bi  Bi28  1  0.933981  0.002028  0.828404  1
  Bi  Bi29  1  0.905698  0.750000  0.545109  1
  Bi  Bi30  1  0.595912  0.250000  0.042599  1
  Bi  Bi31  1  0.096209  0.250000  0.457630  1
