# generated using pymatgen
data_CaEu9Si5Ni
_symmetry_space_group_name_H-M   'P 1'
_cell_length_a   9.19471278
_cell_length_b   9.19471221
_cell_length_c   9.25278329
_cell_angle_alpha   130.09810129
_cell_angle_beta   129.33945657
_cell_angle_gamma   73.37636790
_symmetry_Int_Tables_number   1
_chemical_formula_structural   CaEu9Si5Ni
_chemical_formula_sum   'Ca1 Eu9 Si5 Ni1'
_cell_volume   452.80676244
_cell_formula_units_Z   1
loop_
 _symmetry_equiv_pos_site_id
 _symmetry_equiv_pos_as_xyz
  1  'x, y, z'
loop_
 _atom_site_type_symbol
 _atom_site_label
 _atom_site_symmetry_multiplicity
 _atom_site_fract_x
 _atom_site_fract_y
 _atom_site_fract_z
 _atom_site_occupancy
  Ca  Ca0  1  0.497500  0.498083  0.995583  1
  Eu  Eu1  1  0.533645  0.035393  0.854468  1
  Eu  Eu2  1  0.178190  0.677923  0.143763  1
  Eu  Eu3  1  0.031237  0.179236  0.499760  1
  Eu  Eu4  1  0.680010  0.529848  0.495158  1
  Eu  Eu5  1  0.465841  0.965574  0.143763  1
  Eu  Eu6  1  0.819074  0.320822  0.854468  1
  Eu  Eu7  1  0.965311  0.815148  0.495158  1
  Eu  Eu8  1  0.320523  0.468523  0.499760  1
  Eu  Eu9  1  0.998502  0.003422  0.001924  1
  Si  Si10  1  0.113380  0.611142  0.724522  1
  Si  Si11  1  0.388570  0.110468  0.499037  1
  Si  Si12  1  0.610119  0.887426  0.497546  1
  Si  Si13  1  0.247067  0.247280  0.995237  1
  Si  Si14  1  0.747957  0.748170  0.995237  1
  Ni  Ni15  1  0.903076  0.401540  0.304616  1
