# generated using pymatgen
data_La3Nd6DyC4I15
_symmetry_space_group_name_H-M   'P 1'
_cell_length_a   9.83295544
_cell_length_b   10.67982825
_cell_length_c   11.83669653
_cell_angle_alpha   93.63149987
_cell_angle_beta   114.29856335
_cell_angle_gamma   109.37957103
_symmetry_Int_Tables_number   1
_chemical_formula_structural   La3Nd6DyC4I15
_chemical_formula_sum   'La3 Nd6 Dy1 C4 I15'
_cell_volume   1039.43566489
_cell_formula_units_Z   1
loop_
 _symmetry_equiv_pos_site_id
 _symmetry_equiv_pos_as_xyz
  1  'x, y, z'
loop_
 _atom_site_type_symbol
 _atom_site_label
 _atom_site_symmetry_multiplicity
 _atom_site_fract_x
 _atom_site_fract_y
 _atom_site_fract_z
 _atom_site_occupancy
  La  La0  1  0.706367  0.568978  0.045334  1
  La  La1  1  0.293292  0.432105  0.955366  1
  La  La2  1  0.659251  0.253082  0.833342  1
  Nd  Nd3  1  0.346664  0.746807  0.165168  1
  Nd  Nd4  1  0.775597  0.882878  0.257787  1
  Nd  Nd5  1  0.526999  0.184641  0.101370  1
  Nd  Nd6  1  0.225770  0.116414  0.744192  1
  Nd  Nd7  1  0.402565  0.458182  0.658234  1
  Nd  Nd8  1  0.471951  0.813888  0.900039  1
  Dy  Dy9  1  0.594113  0.545120  0.336364  1
  C  C10  1  0.483182  0.299274  0.937312  1
  C  C11  1  0.518489  0.699720  0.064094  1
  C  C12  1  0.453762  0.361758  0.833968  1
  C  C13  1  0.547147  0.637068  0.167514  1
  I  I14  1  0.207575  0.906293  0.937842  1
  I  I15  1  0.105324  0.188081  0.470540  1
  I  I16  1  0.154247  0.558477  0.701362  1
  I  I17  1  0.400913  0.965011  0.647389  1
  I  I18  1  0.709151  0.735513  0.818130  1
  I  I19  1  0.297905  0.271817  0.186952  1
  I  I20  1  0.837884  0.444136  0.301296  1
  I  I21  1  0.885685  0.802805  0.526061  1
  I  I22  1  0.365928  0.627827  0.410282  1
  I  I23  1  0.054825  0.836595  0.222042  1
  I  I24  1  0.792486  0.092705  0.065243  1
  I  I25  1  0.639032  0.374226  0.582094  1
  I  I26  1  0.945330  0.162537  0.777886  1
  I  I27  1  0.594455  0.030346  0.350727  1
  I  I28  1  0.004109  0.503712  0.002069  1
