# generated using pymatgen
data_AcAl4
_symmetry_space_group_name_H-M   'P 1'
_cell_length_a   8.94968408
_cell_length_b   8.94968320
_cell_length_c   8.94968349
_cell_angle_alpha   150.04138070
_cell_angle_beta   105.31213512
_cell_angle_gamma   82.50361145
_symmetry_Int_Tables_number   1
_chemical_formula_structural   AcAl4
_chemical_formula_sum   'Ac3 Al12'
_cell_volume   337.99318931
_cell_formula_units_Z   3
loop_
 _symmetry_equiv_pos_site_id
 _symmetry_equiv_pos_as_xyz
  1  'x, y, z'
loop_
 _atom_site_type_symbol
 _atom_site_label
 _atom_site_symmetry_multiplicity
 _atom_site_fract_x
 _atom_site_fract_y
 _atom_site_fract_z
 _atom_site_occupancy
  Ac  Ac0  1  0.000235  0.000000  0.000235  1
  Ac  Ac1  1  0.334524  0.333499  0.001025  1
  Ac  Ac2  1  0.667525  0.666501  0.001025  1
  Al  Al3  1  0.621697  0.000000  0.621697  1
  Al  Al4  1  0.380751  0.000000  0.380751  1
  Al  Al5  1  0.253646  0.500000  0.753646  1
  Al  Al6  1  0.749131  0.500000  0.249131  1
  Al  Al7  1  0.586300  0.833262  0.753038  1
  Al  Al8  1  0.919776  0.166738  0.753038  1
  Al  Al9  1  0.287553  0.666636  0.620917  1
  Al  Al10  1  0.954281  0.333364  0.620917  1
  Al  Al11  1  0.047238  0.667212  0.380026  1
  Al  Al12  1  0.712812  0.332788  0.380026  1
  Al  Al13  1  0.081596  0.833831  0.247766  1
  Al  Al14  1  0.413934  0.166169  0.247766  1
