# generated using pymatgen
data_K2Pd(CO3)2
_symmetry_space_group_name_H-M   'P 1'
_cell_length_a   6.19377247
_cell_length_b   6.72960172
_cell_length_c   9.61611440
_cell_angle_alpha   98.52289467
_cell_angle_beta   71.21295271
_cell_angle_gamma   117.39927747
_symmetry_Int_Tables_number   1
_chemical_formula_structural   K2Pd(CO3)2
_chemical_formula_sum   'K4 Pd2 C4 O12'
_cell_volume   336.89320143
_cell_formula_units_Z   2
loop_
 _symmetry_equiv_pos_site_id
 _symmetry_equiv_pos_as_xyz
  1  'x, y, z'
loop_
 _atom_site_type_symbol
 _atom_site_label
 _atom_site_symmetry_multiplicity
 _atom_site_fract_x
 _atom_site_fract_y
 _atom_site_fract_z
 _atom_site_occupancy
  K  K0  1  0.668137  0.320463  0.093264  1
  K  K1  1  0.011402  0.820462  0.406736  1
  K  K2  1  0.597674  0.179538  0.593264  1
  K  K3  1  0.440939  0.679539  0.906737  1
  Pd  Pd4  1  0.005540  0.000000  0.000000  1
  Pd  Pd5  1  0.255541  0.500001  0.500000  1
  C  C6  1  0.093188  0.341614  0.240863  1
  C  C7  1  0.584052  0.841615  0.259138  1
  C  C8  1  0.001574  0.158385  0.740863  1
  C  C9  1  0.992436  0.658385  0.759137  1
  O  O10  1  0.145632  0.312192  0.096159  1
  O  O11  1  0.464847  0.867503  0.184258  1
  O  O12  1  0.814035  0.851875  0.202766  1
  O  O13  1  0.266800  0.351874  0.297234  1
  O  O14  1  0.899103  0.367502  0.315742  1
  O  O15  1  0.491790  0.812193  0.403841  1
  O  O16  1  0.083438  0.187808  0.596159  1
  O  O17  1  0.847343  0.632498  0.684258  1
  O  O18  1  0.212160  0.648126  0.702766  1
  O  O19  1  0.164926  0.148125  0.797234  1
  O  O20  1  0.781601  0.132497  0.815743  1
  O  O21  1  0.929597  0.687807  0.903841  1
