# generated using pymatgen
data_Yb2Lu2IrRu7
_symmetry_space_group_name_H-M   'P 1'
_cell_length_a   5.22417100
_cell_length_b   5.22428569
_cell_length_c   8.84412100
_cell_angle_alpha   90.00041184
_cell_angle_beta   89.99993680
_cell_angle_gamma   119.99856590
_symmetry_Int_Tables_number   1
_chemical_formula_structural   Yb2Lu2IrRu7
_chemical_formula_sum   'Yb2 Lu2 Ir1 Ru7'
_cell_volume   209.04312311
_cell_formula_units_Z   1
loop_
 _symmetry_equiv_pos_site_id
 _symmetry_equiv_pos_as_xyz
  1  'x, y, z'
loop_
 _atom_site_type_symbol
 _atom_site_label
 _atom_site_symmetry_multiplicity
 _atom_site_fract_x
 _atom_site_fract_y
 _atom_site_fract_z
 _atom_site_occupancy
  Yb  Yb0  1  0.333321  0.666649  0.060993  1
  Yb  Yb1  1  0.666679  0.333351  0.939007  1
  Lu  Lu2  1  0.666668  0.333336  0.571856  1
  Lu  Lu3  1  0.333332  0.666664  0.428144  1
  Ir  Ir4  1  0.000000  0.000000  0.000000  1
  Ru  Ru5  1  0.000000  0.000000  0.500000  1
  Ru  Ru6  1  0.171799  0.343628  0.746626  1
  Ru  Ru7  1  0.171825  0.828188  0.746629  1
  Ru  Ru8  1  0.656372  0.828183  0.746632  1
  Ru  Ru9  1  0.828201  0.656372  0.253374  1
  Ru  Ru10  1  0.828175  0.171812  0.253371  1
  Ru  Ru11  1  0.343628  0.171817  0.253368  1
