# generated using pymatgen
data_Er8Sb(Pd5Pt3)3
_symmetry_space_group_name_H-M   'P 1'
_cell_length_a   8.36393311
_cell_length_b   8.36241711
_cell_length_c   8.37680500
_cell_angle_alpha   90.00000000
_cell_angle_beta   90.00000000
_cell_angle_gamma   89.94097212
_symmetry_Int_Tables_number   1
_chemical_formula_structural   Er8Sb(Pd5Pt3)3
_chemical_formula_sum   'Er8 Sb1 Pd15 Pt9'
_cell_volume   585.89602585
_cell_formula_units_Z   1
loop_
 _symmetry_equiv_pos_site_id
 _symmetry_equiv_pos_as_xyz
  1  'x, y, z'
loop_
 _atom_site_type_symbol
 _atom_site_label
 _atom_site_symmetry_multiplicity
 _atom_site_fract_x
 _atom_site_fract_y
 _atom_site_fract_z
 _atom_site_occupancy
  Er  Er0  1  0.745275  0.745840  0.254805  1
  Er  Er1  1  0.744498  0.254145  0.745443  1
  Er  Er2  1  0.254706  0.745430  0.744594  1
  Er  Er3  1  0.745275  0.745840  0.745195  1
  Er  Er4  1  0.744498  0.254145  0.254557  1
  Er  Er5  1  0.255371  0.254539  0.744789  1
  Er  Er6  1  0.254706  0.745430  0.255406  1
  Er  Er7  1  0.255371  0.254539  0.255211  1
  Sb  Sb8  1  0.999746  0.999882  0.000000  1
  Pd  Pd9  1  0.000144  0.000213  0.303926  1
  Pd  Pd10  1  0.000030  0.263972  0.500000  1
  Pd  Pd11  1  0.499862  0.735868  0.000000  1
  Pd  Pd12  1  0.500026  0.745495  0.500000  1
  Pd  Pd13  1  0.745643  0.500158  0.500000  1
  Pd  Pd14  1  0.304748  0.000012  0.000000  1
  Pd  Pd15  1  0.000144  0.000213  0.696074  1
  Pd  Pd16  1  0.000005  0.499894  0.264284  1
  Pd  Pd17  1  0.000195  0.304875  0.000000  1
  Pd  Pd18  1  0.000139  0.695147  0.000000  1
  Pd  Pd19  1  0.695230  0.999946  0.000000  1
  Pd  Pd20  1  0.264051  0.500035  0.000000  1
  Pd  Pd21  1  0.263506  0.999877  0.500000  1
  Pd  Pd22  1  0.000005  0.499894  0.735716  1
  Pd  Pd23  1  0.499895  0.264024  0.000000  1
  Pt  Pt24  1  0.736602  0.999973  0.500000  1
  Pt  Pt25  1  0.735988  0.500003  0.000000  1
  Pt  Pt26  1  0.499920  0.000117  0.735977  1
  Pt  Pt27  1  0.000194  0.736116  0.500000  1
  Pt  Pt28  1  0.499920  0.000117  0.264023  1
  Pt  Pt29  1  0.254168  0.500168  0.500000  1
  Pt  Pt30  1  0.500069  0.499875  0.745491  1
  Pt  Pt31  1  0.500069  0.499875  0.254509  1
  Pt  Pt32  1  0.500001  0.254345  0.500000  1
