# generated using pymatgen
data_Pa2Nb3Si4
_symmetry_space_group_name_H-M   'P 1'
_cell_length_a   7.08898300
_cell_length_b   7.08898300
_cell_length_c   13.07547600
_cell_angle_alpha   90.00000000
_cell_angle_beta   90.00000000
_cell_angle_gamma   90.00000000
_symmetry_Int_Tables_number   1
_chemical_formula_structural   Pa2Nb3Si4
_chemical_formula_sum   'Pa8 Nb12 Si16'
_cell_volume   657.09078642
_cell_formula_units_Z   4
loop_
 _symmetry_equiv_pos_site_id
 _symmetry_equiv_pos_as_xyz
  1  'x, y, z'
loop_
 _atom_site_type_symbol
 _atom_site_label
 _atom_site_symmetry_multiplicity
 _atom_site_fract_x
 _atom_site_fract_y
 _atom_site_fract_z
 _atom_site_occupancy
  Pa  Pa0  1  0.999828  0.335392  0.218552  1
  Pa  Pa1  1  0.000172  0.664608  0.718552  1
  Pa  Pa2  1  0.164608  0.499828  0.468552  1
  Pa  Pa3  1  0.500172  0.835392  0.031448  1
  Pa  Pa4  1  0.835392  0.500172  0.968552  1
  Pa  Pa5  1  0.499828  0.164608  0.531448  1
  Pa  Pa6  1  0.335392  0.999828  0.781448  1
  Pa  Pa7  1  0.664608  0.000172  0.281448  1
  Nb  Nb8  1  0.168697  0.168697  0.000000  1
  Nb  Nb9  1  0.831303  0.831303  0.500000  1
  Nb  Nb10  1  0.331303  0.668697  0.250000  1
  Nb  Nb11  1  0.668697  0.331303  0.750000  1
  Nb  Nb12  1  0.158681  0.002250  0.374588  1
  Nb  Nb13  1  0.841319  0.997750  0.874588  1
  Nb  Nb14  1  0.497750  0.658681  0.624588  1
  Nb  Nb15  1  0.341319  0.502250  0.875412  1
  Nb  Nb16  1  0.502250  0.341319  0.124588  1
  Nb  Nb17  1  0.658681  0.497750  0.375412  1
  Nb  Nb18  1  0.002250  0.158681  0.625412  1
  Nb  Nb19  1  0.997750  0.841319  0.125412  1
  Si  Si20  1  0.291979  0.041229  0.184907  1
  Si  Si21  1  0.708021  0.958771  0.684907  1
  Si  Si22  1  0.458771  0.791979  0.434907  1
  Si  Si23  1  0.208021  0.541229  0.065093  1
  Si  Si24  1  0.541229  0.208021  0.934907  1
  Si  Si25  1  0.791979  0.458771  0.565093  1
  Si  Si26  1  0.041229  0.291979  0.815093  1
  Si  Si27  1  0.958771  0.708021  0.315093  1
  Si  Si28  1  0.373243  0.294080  0.316599  1
  Si  Si29  1  0.626757  0.705920  0.816599  1
  Si  Si30  1  0.205920  0.873243  0.566599  1
  Si  Si31  1  0.126757  0.794080  0.933401  1
  Si  Si32  1  0.794080  0.126757  0.066599  1
  Si  Si33  1  0.873243  0.205920  0.433401  1
  Si  Si34  1  0.294080  0.373243  0.683401  1
  Si  Si35  1  0.705920  0.626757  0.183401  1
