# generated using pymatgen
data_LiZr6Al15Pd7
_symmetry_space_group_name_H-M   'P 1'
_cell_length_a   8.79887501
_cell_length_b   8.79887484
_cell_length_c   8.78895580
_cell_angle_alpha   59.96265368
_cell_angle_beta   59.96265859
_cell_angle_gamma   59.99999904
_symmetry_Int_Tables_number   1
_chemical_formula_structural   LiZr6Al15Pd7
_chemical_formula_sum   'Li1 Zr6 Al15 Pd7'
_cell_volume   480.87389217
_cell_formula_units_Z   1
loop_
 _symmetry_equiv_pos_site_id
 _symmetry_equiv_pos_as_xyz
  1  'x, y, z'
loop_
 _atom_site_type_symbol
 _atom_site_label
 _atom_site_symmetry_multiplicity
 _atom_site_fract_x
 _atom_site_fract_y
 _atom_site_fract_z
 _atom_site_occupancy
  Li  Li0  1  0.880678  0.880678  0.357966  1
  Zr  Zr1  1  0.684956  0.684956  0.314320  1
  Zr  Zr2  1  0.315768  0.684956  0.314320  1
  Zr  Zr3  1  0.684956  0.315768  0.314320  1
  Zr  Zr4  1  0.314187  0.314187  0.685543  1
  Zr  Zr5  1  0.686083  0.314187  0.685543  1
  Zr  Zr6  1  0.314187  0.686083  0.685543  1
  Al  Al7  1  0.878936  0.360341  0.881788  1
  Al  Al8  1  0.360341  0.878936  0.881788  1
  Al  Al9  1  0.878936  0.878936  0.881788  1
  Al  Al10  1  0.120244  0.120244  0.639267  1
  Al  Al11  1  0.116216  0.642481  0.125086  1
  Al  Al12  1  0.642481  0.116216  0.125086  1
  Al  Al13  1  0.116216  0.116216  0.125086  1
  Al  Al14  1  0.664833  0.664833  0.005502  1
  Al  Al15  1  0.669758  0.000640  0.659844  1
  Al  Al16  1  0.000640  0.669758  0.659844  1
  Al  Al17  1  0.669758  0.669758  0.659844  1
  Al  Al18  1  0.333853  0.333853  0.998440  1
  Al  Al19  1  0.335806  0.995601  0.332788  1
  Al  Al20  1  0.995601  0.335806  0.332788  1
  Al  Al21  1  0.335806  0.335806  0.332788  1
  Pd  Pd22  1  0.002198  0.002198  0.993405  1
  Pd  Pd23  1  0.001606  0.001606  0.505270  1
  Pd  Pd24  1  0.491517  0.001606  0.505270  1
  Pd  Pd25  1  0.001606  0.491517  0.505270  1
  Pd  Pd26  1  0.501055  0.501055  0.997167  1
  Pd  Pd27  1  0.000723  0.501055  0.997167  1
  Pd  Pd28  1  0.501055  0.000723  0.997167  1
