# generated using pymatgen
data_ErUInIrRu
_symmetry_space_group_name_H-M   'P 1'
_cell_length_a   7.71259275
_cell_length_b   7.71259313
_cell_length_c   3.50223900
_cell_angle_alpha   90.00000000
_cell_angle_beta   90.00000000
_cell_angle_gamma   84.19197538
_symmetry_Int_Tables_number   1
_chemical_formula_structural   ErUInIrRu
_chemical_formula_sum   'Er2 U2 In2 Ir2 Ru2'
_cell_volume   207.25805953
_cell_formula_units_Z   2
loop_
 _symmetry_equiv_pos_site_id
 _symmetry_equiv_pos_as_xyz
  1  'x, y, z'
loop_
 _atom_site_type_symbol
 _atom_site_label
 _atom_site_symmetry_multiplicity
 _atom_site_fract_x
 _atom_site_fract_y
 _atom_site_fract_z
 _atom_site_occupancy
  Er  Er0  1  0.672157  0.172157  0.500000  1
  Er  Er1  1  0.327843  0.827843  0.500000  1
  U  U2  1  0.174400  0.325600  0.500000  1
  U  U3  1  0.825600  0.674400  0.500000  1
  In  In4  1  0.500000  0.500000  0.000000  1
  In  In5  1  0.000000  0.000000  0.000000  1
  Ir  Ir6  1  0.122989  0.622989  0.000000  1
  Ir  Ir7  1  0.877011  0.377011  0.000000  1
  Ru  Ru8  1  0.653771  0.846229  0.000000  1
  Ru  Ru9  1  0.346229  0.153771  0.000000  1
