# generated using pymatgen
data_Tb2Dy2Al13Ga5Ir6
_symmetry_space_group_name_H-M   'P 1'
_cell_length_a   7.53654207
_cell_length_b   7.53866776
_cell_length_c   9.58532200
_cell_angle_alpha   90.00000000
_cell_angle_beta   90.00000000
_cell_angle_gamma   119.57282398
_symmetry_Int_Tables_number   1
_chemical_formula_structural   Tb2Dy2Al13Ga5Ir6
_chemical_formula_sum   'Tb2 Dy2 Al13 Ga5 Ir6'
_cell_volume   473.64989588
_cell_formula_units_Z   1
loop_
 _symmetry_equiv_pos_site_id
 _symmetry_equiv_pos_as_xyz
  1  'x, y, z'
loop_
 _atom_site_type_symbol
 _atom_site_label
 _atom_site_symmetry_multiplicity
 _atom_site_fract_x
 _atom_site_fract_y
 _atom_site_fract_z
 _atom_site_occupancy
  Tb  Tb0  1  0.994985  0.669860  0.750000  1
  Tb  Tb1  1  0.670015  0.996206  0.750000  1
  Dy  Dy2  1  0.001109  0.326800  0.250000  1
  Dy  Dy3  1  0.330354  0.006496  0.250000  1
  Al  Al4  1  0.002538  0.334903  0.572058  1
  Al  Al5  1  0.999290  0.665423  0.427051  1
  Al  Al6  1  0.999290  0.665423  0.072949  1
  Al  Al7  1  0.334776  0.001989  0.928090  1
  Al  Al8  1  0.002538  0.334903  0.927942  1
  Al  Al9  1  0.664812  0.997958  0.073240  1
  Al  Al10  1  0.664812  0.997958  0.426760  1
  Al  Al11  1  0.334776  0.001989  0.571910  1
  Al  Al12  1  0.333740  0.334151  0.056126  1
  Al  Al13  1  0.665825  0.665827  0.947400  1
  Al  Al14  1  0.665825  0.665827  0.552600  1
  Al  Al15  1  0.333740  0.334151  0.443874  1
  Al  Al16  1  0.451279  0.661556  0.250000  1
  Ga  Ga17  1  0.129029  0.129089  0.750000  1
  Ga  Ga18  1  0.869999  0.869302  0.250000  1
  Ga  Ga19  1  0.338618  0.546761  0.750000  1
  Ga  Ga20  1  0.661763  0.454326  0.250000  1
  Ga  Ga21  1  0.546746  0.339209  0.750000  1
  Ir  Ir22  1  0.672318  0.328015  0.500041  1
  Ir  Ir23  1  0.329230  0.671662  0.497626  1
  Ir  Ir24  1  0.329230  0.671662  0.002374  1
  Ir  Ir25  1  0.672318  0.328015  0.999959  1
  Ir  Ir26  1  0.000525  0.000270  0.499767  1
  Ir  Ir27  1  0.000525  0.000270  0.000233  1
