# generated using pymatgen
data_Dy8Sc12Si15Ge
_symmetry_space_group_name_H-M   'P 1'
_cell_length_a   7.10713221
_cell_length_b   7.39211422
_cell_length_c   14.01235596
_cell_angle_alpha   90.00210351
_cell_angle_beta   89.91387702
_cell_angle_gamma   90.02757525
_symmetry_Int_Tables_number   1
_chemical_formula_structural   Dy8Sc12Si15Ge
_chemical_formula_sum   'Dy8 Sc12 Si15 Ge1'
_cell_volume   736.16248724
_cell_formula_units_Z   1
loop_
 _symmetry_equiv_pos_site_id
 _symmetry_equiv_pos_as_xyz
  1  'x, y, z'
loop_
 _atom_site_type_symbol
 _atom_site_label
 _atom_site_symmetry_multiplicity
 _atom_site_fract_x
 _atom_site_fract_y
 _atom_site_fract_z
 _atom_site_occupancy
  Dy  Dy0  1  0.012220  0.175104  0.097035  1
  Dy  Dy1  1  0.987858  0.824939  0.902942  1
  Dy  Dy2  1  0.487967  0.675210  0.902932  1
  Dy  Dy3  1  0.987088  0.826053  0.597192  1
  Dy  Dy4  1  0.512142  0.324901  0.097077  1
  Dy  Dy5  1  0.011337  0.174372  0.402441  1
  Dy  Dy6  1  0.512904  0.324128  0.402427  1
  Dy  Dy7  1  0.489909  0.676357  0.597348  1
  Sc  Sc8  1  0.160451  0.502494  0.751087  1
  Sc  Sc9  1  0.839427  0.497478  0.250016  1
  Sc  Sc10  1  0.339571  0.002370  0.250018  1
  Sc  Sc11  1  0.660563  0.997304  0.750042  1
  Sc  Sc12  1  0.331982  0.174662  0.625735  1
  Sc  Sc13  1  0.669016  0.823830  0.374784  1
  Sc  Sc14  1  0.168789  0.677343  0.374419  1
  Sc  Sc15  1  0.669281  0.823416  0.125087  1
  Sc  Sc16  1  0.829416  0.323278  0.625266  1
  Sc  Sc17  1  0.330677  0.176494  0.874859  1
  Sc  Sc18  1  0.830744  0.323426  0.874813  1
  Sc  Sc19  1  0.169258  0.676676  0.125099  1
  Si  Si20  1  0.033445  0.117976  0.750006  1
  Si  Si21  1  0.966534  0.882391  0.249839  1
  Si  Si22  1  0.466557  0.617824  0.249962  1
  Si  Si23  1  0.532984  0.382371  0.749965  1
  Si  Si24  1  0.285398  0.873824  0.750026  1
  Si  Si25  1  0.714588  0.125895  0.249951  1
  Si  Si26  1  0.214493  0.374050  0.250011  1
  Si  Si27  1  0.785696  0.625976  0.749937  1
  Si  Si28  1  0.838320  0.536213  0.459697  1
  Si  Si29  1  0.342231  0.964608  0.460511  1
  Si  Si30  1  0.842442  0.535282  0.039427  1
  Si  Si31  1  0.657636  0.035532  0.539493  1
  Si  Si32  1  0.157472  0.464698  0.960563  1
  Si  Si33  1  0.657469  0.035366  0.960536  1
  Si  Si34  1  0.342469  0.964604  0.039457  1
  Ge  Ge35  1  0.161668  0.463555  0.540000  1
