# generated using pymatgen
data_Gd4Re4OsRu3
_symmetry_space_group_name_H-M   'P 1'
_cell_length_a   5.35440800
_cell_length_b   5.14368525
_cell_length_c   9.16379000
_cell_angle_alpha   90.00000000
_cell_angle_beta   90.00000000
_cell_angle_gamma   118.65268684
_symmetry_Int_Tables_number   1
_chemical_formula_structural   Gd4Re4OsRu3
_chemical_formula_sum   'Gd4 Re4 Os1 Ru3'
_cell_volume   221.47723537
_cell_formula_units_Z   1
loop_
 _symmetry_equiv_pos_site_id
 _symmetry_equiv_pos_as_xyz
  1  'x, y, z'
loop_
 _atom_site_type_symbol
 _atom_site_label
 _atom_site_symmetry_multiplicity
 _atom_site_fract_x
 _atom_site_fract_y
 _atom_site_fract_z
 _atom_site_occupancy
  Gd  Gd0  1  0.670226  0.335092  0.564063  1
  Gd  Gd1  1  0.329597  0.664806  0.435959  1
  Gd  Gd2  1  0.329597  0.664806  0.064041  1
  Gd  Gd3  1  0.670226  0.335092  0.935937  1
  Re  Re4  1  0.166036  0.335916  0.750000  1
  Re  Re5  1  0.166343  0.831235  0.750000  1
  Re  Re6  1  0.837745  0.665020  0.250000  1
  Re  Re7  1  0.837542  0.171701  0.250000  1
  Os  Os8  1  0.651720  0.825792  0.750000  1
  Ru  Ru9  1  0.994581  0.997245  0.498952  1
  Ru  Ru10  1  0.994581  0.997245  0.001048  1
  Ru  Ru11  1  0.351806  0.176050  0.250000  1
