# generated using pymatgen
data_La3(Mg2Sn)2
_symmetry_space_group_name_H-M   'P 1'
_cell_length_a   7.82746800
_cell_length_b   7.82746875
_cell_length_c   4.87235300
_cell_angle_alpha   90.00000000
_cell_angle_beta   90.00000000
_cell_angle_gamma   119.99999684
_symmetry_Int_Tables_number   1
_chemical_formula_structural   La3(Mg2Sn)2
_chemical_formula_sum   'La3 Mg4 Sn2'
_cell_volume   258.53064754
_cell_formula_units_Z   1
loop_
 _symmetry_equiv_pos_site_id
 _symmetry_equiv_pos_as_xyz
  1  'x, y, z'
loop_
 _atom_site_type_symbol
 _atom_site_label
 _atom_site_symmetry_multiplicity
 _atom_site_fract_x
 _atom_site_fract_y
 _atom_site_fract_z
 _atom_site_occupancy
  La  La0  1  0.426432  0.426432  0.500000  1
  La  La1  1  0.573568  0.000000  0.500000  1
  La  La2  1  0.000000  0.573568  0.500000  1
  Mg  Mg3  1  0.758031  0.758031  0.000000  1
  Mg  Mg4  1  0.241969  0.000000  0.000000  1
  Mg  Mg5  1  0.000000  0.241969  0.000000  1
  Mg  Mg6  1  0.000000  0.000000  0.500000  1
  Sn  Sn7  1  0.666667  0.333333  0.000000  1
  Sn  Sn8  1  0.333333  0.666667  0.000000  1
