# generated using pymatgen
data_Lu2Al9RuPt2
_symmetry_space_group_name_H-M   'P 1'
_cell_length_a   7.55869538
_cell_length_b   7.55869513
_cell_length_c   9.39308000
_cell_angle_alpha   90.00000000
_cell_angle_beta   90.00000000
_cell_angle_gamma   119.35940042
_symmetry_Int_Tables_number   1
_chemical_formula_structural   Lu2Al9RuPt2
_chemical_formula_sum   'Lu4 Al18 Ru2 Pt4'
_cell_volume   467.73482255
_cell_formula_units_Z   2
loop_
 _symmetry_equiv_pos_site_id
 _symmetry_equiv_pos_as_xyz
  1  'x, y, z'
loop_
 _atom_site_type_symbol
 _atom_site_label
 _atom_site_symmetry_multiplicity
 _atom_site_fract_x
 _atom_site_fract_y
 _atom_site_fract_z
 _atom_site_occupancy
  Lu  Lu0  1  0.994836  0.671321  0.250000  1
  Lu  Lu1  1  0.005164  0.328679  0.750000  1
  Lu  Lu2  1  0.671321  0.994836  0.250000  1
  Lu  Lu3  1  0.328679  0.005164  0.750000  1
  Al  Al4  1  0.123363  0.123363  0.250000  1
  Al  Al5  1  0.876637  0.876637  0.750000  1
  Al  Al6  1  0.999719  0.329990  0.076847  1
  Al  Al7  1  0.000281  0.670010  0.923153  1
  Al  Al8  1  0.000281  0.670010  0.576847  1
  Al  Al9  1  0.329990  0.999719  0.423153  1
  Al  Al10  1  0.999719  0.329990  0.423153  1
  Al  Al11  1  0.670010  0.000281  0.576847  1
  Al  Al12  1  0.670010  0.000281  0.923153  1
  Al  Al13  1  0.329990  0.999719  0.076847  1
  Al  Al14  1  0.327331  0.327331  0.557364  1
  Al  Al15  1  0.672669  0.672669  0.442636  1
  Al  Al16  1  0.672669  0.672669  0.057364  1
  Al  Al17  1  0.327331  0.327331  0.942636  1
  Al  Al18  1  0.340178  0.546623  0.250000  1
  Al  Al19  1  0.659822  0.453377  0.750000  1
  Al  Al20  1  0.546623  0.340178  0.250000  1
  Al  Al21  1  0.453377  0.659822  0.750000  1
  Ru  Ru22  1  0.000000  0.000000  0.000000  1
  Ru  Ru23  1  0.000000  0.000000  0.500000  1
  Pt  Pt24  1  0.672750  0.327250  0.000000  1
  Pt  Pt25  1  0.327250  0.672750  0.000000  1
  Pt  Pt26  1  0.327250  0.672750  0.500000  1
  Pt  Pt27  1  0.672750  0.327250  0.500000  1
