# generated using pymatgen
data_NaDy4P12Ir11Ru8
_symmetry_space_group_name_H-M   'P 1'
_cell_length_a   12.60833007
_cell_length_b   12.60164465
_cell_length_c   3.97106800
_cell_angle_alpha   90.00000000
_cell_angle_beta   90.00000000
_cell_angle_gamma   119.99444695
_symmetry_Int_Tables_number   1
_chemical_formula_structural   NaDy4P12Ir11Ru8
_chemical_formula_sum   'Na1 Dy4 P12 Ir11 Ru8'
_cell_volume   546.44575043
_cell_formula_units_Z   1
loop_
 _symmetry_equiv_pos_site_id
 _symmetry_equiv_pos_as_xyz
  1  'x, y, z'
loop_
 _atom_site_type_symbol
 _atom_site_label
 _atom_site_symmetry_multiplicity
 _atom_site_fract_x
 _atom_site_fract_y
 _atom_site_fract_z
 _atom_site_occupancy
  Na  Na0  1  0.814255  0.000892  0.500000  1
  Dy  Dy1  1  0.667585  0.332341  0.000000  1
  Dy  Dy2  1  0.333845  0.667852  0.000000  1
  Dy  Dy3  1  0.181073  0.183054  0.500000  1
  Dy  Dy4  1  0.998912  0.816597  0.500000  1
  P  P5  1  0.633544  0.998642  0.000000  1
  P  P6  1  0.364018  0.364245  0.000000  1
  P  P7  1  0.000142  0.635503  0.000000  1
  P  P8  1  0.688353  0.518627  0.500000  1
  P  P9  1  0.829890  0.305849  0.500000  1
  P  P10  1  0.318292  0.835165  0.500000  1
  P  P11  1  0.521379  0.692353  0.500000  1
  P  P12  1  0.178950  0.999904  0.000000  1
  P  P13  1  0.817086  0.819143  0.000000  1
  P  P14  1  0.994957  0.181346  0.000000  1
  P  P15  1  0.479866  0.166619  0.500000  1
  P  P16  1  0.169043  0.481584  0.500000  1
  Ir  Ir17  1  0.620359  0.801485  0.000000  1
  Ir  Ir18  1  0.183856  0.376602  0.000000  1
  Ir  Ir19  1  0.373707  0.181165  0.000000  1
  Ir  Ir20  1  0.191560  0.818890  0.000000  1
  Ir  Ir21  1  0.806790  0.623534  0.000000  1
  Ir  Ir22  1  0.870404  0.506263  0.500000  1
  Ir  Ir23  1  0.491811  0.358992  0.500000  1
  Ir  Ir24  1  0.636077  0.127939  0.500000  1
  Ir  Ir25  1  0.133869  0.642518  0.500000  1
  Ir  Ir26  1  0.363311  0.493393  0.500000  1
  Ir  Ir27  1  0.999697  0.000567  0.000000  1
  Ru  Ru28  1  0.512558  0.872411  0.500000  1
  Ru  Ru29  1  0.714721  0.711420  0.500000  1
  Ru  Ru30  1  0.004293  0.289051  0.500000  1
  Ru  Ru31  1  0.449256  0.998718  0.000000  1
  Ru  Ru32  1  0.547842  0.542134  0.000000  1
  Ru  Ru33  1  0.006482  0.457913  0.000000  1
  Ru  Ru34  1  0.816612  0.197561  0.000000  1
  Ru  Ru35  1  0.285602  0.999724  0.500000  1
