# generated using pymatgen
data_Tb2Ho8In5Hg3Pd4
_symmetry_space_group_name_H-M   'P 1'
_cell_length_a   3.61154300
_cell_length_b   8.06538835
_cell_length_c   18.29439822
_cell_angle_alpha   89.94743102
_cell_angle_beta   90.00000000
_cell_angle_gamma   90.00000000
_symmetry_Int_Tables_number   1
_chemical_formula_structural   Tb2Ho8In5Hg3Pd4
_chemical_formula_sum   'Tb2 Ho8 In5 Hg3 Pd4'
_cell_volume   532.88809625
_cell_formula_units_Z   1
loop_
 _symmetry_equiv_pos_site_id
 _symmetry_equiv_pos_as_xyz
  1  'x, y, z'
loop_
 _atom_site_type_symbol
 _atom_site_label
 _atom_site_symmetry_multiplicity
 _atom_site_fract_x
 _atom_site_fract_y
 _atom_site_fract_z
 _atom_site_occupancy
  Tb  Tb0  1  0.000000  0.503155  0.497806  1
  Tb  Tb1  1  0.000000  0.000038  0.000426  1
  Ho  Ho2  1  0.000000  0.744010  0.284658  1
  Ho  Ho3  1  0.000000  0.256585  0.719239  1
  Ho  Ho4  1  0.000000  0.756069  0.783657  1
  Ho  Ho5  1  0.000000  0.243887  0.215295  1
  Ho  Ho6  1  0.000000  0.610229  0.084094  1
  Ho  Ho7  1  0.000000  0.391646  0.917154  1
  Ho  Ho8  1  0.000000  0.883226  0.583705  1
  Ho  Ho9  1  0.000000  0.109858  0.415533  1
  In  In10  1  0.500000  0.209563  0.567431  1
  In  In11  1  0.500000  0.577437  0.649394  1
  In  In12  1  0.500000  0.417349  0.349869  1
  In  In13  1  0.500000  0.919201  0.149249  1
  In  In14  1  0.500000  0.081210  0.851418  1
  Hg  Hg15  1  0.500000  0.712706  0.933371  1
  Hg  Hg16  1  0.500000  0.289484  0.065967  1
  Hg  Hg17  1  0.500000  0.790025  0.433160  1
  Pd  Pd18  1  0.500000  0.530632  0.198059  1
  Pd  Pd19  1  0.500000  0.471170  0.802602  1
  Pd  Pd20  1  0.500000  0.972145  0.696553  1
  Pd  Pd21  1  0.500000  0.030376  0.301361  1
