# generated using pymatgen
data_Sc6Co5Sn6Ir
_symmetry_space_group_name_H-M   'P 1'
_cell_length_a   7.35504700
_cell_length_b   7.35504678
_cell_length_c   6.84673700
_cell_angle_alpha   90.00000000
_cell_angle_beta   90.00000000
_cell_angle_gamma   120.00000551
_symmetry_Int_Tables_number   1
_chemical_formula_structural   Sc6Co5Sn6Ir
_chemical_formula_sum   'Sc6 Co5 Sn6 Ir1'
_cell_volume   320.76364857
_cell_formula_units_Z   1
loop_
 _symmetry_equiv_pos_site_id
 _symmetry_equiv_pos_as_xyz
  1  'x, y, z'
loop_
 _atom_site_type_symbol
 _atom_site_label
 _atom_site_symmetry_multiplicity
 _atom_site_fract_x
 _atom_site_fract_y
 _atom_site_fract_z
 _atom_site_occupancy
  Sc  Sc0  1  0.395950  0.998957  0.250576  1
  Sc  Sc1  1  0.603006  0.604050  0.250576  1
  Sc  Sc2  1  0.001043  0.396994  0.250576  1
  Sc  Sc3  1  0.395676  0.998495  0.749556  1
  Sc  Sc4  1  0.602818  0.604324  0.749556  1
  Sc  Sc5  1  0.001505  0.397182  0.749556  1
  Co  Co6  1  0.000000  0.000000  0.771395  1
  Co  Co7  1  0.000000  0.000000  0.228720  1
  Co  Co8  1  0.666667  0.333333  0.998235  1
  Co  Co9  1  0.333333  0.666667  0.498954  1
  Co  Co10  1  0.333333  0.666667  0.001195  1
  Sn  Sn11  1  0.278865  0.277950  0.000020  1
  Sn  Sn12  1  0.999085  0.721135  0.000020  1
  Sn  Sn13  1  0.006536  0.742366  0.500057  1
  Sn  Sn14  1  0.735829  0.993464  0.500057  1
  Sn  Sn15  1  0.257634  0.264171  0.500057  1
  Sn  Sn16  1  0.722050  0.000915  0.000020  1
  Ir  Ir17  1  0.666667  0.333333  0.500869  1
