# generated using pymatgen
data_Tb6GaCoRh
_symmetry_space_group_name_H-M   'P 1'
_cell_length_a   8.37054668
_cell_length_b   8.37054654
_cell_length_c   8.37054649
_cell_angle_alpha   106.92374481
_cell_angle_beta   109.64189963
_cell_angle_gamma   111.88599756
_symmetry_Int_Tables_number   1
_chemical_formula_structural   Tb6GaCoRh
_chemical_formula_sum   'Tb12 Ga2 Co2 Rh2'
_cell_volume   450.63402358
_cell_formula_units_Z   2
loop_
 _symmetry_equiv_pos_site_id
 _symmetry_equiv_pos_as_xyz
  1  'x, y, z'
loop_
 _atom_site_type_symbol
 _atom_site_label
 _atom_site_symmetry_multiplicity
 _atom_site_fract_x
 _atom_site_fract_y
 _atom_site_fract_z
 _atom_site_occupancy
  Tb  Tb0  1  0.693976  0.256472  0.950448  1
  Tb  Tb1  1  0.306024  0.743528  0.049552  1
  Tb  Tb2  1  0.693976  0.743528  0.437506  1
  Tb  Tb3  1  0.306024  0.256472  0.562494  1
  Tb  Tb4  1  0.811004  0.131122  0.320118  1
  Tb  Tb5  1  0.811004  0.490887  0.679882  1
  Tb  Tb6  1  0.188996  0.868878  0.679882  1
  Tb  Tb7  1  0.188996  0.509113  0.320118  1
  Tb  Tb8  1  0.601858  0.780927  0.820930  1
  Tb  Tb9  1  0.959997  0.780927  0.179070  1
  Tb  Tb10  1  0.040003  0.219073  0.820930  1
  Tb  Tb11  1  0.398142  0.219073  0.179070  1
  Ga  Ga12  1  0.500000  0.500000  0.000000  1
  Ga  Ga13  1  0.500000  0.000000  0.500000  1
  Co  Co14  1  0.000000  0.112045  0.112045  1
  Co  Co15  1  0.000000  0.887955  0.887955  1
  Rh  Rh16  1  0.837759  0.500000  0.337759  1
  Rh  Rh17  1  0.162241  0.500000  0.662241  1
