# generated using pymatgen
data_TbY7Ti12Si15Sb
_symmetry_space_group_name_H-M   'P 1'
_cell_length_a   7.07363745
_cell_length_b   7.06772602
_cell_length_c   12.99387000
_cell_angle_alpha   89.97965224
_cell_angle_beta   89.93574345
_cell_angle_gamma   89.96168125
_symmetry_Int_Tables_number   1
_chemical_formula_structural   TbY7Ti12Si15Sb
_chemical_formula_sum   'Tb1 Y7 Ti12 Si15 Sb1'
_cell_volume   649.62184818
_cell_formula_units_Z   1
loop_
 _symmetry_equiv_pos_site_id
 _symmetry_equiv_pos_as_xyz
  1  'x, y, z'
loop_
 _atom_site_type_symbol
 _atom_site_label
 _atom_site_symmetry_multiplicity
 _atom_site_fract_x
 _atom_site_fract_y
 _atom_site_fract_z
 _atom_site_occupancy
  Tb  Tb0  1  0.998037  0.659743  0.034033  1
  Y  Y1  1  0.342931  0.999452  0.462304  1
  Y  Y2  1  0.503838  0.836652  0.718455  1
  Y  Y3  1  0.502580  0.160005  0.216590  1
  Y  Y4  1  0.839930  0.497220  0.282213  1
  Y  Y5  1  0.159423  0.508240  0.785482  1
  Y  Y6  1  0.661998  0.994927  0.968886  1
  Y  Y7  1  0.993070  0.349411  0.527436  1
  Ti  Ti8  1  0.326109  0.327068  0.000639  1
  Ti  Ti9  1  0.173336  0.826762  0.249681  1
  Ti  Ti10  1  0.817866  0.175049  0.751458  1
  Ti  Ti11  1  0.672520  0.672669  0.499746  1
  Ti  Ti12  1  0.153873  0.008144  0.881535  1
  Ti  Ti13  1  0.491464  0.651109  0.126766  1
  Ti  Ti14  1  0.514440  0.351348  0.626738  1
  Ti  Ti15  1  0.655977  0.494303  0.875281  1
  Ti  Ti16  1  0.347032  0.508893  0.373271  1
  Ti  Ti17  1  0.846712  0.992170  0.376075  1
  Ti  Ti18  1  0.009087  0.151997  0.123504  1
  Ti  Ti19  1  0.980868  0.833838  0.619430  1
  Si  Si20  1  0.371440  0.702835  0.935707  1
  Si  Si21  1  0.627087  0.297405  0.433453  1
  Si  Si22  1  0.702500  0.370242  0.065802  1
  Si  Si23  1  0.297551  0.629966  0.565506  1
  Si  Si24  1  0.797347  0.870661  0.184990  1
  Si  Si25  1  0.129502  0.203149  0.314967  1
  Si  Si26  1  0.871167  0.799503  0.815550  1
  Si  Si27  1  0.291757  0.952261  0.066224  1
  Si  Si28  1  0.548368  0.789294  0.313663  1
  Si  Si29  1  0.463564  0.211756  0.821715  1
  Si  Si30  1  0.792607  0.544425  0.686505  1
  Si  Si31  1  0.209291  0.452418  0.185348  1
  Si  Si32  1  0.707776  0.047578  0.564279  1
  Si  Si33  1  0.952980  0.290916  0.935418  1
  Si  Si34  1  0.047994  0.711450  0.432965  1
  Sb  Sb35  1  0.197984  0.127134  0.678393  1
