# generated using pymatgen
data_Cs4CaZn3F12
_symmetry_space_group_name_H-M   'P 1'
_cell_length_a   10.91193973
_cell_length_b   10.91193957
_cell_length_c   10.91194000
_cell_angle_alpha   33.82001734
_cell_angle_beta   33.82001856
_cell_angle_gamma   33.82002203
_symmetry_Int_Tables_number   1
_chemical_formula_structural   Cs4CaZn3F12
_chemical_formula_sum   'Cs4 Ca1 Zn3 F12'
_cell_volume   358.67536916
_cell_formula_units_Z   1
loop_
 _symmetry_equiv_pos_site_id
 _symmetry_equiv_pos_as_xyz
  1  'x, y, z'
loop_
 _atom_site_type_symbol
 _atom_site_label
 _atom_site_symmetry_multiplicity
 _atom_site_fract_x
 _atom_site_fract_y
 _atom_site_fract_z
 _atom_site_occupancy
  Cs  Cs0  1  0.715499  0.715499  0.715499  1
  Cs  Cs1  1  0.869493  0.869493  0.869493  1
  Cs  Cs2  1  0.284501  0.284501  0.284501  1
  Cs  Cs3  1  0.130507  0.130507  0.130507  1
  Ca  Ca4  1  0.000000  0.000000  0.000000  1
  Zn  Zn5  1  0.408758  0.408758  0.408758  1
  Zn  Zn6  1  0.591242  0.591242  0.591242  1
  Zn  Zn7  1  0.500000  0.500000  0.500000  1
  F  F8  1  0.170500  0.598846  0.598846  1
  F  F9  1  0.598846  0.598846  0.170500  1
  F  F10  1  0.694878  0.214775  0.214775  1
  F  F11  1  0.305122  0.785225  0.785225  1
  F  F12  1  0.214775  0.214775  0.694878  1
  F  F13  1  0.829500  0.401154  0.401154  1
  F  F14  1  0.785225  0.785225  0.305122  1
  F  F15  1  0.401154  0.401154  0.829500  1
  F  F16  1  0.401154  0.829500  0.401154  1
  F  F17  1  0.214775  0.694878  0.214775  1
  F  F18  1  0.785225  0.305122  0.785225  1
  F  F19  1  0.598846  0.170500  0.598846  1
