# generated using pymatgen
data_Y2Ta2Co10P7
_symmetry_space_group_name_H-M   'P 1'
_cell_length_a   3.67032100
_cell_length_b   9.13475573
_cell_length_c   9.17451907
_cell_angle_alpha   119.94947756
_cell_angle_beta   90.00000000
_cell_angle_gamma   90.00000000
_symmetry_Int_Tables_number   1
_chemical_formula_structural   Y2Ta2Co10P7
_chemical_formula_sum   'Y2 Ta2 Co10 P7'
_cell_volume   266.52367925
_cell_formula_units_Z   1
loop_
 _symmetry_equiv_pos_site_id
 _symmetry_equiv_pos_as_xyz
  1  'x, y, z'
loop_
 _atom_site_type_symbol
 _atom_site_label
 _atom_site_symmetry_multiplicity
 _atom_site_fract_x
 _atom_site_fract_y
 _atom_site_fract_z
 _atom_site_occupancy
  Y  Y0  1  0.000000  0.672328  0.338537  1
  Y  Y1  1  0.500000  0.331709  0.667914  1
  Ta  Ta2  1  0.500000  0.779177  0.896439  1
  Ta  Ta3  1  0.500000  0.119911  0.221336  1
  Co  Co4  1  0.000000  0.566575  0.936997  1
  Co  Co5  1  0.000000  0.369239  0.431443  1
  Co  Co6  1  0.000000  0.061401  0.633253  1
  Co  Co7  1  0.500000  0.095408  0.871449  1
  Co  Co8  1  0.000000  0.876747  0.160925  1
  Co  Co9  1  0.000000  0.283182  0.120452  1
  Co  Co10  1  0.000000  0.842148  0.720417  1
  Co  Co11  1  0.500000  0.947782  0.388985  1
  Co  Co12  1  0.500000  0.433679  0.046403  1
  Co  Co13  1  0.500000  0.615415  0.560657  1
  P  P14  1  0.000000  0.006614  0.995823  1
  P  P15  1  0.500000  0.705860  0.122080  1
  P  P16  1  0.500000  0.416072  0.289065  1
  P  P17  1  0.500000  0.887726  0.599585  1
  P  P18  1  0.000000  0.580959  0.690808  1
  P  P19  1  0.000000  0.109327  0.418265  1
  P  P20  1  0.000000  0.298740  0.889170  1
