# generated using pymatgen
data_NaTh4(InAu5)2
_symmetry_space_group_name_H-M   'P 1'
_cell_length_a   8.81060943
_cell_length_b   8.81062016
_cell_length_c   10.34508600
_cell_angle_alpha   90.00006250
_cell_angle_beta   89.99998745
_cell_angle_gamma   108.98642288
_symmetry_Int_Tables_number   1
_chemical_formula_structural   NaTh4(InAu5)2
_chemical_formula_sum   'Na2 Th8 In4 Au20'
_cell_volume   759.36752623
_cell_formula_units_Z   2
loop_
 _symmetry_equiv_pos_site_id
 _symmetry_equiv_pos_as_xyz
  1  'x, y, z'
loop_
 _atom_site_type_symbol
 _atom_site_label
 _atom_site_symmetry_multiplicity
 _atom_site_fract_x
 _atom_site_fract_y
 _atom_site_fract_z
 _atom_site_occupancy
  Na  Na0  1  0.000000  0.000000  0.000000  1
  Na  Na1  1  0.500000  0.500000  0.500000  1
  Th  Th2  1  0.701811  0.298188  0.999999  1
  Th  Th3  1  0.201811  0.798191  0.500002  1
  Th  Th4  1  0.799756  0.799759  0.297184  1
  Th  Th5  1  0.299758  0.299759  0.202816  1
  Th  Th6  1  0.798189  0.201809  0.499998  1
  Th  Th7  1  0.298189  0.701812  0.000001  1
  Th  Th8  1  0.700242  0.700241  0.797184  1
  Th  Th9  1  0.200244  0.200241  0.702816  1
  In  In10  1  0.515837  0.015838  0.249999  1
  In  In11  1  0.984163  0.484163  0.750000  1
  In  In12  1  0.015837  0.515837  0.250000  1
  In  In13  1  0.484163  0.984162  0.750001  1
  Au  Au14  1  0.157310  0.429472  0.480742  1
  Au  Au15  1  0.903052  0.903051  0.593909  1
  Au  Au16  1  0.570529  0.842688  0.519261  1
  Au  Au17  1  0.886889  0.163845  0.210214  1
  Au  Au18  1  0.386887  0.663846  0.289787  1
  Au  Au19  1  0.663845  0.386889  0.289784  1
  Au  Au20  1  0.403054  0.403052  0.906090  1
  Au  Au21  1  0.929470  0.657312  0.019262  1
  Au  Au22  1  0.336155  0.613111  0.710216  1
  Au  Au23  1  0.342693  0.070530  0.980742  1
  Au  Au24  1  0.596946  0.596948  0.093910  1
  Au  Au25  1  0.657307  0.929470  0.019258  1
  Au  Au26  1  0.096948  0.096949  0.406091  1
  Au  Au27  1  0.613113  0.336154  0.710213  1
  Au  Au28  1  0.113111  0.836155  0.789786  1
  Au  Au29  1  0.070530  0.342688  0.980738  1
  Au  Au30  1  0.842690  0.570528  0.519258  1
  Au  Au31  1  0.163845  0.886890  0.210216  1
  Au  Au32  1  0.429471  0.157312  0.480739  1
  Au  Au33  1  0.836155  0.113110  0.789784  1
