# generated using pymatgen
data_Zr6CoBr15
_symmetry_space_group_name_H-M   'P 1'
_cell_length_a   9.47353679
_cell_length_b   9.47353657
_cell_length_c   9.47353700
_cell_angle_alpha   109.47122370
_cell_angle_beta   109.47122322
_cell_angle_gamma   109.47121853
_symmetry_Int_Tables_number   1
_chemical_formula_structural   Zr6CoBr15
_chemical_formula_sum   'Zr6 Co1 Br15'
_cell_volume   654.50734959
_cell_formula_units_Z   1
loop_
 _symmetry_equiv_pos_site_id
 _symmetry_equiv_pos_as_xyz
  1  'x, y, z'
loop_
 _atom_site_type_symbol
 _atom_site_label
 _atom_site_symmetry_multiplicity
 _atom_site_fract_x
 _atom_site_fract_y
 _atom_site_fract_z
 _atom_site_occupancy
  Zr  Zr0  1  0.770268  0.770268  0.000000  1
  Zr  Zr1  1  0.229732  0.000000  0.229732  1
  Zr  Zr2  1  0.770268  0.000000  0.770268  1
  Zr  Zr3  1  0.000000  0.770268  0.770268  1
  Zr  Zr4  1  0.000000  0.229732  0.229732  1
  Zr  Zr5  1  0.229732  0.229732  0.000000  1
  Co  Co6  1  0.000000  0.000000  0.000000  1
  Br  Br7  1  0.500000  0.000000  0.500000  1
  Br  Br8  1  0.000000  0.500000  0.500000  1
  Br  Br9  1  0.500000  0.500000  0.000000  1
  Br  Br10  1  0.507413  0.753706  0.753706  1
  Br  Br11  1  0.753706  0.000000  0.246294  1
  Br  Br12  1  0.492587  0.246294  0.246294  1
  Br  Br13  1  0.246294  0.246294  0.492587  1
  Br  Br14  1  0.246294  0.753706  0.000000  1
  Br  Br15  1  0.000000  0.246294  0.753706  1
  Br  Br16  1  0.000000  0.753706  0.246294  1
  Br  Br17  1  0.246294  0.000000  0.753706  1
  Br  Br18  1  0.246294  0.492587  0.246294  1
  Br  Br19  1  0.753706  0.246294  0.000000  1
  Br  Br20  1  0.753706  0.507413  0.753706  1
  Br  Br21  1  0.753706  0.753706  0.507413  1
