# generated using pymatgen
data_Pr2Er4MgGa17Pd4
_symmetry_space_group_name_H-M   'P 1'
_cell_length_a   8.24209619
_cell_length_b   8.24209481
_cell_length_c   15.90039952
_cell_angle_alpha   74.09690237
_cell_angle_beta   74.09690412
_cell_angle_gamma   30.48199665
_symmetry_Int_Tables_number   1
_chemical_formula_structural   Pr2Er4MgGa17Pd4
_chemical_formula_sum   'Pr2 Er4 Mg1 Ga17 Pd4'
_cell_volume   525.36300328
_cell_formula_units_Z   1
loop_
 _symmetry_equiv_pos_site_id
 _symmetry_equiv_pos_as_xyz
  1  'x, y, z'
loop_
 _atom_site_type_symbol
 _atom_site_label
 _atom_site_symmetry_multiplicity
 _atom_site_fract_x
 _atom_site_fract_y
 _atom_site_fract_z
 _atom_site_occupancy
  Pr  Pr0  1  0.752965  0.752965  0.748939  1
  Pr  Pr1  1  0.247035  0.247035  0.251061  1
  Er  Er2  1  0.600178  0.600178  0.599309  1
  Er  Er3  1  0.097344  0.097344  0.100272  1
  Er  Er4  1  0.902656  0.902656  0.899728  1
  Er  Er5  1  0.399822  0.399822  0.400691  1
  Mg  Mg6  1  0.500000  0.500000  0.000000  1
  Ga  Ga7  1  0.822439  0.822439  0.537401  1
  Ga  Ga8  1  0.320552  0.320552  0.039896  1
  Ga  Ga9  1  0.679448  0.679448  0.960104  1
  Ga  Ga10  1  0.177561  0.177561  0.462599  1
  Ga  Ga11  1  0.542680  0.542680  0.820766  1
  Ga  Ga12  1  0.035717  0.035717  0.322347  1
  Ga  Ga13  1  0.964283  0.964283  0.677653  1
  Ga  Ga14  1  0.457320  0.457320  0.179234  1
  Ga  Ga15  1  0.265743  0.265743  0.896509  1
  Ga  Ga16  1  0.760117  0.760117  0.397967  1
  Ga  Ga17  1  0.239883  0.239883  0.602033  1
  Ga  Ga18  1  0.734257  0.734257  0.103491  1
  Ga  Ga19  1  0.400842  0.400842  0.761746  1
  Ga  Ga20  1  0.893586  0.893586  0.264722  1
  Ga  Ga21  1  0.106414  0.106414  0.735278  1
  Ga  Ga22  1  0.599158  0.599158  0.238254  1
  Ga  Ga23  1  0.000000  0.000000  0.500000  1
  Pd  Pd24  1  0.098680  0.098680  0.902381  1
  Pd  Pd25  1  0.589876  0.589876  0.408432  1
  Pd  Pd26  1  0.410124  0.410124  0.591568  1
  Pd  Pd27  1  0.901320  0.901320  0.097619  1
