# generated using pymatgen
data_DyHo6Er(OsBr4)2
_symmetry_space_group_name_H-M   'P 1'
_cell_length_a   8.95824406
_cell_length_b   8.95928823
_cell_length_c   6.52216293
_cell_angle_alpha   89.44764563
_cell_angle_beta   89.56851558
_cell_angle_gamma   89.32088951
_symmetry_Int_Tables_number   1
_chemical_formula_structural   DyHo6Er(OsBr4)2
_chemical_formula_sum   'Dy1 Ho6 Er1 Os2 Br8'
_cell_volume   523.38998324
_cell_formula_units_Z   1
loop_
 _symmetry_equiv_pos_site_id
 _symmetry_equiv_pos_as_xyz
  1  'x, y, z'
loop_
 _atom_site_type_symbol
 _atom_site_label
 _atom_site_symmetry_multiplicity
 _atom_site_fract_x
 _atom_site_fract_y
 _atom_site_fract_z
 _atom_site_occupancy
  Dy  Dy0  1  0.097315  0.248493  0.992662  1
  Ho  Ho1  1  0.248099  0.901332  0.010445  1
  Ho  Ho2  1  0.751626  0.098491  0.990068  1
  Ho  Ho3  1  0.098124  0.751521  0.490258  1
  Ho  Ho4  1  0.901148  0.247868  0.510340  1
  Ho  Ho5  1  0.752565  0.902593  0.507948  1
  Ho  Ho6  1  0.247223  0.096356  0.492612  1
  Er  Er7  1  0.903555  0.754365  0.008102  1
  Os  Os8  1  0.995334  0.004357  0.250335  1
  Os  Os9  1  0.004374  0.995319  0.750217  1
  Br  Br10  1  0.417756  0.817088  0.412064  1
  Br  Br11  1  0.581995  0.182231  0.588832  1
  Br  Br12  1  0.182251  0.583248  0.088441  1
  Br  Br13  1  0.816627  0.418574  0.910287  1
  Br  Br14  1  0.414040  0.187140  0.091644  1
  Br  Br15  1  0.587542  0.811262  0.909797  1
  Br  Br16  1  0.811901  0.586875  0.407180  1
  Br  Br17  1  0.188526  0.412886  0.588769  1
