# generated using pymatgen
data_Nd4AlGa2CoI2
_symmetry_space_group_name_H-M   'P 1'
_cell_length_a   4.24035600
_cell_length_b   4.24035685
_cell_length_c   17.47651600
_cell_angle_alpha   90.00000000
_cell_angle_beta   90.00000000
_cell_angle_gamma   119.99999336
_symmetry_Int_Tables_number   1
_chemical_formula_structural   Nd4AlGa2CoI2
_chemical_formula_sum   'Nd4 Al1 Ga2 Co1 I2'
_cell_volume   272.13866230
_cell_formula_units_Z   1
loop_
 _symmetry_equiv_pos_site_id
 _symmetry_equiv_pos_as_xyz
  1  'x, y, z'
loop_
 _atom_site_type_symbol
 _atom_site_label
 _atom_site_symmetry_multiplicity
 _atom_site_fract_x
 _atom_site_fract_y
 _atom_site_fract_z
 _atom_site_occupancy
  Nd  Nd0  1  0.000000  0.000000  0.104882  1
  Nd  Nd1  1  0.000000  0.000000  0.898380  1
  Nd  Nd2  1  0.000000  0.000000  0.619386  1
  Nd  Nd3  1  0.000000  0.000000  0.381263  1
  Al  Al4  1  0.333333  0.666667  0.508698  1
  Ga  Ga5  1  0.666667  0.333333  0.488775  1
  Ga  Ga6  1  0.666667  0.333333  0.002406  1
  Co  Co7  1  0.333333  0.666667  0.997376  1
  I  I8  1  0.333333  0.666667  0.250478  1
  I  I9  1  0.666667  0.333333  0.748355  1
