# generated using pymatgen
data_Ta8Nb4AlSi3(PtN)4
_symmetry_space_group_name_H-M   'P 1'
_cell_length_a   7.02132522
_cell_length_b   7.02132543
_cell_length_c   7.02132600
_cell_angle_alpha   89.94513046
_cell_angle_beta   89.94513046
_cell_angle_gamma   89.94513506
_symmetry_Int_Tables_number   1
_chemical_formula_structural   Ta8Nb4AlSi3(PtN)4
_chemical_formula_sum   'Ta8 Nb4 Al1 Si3 Pt4 N4'
_cell_volume   346.14394017
_cell_formula_units_Z   1
loop_
 _symmetry_equiv_pos_site_id
 _symmetry_equiv_pos_as_xyz
  1  'x, y, z'
loop_
 _atom_site_type_symbol
 _atom_site_label
 _atom_site_symmetry_multiplicity
 _atom_site_fract_x
 _atom_site_fract_y
 _atom_site_fract_z
 _atom_site_occupancy
  Ta  Ta0  1  0.787910  0.953158  0.381281  1
  Ta  Ta1  1  0.710637  0.045915  0.880946  1
  Ta  Ta2  1  0.213501  0.454649  0.118228  1
  Ta  Ta3  1  0.287915  0.546547  0.618603  1
  Ta  Ta4  1  0.950847  0.379939  0.785613  1
  Ta  Ta5  1  0.048325  0.879817  0.713135  1
  Ta  Ta6  1  0.452295  0.119873  0.216043  1
  Ta  Ta7  1  0.548943  0.619998  0.285295  1
  Nb  Nb8  1  0.380721  0.785883  0.950929  1
  Nb  Nb9  1  0.880123  0.712476  0.047908  1
  Nb  Nb10  1  0.119037  0.215665  0.452785  1
  Nb  Nb11  1  0.619528  0.285889  0.548763  1
  Al  Al12  1  0.072332  0.071496  0.072833  1
  Si  Si13  1  0.571865  0.428511  0.928074  1
  Si  Si14  1  0.427752  0.928868  0.572081  1
  Si  Si15  1  0.928212  0.571151  0.427503  1
  Pt  Pt16  1  0.180702  0.818453  0.325303  1
  Pt  Pt17  1  0.321959  0.180761  0.821603  1
  Pt  Pt18  1  0.818246  0.321819  0.177426  1
  Pt  Pt19  1  0.679595  0.679353  0.676008  1
  N  N20  1  0.873914  0.122843  0.629227  1
  N  N21  1  0.625757  0.876368  0.128664  1
  N  N22  1  0.125173  0.623526  0.870398  1
  N  N23  1  0.374709  0.377042  0.371350  1
