# generated using pymatgen
data_Sr9CaSi5Sb
_symmetry_space_group_name_H-M   'P 1'
_cell_length_a   9.76275710
_cell_length_b   9.76255103
_cell_length_c   9.76087935
_cell_angle_alpha   130.87384993
_cell_angle_beta   130.87572232
_cell_angle_gamma   72.02423198
_symmetry_Int_Tables_number   1
_chemical_formula_structural   Sr9CaSi5Sb
_chemical_formula_sum   'Sr9 Ca1 Si5 Sb1'
_cell_volume   520.12669210
_cell_formula_units_Z   1
loop_
 _symmetry_equiv_pos_site_id
 _symmetry_equiv_pos_as_xyz
  1  'x, y, z'
loop_
 _atom_site_type_symbol
 _atom_site_label
 _atom_site_symmetry_multiplicity
 _atom_site_fract_x
 _atom_site_fract_y
 _atom_site_fract_z
 _atom_site_occupancy
  Sr  Sr0  1  0.543581  0.034092  0.855741  1
  Sr  Sr1  1  0.178364  0.687839  0.144278  1
  Sr  Sr2  1  0.034125  0.178315  0.490526  1
  Sr  Sr3  1  0.687791  0.543588  0.509464  1
  Sr  Sr4  1  0.470216  0.952084  0.144036  1
  Sr  Sr5  1  0.808046  0.326169  0.855945  1
  Sr  Sr6  1  0.952087  0.808099  0.481895  1
  Sr  Sr7  1  0.326217  0.470195  0.518117  1
  Sr  Sr8  1  0.004907  0.004908  0.000002  1
  Ca  Ca9  1  0.495735  0.495737  0.000000  1
  Si  Si10  1  0.750931  0.750930  0.999990  1
  Si  Si11  1  0.886886  0.393059  0.280465  1
  Si  Si12  1  0.112600  0.606460  0.719536  1
  Si  Si13  1  0.393029  0.112624  0.506151  1
  Si  Si14  1  0.606474  0.886874  0.493848  1
  Sb  Sb15  1  0.249012  0.249026  0.000004  1
