# generated using pymatgen
data_Co4SbIr7O24
_symmetry_space_group_name_H-M   'P 1'
_cell_length_a   4.54977186
_cell_length_b   10.49346193
_cell_length_c   9.10057969
_cell_angle_alpha   64.29919513
_cell_angle_beta   89.94267872
_cell_angle_gamma   89.97559227
_symmetry_Int_Tables_number   1
_chemical_formula_structural   Co4SbIr7O24
_chemical_formula_sum   'Co4 Sb1 Ir7 O24'
_cell_volume   391.50402299
_cell_formula_units_Z   1
loop_
 _symmetry_equiv_pos_site_id
 _symmetry_equiv_pos_as_xyz
  1  'x, y, z'
loop_
 _atom_site_type_symbol
 _atom_site_label
 _atom_site_symmetry_multiplicity
 _atom_site_fract_x
 _atom_site_fract_y
 _atom_site_fract_z
 _atom_site_occupancy
  Co  Co0  1  0.997792  0.000911  0.502185  1
  Co  Co1  1  0.500008  0.499109  0.000434  1
  Co  Co2  1  0.002203  0.000900  0.996908  1
  Co  Co3  1  0.499988  0.500672  0.499671  1
  Sb  Sb4  1  0.500041  0.832684  0.333632  1
  Ir  Ir5  1  0.998860  0.665934  0.672444  1
  Ir  Ir6  1  0.001144  0.665943  0.161597  1
  Ir  Ir7  1  0.998655  0.331509  0.333896  1
  Ir  Ir8  1  0.001363  0.331507  0.834586  1
  Ir  Ir9  1  0.500016  0.169131  0.165428  1
  Ir  Ir10  1  0.500003  0.168904  0.665586  1
  Ir  Ir11  1  0.499982  0.831432  0.834271  1
  O  O12  1  0.305681  0.003918  0.345878  1
  O  O13  1  0.310008  0.000189  0.843964  1
  O  O14  1  0.689979  0.000197  0.655871  1
  O  O15  1  0.694378  0.003953  0.150179  1
  O  O16  1  0.190669  0.498254  0.848168  1
  O  O17  1  0.187856  0.499470  0.342700  1
  O  O18  1  0.809303  0.498301  0.153519  1
  O  O19  1  0.812139  0.499431  0.657884  1
  O  O20  1  0.303671  0.331853  0.182408  1
  O  O21  1  0.302980  0.331365  0.682796  1
  O  O22  1  0.196846  0.830026  0.684324  1
  O  O23  1  0.189757  0.830737  0.179200  1
  O  O24  1  0.304835  0.668247  0.012856  1
  O  O25  1  0.300731  0.667266  0.517006  1
  O  O26  1  0.199256  0.169557  0.013927  1
  O  O27  1  0.196711  0.169766  0.514182  1
  O  O28  1  0.803125  0.830024  0.985632  1
  O  O29  1  0.810190  0.830742  0.490060  1
  O  O30  1  0.696424  0.331832  0.985674  1
  O  O31  1  0.696937  0.331393  0.485891  1
  O  O32  1  0.695139  0.668256  0.818892  1
  O  O33  1  0.699282  0.667257  0.315727  1
  O  O34  1  0.800731  0.169519  0.316537  1
  O  O35  1  0.803318  0.169811  0.816087  1
