# generated using pymatgen
data_Cs3Na2SnSb3
_symmetry_space_group_name_H-M   'P 1'
_cell_length_a   11.88004492
_cell_length_b   11.88004513
_cell_length_c   17.68798200
_cell_angle_alpha   90.00000000
_cell_angle_beta   90.00000000
_cell_angle_gamma   143.21525974
_symmetry_Int_Tables_number   1
_chemical_formula_structural   Cs3Na2SnSb3
_chemical_formula_sum   'Cs12 Na8 Sn4 Sb12'
_cell_volume   1494.87106114
_cell_formula_units_Z   4
loop_
 _symmetry_equiv_pos_site_id
 _symmetry_equiv_pos_as_xyz
  1  'x, y, z'
loop_
 _atom_site_type_symbol
 _atom_site_label
 _atom_site_symmetry_multiplicity
 _atom_site_fract_x
 _atom_site_fract_y
 _atom_site_fract_z
 _atom_site_occupancy
  Cs  Cs0  1  0.938278  0.604982  0.829604  1
  Cs  Cs1  1  0.561722  0.895018  0.329604  1
  Cs  Cs2  1  0.395018  0.061722  0.170396  1
  Cs  Cs3  1  0.061722  0.395018  0.170396  1
  Cs  Cs4  1  0.895018  0.561722  0.329604  1
  Cs  Cs5  1  0.438278  0.104982  0.670396  1
  Cs  Cs6  1  0.604982  0.938278  0.829604  1
  Cs  Cs7  1  0.267064  0.267064  0.324177  1
  Cs  Cs8  1  0.767064  0.767064  0.175823  1
  Cs  Cs9  1  0.232936  0.232936  0.824177  1
  Cs  Cs10  1  0.732936  0.732936  0.675823  1
  Cs  Cs11  1  0.104982  0.438278  0.670396  1
  Na  Na12  1  0.918877  0.081123  0.000000  1
  Na  Na13  1  0.581123  0.418877  0.500000  1
  Na  Na14  1  0.081123  0.918877  0.000000  1
  Na  Na15  1  0.418877  0.581123  0.500000  1
  Na  Na16  1  0.754169  0.245831  0.000000  1
  Na  Na17  1  0.745831  0.254169  0.500000  1
  Na  Na18  1  0.245831  0.754169  0.000000  1
  Na  Na19  1  0.254169  0.745831  0.500000  1
  Sn  Sn20  1  0.588813  0.411187  0.000000  1
  Sn  Sn21  1  0.911187  0.088813  0.500000  1
  Sn  Sn22  1  0.411187  0.588813  0.000000  1
  Sn  Sn23  1  0.088813  0.911187  0.500000  1
  Sb  Sb24  1  0.883706  0.564578  0.097924  1
  Sb  Sb25  1  0.435422  0.116294  0.902076  1
  Sb  Sb26  1  0.616294  0.935422  0.597924  1
  Sb  Sb27  1  0.935422  0.616294  0.597924  1
  Sb  Sb28  1  0.116294  0.435422  0.902076  1
  Sb  Sb29  1  0.564578  0.883706  0.097924  1
  Sb  Sb30  1  0.383706  0.064578  0.402076  1
  Sb  Sb31  1  0.205793  0.205793  0.588474  1
  Sb  Sb32  1  0.705793  0.705793  0.911526  1
  Sb  Sb33  1  0.294207  0.294207  0.088474  1
  Sb  Sb34  1  0.064578  0.383706  0.402076  1
  Sb  Sb35  1  0.794207  0.794207  0.411526  1
