# generated using pymatgen
data_Y6InCoOs
_symmetry_space_group_name_H-M   'P 1'
_cell_length_a   8.46939826
_cell_length_b   8.46939812
_cell_length_c   8.46939860
_cell_angle_alpha   112.98869139
_cell_angle_beta   109.93015012
_cell_angle_gamma   105.57956652
_symmetry_Int_Tables_number   1
_chemical_formula_structural   Y6InCoOs
_chemical_formula_sum   'Y12 In2 Co2 Os2'
_cell_volume   465.70462259
_cell_formula_units_Z   2
loop_
 _symmetry_equiv_pos_site_id
 _symmetry_equiv_pos_as_xyz
  1  'x, y, z'
loop_
 _atom_site_type_symbol
 _atom_site_label
 _atom_site_symmetry_multiplicity
 _atom_site_fract_x
 _atom_site_fract_y
 _atom_site_fract_z
 _atom_site_occupancy
  Y  Y0  1  0.441115  0.241665  0.199450  1
  Y  Y1  1  0.558885  0.758335  0.800550  1
  Y  Y2  1  0.042215  0.241665  0.800550  1
  Y  Y3  1  0.957785  0.758335  0.199450  1
  Y  Y4  1  0.183483  0.283898  0.467381  1
  Y  Y5  1  0.816517  0.716102  0.532619  1
  Y  Y6  1  0.183483  0.716102  0.899585  1
  Y  Y7  1  0.816517  0.283898  0.100415  1
  Y  Y8  1  0.324705  0.641290  0.316586  1
  Y  Y9  1  0.675295  0.358710  0.683414  1
  Y  Y10  1  0.324705  0.008120  0.683414  1
  Y  Y11  1  0.675295  0.991880  0.316586  1
  In  In12  1  0.500000  0.500000  0.000000  1
  In  In13  1  0.000000  0.000000  0.000000  1
  Co  Co14  1  0.110093  0.610093  0.500000  1
  Co  Co15  1  0.889907  0.389907  0.500000  1
  Os  Os16  1  0.332019  0.000000  0.332019  1
  Os  Os17  1  0.667981  0.000000  0.667981  1
