# generated using pymatgen
data_Rb6HfWSe8
_symmetry_space_group_name_H-M   'P 1'
_cell_length_a   10.25699000
_cell_length_b   10.39923800
_cell_length_c   11.72377100
_cell_angle_alpha   90.00000000
_cell_angle_beta   90.00000000
_cell_angle_gamma   90.00000000
_symmetry_Int_Tables_number   1
_chemical_formula_structural   Rb6HfWSe8
_chemical_formula_sum   'Rb12 Hf2 W2 Se16'
_cell_volume   1250.51462890
_cell_formula_units_Z   2
loop_
 _symmetry_equiv_pos_site_id
 _symmetry_equiv_pos_as_xyz
  1  'x, y, z'
loop_
 _atom_site_type_symbol
 _atom_site_label
 _atom_site_symmetry_multiplicity
 _atom_site_fract_x
 _atom_site_fract_y
 _atom_site_fract_z
 _atom_site_occupancy
  Rb  Rb0  1  0.554756  0.207429  0.061380  1
  Rb  Rb1  1  0.054756  0.292571  0.438620  1
  Rb  Rb2  1  0.449470  0.795346  0.528588  1
  Rb  Rb3  1  0.949470  0.704654  0.971412  1
  Rb  Rb4  1  0.449470  0.795346  0.971412  1
  Rb  Rb5  1  0.949470  0.704654  0.528588  1
  Rb  Rb6  1  0.554756  0.207429  0.438620  1
  Rb  Rb7  1  0.054756  0.292571  0.061380  1
  Rb  Rb8  1  0.638227  0.432394  0.750000  1
  Rb  Rb9  1  0.138227  0.067606  0.750000  1
  Rb  Rb10  1  0.366330  0.579477  0.250000  1
  Rb  Rb11  1  0.866330  0.920523  0.250000  1
  Hf  Hf12  1  0.275304  0.016385  0.250000  1
  Hf  Hf13  1  0.775304  0.483615  0.250000  1
  W  W14  1  0.717904  0.990862  0.750000  1
  W  W15  1  0.217904  0.509138  0.750000  1
  Se  Se16  1  0.831475  0.055624  0.587295  1
  Se  Se17  1  0.331475  0.444376  0.912705  1
  Se  Se18  1  0.158070  0.956739  0.066251  1
  Se  Se19  1  0.658070  0.543261  0.433749  1
  Se  Se20  1  0.158070  0.956739  0.433749  1
  Se  Se21  1  0.658070  0.543261  0.066251  1
  Se  Se22  1  0.831475  0.055624  0.912705  1
  Se  Se23  1  0.331475  0.444376  0.587295  1
  Se  Se24  1  0.507777  0.082367  0.750000  1
  Se  Se25  1  0.007777  0.417633  0.750000  1
  Se  Se26  1  0.499981  0.917316  0.250000  1
  Se  Se27  1  0.999981  0.582684  0.250000  1
  Se  Se28  1  0.702417  0.765224  0.750000  1
  Se  Se29  1  0.202417  0.734776  0.750000  1
  Se  Se30  1  0.304519  0.257332  0.250000  1
  Se  Se31  1  0.804519  0.242668  0.250000  1
