# generated using pymatgen
data_Hf6MnGa6FePd4
_symmetry_space_group_name_H-M   'P 1'
_cell_length_a   7.22948600
_cell_length_b   7.22948504
_cell_length_c   6.66773000
_cell_angle_alpha   90.00000000
_cell_angle_beta   90.00000000
_cell_angle_gamma   119.99999525
_symmetry_Int_Tables_number   1
_chemical_formula_structural   Hf6MnGa6FePd4
_chemical_formula_sum   'Hf6 Mn1 Ga6 Fe1 Pd4'
_cell_volume   301.80292341
_cell_formula_units_Z   1
loop_
 _symmetry_equiv_pos_site_id
 _symmetry_equiv_pos_as_xyz
  1  'x, y, z'
loop_
 _atom_site_type_symbol
 _atom_site_label
 _atom_site_symmetry_multiplicity
 _atom_site_fract_x
 _atom_site_fract_y
 _atom_site_fract_z
 _atom_site_occupancy
  Hf  Hf0  1  0.746248  0.054183  0.999762  1
  Hf  Hf1  1  0.307934  0.253752  0.999762  1
  Hf  Hf2  1  0.945817  0.692066  0.999762  1
  Hf  Hf3  1  0.309909  0.254373  0.500293  1
  Hf  Hf4  1  0.745627  0.055536  0.500293  1
  Hf  Hf5  1  0.944464  0.690091  0.500293  1
  Mn  Mn6  1  0.000000  0.000000  0.250887  1
  Ga  Ga7  1  0.608527  0.666408  0.749837  1
  Ga  Ga8  1  0.057880  0.391473  0.749837  1
  Ga  Ga9  1  0.333592  0.942120  0.749837  1
  Ga  Ga10  1  0.609764  0.667441  0.250111  1
  Ga  Ga11  1  0.057677  0.390236  0.250111  1
  Ga  Ga12  1  0.332559  0.942323  0.250111  1
  Fe  Fe13  1  0.000000  0.000000  0.749096  1
  Pd  Pd14  1  0.333333  0.666667  0.000009  1
  Pd  Pd15  1  0.333333  0.666667  0.499933  1
  Pd  Pd16  1  0.666667  0.333333  0.752810  1
  Pd  Pd17  1  0.666667  0.333333  0.247254  1
