# generated using pymatgen
data_Sr8Ru2PtN8
_symmetry_space_group_name_H-M   'P 1'
_cell_length_a   9.94376995
_cell_length_b   5.36733716
_cell_length_c   7.55406945
_cell_angle_alpha   90.00001198
_cell_angle_beta   75.72770365
_cell_angle_gamma   74.34261356
_symmetry_Int_Tables_number   1
_chemical_formula_structural   Sr8Ru2PtN8
_chemical_formula_sum   'Sr8 Ru2 Pt1 N8'
_cell_volume   375.27221951
_cell_formula_units_Z   1
loop_
 _symmetry_equiv_pos_site_id
 _symmetry_equiv_pos_as_xyz
  1  'x, y, z'
loop_
 _atom_site_type_symbol
 _atom_site_label
 _atom_site_symmetry_multiplicity
 _atom_site_fract_x
 _atom_site_fract_y
 _atom_site_fract_z
 _atom_site_occupancy
  Sr  Sr0  1  0.050789  0.974606  0.740008  1
  Sr  Sr1  1  0.949211  0.025394  0.259992  1
  Sr  Sr2  1  0.680137  0.659931  0.465647  1
  Sr  Sr3  1  0.319863  0.340069  0.534353  1
  Sr  Sr4  1  0.816710  0.591646  0.973769  1
  Sr  Sr5  1  0.183290  0.408354  0.026231  1
  Sr  Sr6  1  0.595007  0.202497  0.805257  1
  Sr  Sr7  1  0.404993  0.797503  0.194743  1
  Ru  Ru8  1  0.374260  0.812870  0.789287  1
  Ru  Ru9  1  0.625740  0.187130  0.210713  1
  Pt  Pt10  1  0.000000  0.500000  0.500000  1
  N  N11  1  0.213310  0.893346  0.993697  1
  N  N12  1  0.786690  0.106654  0.006303  1
  N  N13  1  0.349959  0.825019  0.554096  1
  N  N14  1  0.650041  0.174981  0.445904  1
  N  N15  1  0.558473  0.720764  0.827935  1
  N  N16  1  0.441527  0.279236  0.172065  1
  N  N17  1  0.060649  0.469675  0.745794  1
  N  N18  1  0.939351  0.530325  0.254206  1
