# generated using pymatgen
data_DyPa(AlC)6
_symmetry_space_group_name_H-M   'P 1'
_cell_length_a   3.42058800
_cell_length_b   3.42058791
_cell_length_c   17.44008500
_cell_angle_alpha   90.00000000
_cell_angle_beta   90.00000000
_cell_angle_gamma   120.00000087
_symmetry_Int_Tables_number   1
_chemical_formula_structural   DyPa(AlC)6
_chemical_formula_sum   'Dy1 Pa1 Al6 C6'
_cell_volume   176.71798437
_cell_formula_units_Z   1
loop_
 _symmetry_equiv_pos_site_id
 _symmetry_equiv_pos_as_xyz
  1  'x, y, z'
loop_
 _atom_site_type_symbol
 _atom_site_label
 _atom_site_symmetry_multiplicity
 _atom_site_fract_x
 _atom_site_fract_y
 _atom_site_fract_z
 _atom_site_occupancy
  Dy  Dy0  1  0.000000  0.000000  0.000000  1
  Pa  Pa1  1  0.000000  0.000000  0.500000  1
  Al  Al2  1  0.333333  0.666667  0.363575  1
  Al  Al3  1  0.666667  0.333333  0.636425  1
  Al  Al4  1  0.666667  0.333333  0.868073  1
  Al  Al5  1  0.333333  0.666667  0.131927  1
  Al  Al6  1  0.333333  0.666667  0.756292  1
  Al  Al7  1  0.666667  0.333333  0.243708  1
  C  C8  1  0.333333  0.666667  0.906247  1
  C  C9  1  0.666667  0.333333  0.093753  1
  C  C10  1  0.666667  0.333333  0.404379  1
  C  C11  1  0.333333  0.666667  0.595621  1
  C  C12  1  0.333333  0.666667  0.248094  1
  C  C13  1  0.666667  0.333333  0.751906  1
