# generated using pymatgen
data_Yb3ScRhO6
_symmetry_space_group_name_H-M   'P 1'
_cell_length_a   6.38208343
_cell_length_b   6.38208306
_cell_length_c   6.38208326
_cell_angle_alpha   91.05676730
_cell_angle_beta   91.05676330
_cell_angle_gamma   91.05676335
_symmetry_Int_Tables_number   1
_chemical_formula_structural   Yb3ScRhO6
_chemical_formula_sum   'Yb6 Sc2 Rh2 O12'
_cell_volume   259.81425219
_cell_formula_units_Z   2
loop_
 _symmetry_equiv_pos_site_id
 _symmetry_equiv_pos_as_xyz
  1  'x, y, z'
loop_
 _atom_site_type_symbol
 _atom_site_label
 _atom_site_symmetry_multiplicity
 _atom_site_fract_x
 _atom_site_fract_y
 _atom_site_fract_z
 _atom_site_occupancy
  Yb  Yb0  1  0.750000  0.120109  0.379891  1
  Yb  Yb1  1  0.379891  0.750000  0.120109  1
  Yb  Yb2  1  0.120109  0.379891  0.750000  1
  Yb  Yb3  1  0.250000  0.879891  0.620109  1
  Yb  Yb4  1  0.620109  0.250000  0.879891  1
  Yb  Yb5  1  0.879891  0.620109  0.250000  1
  Sc  Sc6  1  0.750000  0.750000  0.750000  1
  Sc  Sc7  1  0.250000  0.250000  0.250000  1
  Rh  Rh8  1  0.500000  0.500000  0.500000  1
  Rh  Rh9  1  0.000000  0.000000  0.000000  1
  O  O10  1  0.595897  0.804018  0.455187  1
  O  O11  1  0.455187  0.595897  0.804018  1
  O  O12  1  0.804018  0.455187  0.595897  1
  O  O13  1  0.904103  0.044813  0.695982  1
  O  O14  1  0.695982  0.904103  0.044813  1
  O  O15  1  0.044813  0.695982  0.904103  1
  O  O16  1  0.404103  0.195982  0.544813  1
  O  O17  1  0.544813  0.404103  0.195982  1
  O  O18  1  0.195982  0.544813  0.404103  1
  O  O19  1  0.095897  0.955187  0.304018  1
  O  O20  1  0.955187  0.304018  0.095897  1
  O  O21  1  0.304018  0.095897  0.955187  1
