# generated using pymatgen
data_KMn4Tl3P4(O7F2)2
_symmetry_space_group_name_H-M   'P 1'
_cell_length_a   6.99333500
_cell_length_b   10.81134700
_cell_length_c   11.46570100
_cell_angle_alpha   90.00000000
_cell_angle_beta   90.00000000
_cell_angle_gamma   90.00000000
_symmetry_Int_Tables_number   1
_chemical_formula_structural   KMn4Tl3P4(O7F2)2
_chemical_formula_sum   'K2 Mn8 Tl6 P8 O28 F8'
_cell_volume   866.89151355
_cell_formula_units_Z   2
loop_
 _symmetry_equiv_pos_site_id
 _symmetry_equiv_pos_as_xyz
  1  'x, y, z'
loop_
 _atom_site_type_symbol
 _atom_site_label
 _atom_site_symmetry_multiplicity
 _atom_site_fract_x
 _atom_site_fract_y
 _atom_site_fract_z
 _atom_site_occupancy
  K  K0  1  0.003280  0.065213  0.326562  1
  K  K1  1  0.503280  0.934787  0.173438  1
  Mn  Mn2  1  0.501417  0.247376  0.336655  1
  Mn  Mn3  1  0.503362  0.750011  0.663019  1
  Mn  Mn4  1  0.997856  0.500016  0.001350  1
  Mn  Mn5  1  0.003362  0.249989  0.836981  1
  Mn  Mn6  1  0.000463  0.001070  0.002633  1
  Mn  Mn7  1  0.001417  0.752624  0.163345  1
  Mn  Mn8  1  0.500463  0.998930  0.497367  1
  Mn  Mn9  1  0.497856  0.499984  0.498650  1
  Tl  Tl10  1  0.495656  0.562424  0.168640  1
  Tl  Tl11  1  0.995656  0.437576  0.331360  1
  Tl  Tl12  1  0.495759  0.067421  0.826167  1
  Tl  Tl13  1  0.507055  0.434815  0.830521  1
  Tl  Tl14  1  0.995759  0.932579  0.673833  1
  Tl  Tl15  1  0.007055  0.565185  0.669479  1
  P  P16  1  0.783395  0.749118  0.417116  1
  P  P17  1  0.212338  0.248621  0.576437  1
  P  P18  1  0.283395  0.250882  0.082884  1
  P  P19  1  0.717381  0.247040  0.082390  1
  P  P20  1  0.712338  0.751379  0.923563  1
  P  P21  1  0.782482  0.246714  0.580676  1
  P  P22  1  0.282482  0.753286  0.919324  1
  P  P23  1  0.217381  0.752960  0.417610  1
  O  O24  1  0.000265  0.750147  0.471691  1
  O  O25  1  0.777971  0.111479  0.087183  1
  O  O26  1  0.206619  0.692187  0.296833  1
  O  O27  1  0.672374  0.325841  0.490912  1
  O  O28  1  0.706619  0.307813  0.203167  1
  O  O29  1  0.824555  0.828707  0.013718  1
  O  O30  1  0.712610  0.113061  0.589242  1
  O  O31  1  0.674778  0.826501  0.509139  1
  O  O32  1  0.720044  0.613699  0.413340  1
  O  O33  1  0.495907  0.761233  0.979346  1
  O  O34  1  0.326566  0.674969  0.508941  1
  O  O35  1  0.277971  0.888521  0.412817  1
  O  O36  1  0.220044  0.386301  0.086660  1
  O  O37  1  0.172374  0.674159  0.009088  1
  O  O38  1  0.324555  0.171293  0.486282  1
  O  O39  1  0.702587  0.809312  0.801602  1
  O  O40  1  0.805786  0.309960  0.699453  1
  O  O41  1  0.995907  0.238767  0.520654  1
  O  O42  1  0.294693  0.189528  0.202994  1
  O  O43  1  0.305786  0.690040  0.800547  1
  O  O44  1  0.268373  0.385438  0.578398  1
  O  O45  1  0.202587  0.190688  0.698398  1
  O  O46  1  0.826566  0.325031  0.991059  1
  O  O47  1  0.500265  0.249853  0.028309  1
  O  O48  1  0.794693  0.810472  0.297006  1
  O  O49  1  0.768373  0.614562  0.921602  1
  O  O50  1  0.212610  0.886939  0.910758  1
  O  O51  1  0.174778  0.173499  0.990861  1
  F  F52  1  0.122308  0.929533  0.155907  1
  F  F53  1  0.391875  0.929030  0.655510  1
  F  F54  1  0.394187  0.428595  0.341579  1
  F  F55  1  0.891875  0.070970  0.844490  1
  F  F56  1  0.108057  0.430934  0.844368  1
  F  F57  1  0.622308  0.070467  0.344093  1
  F  F58  1  0.608057  0.569066  0.655632  1
  F  F59  1  0.894187  0.571405  0.158421  1
