# generated using pymatgen
data_Tm2Fe5Co3(P3Ru)2
_symmetry_space_group_name_H-M   'P 1'
_cell_length_a   3.69592500
_cell_length_b   10.20864200
_cell_length_c   11.85023800
_cell_angle_alpha   90.00000000
_cell_angle_beta   90.00000000
_cell_angle_gamma   90.00000000
_symmetry_Int_Tables_number   1
_chemical_formula_structural   Tm2Fe5Co3(P3Ru)2
_chemical_formula_sum   'Tm4 Fe10 Co6 P12 Ru4'
_cell_volume   447.11392576
_cell_formula_units_Z   2
loop_
 _symmetry_equiv_pos_site_id
 _symmetry_equiv_pos_as_xyz
  1  'x, y, z'
loop_
 _atom_site_type_symbol
 _atom_site_label
 _atom_site_symmetry_multiplicity
 _atom_site_fract_x
 _atom_site_fract_y
 _atom_site_fract_z
 _atom_site_occupancy
  Tm  Tm0  1  0.250000  0.581246  0.705444  1
  Tm  Tm1  1  0.250000  0.918754  0.205444  1
  Tm  Tm2  1  0.750000  0.419394  0.294890  1
  Tm  Tm3  1  0.750000  0.080606  0.794890  1
  Fe  Fe4  1  0.750000  0.777504  0.827965  1
  Fe  Fe5  1  0.750000  0.722496  0.327965  1
  Fe  Fe6  1  0.250000  0.881194  0.701747  1
  Fe  Fe7  1  0.250000  0.618806  0.201747  1
  Fe  Fe8  1  0.750000  0.120170  0.297572  1
  Fe  Fe9  1  0.750000  0.379830  0.797572  1
  Fe  Fe10  1  0.250000  0.461938  0.934131  1
  Fe  Fe11  1  0.250000  0.038062  0.434131  1
  Fe  Fe12  1  0.750000  0.536796  0.065452  1
  Fe  Fe13  1  0.750000  0.963204  0.565452  1
  Co  Co14  1  0.250000  0.407437  0.485886  1
  Co  Co15  1  0.250000  0.092563  0.985886  1
  Co  Co16  1  0.750000  0.593273  0.513845  1
  Co  Co17  1  0.750000  0.906727  0.013845  1
  Co  Co18  1  0.250000  0.224413  0.172225  1
  Co  Co19  1  0.250000  0.275587  0.672225  1
  P  P20  1  0.250000  0.426548  0.114708  1
  P  P21  1  0.250000  0.073452  0.614708  1
  P  P22  1  0.750000  0.574560  0.884684  1
  P  P23  1  0.750000  0.925440  0.384684  1
  P  P24  1  0.250000  0.269365  0.860648  1
  P  P25  1  0.250000  0.230635  0.360648  1
  P  P26  1  0.750000  0.730331  0.140275  1
  P  P27  1  0.750000  0.769669  0.640275  1
  P  P28  1  0.250000  0.599623  0.388576  1
  P  P29  1  0.250000  0.900377  0.888576  1
  P  P30  1  0.750000  0.403536  0.610531  1
  P  P31  1  0.750000  0.096464  0.110531  1
  Ru  Ru32  1  0.250000  0.709266  0.990397  1
  Ru  Ru33  1  0.250000  0.790734  0.490397  1
  Ru  Ru34  1  0.750000  0.290049  0.011024  1
  Ru  Ru35  1  0.750000  0.209951  0.511024  1
