# generated using pymatgen
data_Pr2NdBe2(PPd5)4
_symmetry_space_group_name_H-M   'P 1'
_cell_length_a   8.74944605
_cell_length_b   8.65950077
_cell_length_c   8.65950204
_cell_angle_alpha   60.68839155
_cell_angle_beta   59.65580293
_cell_angle_gamma   59.65579990
_symmetry_Int_Tables_number   1
_chemical_formula_structural   Pr2NdBe2(PPd5)4
_chemical_formula_sum   'Pr2 Nd1 Be2 P4 Pd20'
_cell_volume   463.82762169
_cell_formula_units_Z   1
loop_
 _symmetry_equiv_pos_site_id
 _symmetry_equiv_pos_as_xyz
  1  'x, y, z'
loop_
 _atom_site_type_symbol
 _atom_site_label
 _atom_site_symmetry_multiplicity
 _atom_site_fract_x
 _atom_site_fract_y
 _atom_site_fract_z
 _atom_site_occupancy
  Pr  Pr0  1  0.250000  0.250000  0.250000  1
  Pr  Pr1  1  0.750000  0.750000  0.750000  1
  Nd  Nd2  1  0.000000  0.000000  0.000000  1
  Be  Be3  1  0.732564  0.267436  0.267436  1
  Be  Be4  1  0.267436  0.732564  0.732564  1
  P  P5  1  0.266309  0.733691  0.266309  1
  P  P6  1  0.733691  0.266309  0.733691  1
  P  P7  1  0.266309  0.266309  0.733691  1
  P  P8  1  0.733691  0.733691  0.266309  1
  Pd  Pd9  1  0.389362  0.384197  0.384197  1
  Pd  Pd10  1  0.610638  0.615803  0.615803  1
  Pd  Pd11  1  0.384197  0.389362  0.842246  1
  Pd  Pd12  1  0.384197  0.842246  0.389362  1
  Pd  Pd13  1  0.615803  0.610638  0.157754  1
  Pd  Pd14  1  0.615803  0.157754  0.610638  1
  Pd  Pd15  1  0.842246  0.384197  0.384197  1
  Pd  Pd16  1  0.157754  0.615803  0.615803  1
  Pd  Pd17  1  0.345716  0.000000  0.000000  1
  Pd  Pd18  1  0.654284  0.000000  0.000000  1
  Pd  Pd19  1  0.000000  0.345716  0.654284  1
  Pd  Pd20  1  0.000000  0.654284  0.345716  1
  Pd  Pd21  1  0.997005  0.344906  0.002995  1
  Pd  Pd22  1  0.655094  0.002995  0.344906  1
  Pd  Pd23  1  0.002995  0.655094  0.997005  1
  Pd  Pd24  1  0.344906  0.997005  0.655094  1
  Pd  Pd25  1  0.997005  0.002995  0.344906  1
  Pd  Pd26  1  0.002995  0.997005  0.655094  1
  Pd  Pd27  1  0.655094  0.344906  0.002995  1
  Pd  Pd28  1  0.344906  0.655094  0.997005  1
