# generated using pymatgen
data_RbMoH5
_symmetry_space_group_name_H-M   'P 1'
_cell_length_a   11.01342900
_cell_length_b   7.37696300
_cell_length_c   4.79163300
_cell_angle_alpha   90.00000000
_cell_angle_beta   90.00000000
_cell_angle_gamma   90.00000000
_symmetry_Int_Tables_number   1
_chemical_formula_structural   RbMoH5
_chemical_formula_sum   'Rb4 Mo4 H20'
_cell_volume   389.29937711
_cell_formula_units_Z   4
loop_
 _symmetry_equiv_pos_site_id
 _symmetry_equiv_pos_as_xyz
  1  'x, y, z'
loop_
 _atom_site_type_symbol
 _atom_site_label
 _atom_site_symmetry_multiplicity
 _atom_site_fract_x
 _atom_site_fract_y
 _atom_site_fract_z
 _atom_site_occupancy
  Rb  Rb0  1  0.672370  0.083158  0.338168  1
  Rb  Rb1  1  0.172370  0.416841  0.338168  1
  Rb  Rb2  1  0.827630  0.583158  0.838168  1
  Rb  Rb3  1  0.327630  0.916842  0.838168  1
  Mo  Mo4  1  0.517592  0.569331  0.313334  1
  Mo  Mo5  1  0.017592  0.930669  0.313334  1
  Mo  Mo6  1  0.982408  0.069330  0.813333  1
  Mo  Mo7  1  0.482408  0.430670  0.813333  1
  H  H8  1  0.349628  0.302179  0.828823  1
  H  H9  1  0.849628  0.197821  0.828823  1
  H  H10  1  0.977023  0.701247  0.331151  1
  H  H11  1  0.477023  0.798752  0.331151  1
  H  H12  1  0.607323  0.411943  0.060898  1
  H  H13  1  0.107322  0.088057  0.060898  1
  H  H14  1  0.380326  0.541055  0.059197  1
  H  H15  1  0.880326  0.958946  0.059197  1
  H  H16  1  0.960271  0.155078  0.435428  1
  H  H17  1  0.460271  0.344923  0.435428  1
  H  H18  1  0.150372  0.802179  0.328822  1
  H  H19  1  0.650372  0.697820  0.328822  1
  H  H20  1  0.522978  0.201247  0.831153  1
  H  H21  1  0.022978  0.298752  0.831153  1
  H  H22  1  0.892678  0.911942  0.560898  1
  H  H23  1  0.392678  0.588058  0.560898  1
  H  H24  1  0.119674  0.041054  0.559197  1
  H  H25  1  0.619674  0.458946  0.559197  1
  H  H26  1  0.539729  0.655078  0.935430  1
  H  H27  1  0.039729  0.844923  0.935430  1
