# generated using pymatgen
data_Y3Sc3TcPd2
_symmetry_space_group_name_H-M   'P 1'
_cell_length_a   7.65848600
_cell_length_b   7.65848476
_cell_length_c   4.12580700
_cell_angle_alpha   90.00000000
_cell_angle_beta   90.00000000
_cell_angle_gamma   120.00000535
_symmetry_Int_Tables_number   1
_chemical_formula_structural   Y3Sc3TcPd2
_chemical_formula_sum   'Y3 Sc3 Tc1 Pd2'
_cell_volume   209.56815597
_cell_formula_units_Z   1
loop_
 _symmetry_equiv_pos_site_id
 _symmetry_equiv_pos_as_xyz
  1  'x, y, z'
loop_
 _atom_site_type_symbol
 _atom_site_label
 _atom_site_symmetry_multiplicity
 _atom_site_fract_x
 _atom_site_fract_y
 _atom_site_fract_z
 _atom_site_occupancy
  Y  Y0  1  0.590515  0.000000  0.500000  1
  Y  Y1  1  0.409485  0.409485  0.500000  1
  Y  Y2  1  0.000000  0.590515  0.500000  1
  Sc  Sc3  1  0.240006  0.000000  0.000000  1
  Sc  Sc4  1  0.759994  0.759994  0.000000  1
  Sc  Sc5  1  0.000000  0.240006  0.000000  1
  Tc  Tc6  1  0.000000  0.000000  0.500000  1
  Pd  Pd7  1  0.333333  0.666667  0.000000  1
  Pd  Pd8  1  0.666667  0.333333  0.000000  1
