# generated using pymatgen
data_LiSm2Cu3O8
_symmetry_space_group_name_H-M   'P 1'
_cell_length_a   6.36246174
_cell_length_b   6.42302342
_cell_length_c   6.14986023
_cell_angle_alpha   125.01812574
_cell_angle_beta   125.26870046
_cell_angle_gamma   81.78167914
_symmetry_Int_Tables_number   1
_chemical_formula_structural   LiSm2Cu3O8
_chemical_formula_sum   'Li1 Sm2 Cu3 O8'
_cell_volume   161.23846897
_cell_formula_units_Z   1
loop_
 _symmetry_equiv_pos_site_id
 _symmetry_equiv_pos_as_xyz
  1  'x, y, z'
loop_
 _atom_site_type_symbol
 _atom_site_label
 _atom_site_symmetry_multiplicity
 _atom_site_fract_x
 _atom_site_fract_y
 _atom_site_fract_z
 _atom_site_occupancy
  Li  Li0  1  0.875000  0.625000  0.250000  1
  Sm  Sm1  1  0.992868  0.009853  0.999603  1
  Sm  Sm2  1  0.757132  0.240147  0.500397  1
  Cu  Cu3  1  0.375000  0.125000  0.750000  1
  Cu  Cu4  1  0.375000  0.625000  0.250000  1
  Cu  Cu5  1  0.375000  0.625000  0.750000  1
  O  O6  1  0.163506  0.599866  0.859572  1
  O  O7  1  0.728652  0.280832  0.128475  1
  O  O8  1  0.586494  0.650134  0.640428  1
  O  O9  1  0.021348  0.969168  0.371525  1
  O  O10  1  0.332286  0.963664  0.904335  1
  O  O11  1  0.074059  0.405679  0.073760  1
  O  O12  1  0.675941  0.844321  0.426240  1
  O  O13  1  0.417714  0.286336  0.595665  1
