# generated using pymatgen
data_CeBr37
_symmetry_space_group_name_H-M   'P 1'
_cell_length_a   14.20848141
_cell_length_b   15.29732181
_cell_length_c   14.42416200
_cell_angle_alpha   103.00376457
_cell_angle_beta   48.80056783
_cell_angle_gamma   81.50743146
_symmetry_Int_Tables_number   1
_chemical_formula_structural   CeBr37
_chemical_formula_sum   'Ce1 Br37'
_cell_volume   2102.91272627
_cell_formula_units_Z   1
loop_
 _symmetry_equiv_pos_site_id
 _symmetry_equiv_pos_as_xyz
  1  'x, y, z'
loop_
 _atom_site_type_symbol
 _atom_site_label
 _atom_site_symmetry_multiplicity
 _atom_site_fract_x
 _atom_site_fract_y
 _atom_site_fract_z
 _atom_site_occupancy
  Ce  Ce0  1  0.500000  0.000000  0.000000  1
  Br  Br1  1  0.799739  0.303394  0.137517  1
  Br  Br2  1  0.200261  0.696606  0.862483  1
  Br  Br3  1  0.753072  0.079459  0.362111  1
  Br  Br4  1  0.246928  0.920541  0.637889  1
  Br  Br5  1  0.106598  0.347758  0.177709  1
  Br  Br6  1  0.893402  0.652242  0.822291  1
  Br  Br7  1  0.861982  0.543527  0.251064  1
  Br  Br8  1  0.138018  0.456473  0.748936  1
  Br  Br9  1  0.689955  0.271028  0.518278  1
  Br  Br10  1  0.310045  0.728972  0.481722  1
  Br  Br11  1  0.068321  0.152734  0.454744  1
  Br  Br12  1  0.931679  0.847266  0.545256  1
  Br  Br13  1  0.992404  0.001421  0.276718  1
  Br  Br14  1  0.007596  0.998579  0.723282  1
  Br  Br15  1  0.963021  0.346791  0.592811  1
  Br  Br16  1  0.036979  0.653209  0.407189  1
  Br  Br17  1  0.590460  0.430958  0.237046  1
  Br  Br18  1  0.409540  0.569042  0.762954  1
  Br  Br19  1  0.175093  0.473737  0.267420  1
  Br  Br20  1  0.824907  0.526263  0.732580  1
  Br  Br21  1  0.000000  0.500000  0.000000  1
  Br  Br22  1  0.585988  0.942161  0.123492  1
  Br  Br23  1  0.414012  0.057839  0.876508  1
  Br  Br24  1  0.324764  0.052723  0.300384  1
  Br  Br25  1  0.675236  0.947277  0.699616  1
  Br  Br26  1  0.539825  0.124069  0.413338  1
  Br  Br27  1  0.460175  0.875931  0.586662  1
  Br  Br28  1  0.085249  0.211094  0.078285  1
  Br  Br29  1  0.914751  0.788906  0.921715  1
  Br  Br30  1  0.658876  0.701924  0.403603  1
  Br  Br31  1  0.341124  0.298076  0.596397  1
  Br  Br32  1  0.901253  0.151137  0.926084  1
  Br  Br33  1  0.098747  0.848863  0.073916  1
  Br  Br34  1  0.553151  0.161860  0.025646  1
  Br  Br35  1  0.446849  0.838140  0.974354  1
  Br  Br36  1  0.642960  0.431116  0.648827  1
  Br  Br37  1  0.357040  0.568884  0.351173  1
