# generated using pymatgen
data_Ce4Co3Si4Ru
_symmetry_space_group_name_H-M   'P 1'
_cell_length_a   4.28010100
_cell_length_b   7.26545767
_cell_length_c   6.58303405
_cell_angle_alpha   91.02412636
_cell_angle_beta   90.00000000
_cell_angle_gamma   90.00000000
_symmetry_Int_Tables_number   1
_chemical_formula_structural   Ce4Co3Si4Ru
_chemical_formula_sum   'Ce4 Co3 Si4 Ru1'
_cell_volume   204.67920172
_cell_formula_units_Z   1
loop_
 _symmetry_equiv_pos_site_id
 _symmetry_equiv_pos_as_xyz
  1  'x, y, z'
loop_
 _atom_site_type_symbol
 _atom_site_label
 _atom_site_symmetry_multiplicity
 _atom_site_fract_x
 _atom_site_fract_y
 _atom_site_fract_z
 _atom_site_occupancy
  Ce  Ce0  1  0.250000  0.980058  0.825542  1
  Ce  Ce1  1  0.750000  0.019468  0.171106  1
  Ce  Ce2  1  0.250000  0.475399  0.659221  1
  Ce  Ce3  1  0.750000  0.520441  0.341860  1
  Co  Co4  1  0.750000  0.862168  0.579777  1
  Co  Co5  1  0.250000  0.141702  0.422686  1
  Co  Co6  1  0.750000  0.366669  0.933186  1
  Si  Si7  1  0.250000  0.306919  0.109793  1
  Si  Si8  1  0.750000  0.687114  0.884519  1
  Si  Si9  1  0.250000  0.815011  0.393698  1
  Si  Si10  1  0.750000  0.188123  0.611972  1
  Ru  Ru11  1  0.250000  0.636926  0.066641  1
