# generated using pymatgen
data_CaAg10Sn2PbO12
_symmetry_space_group_name_H-M   'P 1'
_cell_length_a   8.72738597
_cell_length_b   8.72738584
_cell_length_c   5.95262800
_cell_angle_alpha   69.95235090
_cell_angle_beta   69.95235122
_cell_angle_gamma   71.79916453
_symmetry_Int_Tables_number   1
_chemical_formula_structural   CaAg10Sn2PbO12
_chemical_formula_sum   'Ca1 Ag10 Sn2 Pb1 O12'
_cell_volume   390.24215978
_cell_formula_units_Z   1
loop_
 _symmetry_equiv_pos_site_id
 _symmetry_equiv_pos_as_xyz
  1  'x, y, z'
loop_
 _atom_site_type_symbol
 _atom_site_label
 _atom_site_symmetry_multiplicity
 _atom_site_fract_x
 _atom_site_fract_y
 _atom_site_fract_z
 _atom_site_occupancy
  Ca  Ca0  1  0.420011  0.579989  0.000000  1
  Ag  Ag1  1  0.250748  0.250570  0.001638  1
  Ag  Ag2  1  0.748844  0.748829  0.497756  1
  Ag  Ag3  1  0.251171  0.251156  0.502244  1
  Ag  Ag4  1  0.749430  0.749252  0.998362  1
  Ag  Ag5  1  0.502669  0.004684  0.748511  1
  Ag  Ag6  1  0.995316  0.497331  0.251489  1
  Ag  Ag7  1  0.123568  0.609616  0.632878  1
  Ag  Ag8  1  0.608794  0.121153  0.131108  1
  Ag  Ag9  1  0.390384  0.876432  0.367122  1
  Ag  Ag10  1  0.878847  0.391206  0.868892  1
  Sn  Sn11  1  0.914363  0.085637  0.500000  1
  Sn  Sn12  1  0.585162  0.414838  0.500000  1
  Pb  Pb13  1  0.080717  0.919283  0.000000  1
  O  O14  1  0.665388  0.521429  0.691207  1
  O  O15  1  0.144906  0.039646  0.232605  1
  O  O16  1  0.544779  0.644122  0.236190  1
  O  O17  1  0.024423  0.158778  0.704021  1
  O  O18  1  0.338167  0.861119  0.779612  1
  O  O19  1  0.841179  0.333772  0.291185  1
  O  O20  1  0.355878  0.455221  0.763810  1
  O  O21  1  0.841222  0.975577  0.295979  1
  O  O22  1  0.478571  0.334612  0.308793  1
  O  O23  1  0.960354  0.855094  0.767395  1
  O  O24  1  0.666228  0.158821  0.708815  1
  O  O25  1  0.138881  0.661833  0.220388  1
