# generated using pymatgen
data_Yb3As2
_symmetry_space_group_name_H-M   'P 1'
_cell_length_a   4.33062600
_cell_length_b   7.63366500
_cell_length_c   16.17170000
_cell_angle_alpha   90.00000000
_cell_angle_beta   90.00000000
_cell_angle_gamma   90.00000000
_symmetry_Int_Tables_number   1
_chemical_formula_structural   Yb3As2
_chemical_formula_sum   'Yb12 As8'
_cell_volume   534.61292270
_cell_formula_units_Z   4
loop_
 _symmetry_equiv_pos_site_id
 _symmetry_equiv_pos_as_xyz
  1  'x, y, z'
loop_
 _atom_site_type_symbol
 _atom_site_label
 _atom_site_symmetry_multiplicity
 _atom_site_fract_x
 _atom_site_fract_y
 _atom_site_fract_z
 _atom_site_occupancy
  Yb  Yb0  1  0.250000  0.015384  0.393309  1
  Yb  Yb1  1  0.250000  0.515384  0.106691  1
  Yb  Yb2  1  0.750000  0.984616  0.606691  1
  Yb  Yb3  1  0.750000  0.484616  0.893309  1
  Yb  Yb4  1  0.250000  0.146485  0.782374  1
  Yb  Yb5  1  0.250000  0.646485  0.717626  1
  Yb  Yb6  1  0.750000  0.853515  0.217626  1
  Yb  Yb7  1  0.750000  0.353515  0.282374  1
  Yb  Yb8  1  0.250000  0.368974  0.563983  1
  Yb  Yb9  1  0.250000  0.868974  0.936017  1
  Yb  Yb10  1  0.750000  0.631026  0.436017  1
  Yb  Yb11  1  0.750000  0.131026  0.063983  1
  As  As12  1  0.250000  0.147879  0.199266  1
  As  As13  1  0.250000  0.647879  0.300734  1
  As  As14  1  0.750000  0.852121  0.800734  1
  As  As15  1  0.750000  0.352121  0.699266  1
  As  As16  1  0.250000  0.269105  0.955170  1
  As  As17  1  0.250000  0.769105  0.544830  1
  As  As18  1  0.750000  0.730895  0.044830  1
  As  As19  1  0.750000  0.230895  0.455170  1
