# generated using pymatgen
data_TbLu9(In2Au)4
_symmetry_space_group_name_H-M   'P 1'
_cell_length_a   3.59686900
_cell_length_b   8.12630800
_cell_length_c   18.18317600
_cell_angle_alpha   90.00051470
_cell_angle_beta   90.00000000
_cell_angle_gamma   90.00000000
_symmetry_Int_Tables_number   1
_chemical_formula_structural   TbLu9(In2Au)4
_chemical_formula_sum   'Tb1 Lu9 In8 Au4'
_cell_volume   531.48087584
_cell_formula_units_Z   1
loop_
 _symmetry_equiv_pos_site_id
 _symmetry_equiv_pos_as_xyz
  1  'x, y, z'
loop_
 _atom_site_type_symbol
 _atom_site_label
 _atom_site_symmetry_multiplicity
 _atom_site_fract_x
 _atom_site_fract_y
 _atom_site_fract_z
 _atom_site_occupancy
  Tb  Tb0  1  0.000000  0.000000  0.000000  1
  Lu  Lu1  1  0.000000  0.500000  0.500000  1
  Lu  Lu2  1  0.000000  0.738989  0.283742  1
  Lu  Lu3  1  0.000000  0.261011  0.716258  1
  Lu  Lu4  1  0.000000  0.760679  0.781745  1
  Lu  Lu5  1  0.000000  0.239321  0.218255  1
  Lu  Lu6  1  0.000000  0.622103  0.080701  1
  Lu  Lu7  1  0.000000  0.377897  0.919299  1
  Lu  Lu8  1  0.000000  0.879227  0.579659  1
  Lu  Lu9  1  0.000000  0.120773  0.420341  1
  In  In10  1  0.500000  0.704422  0.933785  1
  In  In11  1  0.500000  0.295578  0.066215  1
  In  In12  1  0.500000  0.790969  0.435243  1
  In  In13  1  0.500000  0.209031  0.564757  1
  In  In14  1  0.500000  0.579258  0.645753  1
  In  In15  1  0.500000  0.420742  0.354247  1
  In  In16  1  0.500000  0.918771  0.147991  1
  In  In17  1  0.500000  0.081229  0.852009  1
  Au  Au18  1  0.500000  0.529541  0.197532  1
  Au  Au19  1  0.500000  0.470459  0.802468  1
  Au  Au20  1  0.500000  0.971255  0.695945  1
  Au  Au21  1  0.500000  0.028745  0.304055  1
