# generated using pymatgen
data_Hf18Ti2GaRe6As
_symmetry_space_group_name_H-M   'P 1'
_cell_length_a   8.65130700
_cell_length_b   8.65130706
_cell_length_c   8.62277600
_cell_angle_alpha   90.00000000
_cell_angle_beta   90.00000000
_cell_angle_gamma   119.99999593
_symmetry_Int_Tables_number   1
_chemical_formula_structural   Hf18Ti2GaRe6As
_chemical_formula_sum   'Hf18 Ti2 Ga1 Re6 As1'
_cell_volume   558.90913027
_cell_formula_units_Z   1
loop_
 _symmetry_equiv_pos_site_id
 _symmetry_equiv_pos_as_xyz
  1  'x, y, z'
loop_
 _atom_site_type_symbol
 _atom_site_label
 _atom_site_symmetry_multiplicity
 _atom_site_fract_x
 _atom_site_fract_y
 _atom_site_fract_z
 _atom_site_occupancy
  Hf  Hf0  1  0.194530  0.805470  0.452133  1
  Hf  Hf1  1  0.194530  0.389061  0.452133  1
  Hf  Hf2  1  0.610939  0.805470  0.452133  1
  Hf  Hf3  1  0.805755  0.194245  0.546785  1
  Hf  Hf4  1  0.805755  0.611510  0.546785  1
  Hf  Hf5  1  0.388490  0.194245  0.546785  1
  Hf  Hf6  1  0.805755  0.194245  0.953215  1
  Hf  Hf7  1  0.805755  0.611510  0.953215  1
  Hf  Hf8  1  0.388490  0.194245  0.953215  1
  Hf  Hf9  1  0.194530  0.805470  0.047867  1
  Hf  Hf10  1  0.194530  0.389061  0.047867  1
  Hf  Hf11  1  0.610939  0.805470  0.047867  1
  Hf  Hf12  1  0.541282  0.458718  0.250000  1
  Hf  Hf13  1  0.541282  0.082563  0.250000  1
  Hf  Hf14  1  0.917437  0.458718  0.250000  1
  Hf  Hf15  1  0.457354  0.542646  0.750000  1
  Hf  Hf16  1  0.457354  0.914708  0.750000  1
  Hf  Hf17  1  0.085292  0.542646  0.750000  1
  Ti  Ti18  1  0.000000  0.000000  0.499898  1
  Ti  Ti19  1  0.000000  0.000000  0.000102  1
  Ga  Ga20  1  0.333333  0.666667  0.250000  1
  Re  Re21  1  0.888500  0.111500  0.250000  1
  Re  Re22  1  0.888500  0.777000  0.250000  1
  Re  Re23  1  0.223000  0.111500  0.250000  1
  Re  Re24  1  0.111379  0.888621  0.750000  1
  Re  Re25  1  0.111379  0.222757  0.750000  1
  Re  Re26  1  0.777243  0.888621  0.750000  1
  As  As27  1  0.666667  0.333333  0.750000  1
