# generated using pymatgen
data_Sm3Tm(Lu4Bi3)4
_symmetry_space_group_name_H-M   'P 1'
_cell_length_a   8.19921993
_cell_length_b   9.39655100
_cell_length_c   11.90864834
_cell_angle_alpha   90.00000000
_cell_angle_beta   89.94558641
_cell_angle_gamma   90.00000000
_symmetry_Int_Tables_number   1
_chemical_formula_structural   Sm3Tm(Lu4Bi3)4
_chemical_formula_sum   'Sm3 Tm1 Lu16 Bi12'
_cell_volume   917.49411185
_cell_formula_units_Z   1
loop_
 _symmetry_equiv_pos_site_id
 _symmetry_equiv_pos_as_xyz
  1  'x, y, z'
loop_
 _atom_site_type_symbol
 _atom_site_label
 _atom_site_symmetry_multiplicity
 _atom_site_fract_x
 _atom_site_fract_y
 _atom_site_fract_z
 _atom_site_occupancy
  Sm  Sm0  1  0.186575  0.250000  0.781519  1
  Sm  Sm1  1  0.814063  0.750000  0.218751  1
  Sm  Sm2  1  0.313990  0.750000  0.281075  1
  Tm  Tm3  1  0.687342  0.250000  0.717726  1
  Lu  Lu4  1  0.024433  0.250000  0.510606  1
  Lu  Lu5  1  0.974986  0.750000  0.490303  1
  Lu  Lu6  1  0.475470  0.750000  0.009945  1
  Lu  Lu7  1  0.524908  0.250000  0.989297  1
  Lu  Lu8  1  0.355507  0.250000  0.282097  1
  Lu  Lu9  1  0.644611  0.750000  0.718245  1
  Lu  Lu10  1  0.144736  0.750000  0.781743  1
  Lu  Lu11  1  0.854821  0.250000  0.218220  1
  Lu  Lu12  1  0.193160  0.067083  0.060922  1
  Lu  Lu13  1  0.806532  0.932836  0.938757  1
  Lu  Lu14  1  0.306039  0.932625  0.561012  1
  Lu  Lu15  1  0.806532  0.567164  0.938757  1
  Lu  Lu16  1  0.693872  0.067317  0.439293  1
  Lu  Lu17  1  0.193160  0.432917  0.060922  1
  Lu  Lu18  1  0.693872  0.432683  0.439293  1
  Lu  Lu19  1  0.306039  0.567375  0.561012  1
  Bi  Bi20  1  0.406661  0.250000  0.540923  1
  Bi  Bi21  1  0.595697  0.750000  0.461297  1
  Bi  Bi22  1  0.096175  0.750000  0.038580  1
  Bi  Bi23  1  0.902432  0.250000  0.960277  1
  Bi  Bi24  1  0.066273  0.007683  0.327461  1
  Bi  Bi25  1  0.931048  0.994439  0.673146  1
  Bi  Bi26  1  0.435944  0.994093  0.826148  1
  Bi  Bi27  1  0.931048  0.505561  0.673146  1
  Bi  Bi28  1  0.565927  0.007376  0.172959  1
  Bi  Bi29  1  0.066273  0.492317  0.327461  1
  Bi  Bi30  1  0.565927  0.492624  0.172959  1
  Bi  Bi31  1  0.435944  0.505907  0.826148  1
