# generated using pymatgen
data_TbNd3ErPb3
_symmetry_space_group_name_H-M   'P 1'
_cell_length_a   9.27089900
_cell_length_b   9.27090007
_cell_length_c   6.77079700
_cell_angle_alpha   90.00000000
_cell_angle_beta   90.00000000
_cell_angle_gamma   119.99999974
_symmetry_Int_Tables_number   1
_chemical_formula_structural   TbNd3ErPb3
_chemical_formula_sum   'Tb2 Nd6 Er2 Pb6'
_cell_volume   503.98101369
_cell_formula_units_Z   2
loop_
 _symmetry_equiv_pos_site_id
 _symmetry_equiv_pos_as_xyz
  1  'x, y, z'
loop_
 _atom_site_type_symbol
 _atom_site_label
 _atom_site_symmetry_multiplicity
 _atom_site_fract_x
 _atom_site_fract_y
 _atom_site_fract_z
 _atom_site_occupancy
  Tb  Tb0  1  0.666667  0.333333  0.000000  1
  Tb  Tb1  1  0.333333  0.666667  0.000000  1
  Nd  Nd2  1  0.759556  0.759556  0.749801  1
  Nd  Nd3  1  0.240444  0.000000  0.749801  1
  Nd  Nd4  1  0.000000  0.240444  0.749801  1
  Nd  Nd5  1  0.240444  0.240444  0.250199  1
  Nd  Nd6  1  0.759556  0.000000  0.250199  1
  Nd  Nd7  1  0.000000  0.759556  0.250199  1
  Er  Er8  1  0.333333  0.666667  0.500000  1
  Er  Er9  1  0.666667  0.333333  0.500000  1
  Pb  Pb10  1  0.397721  0.397721  0.749136  1
  Pb  Pb11  1  0.602279  0.000000  0.749136  1
  Pb  Pb12  1  0.000000  0.602279  0.749136  1
  Pb  Pb13  1  0.602279  0.602279  0.250864  1
  Pb  Pb14  1  0.397721  0.000000  0.250864  1
  Pb  Pb15  1  0.000000  0.397721  0.250864  1
