# generated using pymatgen
data_Th3Mn(Co4P3)2
_symmetry_space_group_name_H-M   'P 1'
_cell_length_a   3.82809800
_cell_length_b   10.67753500
_cell_length_c   12.45121100
_cell_angle_alpha   90.00000000
_cell_angle_beta   90.00000000
_cell_angle_gamma   90.00000000
_symmetry_Int_Tables_number   1
_chemical_formula_structural   Th3Mn(Co4P3)2
_chemical_formula_sum   'Th6 Mn2 Co16 P12'
_cell_volume   508.93889641
_cell_formula_units_Z   2
loop_
 _symmetry_equiv_pos_site_id
 _symmetry_equiv_pos_as_xyz
  1  'x, y, z'
loop_
 _atom_site_type_symbol
 _atom_site_label
 _atom_site_symmetry_multiplicity
 _atom_site_fract_x
 _atom_site_fract_y
 _atom_site_fract_z
 _atom_site_occupancy
  Th  Th0  1  0.000000  0.500000  0.521431  1
  Th  Th1  1  0.500000  0.000000  0.478569  1
  Th  Th2  1  0.500000  0.816681  0.206617  1
  Th  Th3  1  0.500000  0.183319  0.206617  1
  Th  Th4  1  0.000000  0.683319  0.793383  1
  Th  Th5  1  0.000000  0.316681  0.793383  1
  Mn  Mn6  1  0.500000  0.500000  0.153123  1
  Mn  Mn7  1  0.000000  0.000000  0.846877  1
  Co  Co8  1  0.500000  0.500000  0.702692  1
  Co  Co9  1  0.000000  0.000000  0.297308  1
  Co  Co10  1  0.000000  0.500000  0.984898  1
  Co  Co11  1  0.500000  0.000000  0.015102  1
  Co  Co12  1  0.500000  0.332907  0.994713  1
  Co  Co13  1  0.500000  0.667093  0.994713  1
  Co  Co14  1  0.000000  0.167093  0.005287  1
  Co  Co15  1  0.000000  0.832907  0.005287  1
  Co  Co16  1  0.500000  0.301435  0.426195  1
  Co  Co17  1  0.500000  0.698565  0.426195  1
  Co  Co18  1  0.000000  0.198565  0.573805  1
  Co  Co19  1  0.000000  0.801435  0.573805  1
  Co  Co20  1  0.500000  0.882131  0.716088  1
  Co  Co21  1  0.500000  0.117869  0.716088  1
  Co  Co22  1  0.000000  0.617869  0.283912  1
  Co  Co23  1  0.000000  0.382131  0.283912  1
  P  P24  1  0.500000  0.500000  0.886226  1
  P  P25  1  0.000000  0.000000  0.113774  1
  P  P26  1  0.500000  0.500000  0.339131  1
  P  P27  1  0.000000  0.000000  0.660869  1
  P  P28  1  0.500000  0.305573  0.611732  1
  P  P29  1  0.500000  0.694427  0.611732  1
  P  P30  1  0.000000  0.194427  0.388268  1
  P  P31  1  0.000000  0.805573  0.388268  1
  P  P32  1  0.500000  0.848472  0.898853  1
  P  P33  1  0.500000  0.151528  0.898853  1
  P  P34  1  0.000000  0.651528  0.101147  1
  P  P35  1  0.000000  0.348472  0.101147  1
