# generated using pymatgen
data_Yb2Cu5Ni3Pt2
_symmetry_space_group_name_H-M   'P 1'
_cell_length_a   4.07948000
_cell_length_b   5.10771279
_cell_length_c   8.57978706
_cell_angle_alpha   93.88358580
_cell_angle_beta   90.00000000
_cell_angle_gamma   90.00000000
_symmetry_Int_Tables_number   1
_chemical_formula_structural   Yb2Cu5Ni3Pt2
_chemical_formula_sum   'Yb2 Cu5 Ni3 Pt2'
_cell_volume   178.36489379
_cell_formula_units_Z   1
loop_
 _symmetry_equiv_pos_site_id
 _symmetry_equiv_pos_as_xyz
  1  'x, y, z'
loop_
 _atom_site_type_symbol
 _atom_site_label
 _atom_site_symmetry_multiplicity
 _atom_site_fract_x
 _atom_site_fract_y
 _atom_site_fract_z
 _atom_site_occupancy
  Yb  Yb0  1  0.000000  0.500000  0.000000  1
  Yb  Yb1  1  0.000000  0.000000  0.500000  1
  Cu  Cu2  1  0.000000  0.478840  0.335006  1
  Cu  Cu3  1  0.000000  0.979260  0.840339  1
  Cu  Cu4  1  0.000000  0.020740  0.159661  1
  Cu  Cu5  1  0.000000  0.521160  0.664994  1
  Cu  Cu6  1  0.500000  0.500000  0.500000  1
  Ni  Ni7  1  0.500000  0.000000  0.000000  1
  Ni  Ni8  1  0.500000  0.250824  0.246779  1
  Ni  Ni9  1  0.500000  0.749176  0.753221  1
  Pt  Pt10  1  0.500000  0.751255  0.248886  1
  Pt  Pt11  1  0.500000  0.248745  0.751114  1
