# generated using pymatgen
data_KLi4TaO5
_symmetry_space_group_name_H-M   'P 1'
_cell_length_a   5.83962702
_cell_length_b   5.95062320
_cell_length_c   8.29994245
_cell_angle_alpha   87.86211843
_cell_angle_beta   100.98532559
_cell_angle_gamma   119.15645380
_symmetry_Int_Tables_number   1
_chemical_formula_structural   KLi4TaO5
_chemical_formula_sum   'K2 Li8 Ta2 O10'
_cell_volume   246.73881288
_cell_formula_units_Z   2
loop_
 _symmetry_equiv_pos_site_id
 _symmetry_equiv_pos_as_xyz
  1  'x, y, z'
loop_
 _atom_site_type_symbol
 _atom_site_label
 _atom_site_symmetry_multiplicity
 _atom_site_fract_x
 _atom_site_fract_y
 _atom_site_fract_z
 _atom_site_occupancy
  K  K0  1  0.617881  0.766902  0.420168  1
  K  K1  1  0.382119  0.233098  0.579832  1
  Li  Li2  1  0.340411  0.998618  0.878508  1
  Li  Li3  1  0.659589  0.001382  0.121492  1
  Li  Li4  1  0.596713  0.389540  0.084726  1
  Li  Li5  1  0.884225  0.334412  0.386279  1
  Li  Li6  1  0.091449  0.396900  0.104856  1
  Li  Li7  1  0.403287  0.610460  0.915274  1
  Li  Li8  1  0.115775  0.665588  0.613721  1
  Li  Li9  1  0.908551  0.603100  0.895144  1
  Ta  Ta10  1  0.143901  0.940557  0.195058  1
  Ta  Ta11  1  0.856099  0.059443  0.804942  1
  O  O12  1  0.780754  0.767373  0.029714  1
  O  O13  1  0.520328  0.181485  0.274524  1
  O  O14  1  0.219246  0.232627  0.970286  1
  O  O15  1  0.258820  0.755661  0.052460  1
  O  O16  1  0.479672  0.818515  0.725476  1
  O  O17  1  0.927588  0.291511  0.635663  1
  O  O18  1  0.021258  0.159324  0.278292  1
  O  O19  1  0.741180  0.244339  0.947540  1
  O  O20  1  0.072412  0.708489  0.364337  1
  O  O21  1  0.978742  0.840676  0.721708  1
