# generated using pymatgen
data_Ca7TaSi4O17F
_symmetry_space_group_name_H-M   'P 1'
_cell_length_a   10.55116200
_cell_length_b   7.45248506
_cell_length_c   10.94006638
_cell_angle_alpha   70.46962223
_cell_angle_beta   90.00000000
_cell_angle_gamma   90.00000000
_symmetry_Int_Tables_number   1
_chemical_formula_structural   Ca7TaSi4O17F
_chemical_formula_sum   'Ca14 Ta2 Si8 O34 F2'
_cell_volume   810.74878371
_cell_formula_units_Z   2
loop_
 _symmetry_equiv_pos_site_id
 _symmetry_equiv_pos_as_xyz
  1  'x, y, z'
loop_
 _atom_site_type_symbol
 _atom_site_label
 _atom_site_symmetry_multiplicity
 _atom_site_fract_x
 _atom_site_fract_y
 _atom_site_fract_z
 _atom_site_occupancy
  Ca  Ca0  1  0.648193  0.517483  0.933231  1
  Ca  Ca1  1  0.351807  0.517483  0.433231  1
  Ca  Ca2  1  0.665750  0.025876  0.921095  1
  Ca  Ca3  1  0.334250  0.025876  0.421095  1
  Ca  Ca4  1  0.380217  0.314419  0.806678  1
  Ca  Ca5  1  0.619783  0.314419  0.306678  1
  Ca  Ca6  1  0.372761  0.829409  0.827551  1
  Ca  Ca7  1  0.627239  0.829409  0.327551  1
  Ca  Ca8  1  0.135588  0.650798  0.656771  1
  Ca  Ca9  1  0.864412  0.650798  0.156771  1
  Ca  Ca10  1  0.835246  0.450703  0.572933  1
  Ca  Ca11  1  0.164754  0.450703  0.072933  1
  Ca  Ca12  1  0.844930  0.959818  0.559077  1
  Ca  Ca13  1  0.155070  0.959818  0.059077  1
  Ta  Ta14  1  0.137582  0.138832  0.682675  1
  Ta  Ta15  1  0.862418  0.138832  0.182675  1
  Si  Si16  1  0.070237  0.340214  0.362004  1
  Si  Si17  1  0.929763  0.340214  0.862004  1
  Si  Si18  1  0.054426  0.759228  0.376111  1
  Si  Si19  1  0.945574  0.759228  0.876111  1
  Si  Si20  1  0.555512  0.648056  0.616843  1
  Si  Si21  1  0.444488  0.648056  0.116843  1
  Si  Si22  1  0.560246  0.210411  0.606905  1
  Si  Si23  1  0.439754  0.210411  0.106905  1
  O  O24  1  0.014979  0.215965  0.506423  1
  O  O25  1  0.985021  0.215965  0.006423  1
  O  O26  1  0.970875  0.730171  0.507796  1
  O  O27  1  0.029125  0.730171  0.007796  1
  O  O28  1  0.999311  0.307288  0.237024  1
  O  O29  1  0.000689  0.307288  0.737024  1
  O  O30  1  0.008457  0.929341  0.244703  1
  O  O31  1  0.991543  0.929341  0.744703  1
  O  O32  1  0.221690  0.325982  0.343920  1
  O  O33  1  0.778310  0.325982  0.843920  1
  O  O34  1  0.202882  0.769701  0.411687  1
  O  O35  1  0.797118  0.769701  0.911687  1
  O  O36  1  0.504907  0.630829  0.760958  1
  O  O37  1  0.495093  0.630829  0.260958  1
  O  O38  1  0.508041  0.076134  0.747368  1
  O  O39  1  0.491959  0.076134  0.247368  1
  O  O40  1  0.467803  0.770201  0.495435  1
  O  O41  1  0.532197  0.770201  0.995435  1
  O  O42  1  0.479429  0.217364  0.478066  1
  O  O43  1  0.520571  0.217364  0.978066  1
  O  O44  1  0.704307  0.701766  0.582913  1
  O  O45  1  0.295693  0.701766  0.082913  1
  O  O46  1  0.711261  0.190050  0.583820  1
  O  O47  1  0.288739  0.190050  0.083820  1
  O  O48  1  0.230870  0.957196  0.629376  1
  O  O49  1  0.769130  0.957196  0.129376  1
  O  O50  1  0.233845  0.371769  0.623236  1
  O  O51  1  0.766155  0.371769  0.123236  1
  O  O52  1  0.220820  0.065235  0.845666  1
  O  O53  1  0.779180  0.065235  0.345666  1
  O  O54  1  0.026309  0.567544  0.332981  1
  O  O55  1  0.973691  0.567544  0.832981  1
  O  O56  1  0.529466  0.426406  0.615760  1
  O  O57  1  0.470534  0.426406  0.115760  1
  F  F58  1  0.248256  0.549311  0.850595  1
  F  F59  1  0.751744  0.549311  0.350595  1
