# generated using pymatgen
data_Ce10IrRhPb6
_symmetry_space_group_name_H-M   'P 1'
_cell_length_a   9.66086400
_cell_length_b   9.66086567
_cell_length_c   6.45894200
_cell_angle_alpha   90.00000000
_cell_angle_beta   90.00000000
_cell_angle_gamma   120.00000112
_symmetry_Int_Tables_number   1
_chemical_formula_structural   Ce10IrRhPb6
_chemical_formula_sum   'Ce10 Ir1 Rh1 Pb6'
_cell_volume   522.06433284
_cell_formula_units_Z   1
loop_
 _symmetry_equiv_pos_site_id
 _symmetry_equiv_pos_as_xyz
  1  'x, y, z'
loop_
 _atom_site_type_symbol
 _atom_site_label
 _atom_site_symmetry_multiplicity
 _atom_site_fract_x
 _atom_site_fract_y
 _atom_site_fract_z
 _atom_site_occupancy
  Ce  Ce0  1  0.243580  0.243580  0.749563  1
  Ce  Ce1  1  0.756420  0.756420  0.250437  1
  Ce  Ce2  1  0.243580  0.000000  0.250437  1
  Ce  Ce3  1  0.756420  0.000000  0.749563  1
  Ce  Ce4  1  0.333333  0.666667  0.500000  1
  Ce  Ce5  1  0.666667  0.333333  0.500000  1
  Ce  Ce6  1  0.000000  0.243580  0.250437  1
  Ce  Ce7  1  0.000000  0.756420  0.749563  1
  Ce  Ce8  1  0.333333  0.666667  0.000000  1
  Ce  Ce9  1  0.666667  0.333333  0.000000  1
  Ir  Ir10  1  0.000000  0.000000  0.500000  1
  Rh  Rh11  1  0.000000  0.000000  0.000000  1
  Pb  Pb12  1  0.397349  0.397349  0.249766  1
  Pb  Pb13  1  0.602651  0.602651  0.750234  1
  Pb  Pb14  1  0.000000  0.397349  0.750234  1
  Pb  Pb15  1  0.602651  0.000000  0.249766  1
  Pb  Pb16  1  0.397349  0.000000  0.750234  1
  Pb  Pb17  1  0.000000  0.602651  0.249766  1
