# generated using pymatgen
data_Zr8In4Pd5Au3
_symmetry_space_group_name_H-M   'P 1'
_cell_length_a   7.54778497
_cell_length_b   7.55687524
_cell_length_c   7.06706968
_cell_angle_alpha   89.95787786
_cell_angle_beta   90.02736705
_cell_angle_gamma   90.14126588
_symmetry_Int_Tables_number   1
_chemical_formula_structural   Zr8In4Pd5Au3
_chemical_formula_sum   'Zr8 In4 Pd5 Au3'
_cell_volume   403.08780344
_cell_formula_units_Z   1
loop_
 _symmetry_equiv_pos_site_id
 _symmetry_equiv_pos_as_xyz
  1  'x, y, z'
loop_
 _atom_site_type_symbol
 _atom_site_label
 _atom_site_symmetry_multiplicity
 _atom_site_fract_x
 _atom_site_fract_y
 _atom_site_fract_z
 _atom_site_occupancy
  Zr  Zr0  1  0.140992  0.151660  0.002649  1
  Zr  Zr1  1  0.843958  0.853755  0.999444  1
  Zr  Zr2  1  0.653139  0.350530  0.495716  1
  Zr  Zr3  1  0.359911  0.644643  0.495421  1
  Zr  Zr4  1  0.692341  0.310889  0.003366  1
  Zr  Zr5  1  0.315846  0.688957  0.002995  1
  Zr  Zr6  1  0.802613  0.808763  0.500283  1
  Zr  Zr7  1  0.188909  0.196447  0.496051  1
  In  In8  1  0.503607  0.002110  0.249549  1
  In  In9  1  0.504571  0.997294  0.750247  1
  In  In10  1  0.999666  0.496992  0.249707  1
  In  In11  1  0.994202  0.497546  0.749828  1
  Pd  Pd12  1  0.370688  0.369093  0.209361  1
  Pd  Pd13  1  0.631733  0.630093  0.789553  1
  Pd  Pd14  1  0.631749  0.629428  0.209634  1
  Pd  Pd15  1  0.868351  0.131066  0.711746  1
  Pd  Pd16  1  0.868533  0.130121  0.290248  1
  Au  Au17  1  0.371841  0.369668  0.792964  1
  Au  Au18  1  0.127861  0.870282  0.291974  1
  Au  Au19  1  0.129488  0.870663  0.709264  1
