# generated using pymatgen
data_Ho2Tm3SnSb2
_symmetry_space_group_name_H-M   'P 1'
_cell_length_a   6.31883500
_cell_length_b   8.86325509
_cell_length_c   8.89324795
_cell_angle_alpha   119.88139658
_cell_angle_beta   90.00010099
_cell_angle_gamma   89.99988721
_symmetry_Int_Tables_number   1
_chemical_formula_structural   Ho2Tm3SnSb2
_chemical_formula_sum   'Ho4 Tm6 Sn2 Sb4'
_cell_volume   431.85613525
_cell_formula_units_Z   2
loop_
 _symmetry_equiv_pos_site_id
 _symmetry_equiv_pos_as_xyz
  1  'x, y, z'
loop_
 _atom_site_type_symbol
 _atom_site_label
 _atom_site_symmetry_multiplicity
 _atom_site_fract_x
 _atom_site_fract_y
 _atom_site_fract_z
 _atom_site_occupancy
  Ho  Ho0  1  0.749996  0.241026  0.996654  1
  Ho  Ho1  1  0.750004  0.756279  0.753427  1
  Ho  Ho2  1  0.750003  0.999700  0.243709  1
  Ho  Ho3  1  0.249990  0.758834  0.003270  1
  Tm  Tm4  1  0.500398  0.331736  0.666078  1
  Tm  Tm5  1  0.499703  0.668573  0.333935  1
  Tm  Tm6  1  0.000296  0.668574  0.333938  1
  Tm  Tm7  1  0.999606  0.331728  0.666071  1
  Tm  Tm8  1  0.250002  0.242847  0.245860  1
  Tm  Tm9  1  0.249998  0.000482  0.756815  1
  Sn  Sn10  1  0.750002  0.000513  0.606599  1
  Sn  Sn11  1  0.249999  0.000338  0.394016  1
  Sb  Sb12  1  0.749999  0.608741  0.999170  1
  Sb  Sb13  1  0.750002  0.389773  0.388869  1
  Sb  Sb14  1  0.249999  0.390187  0.001022  1
  Sb  Sb15  1  0.250002  0.610669  0.610567  1
