# generated using pymatgen
data_Nb10Si2NiP3
_symmetry_space_group_name_H-M   'P 1'
_cell_length_a   7.54884386
_cell_length_b   7.54884420
_cell_length_c   7.51413238
_cell_angle_alpha   128.50023796
_cell_angle_beta   128.50024364
_cell_angle_gamma   76.15413603
_symmetry_Int_Tables_number   1
_chemical_formula_structural   Nb10Si2NiP3
_chemical_formula_sum   'Nb10 Si2 Ni1 P3'
_cell_volume   254.46088529
_cell_formula_units_Z   1
loop_
 _symmetry_equiv_pos_site_id
 _symmetry_equiv_pos_as_xyz
  1  'x, y, z'
loop_
 _atom_site_type_symbol
 _atom_site_label
 _atom_site_symmetry_multiplicity
 _atom_site_fract_x
 _atom_site_fract_y
 _atom_site_fract_z
 _atom_site_occupancy
  Nb  Nb0  1  0.015832  0.185487  0.500246  1
  Nb  Nb1  1  0.521438  0.021438  0.831115  1
  Nb  Nb2  1  0.188684  0.688684  0.169970  1
  Nb  Nb3  1  0.481286  0.981286  0.169970  1
  Nb  Nb4  1  0.685487  0.515832  0.500246  1
  Nb  Nb5  1  0.984414  0.814759  0.500246  1
  Nb  Nb6  1  0.314759  0.484414  0.500246  1
  Nb  Nb7  1  0.809677  0.309677  0.831115  1
  Nb  Nb8  1  0.500954  0.498082  0.999036  1
  Nb  Nb9  1  0.998082  0.000954  0.999036  1
  Si  Si10  1  0.749067  0.749067  0.998134  1
  Si  Si11  1  0.249067  0.249067  0.998134  1
  Ni  Ni12  1  0.125099  0.625099  0.750197  1
  P  P13  1  0.635300  0.860893  0.496193  1
  P  P14  1  0.360893  0.135300  0.496193  1
  P  P15  1  0.879962  0.379962  0.259924  1
