# generated using pymatgen
data_Ga2HI9
_symmetry_space_group_name_H-M   'P 1'
_cell_length_a   8.18282695
_cell_length_b   10.17347402
_cell_length_c   18.26362590
_cell_angle_alpha   91.05551973
_cell_angle_beta   89.10492993
_cell_angle_gamma   81.71153756
_symmetry_Int_Tables_number   1
_chemical_formula_structural   Ga2HI9
_chemical_formula_sum   'Ga4 H2 I18'
_cell_volume   1504.01339050
_cell_formula_units_Z   2
loop_
 _symmetry_equiv_pos_site_id
 _symmetry_equiv_pos_as_xyz
  1  'x, y, z'
loop_
 _atom_site_type_symbol
 _atom_site_label
 _atom_site_symmetry_multiplicity
 _atom_site_fract_x
 _atom_site_fract_y
 _atom_site_fract_z
 _atom_site_occupancy
  Ga  Ga0  1  0.116536  0.703132  0.609948  1
  Ga  Ga1  1  0.883464  0.296868  0.390052  1
  Ga  Ga2  1  0.630744  0.280095  0.912103  1
  Ga  Ga3  1  0.369256  0.719905  0.087897  1
  H  H4  1  0.446492  0.612910  0.905991  1
  H  H5  1  0.553508  0.387090  0.094009  1
  I  I6  1  0.000054  0.126181  0.599819  1
  I  I7  1  0.999946  0.873819  0.400181  1
  I  I8  1  0.268352  0.508317  0.676394  1
  I  I9  1  0.731648  0.491683  0.323606  1
  I  I10  1  0.644470  0.521452  0.857335  1
  I  I11  1  0.355530  0.478548  0.142665  1
  I  I12  1  0.235514  0.916774  0.664832  1
  I  I13  1  0.764486  0.083226  0.335168  1
  I  I14  1  0.844831  0.121871  0.841812  1
  I  I15  1  0.155169  0.878129  0.158188  1
  I  I16  1  0.250635  0.706678  0.951765  1
  I  I17  1  0.749365  0.293322  0.048235  1
  I  I18  1  0.763902  0.324390  0.528157  1
  I  I19  1  0.236098  0.675610  0.471843  1
  I  I20  1  0.806113  0.746752  0.610903  1
  I  I21  1  0.193887  0.253248  0.389097  1
  I  I22  1  0.335194  0.238108  0.916989  1
  I  I23  1  0.664806  0.761892  0.083011  1
