# generated using pymatgen
data_Er3TaPt12
_symmetry_space_group_name_H-M   'P 1'
_cell_length_a   5.76033104
_cell_length_b   5.76033141
_cell_length_c   8.12312300
_cell_angle_alpha   90.00000000
_cell_angle_beta   90.00000000
_cell_angle_gamma   90.01508904
_symmetry_Int_Tables_number   1
_chemical_formula_structural   Er3TaPt12
_chemical_formula_sum   'Er3 Ta1 Pt12'
_cell_volume   269.53671259
_cell_formula_units_Z   1
loop_
 _symmetry_equiv_pos_site_id
 _symmetry_equiv_pos_as_xyz
  1  'x, y, z'
loop_
 _atom_site_type_symbol
 _atom_site_label
 _atom_site_symmetry_multiplicity
 _atom_site_fract_x
 _atom_site_fract_y
 _atom_site_fract_z
 _atom_site_occupancy
  Er  Er0  1  0.500000  0.000000  0.249790  1
  Er  Er1  1  0.000000  0.500000  0.249884  1
  Er  Er2  1  0.500000  0.000000  0.750362  1
  Ta  Ta3  1  0.000000  0.500000  0.749887  1
  Pt  Pt4  1  0.242805  0.257195  0.991643  1
  Pt  Pt5  1  0.757683  0.257683  0.508531  1
  Pt  Pt6  1  0.753052  0.253052  0.993840  1
  Pt  Pt7  1  0.757195  0.742805  0.991643  1
  Pt  Pt8  1  0.500000  0.500000  0.749940  1
  Pt  Pt9  1  0.247646  0.252354  0.506010  1
  Pt  Pt10  1  0.752354  0.747646  0.506010  1
  Pt  Pt11  1  0.242317  0.742317  0.508531  1
  Pt  Pt12  1  0.500000  0.500000  0.250074  1
  Pt  Pt13  1  0.000000  0.000000  0.749940  1
  Pt  Pt14  1  0.000000  0.000000  0.250074  1
  Pt  Pt15  1  0.246948  0.746948  0.993840  1
