# generated using pymatgen
data_Th2MgCuRh
_symmetry_space_group_name_H-M   'P 1'
_cell_length_a   7.78175100
_cell_length_b   7.80116300
_cell_length_c   3.82855300
_cell_angle_alpha   90.00000000
_cell_angle_beta   90.00000000
_cell_angle_gamma   90.00000000
_symmetry_Int_Tables_number   1
_chemical_formula_structural   Th2MgCuRh
_chemical_formula_sum   'Th4 Mg2 Cu2 Rh2'
_cell_volume   232.41884894
_cell_formula_units_Z   2
loop_
 _symmetry_equiv_pos_site_id
 _symmetry_equiv_pos_as_xyz
  1  'x, y, z'
loop_
 _atom_site_type_symbol
 _atom_site_label
 _atom_site_symmetry_multiplicity
 _atom_site_fract_x
 _atom_site_fract_y
 _atom_site_fract_z
 _atom_site_occupancy
  Th  Th0  1  0.826295  0.336964  0.500000  1
  Th  Th1  1  0.326295  0.163036  0.500000  1
  Th  Th2  1  0.671533  0.816842  0.500000  1
  Th  Th3  1  0.171533  0.683158  0.500000  1
  Mg  Mg4  1  0.494859  0.493778  0.000000  1
  Mg  Mg5  1  0.994859  0.006222  0.000000  1
  Cu  Cu6  1  0.632138  0.126930  0.000000  1
  Cu  Cu7  1  0.132138  0.373070  0.000000  1
  Rh  Rh8  1  0.375175  0.875001  0.000000  1
  Rh  Rh9  1  0.875175  0.624999  0.000000  1
