# generated using pymatgen
data_TbEr11InCo4Au
_symmetry_space_group_name_H-M   'P 1'
_cell_length_a   8.26374129
_cell_length_b   8.26374181
_cell_length_c   8.25928611
_cell_angle_alpha   111.10431896
_cell_angle_beta   110.63378407
_cell_angle_gamma   106.73367914
_symmetry_Int_Tables_number   1
_chemical_formula_structural   TbEr11InCo4Au
_chemical_formula_sum   'Tb1 Er11 In1 Co4 Au1'
_cell_volume   433.30832641
_cell_formula_units_Z   1
loop_
 _symmetry_equiv_pos_site_id
 _symmetry_equiv_pos_as_xyz
  1  'x, y, z'
loop_
 _atom_site_type_symbol
 _atom_site_label
 _atom_site_symmetry_multiplicity
 _atom_site_fract_x
 _atom_site_fract_y
 _atom_site_fract_z
 _atom_site_occupancy
  Tb  Tb0  1  0.186960  0.290404  0.477364  1
  Er  Er1  1  0.813605  0.709307  0.522911  1
  Er  Er2  1  0.186548  0.709740  0.896288  1
  Er  Er3  1  0.813011  0.290543  0.103554  1
  Er  Er4  1  0.316003  0.620060  0.303763  1
  Er  Er5  1  0.684643  0.380283  0.696211  1
  Er  Er6  1  0.315929  0.011568  0.696211  1
  Er  Er7  1  0.683702  0.987760  0.303763  1
  Er  Er8  1  0.427275  0.222308  0.204246  1
  Er  Er9  1  0.573503  0.778386  0.795856  1
  Er  Er10  1  0.017470  0.222353  0.795856  1
  Er  Er11  1  0.981938  0.776971  0.204246  1
  In  In12  1  0.500227  0.500190  0.000417  1
  Co  Co13  1  0.112535  0.613396  0.500136  1
  Co  Co14  1  0.886740  0.387601  0.500136  1
  Co  Co15  1  0.377463  0.999812  0.377276  1
  Co  Co16  1  0.622672  0.999831  0.622503  1
  Au  Au17  1  0.999775  0.999489  0.999263  1
