# generated using pymatgen
data_Pr2GaSi3(IrRh2)2
_symmetry_space_group_name_H-M   'P 1'
_cell_length_a   6.75885462
_cell_length_b   6.74212700
_cell_length_c   6.75885595
_cell_angle_alpha   130.28850292
_cell_angle_beta   114.39437325
_cell_angle_gamma   86.66376660
_symmetry_Int_Tables_number   1
_chemical_formula_structural   Pr2GaSi3(IrRh2)2
_chemical_formula_sum   'Pr2 Ga1 Si3 Ir2 Rh4'
_cell_volume   204.06301865
_cell_formula_units_Z   1
loop_
 _symmetry_equiv_pos_site_id
 _symmetry_equiv_pos_as_xyz
  1  'x, y, z'
loop_
 _atom_site_type_symbol
 _atom_site_label
 _atom_site_symmetry_multiplicity
 _atom_site_fract_x
 _atom_site_fract_y
 _atom_site_fract_z
 _atom_site_occupancy
  Pr  Pr0  1  0.250111  0.965166  0.715055  1
  Pr  Pr1  1  0.751336  0.025193  0.273857  1
  Ga  Ga2  1  0.090779  0.298129  0.207350  1
  Si  Si3  1  0.932328  0.726986  0.794658  1
  Si  Si4  1  0.406765  0.618627  0.211863  1
  Si  Si5  1  0.572428  0.366315  0.793887  1
  Ir  Ir6  1  0.229705  0.498547  0.734365  1
  Ir  Ir7  1  0.764181  0.498547  0.268841  1
  Rh  Rh8  1  0.526656  0.505224  0.528465  1
  Rh  Rh9  1  0.976760  0.505224  0.978569  1
  Rh  Rh10  1  0.283491  0.996020  0.280560  1
  Rh  Rh11  1  0.715461  0.996020  0.712530  1
