# generated using pymatgen
data_Sm8Ta3Si16Mo9
_symmetry_space_group_name_H-M   'P 1'
_cell_length_a   6.87217288
_cell_length_b   7.06643898
_cell_length_c   13.14146000
_cell_angle_alpha   90.00000000
_cell_angle_beta   90.00000000
_cell_angle_gamma   89.90718102
_symmetry_Int_Tables_number   1
_chemical_formula_structural   Sm8Ta3Si16Mo9
_chemical_formula_sum   'Sm8 Ta3 Si16 Mo9'
_cell_volume   638.17198751
_cell_formula_units_Z   1
loop_
 _symmetry_equiv_pos_site_id
 _symmetry_equiv_pos_as_xyz
  1  'x, y, z'
loop_
 _atom_site_type_symbol
 _atom_site_label
 _atom_site_symmetry_multiplicity
 _atom_site_fract_x
 _atom_site_fract_y
 _atom_site_fract_z
 _atom_site_occupancy
  Sm  Sm0  1  0.497992  0.332719  0.094426  1
  Sm  Sm1  1  0.999980  0.166728  0.405592  1
  Sm  Sm2  1  0.499884  0.667697  0.594033  1
  Sm  Sm3  1  0.999674  0.831242  0.905833  1
  Sm  Sm4  1  0.499884  0.667697  0.905967  1
  Sm  Sm5  1  0.999674  0.831242  0.594167  1
  Sm  Sm6  1  0.497992  0.332719  0.405574  1
  Sm  Sm7  1  0.999980  0.166728  0.094408  1
  Ta  Ta8  1  0.660469  0.010496  0.750000  1
  Ta  Ta9  1  0.160598  0.489138  0.750000  1
  Ta  Ta10  1  0.339144  0.992618  0.250000  1
  Si  Si11  1  0.658593  0.045367  0.544527  1
  Si  Si12  1  0.158132  0.454568  0.955689  1
  Si  Si13  1  0.342300  0.955797  0.045677  1
  Si  Si14  1  0.842130  0.545250  0.451290  1
  Si  Si15  1  0.342300  0.955797  0.454323  1
  Si  Si16  1  0.842130  0.545250  0.048710  1
  Si  Si17  1  0.658593  0.045367  0.955473  1
  Si  Si18  1  0.158132  0.454568  0.544311  1
  Si  Si19  1  0.536690  0.371612  0.750000  1
  Si  Si20  1  0.036004  0.128849  0.750000  1
  Si  Si21  1  0.467598  0.630975  0.250000  1
  Si  Si22  1  0.961727  0.863846  0.250000  1
  Si  Si23  1  0.798768  0.623103  0.750000  1
  Si  Si24  1  0.298614  0.876542  0.750000  1
  Si  Si25  1  0.194628  0.379548  0.250000  1
  Si  Si26  1  0.700967  0.126219  0.250000  1
  Mo  Mo27  1  0.834547  0.334289  0.625427  1
  Mo  Mo28  1  0.335097  0.165713  0.873545  1
  Mo  Mo29  1  0.168881  0.665484  0.126417  1
  Mo  Mo30  1  0.667166  0.835939  0.373216  1
  Mo  Mo31  1  0.168881  0.665484  0.373583  1
  Mo  Mo32  1  0.667166  0.835939  0.126784  1
  Mo  Mo33  1  0.834547  0.334289  0.874573  1
  Mo  Mo34  1  0.335097  0.165713  0.626455  1
  Mo  Mo35  1  0.836038  0.505471  0.250000  1
