# generated using pymatgen
data_Li4Pr3NdSi8
_symmetry_space_group_name_H-M   'P 1'
_cell_length_a   3.88634100
_cell_length_b   7.74744624
_cell_length_c   10.55667339
_cell_angle_alpha   90.02415420
_cell_angle_beta   90.00000000
_cell_angle_gamma   90.00000000
_symmetry_Int_Tables_number   1
_chemical_formula_structural   Li4Pr3NdSi8
_chemical_formula_sum   'Li4 Pr3 Nd1 Si8'
_cell_volume   317.85315202
_cell_formula_units_Z   1
loop_
 _symmetry_equiv_pos_site_id
 _symmetry_equiv_pos_as_xyz
  1  'x, y, z'
loop_
 _atom_site_type_symbol
 _atom_site_label
 _atom_site_symmetry_multiplicity
 _atom_site_fract_x
 _atom_site_fract_y
 _atom_site_fract_z
 _atom_site_occupancy
  Li  Li0  1  0.250000  0.995775  0.390183  1
  Li  Li1  1  0.750000  0.005582  0.609543  1
  Li  Li2  1  0.250000  0.494936  0.110963  1
  Li  Li3  1  0.750000  0.504367  0.890163  1
  Pr  Pr4  1  0.250000  0.137050  0.864448  1
  Pr  Pr5  1  0.750000  0.861940  0.135539  1
  Pr  Pr6  1  0.250000  0.637321  0.635323  1
  Nd  Nd7  1  0.750000  0.363665  0.364146  1
  Si  Si8  1  0.750000  0.274306  0.071843  1
  Si  Si9  1  0.250000  0.725331  0.928771  1
  Si  Si10  1  0.750000  0.773637  0.428702  1
  Si  Si11  1  0.250000  0.227483  0.569819  1
  Si  Si12  1  0.750000  0.833557  0.822353  1
  Si  Si13  1  0.250000  0.166137  0.178284  1
  Si  Si14  1  0.750000  0.334086  0.677005  1
  Si  Si15  1  0.250000  0.664828  0.322914  1
