# generated using pymatgen
data_RbSc(SbAu)2
_symmetry_space_group_name_H-M   'P 1'
_cell_length_a   4.55896200
_cell_length_b   4.55896258
_cell_length_c   19.27442900
_cell_angle_alpha   90.00000000
_cell_angle_beta   90.00000000
_cell_angle_gamma   120.00001030
_symmetry_Int_Tables_number   1
_chemical_formula_structural   RbSc(SbAu)2
_chemical_formula_sum   'Rb2 Sc2 Sb4 Au4'
_cell_volume   346.93179852
_cell_formula_units_Z   2
loop_
 _symmetry_equiv_pos_site_id
 _symmetry_equiv_pos_as_xyz
  1  'x, y, z'
loop_
 _atom_site_type_symbol
 _atom_site_label
 _atom_site_symmetry_multiplicity
 _atom_site_fract_x
 _atom_site_fract_y
 _atom_site_fract_z
 _atom_site_occupancy
  Rb  Rb0  1  0.000000  0.000000  0.500000  1
  Rb  Rb1  1  0.000000  0.000000  0.000000  1
  Sc  Sc2  1  0.000000  0.000000  0.250000  1
  Sc  Sc3  1  0.000000  0.000000  0.750000  1
  Sb  Sb4  1  0.333333  0.666667  0.361461  1
  Sb  Sb5  1  0.666667  0.333333  0.638539  1
  Sb  Sb6  1  0.666667  0.333333  0.861461  1
  Sb  Sb7  1  0.333333  0.666667  0.138539  1
  Au  Au8  1  0.666667  0.333333  0.327242  1
  Au  Au9  1  0.333333  0.666667  0.672758  1
  Au  Au10  1  0.333333  0.666667  0.827242  1
  Au  Au11  1  0.666667  0.333333  0.172758  1
