# generated using pymatgen
data_Ho2Tm10CdCo5
_symmetry_space_group_name_H-M   'P 1'
_cell_length_a   8.16009205
_cell_length_b   8.16009147
_cell_length_c   8.15984100
_cell_angle_alpha   110.95301510
_cell_angle_beta   110.55483994
_cell_angle_gamma   106.93672841
_symmetry_Int_Tables_number   1
_chemical_formula_structural   Ho2Tm10CdCo5
_chemical_formula_sum   'Ho2 Tm10 Cd1 Co5'
_cell_volume   417.64077171
_cell_formula_units_Z   1
loop_
 _symmetry_equiv_pos_site_id
 _symmetry_equiv_pos_as_xyz
  1  'x, y, z'
loop_
 _atom_site_type_symbol
 _atom_site_label
 _atom_site_symmetry_multiplicity
 _atom_site_fract_x
 _atom_site_fract_y
 _atom_site_fract_z
 _atom_site_occupancy
  Ho  Ho0  1  0.286987  0.184174  0.471162  1
  Ho  Ho1  1  0.713013  0.815826  0.528838  1
  Tm  Tm2  1  0.286952  0.815817  0.102769  1
  Tm  Tm3  1  0.713048  0.184183  0.897231  1
  Tm  Tm4  1  0.619283  0.314330  0.304896  1
  Tm  Tm5  1  0.380717  0.685670  0.695104  1
  Tm  Tm6  1  0.009434  0.314387  0.695104  1
  Tm  Tm7  1  0.990566  0.685613  0.304896  1
  Tm  Tm8  1  0.213185  0.406022  0.192766  1
  Tm  Tm9  1  0.786815  0.593978  0.807234  1
  Tm  Tm10  1  0.213257  0.020419  0.807234  1
  Tm  Tm11  1  0.786743  0.979581  0.192766  1
  Cd  Cd12  1  0.500000  0.500000  0.000000  1
  Co  Co13  1  0.999976  0.376172  0.376148  1
  Co  Co14  1  0.000024  0.623828  0.623852  1
  Co  Co15  1  0.386680  0.886680  0.500000  1
  Co  Co16  1  0.613320  0.113320  0.500000  1
  Co  Co17  1  0.000000  0.000000  0.000000  1
