# generated using pymatgen
data_Ac2Ga6NiRu3
_symmetry_space_group_name_H-M   'P 1'
_cell_length_a   6.42236136
_cell_length_b   6.42236100
_cell_length_c   5.71108193
_cell_angle_alpha   90.12025935
_cell_angle_beta   90.12027013
_cell_angle_gamma   103.94439547
_symmetry_Int_Tables_number   1
_chemical_formula_structural   Ac2Ga6NiRu3
_chemical_formula_sum   'Ac2 Ga6 Ni1 Ru3'
_cell_volume   228.62004605
_cell_formula_units_Z   1
loop_
 _symmetry_equiv_pos_site_id
 _symmetry_equiv_pos_as_xyz
  1  'x, y, z'
loop_
 _atom_site_type_symbol
 _atom_site_label
 _atom_site_symmetry_multiplicity
 _atom_site_fract_x
 _atom_site_fract_y
 _atom_site_fract_z
 _atom_site_occupancy
  Ac  Ac0  1  0.662042  0.662741  0.254404  1
  Ac  Ac1  1  0.337259  0.337958  0.745596  1
  Ga  Ga2  1  0.059965  0.062366  0.244195  1
  Ga  Ga3  1  0.937634  0.940035  0.755805  1
  Ga  Ga4  1  0.093921  0.469416  0.246863  1
  Ga  Ga5  1  0.530584  0.906079  0.753137  1
  Ga  Ga6  1  0.905950  0.526989  0.756402  1
  Ga  Ga7  1  0.473011  0.094050  0.243598  1
  Ni  Ni8  1  0.795936  0.204064  0.000000  1
  Ru  Ru9  1  0.202186  0.797814  0.500000  1
  Ru  Ru10  1  0.202913  0.797087  0.000000  1
  Ru  Ru11  1  0.798598  0.201402  0.500000  1
