# generated using pymatgen
data_Rb2LiCrH6
_symmetry_space_group_name_H-M   'P 1'
_cell_length_a   10.01103836
_cell_length_b   10.01103818
_cell_length_c   10.01103838
_cell_angle_alpha   34.29491297
_cell_angle_beta   34.29491685
_cell_angle_gamma   34.29491162
_symmetry_Int_Tables_number   1
_chemical_formula_structural   Rb2LiCrH6
_chemical_formula_sum   'Rb4 Li2 Cr2 H12'
_cell_volume   284.07127366
_cell_formula_units_Z   2
loop_
 _symmetry_equiv_pos_site_id
 _symmetry_equiv_pos_as_xyz
  1  'x, y, z'
loop_
 _atom_site_type_symbol
 _atom_site_label
 _atom_site_symmetry_multiplicity
 _atom_site_fract_x
 _atom_site_fract_y
 _atom_site_fract_z
 _atom_site_occupancy
  Rb  Rb0  1  0.127340  0.127340  0.127340  1
  Rb  Rb1  1  0.872660  0.872660  0.872660  1
  Rb  Rb2  1  0.284798  0.284798  0.284798  1
  Rb  Rb3  1  0.715202  0.715202  0.715202  1
  Li  Li4  1  0.407825  0.407825  0.407825  1
  Li  Li5  1  0.592175  0.592175  0.592175  1
  Cr  Cr6  1  0.000000  0.000000  0.000000  1
  Cr  Cr7  1  0.500000  0.500000  0.500000  1
  H  H8  1  0.179601  0.179601  0.746282  1
  H  H9  1  0.746282  0.179601  0.179601  1
  H  H10  1  0.179601  0.746282  0.179601  1
  H  H11  1  0.820399  0.253718  0.820399  1
  H  H12  1  0.820399  0.820399  0.253718  1
  H  H13  1  0.253718  0.820399  0.820399  1
  H  H14  1  0.404953  0.404953  0.804934  1
  H  H15  1  0.804934  0.404953  0.404953  1
  H  H16  1  0.195066  0.595047  0.595047  1
  H  H17  1  0.595047  0.595047  0.195066  1
  H  H18  1  0.595047  0.195066  0.595047  1
  H  H19  1  0.404953  0.804934  0.404953  1
