# generated using pymatgen
data_Er3Zn3Ge2Au
_symmetry_space_group_name_H-M   'P 1'
_cell_length_a   6.90792300
_cell_length_b   6.90792255
_cell_length_c   4.27984200
_cell_angle_alpha   90.00000000
_cell_angle_beta   90.00000000
_cell_angle_gamma   120.00000693
_symmetry_Int_Tables_number   1
_chemical_formula_structural   Er3Zn3Ge2Au
_chemical_formula_sum   'Er3 Zn3 Ge2 Au1'
_cell_volume   176.86963745
_cell_formula_units_Z   1
loop_
 _symmetry_equiv_pos_site_id
 _symmetry_equiv_pos_as_xyz
  1  'x, y, z'
loop_
 _atom_site_type_symbol
 _atom_site_label
 _atom_site_symmetry_multiplicity
 _atom_site_fract_x
 _atom_site_fract_y
 _atom_site_fract_z
 _atom_site_occupancy
  Er  Er0  1  0.420493  0.000000  0.000000  1
  Er  Er1  1  0.000000  0.420493  0.000000  1
  Er  Er2  1  0.579507  0.579507  0.000000  1
  Zn  Zn3  1  0.000000  0.758622  0.500000  1
  Zn  Zn4  1  0.758622  0.000000  0.500000  1
  Zn  Zn5  1  0.241378  0.241378  0.500000  1
  Ge  Ge6  1  0.666667  0.333333  0.500000  1
  Ge  Ge7  1  0.333333  0.666667  0.500000  1
  Au  Au8  1  0.000000  0.000000  0.000000  1
