# generated using pymatgen
data_Dy7Ho3Ru3Rh
_symmetry_space_group_name_H-M   'P 1'
_cell_length_a   6.34362934
_cell_length_b   7.28579654
_cell_length_c   8.48441570
_cell_angle_alpha   96.69157589
_cell_angle_beta   112.02023034
_cell_angle_gamma   90.11255421
_symmetry_Int_Tables_number   1
_chemical_formula_structural   Dy7Ho3Ru3Rh
_chemical_formula_sum   'Dy7 Ho3 Ru3 Rh1'
_cell_volume   360.60978012
_cell_formula_units_Z   1
loop_
 _symmetry_equiv_pos_site_id
 _symmetry_equiv_pos_as_xyz
  1  'x, y, z'
loop_
 _atom_site_type_symbol
 _atom_site_label
 _atom_site_symmetry_multiplicity
 _atom_site_fract_x
 _atom_site_fract_y
 _atom_site_fract_z
 _atom_site_occupancy
  Dy  Dy0  1  0.978654  0.917819  0.185433  1
  Dy  Dy1  1  0.791674  0.584830  0.811211  1
  Dy  Dy2  1  0.021552  0.084904  0.813749  1
  Dy  Dy3  1  0.209429  0.413788  0.185410  1
  Dy  Dy4  1  0.640536  0.816386  0.435894  1
  Dy  Dy5  1  0.209573  0.685651  0.567807  1
  Dy  Dy6  1  0.357593  0.185595  0.565500  1
  Ho  Ho7  1  0.793196  0.312913  0.435682  1
  Ho  Ho8  1  0.419474  0.750878  0.999630  1
  Ho  Ho9  1  0.578266  0.247824  0.998510  1
  Ru  Ru10  1  0.604146  0.923165  0.780176  1
  Ru  Ru11  1  0.175467  0.425084  0.778877  1
  Ru  Ru12  1  0.398187  0.075965  0.220608  1
  Rh  Rh13  1  0.822253  0.575196  0.221516  1
