# generated using pymatgen
data_Zr4Re5TcOs2
_symmetry_space_group_name_H-M   'P 1'
_cell_length_a   5.25013289
_cell_length_b   5.22846121
_cell_length_c   8.80225100
_cell_angle_alpha   90.00000000
_cell_angle_beta   90.00000000
_cell_angle_gamma   119.86354616
_symmetry_Int_Tables_number   1
_chemical_formula_structural   Zr4Re5TcOs2
_chemical_formula_sum   'Zr4 Re5 Tc1 Os2'
_cell_volume   209.53862061
_cell_formula_units_Z   1
loop_
 _symmetry_equiv_pos_site_id
 _symmetry_equiv_pos_as_xyz
  1  'x, y, z'
loop_
 _atom_site_type_symbol
 _atom_site_label
 _atom_site_symmetry_multiplicity
 _atom_site_fract_x
 _atom_site_fract_y
 _atom_site_fract_z
 _atom_site_occupancy
  Zr  Zr0  1  0.332932  0.666467  0.435430  1
  Zr  Zr1  1  0.667935  0.333967  0.564272  1
  Zr  Zr2  1  0.667935  0.333967  0.935728  1
  Zr  Zr3  1  0.332932  0.666467  0.064570  1
  Re  Re4  1  0.828460  0.170965  0.250000  1
  Re  Re5  1  0.828460  0.657495  0.250000  1
  Re  Re6  1  0.343201  0.171601  0.250000  1
  Re  Re7  1  0.170391  0.828071  0.750000  1
  Re  Re8  1  0.170391  0.342320  0.750000  1
  Tc  Tc9  1  0.652723  0.826361  0.750000  1
  Os  Os10  1  0.002320  0.001160  0.500820  1
  Os  Os11  1  0.002320  0.001160  0.999180  1
