# generated using pymatgen
data_KYbBe3F9
_symmetry_space_group_name_H-M   'P 1'
_cell_length_a   6.84403400
_cell_length_b   6.84403323
_cell_length_c   10.06115300
_cell_angle_alpha   90.00000000
_cell_angle_beta   90.00000000
_cell_angle_gamma   119.99999404
_symmetry_Int_Tables_number   1
_chemical_formula_structural   KYbBe3F9
_chemical_formula_sum   'K2 Yb2 Be6 F18'
_cell_volume   408.13390942
_cell_formula_units_Z   2
loop_
 _symmetry_equiv_pos_site_id
 _symmetry_equiv_pos_as_xyz
  1  'x, y, z'
loop_
 _atom_site_type_symbol
 _atom_site_label
 _atom_site_symmetry_multiplicity
 _atom_site_fract_x
 _atom_site_fract_y
 _atom_site_fract_z
 _atom_site_occupancy
  K  K0  1  0.666667  0.333333  0.000000  1
  K  K1  1  0.666667  0.333333  0.500000  1
  Yb  Yb2  1  0.333333  0.666667  0.000000  1
  Yb  Yb3  1  0.333333  0.666667  0.500000  1
  Be  Be4  1  0.223183  0.959188  0.250000  1
  Be  Be5  1  0.223183  0.263994  0.750000  1
  Be  Be6  1  0.736006  0.959188  0.750000  1
  Be  Be7  1  0.040812  0.776817  0.750000  1
  Be  Be8  1  0.040812  0.263994  0.250000  1
  Be  Be9  1  0.736006  0.776817  0.250000  1
  F  F10  1  0.058792  0.660218  0.622944  1
  F  F11  1  0.601426  0.941208  0.622944  1
  F  F12  1  0.339782  0.398574  0.622944  1
  F  F13  1  0.339782  0.941208  0.377056  1
  F  F14  1  0.231311  0.195219  0.250000  1
  F  F15  1  0.963907  0.768689  0.250000  1
  F  F16  1  0.804781  0.036093  0.250000  1
  F  F17  1  0.804781  0.768689  0.750000  1
  F  F18  1  0.963907  0.195219  0.750000  1
  F  F19  1  0.231311  0.036093  0.750000  1
  F  F20  1  0.339782  0.941208  0.122943  1
  F  F21  1  0.601426  0.660218  0.377056  1
  F  F22  1  0.058792  0.398574  0.377056  1
  F  F23  1  0.058792  0.398574  0.122943  1
  F  F24  1  0.601426  0.660218  0.122943  1
  F  F25  1  0.058792  0.660218  0.877056  1
  F  F26  1  0.601426  0.941208  0.877056  1
  F  F27  1  0.339782  0.398574  0.877056  1
