# generated using pymatgen
data_Cs2Gd10Ir2Cl17
_symmetry_space_group_name_H-M   'P 1'
_cell_length_a   9.12250173
_cell_length_b   10.67105512
_cell_length_c   10.67118100
_cell_angle_alpha   107.98548366
_cell_angle_beta   93.57737886
_cell_angle_gamma   93.57836191
_symmetry_Int_Tables_number   1
_chemical_formula_structural   Cs2Gd10Ir2Cl17
_chemical_formula_sum   'Cs2 Gd10 Ir2 Cl17'
_cell_volume   982.46059233
_cell_formula_units_Z   1
loop_
 _symmetry_equiv_pos_site_id
 _symmetry_equiv_pos_as_xyz
  1  'x, y, z'
loop_
 _atom_site_type_symbol
 _atom_site_label
 _atom_site_symmetry_multiplicity
 _atom_site_fract_x
 _atom_site_fract_y
 _atom_site_fract_z
 _atom_site_occupancy
  Cs  Cs0  1  0.999402  0.821594  0.179052  1
  Cs  Cs1  1  0.999112  0.179449  0.820511  1
  Gd  Gd2  1  0.432461  0.156536  0.157989  1
  Gd  Gd3  1  0.576270  0.515841  0.197054  1
  Gd  Gd4  1  0.838522  0.286152  0.287599  1
  Gd  Gd5  1  0.293980  0.429636  0.430933  1
  Gd  Gd6  1  0.424343  0.803800  0.483489  1
  Gd  Gd7  1  0.576145  0.195902  0.515915  1
  Gd  Gd8  1  0.706050  0.568522  0.569775  1
  Gd  Gd9  1  0.161726  0.713612  0.712588  1
  Gd  Gd10  1  0.423721  0.483519  0.802942  1
  Gd  Gd11  1  0.567463  0.843586  0.842699  1
  Ir  Ir12  1  0.569306  0.359849  0.359210  1
  Ir  Ir13  1  0.430240  0.641198  0.639158  1
  Cl  Cl14  1  0.577347  0.684600  0.018208  1
  Cl  Cl15  1  0.709148  0.067576  0.068006  1
  Cl  Cl16  1  0.852234  0.446152  0.122620  1
  Cl  Cl17  1  0.133526  0.207934  0.209316  1
  Cl  Cl18  1  0.292537  0.607308  0.258001  1
  Cl  Cl19  1  0.423109  0.982563  0.316395  1
  Cl  Cl20  1  0.707999  0.742705  0.392977  1
  Cl  Cl21  1  0.851673  0.122183  0.448468  1
  Cl  Cl22  1  0.999939  0.499228  0.500475  1
  Cl  Cl23  1  0.147250  0.879095  0.553338  1
  Cl  Cl24  1  0.292303  0.255857  0.605269  1
  Cl  Cl25  1  0.577820  0.021061  0.684692  1
  Cl  Cl26  1  0.708595  0.391485  0.741091  1
  Cl  Cl27  1  0.867016  0.792453  0.791570  1
  Cl  Cl28  1  0.146924  0.552549  0.876491  1
  Cl  Cl29  1  0.290607  0.933435  0.932747  1
  Cl  Cl30  1  0.423237  0.314621  0.981421  1
