# generated using pymatgen
data_Gd6LuCoI12
_symmetry_space_group_name_H-M   'P 1'
_cell_length_a   9.95203846
_cell_length_b   9.95203872
_cell_length_c   9.95203900
_cell_angle_alpha   106.96419785
_cell_angle_beta   106.96419830
_cell_angle_gamma   106.96420457
_symmetry_Int_Tables_number   1
_chemical_formula_structural   Gd6LuCoI12
_chemical_formula_sum   'Gd6 Lu1 Co1 I12'
_cell_volume   821.68450664
_cell_formula_units_Z   1
loop_
 _symmetry_equiv_pos_site_id
 _symmetry_equiv_pos_as_xyz
  1  'x, y, z'
loop_
 _atom_site_type_symbol
 _atom_site_label
 _atom_site_symmetry_multiplicity
 _atom_site_fract_x
 _atom_site_fract_y
 _atom_site_fract_z
 _atom_site_occupancy
  Gd  Gd0  1  0.288717  0.093052  0.021376  1
  Gd  Gd1  1  0.093052  0.021376  0.288717  1
  Gd  Gd2  1  0.021376  0.288717  0.093052  1
  Gd  Gd3  1  0.711283  0.906948  0.978624  1
  Gd  Gd4  1  0.906948  0.978624  0.711283  1
  Gd  Gd5  1  0.978624  0.711283  0.906948  1
  Lu  Lu6  1  0.500000  0.500000  0.500000  1
  Co  Co7  1  0.000000  0.000000  0.000000  1
  I  I8  1  0.221697  0.069929  0.678691  1
  I  I9  1  0.069929  0.678691  0.221697  1
  I  I10  1  0.678691  0.221697  0.069929  1
  I  I11  1  0.778303  0.930071  0.321309  1
  I  I12  1  0.930071  0.321309  0.778303  1
  I  I13  1  0.321309  0.778303  0.930071  1
  I  I14  1  0.388507  0.464230  0.171864  1
  I  I15  1  0.464230  0.171864  0.388507  1
  I  I16  1  0.171864  0.388507  0.464230  1
  I  I17  1  0.611493  0.535770  0.828136  1
  I  I18  1  0.535770  0.828136  0.611493  1
  I  I19  1  0.828136  0.611493  0.535770  1
