# generated using pymatgen
data_Ta3Nb7(B2As)2
_symmetry_space_group_name_H-M   'P 1'
_cell_length_a   7.35731938
_cell_length_b   7.35731954
_cell_length_c   7.35506721
_cell_angle_alpha   129.43713295
_cell_angle_beta   129.43713014
_cell_angle_gamma   74.31589395
_symmetry_Int_Tables_number   1
_chemical_formula_structural   Ta3Nb7(B2As)2
_chemical_formula_sum   'Ta3 Nb7 B4 As2'
_cell_volume   231.48211620
_cell_formula_units_Z   1
loop_
 _symmetry_equiv_pos_site_id
 _symmetry_equiv_pos_as_xyz
  1  'x, y, z'
loop_
 _atom_site_type_symbol
 _atom_site_label
 _atom_site_symmetry_multiplicity
 _atom_site_fract_x
 _atom_site_fract_y
 _atom_site_fract_z
 _atom_site_occupancy
  Ta  Ta0  1  0.000368  0.999657  0.000420  1
  Ta  Ta1  1  0.499657  0.500368  0.000420  1
  Ta  Ta2  1  0.803304  0.303304  0.831862  1
  Nb  Nb3  1  0.195925  0.695925  0.167008  1
  Nb  Nb4  1  0.471566  0.971566  0.167254  1
  Nb  Nb5  1  0.304221  0.470733  0.499706  1
  Nb  Nb6  1  0.028439  0.195815  0.500187  1
  Nb  Nb7  1  0.529248  0.029248  0.833726  1
  Nb  Nb8  1  0.695815  0.528439  0.500187  1
  Nb  Nb9  1  0.970733  0.804221  0.499706  1
  B  B10  1  0.116085  0.616085  0.732160  1
  B  B11  1  0.882788  0.382788  0.264563  1
  B  B12  1  0.617177  0.885109  0.501440  1
  B  B13  1  0.385109  0.117177  0.501440  1
  As  As14  1  0.249521  0.250044  0.999961  1
  As  As15  1  0.750044  0.749521  0.999961  1
