# generated using pymatgen
data_ErTm11ZnGaCo4
_symmetry_space_group_name_H-M   'P 1'
_cell_length_a   8.15649086
_cell_length_b   8.13818144
_cell_length_c   8.13818268
_cell_angle_alpha   111.90445686
_cell_angle_beta   109.93142618
_cell_angle_gamma   106.53719400
_symmetry_Int_Tables_number   1
_chemical_formula_structural   ErTm11ZnGaCo4
_chemical_formula_sum   'Er1 Tm11 Zn1 Ga1 Co4'
_cell_volume   415.36096358
_cell_formula_units_Z   1
loop_
 _symmetry_equiv_pos_site_id
 _symmetry_equiv_pos_as_xyz
  1  'x, y, z'
loop_
 _atom_site_type_symbol
 _atom_site_label
 _atom_site_symmetry_multiplicity
 _atom_site_fract_x
 _atom_site_fract_y
 _atom_site_fract_z
 _atom_site_occupancy
  Er  Er0  1  0.570331  0.264011  0.306320  1
  Tm  Tm1  1  0.180660  0.219639  0.399368  1
  Tm  Tm2  1  0.180660  0.781292  0.961022  1
  Tm  Tm3  1  0.672802  0.483096  0.810879  1
  Tm  Tm4  1  0.672802  0.861923  0.189706  1
  Tm  Tm5  1  0.958579  0.262105  0.696474  1
  Tm  Tm6  1  0.042331  0.738846  0.303485  1
  Tm  Tm7  1  0.325430  0.136017  0.810448  1
  Tm  Tm8  1  0.325430  0.514981  0.189411  1
  Tm  Tm9  1  0.818760  0.219647  0.038984  1
  Tm  Tm10  1  0.818760  0.779775  0.599113  1
  Tm  Tm11  1  0.435012  0.737919  0.697092  1
  Zn  Zn12  1  0.005088  0.503165  0.501924  1
  Ga  Ga13  1  0.500770  0.999842  0.500928  1
  Co  Co14  1  0.886728  0.882859  0.003871  1
  Co  Co15  1  0.337520  0.499623  0.837897  1
  Co  Co16  1  0.661438  0.500264  0.161175  1
  Co  Co17  1  0.106901  0.114998  0.991903  1
