# generated using pymatgen
data_Hf6PtRh9
_symmetry_space_group_name_H-M   'P 1'
_cell_length_a   5.61771091
_cell_length_b   11.01368096
_cell_length_c   4.30558100
_cell_angle_alpha   90.00000000
_cell_angle_beta   90.00000000
_cell_angle_gamma   90.68690935
_symmetry_Int_Tables_number   1
_chemical_formula_structural   Hf6PtRh9
_chemical_formula_sum   'Hf6 Pt1 Rh9'
_cell_volume   266.37436700
_cell_formula_units_Z   1
loop_
 _symmetry_equiv_pos_site_id
 _symmetry_equiv_pos_as_xyz
  1  'x, y, z'
loop_
 _atom_site_type_symbol
 _atom_site_label
 _atom_site_symmetry_multiplicity
 _atom_site_fract_x
 _atom_site_fract_y
 _atom_site_fract_z
 _atom_site_occupancy
  Hf  Hf0  1  0.006441  0.997133  0.000000  1
  Hf  Hf1  1  0.495457  0.500713  0.000000  1
  Hf  Hf2  1  0.350924  0.143478  0.500000  1
  Hf  Hf3  1  0.835793  0.357617  0.500000  1
  Hf  Hf4  1  0.155650  0.646649  0.500000  1
  Hf  Hf5  1  0.658966  0.853714  0.500000  1
  Pt  Pt6  1  0.094103  0.245645  0.000000  1
  Rh  Rh7  1  0.508153  0.997015  0.000000  1
  Rh  Rh8  1  0.594962  0.255967  0.000000  1
  Rh  Rh9  1  0.995896  0.502611  0.000000  1
  Rh  Rh10  1  0.399032  0.741113  0.000000  1
  Rh  Rh11  1  0.898712  0.758278  0.000000  1
  Rh  Rh12  1  0.823809  0.108315  0.500000  1
  Rh  Rh13  1  0.315194  0.391432  0.500000  1
  Rh  Rh14  1  0.680918  0.607385  0.500000  1
  Rh  Rh15  1  0.185993  0.892934  0.500000  1
