# generated using pymatgen
data_Ac7NdBe3Si12Pd
_symmetry_space_group_name_H-M   'P 1'
_cell_length_a   8.21583500
_cell_length_b   8.21583577
_cell_length_c   9.26747700
_cell_angle_alpha   90.00000000
_cell_angle_beta   90.00000000
_cell_angle_gamma   119.99999288
_symmetry_Int_Tables_number   1
_chemical_formula_structural   Ac7NdBe3Si12Pd
_chemical_formula_sum   'Ac7 Nd1 Be3 Si12 Pd1'
_cell_volume   541.74590563
_cell_formula_units_Z   1
loop_
 _symmetry_equiv_pos_site_id
 _symmetry_equiv_pos_as_xyz
  1  'x, y, z'
loop_
 _atom_site_type_symbol
 _atom_site_label
 _atom_site_symmetry_multiplicity
 _atom_site_fract_x
 _atom_site_fract_y
 _atom_site_fract_z
 _atom_site_occupancy
  Ac  Ac0  1  0.499577  0.500423  0.751024  1
  Ac  Ac1  1  0.499919  0.500081  0.249077  1
  Ac  Ac2  1  0.000846  0.500423  0.751024  1
  Ac  Ac3  1  0.000161  0.500081  0.249077  1
  Ac  Ac4  1  0.499577  0.999154  0.751024  1
  Ac  Ac5  1  0.499919  0.999839  0.249077  1
  Ac  Ac6  1  0.000000  0.000000  0.751420  1
  Nd  Nd7  1  0.000000  0.000000  0.250731  1
  Be  Be8  1  0.666667  0.333333  0.999745  1
  Be  Be9  1  0.333333  0.666667  0.001527  1
  Be  Be10  1  0.333333  0.666667  0.498594  1
  Si  Si11  1  0.829075  0.170925  0.002810  1
  Si  Si12  1  0.171283  0.828717  0.002248  1
  Si  Si13  1  0.341850  0.170925  0.002810  1
  Si  Si14  1  0.168384  0.831616  0.497016  1
  Si  Si15  1  0.657434  0.828717  0.002248  1
  Si  Si16  1  0.834316  0.165684  0.497302  1
  Si  Si17  1  0.829075  0.658150  0.002810  1
  Si  Si18  1  0.663231  0.831616  0.497016  1
  Si  Si19  1  0.171283  0.342566  0.002248  1
  Si  Si20  1  0.331368  0.165684  0.497302  1
  Si  Si21  1  0.168384  0.336769  0.497016  1
  Si  Si22  1  0.834316  0.668632  0.497302  1
  Pd  Pd23  1  0.666667  0.333333  0.499553  1
