# generated using pymatgen
data_Ti2Mn2(Pd3Au)3
_symmetry_space_group_name_H-M   'P 1'
_cell_length_a   6.90566063
_cell_length_b   6.90566019
_cell_length_c   6.88857663
_cell_angle_alpha   108.47029215
_cell_angle_beta   108.47029763
_cell_angle_gamma   111.58873481
_symmetry_Int_Tables_number   1
_chemical_formula_structural   Ti2Mn2(Pd3Au)3
_chemical_formula_sum   'Ti2 Mn2 Pd9 Au3'
_cell_volume   252.33192633
_cell_formula_units_Z   1
loop_
 _symmetry_equiv_pos_site_id
 _symmetry_equiv_pos_as_xyz
  1  'x, y, z'
loop_
 _atom_site_type_symbol
 _atom_site_label
 _atom_site_symmetry_multiplicity
 _atom_site_fract_x
 _atom_site_fract_y
 _atom_site_fract_z
 _atom_site_occupancy
  Ti  Ti0  1  0.244980  0.244980  0.489960  1
  Ti  Ti1  1  0.755020  0.755020  0.510040  1
  Mn  Mn2  1  0.246612  0.753388  0.000000  1
  Mn  Mn3  1  0.753388  0.246612  0.000000  1
  Pd  Pd4  1  0.498071  0.254152  0.253676  1
  Pd  Pd5  1  0.501929  0.745848  0.746324  1
  Pd  Pd6  1  0.000476  0.244394  0.746324  1
  Pd  Pd7  1  0.244394  0.000476  0.746324  1
  Pd  Pd8  1  0.999524  0.755606  0.253676  1
  Pd  Pd9  1  0.755606  0.999524  0.253676  1
  Pd  Pd10  1  0.254152  0.498071  0.253676  1
  Pd  Pd11  1  0.745848  0.501929  0.746324  1
  Pd  Pd12  1  0.000000  0.000000  0.000000  1
  Au  Au13  1  0.500000  0.000000  0.500000  1
  Au  Au14  1  0.000000  0.500000  0.500000  1
  Au  Au15  1  0.500000  0.500000  0.000000  1
