# generated using pymatgen
data_Sr4Sc2RuRhO12
_symmetry_space_group_name_H-M   'P 1'
_cell_length_a   5.69614105
_cell_length_b   5.70922600
_cell_length_c   9.86964705
_cell_angle_alpha   54.53944661
_cell_angle_beta   90.06384654
_cell_angle_gamma   90.01443347
_symmetry_Int_Tables_number   1
_chemical_formula_structural   Sr4Sc2RuRhO12
_chemical_formula_sum   'Sr4 Sc2 Ru1 Rh1 O12'
_cell_volume   261.43180652
_cell_formula_units_Z   1
loop_
 _symmetry_equiv_pos_site_id
 _symmetry_equiv_pos_as_xyz
  1  'x, y, z'
loop_
 _atom_site_type_symbol
 _atom_site_label
 _atom_site_symmetry_multiplicity
 _atom_site_fract_x
 _atom_site_fract_y
 _atom_site_fract_z
 _atom_site_occupancy
  Sr  Sr0  1  0.480737  0.756956  0.247109  1
  Sr  Sr1  1  0.519263  0.243044  0.752891  1
  Sr  Sr2  1  0.979481  0.249798  0.246142  1
  Sr  Sr3  1  0.020519  0.750202  0.753858  1
  Sc  Sc4  1  0.000000  0.000000  0.000000  1
  Sc  Sc5  1  0.500000  0.000000  0.500000  1
  Ru  Ru6  1  0.000000  0.500000  0.500000  1
  Rh  Rh7  1  0.500000  0.500000  0.000000  1
  O  O8  1  0.721436  0.202602  0.029266  1
  O  O9  1  0.278564  0.797398  0.970734  1
  O  O10  1  0.218027  0.793556  0.471228  1
  O  O11  1  0.781973  0.206444  0.528772  1
  O  O12  1  0.006613  0.686099  0.259134  1
  O  O13  1  0.993387  0.313901  0.740866  1
  O  O14  1  0.507034  0.310938  0.244783  1
  O  O15  1  0.492966  0.689062  0.755217  1
  O  O16  1  0.231228  0.250081  0.029524  1
  O  O17  1  0.768772  0.749919  0.970476  1
  O  O18  1  0.733883  0.745894  0.471012  1
  O  O19  1  0.266117  0.254106  0.528988  1
