# generated using pymatgen
data_Sm5Sn3Se
_symmetry_space_group_name_H-M   'P 1'
_cell_length_a   9.33023400
_cell_length_b   9.33023429
_cell_length_c   6.87201300
_cell_angle_alpha   90.00000000
_cell_angle_beta   90.00000000
_cell_angle_gamma   119.99999898
_symmetry_Int_Tables_number   1
_chemical_formula_structural   Sm5Sn3Se
_chemical_formula_sum   'Sm10 Sn6 Se2'
_cell_volume   518.08341972
_cell_formula_units_Z   2
loop_
 _symmetry_equiv_pos_site_id
 _symmetry_equiv_pos_as_xyz
  1  'x, y, z'
loop_
 _atom_site_type_symbol
 _atom_site_label
 _atom_site_symmetry_multiplicity
 _atom_site_fract_x
 _atom_site_fract_y
 _atom_site_fract_z
 _atom_site_occupancy
  Sm  Sm0  1  0.666667  0.333333  0.000000  1
  Sm  Sm1  1  0.333333  0.666667  0.000000  1
  Sm  Sm2  1  0.333333  0.666667  0.500000  1
  Sm  Sm3  1  0.666667  0.333333  0.500000  1
  Sm  Sm4  1  0.747723  0.747723  0.750000  1
  Sm  Sm5  1  0.252277  0.000000  0.750000  1
  Sm  Sm6  1  0.000000  0.252277  0.750000  1
  Sm  Sm7  1  0.252277  0.252277  0.250000  1
  Sm  Sm8  1  0.747723  0.000000  0.250000  1
  Sm  Sm9  1  0.000000  0.747723  0.250000  1
  Sn  Sn10  1  0.395101  0.395101  0.750000  1
  Sn  Sn11  1  0.604899  0.000000  0.750000  1
  Sn  Sn12  1  0.000000  0.604899  0.750000  1
  Sn  Sn13  1  0.604899  0.604899  0.250000  1
  Sn  Sn14  1  0.395101  0.000000  0.250000  1
  Sn  Sn15  1  0.000000  0.395101  0.250000  1
  Se  Se16  1  0.000000  0.000000  0.000000  1
  Se  Se17  1  0.000000  0.000000  0.500000  1
