# generated using pymatgen
data_Hf2Zr4Ti4Al12Ru5Rh2
_symmetry_space_group_name_H-M   'P 1'
_cell_length_a   8.78489178
_cell_length_b   8.76425058
_cell_length_c   8.77149400
_cell_angle_alpha   60.13392557
_cell_angle_beta   59.94946048
_cell_angle_gamma   59.92205469
_symmetry_Int_Tables_number   1
_chemical_formula_structural   Hf2Zr4Ti4Al12Ru5Rh2
_chemical_formula_sum   'Hf2 Zr4 Ti4 Al12 Ru5 Rh2'
_cell_volume   477.55578927
_cell_formula_units_Z   1
loop_
 _symmetry_equiv_pos_site_id
 _symmetry_equiv_pos_as_xyz
  1  'x, y, z'
loop_
 _atom_site_type_symbol
 _atom_site_label
 _atom_site_symmetry_multiplicity
 _atom_site_fract_x
 _atom_site_fract_y
 _atom_site_fract_z
 _atom_site_occupancy
  Hf  Hf0  1  0.699224  0.699361  0.305791  1
  Hf  Hf1  1  0.299346  0.696971  0.302879  1
  Zr  Zr2  1  0.694338  0.303695  0.304757  1
  Zr  Zr3  1  0.299453  0.299804  0.697174  1
  Zr  Zr4  1  0.699888  0.303866  0.696463  1
  Zr  Zr5  1  0.307218  0.695969  0.692438  1
  Ti  Ti6  1  0.880119  0.880738  0.359957  1
  Ti  Ti7  1  0.877921  0.359388  0.880104  1
  Ti  Ti8  1  0.358886  0.877910  0.879214  1
  Ti  Ti9  1  0.883133  0.881891  0.877610  1
  Al  Al10  1  0.119859  0.119187  0.641680  1
  Al  Al11  1  0.118933  0.643372  0.119646  1
  Al  Al12  1  0.642989  0.118995  0.120177  1
  Al  Al13  1  0.118074  0.118056  0.120004  1
  Al  Al14  1  0.663643  0.665278  0.009660  1
  Al  Al15  1  0.663868  0.007177  0.665277  1
  Al  Al16  1  0.007089  0.663525  0.664825  1
  Al  Al17  1  0.665287  0.664573  0.665206  1
  Al  Al18  1  0.334444  0.334613  0.995665  1
  Al  Al19  1  0.334900  0.996948  0.332812  1
  Al  Al20  1  0.997313  0.334536  0.333368  1
  Al  Al21  1  0.333507  0.333755  0.333773  1
  Ru  Ru22  1  0.999889  0.000552  0.999463  1
  Ru  Ru23  1  0.000153  0.997259  0.501485  1
  Ru  Ru24  1  0.501931  0.997015  0.500737  1
  Ru  Ru25  1  0.998251  0.502608  0.500088  1
  Ru  Ru26  1  0.500924  0.502698  0.999913  1
  Rh  Rh27  1  0.997906  0.502572  0.999511  1
  Rh  Rh28  1  0.501509  0.997684  0.000319  1
