# generated using pymatgen
data_NdPa5(Ni3Sb4)2
_symmetry_space_group_name_H-M   'P 1'
_cell_length_a   8.17326741
_cell_length_b   8.17326680
_cell_length_c   8.17326671
_cell_angle_alpha   109.46100270
_cell_angle_beta   109.49165624
_cell_angle_gamma   109.46100269
_symmetry_Int_Tables_number   1
_chemical_formula_structural   NdPa5(Ni3Sb4)2
_chemical_formula_sum   'Nd1 Pa5 Ni6 Sb8'
_cell_volume   420.30555927
_cell_formula_units_Z   1
loop_
 _symmetry_equiv_pos_site_id
 _symmetry_equiv_pos_as_xyz
  1  'x, y, z'
loop_
 _atom_site_type_symbol
 _atom_site_label
 _atom_site_symmetry_multiplicity
 _atom_site_fract_x
 _atom_site_fract_y
 _atom_site_fract_z
 _atom_site_occupancy
  Nd  Nd0  1  0.875000  0.250000  0.125000  1
  Pa  Pa1  1  0.625000  0.750000  0.375000  1
  Pa  Pa2  1  0.249418  0.123953  0.877592  1
  Pa  Pa3  1  0.753639  0.376047  0.625464  1
  Pa  Pa4  1  0.122408  0.871825  0.246361  1
  Pa  Pa5  1  0.374536  0.628175  0.750582  1
  Ni  Ni6  1  0.375000  0.250000  0.625000  1
  Ni  Ni7  1  0.125000  0.750000  0.875000  1
  Ni  Ni8  1  0.263868  0.634959  0.382442  1
  Ni  Ni9  1  0.747483  0.865041  0.128910  1
  Ni  Ni10  1  0.617558  0.381426  0.252517  1
  Ni  Ni11  1  0.871090  0.118574  0.736132  1
  Sb  Sb12  1  0.662698  0.498014  0.997118  1
  Sb  Sb13  1  0.499105  0.001986  0.664685  1
  Sb  Sb14  1  0.999187  0.666628  0.498376  1
  Sb  Sb15  1  0.831748  0.833372  0.832559  1
  Sb  Sb16  1  0.501624  0.000811  0.168252  1
  Sb  Sb17  1  0.167441  0.499189  0.000813  1
  Sb  Sb18  1  0.002882  0.165580  0.500895  1
  Sb  Sb19  1  0.335315  0.334420  0.337302  1
