# generated using pymatgen
data_PrNd11(CCl3)4
_symmetry_space_group_name_H-M   'P 1'
_cell_length_a   9.66404466
_cell_length_b   9.66226741
_cell_length_c   9.66404525
_cell_angle_alpha   109.46216893
_cell_angle_beta   109.49723222
_cell_angle_gamma   109.46215539
_symmetry_Int_Tables_number   1
_chemical_formula_structural   PrNd11(CCl3)4
_chemical_formula_sum   'Pr1 Nd11 C4 Cl12'
_cell_volume   694.59664861
_cell_formula_units_Z   1
loop_
 _symmetry_equiv_pos_site_id
 _symmetry_equiv_pos_as_xyz
  1  'x, y, z'
loop_
 _atom_site_type_symbol
 _atom_site_label
 _atom_site_symmetry_multiplicity
 _atom_site_fract_x
 _atom_site_fract_y
 _atom_site_fract_z
 _atom_site_occupancy
  Pr  Pr0  1  0.266399  0.750000  0.233601  1
  Nd  Nd1  1  0.482803  0.750000  0.017197  1
  Nd  Nd2  1  0.750086  0.232722  0.267238  1
  Nd  Nd3  1  0.232762  0.267278  0.749914  1
  Nd  Nd4  1  0.465383  0.482657  0.232607  1
  Nd  Nd5  1  0.267393  0.017343  0.034617  1
  Nd  Nd6  1  0.232733  0.465259  0.482554  1
  Nd  Nd7  1  0.017446  0.034741  0.267267  1
  Nd  Nd8  1  0.017401  0.482686  0.750036  1
  Nd  Nd9  1  0.482740  0.232794  0.465328  1
  Nd  Nd10  1  0.749964  0.017314  0.482599  1
  Nd  Nd11  1  0.034672  0.267206  0.017260  1
  C  C12  1  0.249972  0.250000  0.250028  1
  C  C13  1  0.000055  0.250000  0.499945  1
  C  C14  1  0.249952  0.498818  0.998806  1
  C  C15  1  0.501194  0.001182  0.250048  1
  Cl  Cl16  1  0.993611  0.987185  0.743557  1
  Cl  Cl17  1  0.756518  0.743624  0.250001  1
  Cl  Cl18  1  0.985633  0.743615  0.992017  1
  Cl  Cl19  1  0.250052  0.994808  0.507668  1
  Cl  Cl20  1  0.743612  0.993606  0.987173  1
  Cl  Cl21  1  0.506415  0.250000  0.993585  1
  Cl  Cl22  1  0.743622  0.250000  0.756378  1
  Cl  Cl23  1  0.507983  0.756385  0.514367  1
  Cl  Cl24  1  0.756443  0.512815  0.506389  1
  Cl  Cl25  1  0.249999  0.756376  0.743482  1
  Cl  Cl26  1  0.512827  0.506394  0.756388  1
  Cl  Cl27  1  0.992332  0.505192  0.249948  1
