# generated using pymatgen
data_Li2Np(TaN2)3
_symmetry_space_group_name_H-M   'P 1'
_cell_length_a   5.28303600
_cell_length_b   5.28303567
_cell_length_c   10.71330600
_cell_angle_alpha   90.00000000
_cell_angle_beta   90.00000000
_cell_angle_gamma   120.00000209
_symmetry_Int_Tables_number   1
_chemical_formula_structural   Li2Np(TaN2)3
_chemical_formula_sum   'Li4 Np2 Ta6 N12'
_cell_volume   258.95317785
_cell_formula_units_Z   2
loop_
 _symmetry_equiv_pos_site_id
 _symmetry_equiv_pos_as_xyz
  1  'x, y, z'
loop_
 _atom_site_type_symbol
 _atom_site_label
 _atom_site_symmetry_multiplicity
 _atom_site_fract_x
 _atom_site_fract_y
 _atom_site_fract_z
 _atom_site_occupancy
  Li  Li0  1  0.333333  0.666667  0.000000  1
  Li  Li1  1  0.333333  0.666667  0.500000  1
  Li  Li2  1  0.666667  0.333333  0.500000  1
  Li  Li3  1  0.666667  0.333333  0.000000  1
  Np  Np4  1  0.000000  0.000000  0.500000  1
  Np  Np5  1  0.000000  0.000000  0.000000  1
  Ta  Ta6  1  0.000000  0.346880  0.250000  1
  Ta  Ta7  1  0.653120  0.000000  0.750000  1
  Ta  Ta8  1  0.346880  0.346880  0.750000  1
  Ta  Ta9  1  0.653120  0.653120  0.250000  1
  Ta  Ta10  1  0.346880  0.000000  0.250000  1
  Ta  Ta11  1  0.000000  0.653120  0.750000  1
  N  N12  1  0.675763  0.675763  0.628028  1
  N  N13  1  0.675763  0.675763  0.871972  1
  N  N14  1  0.324237  0.324237  0.128028  1
  N  N15  1  0.324237  0.324237  0.371972  1
  N  N16  1  0.324237  0.000000  0.871972  1
  N  N17  1  0.324237  0.000000  0.628028  1
  N  N18  1  0.000000  0.675763  0.371972  1
  N  N19  1  0.000000  0.675763  0.128028  1
  N  N20  1  0.675763  0.000000  0.128028  1
  N  N21  1  0.675763  0.000000  0.371972  1
  N  N22  1  0.000000  0.324237  0.871972  1
  N  N23  1  0.000000  0.324237  0.628028  1
