# generated using pymatgen
data_Li3ZnGa6
_symmetry_space_group_name_H-M   'P 1'
_cell_length_a   7.49218629
_cell_length_b   7.51419416
_cell_length_c   7.49218532
_cell_angle_alpha   69.31428885
_cell_angle_beta   69.15741305
_cell_angle_gamma   69.31429873
_symmetry_Int_Tables_number   1
_chemical_formula_structural   Li3ZnGa6
_chemical_formula_sum   'Li6 Zn2 Ga12'
_cell_volume   356.06925329
_cell_formula_units_Z   2
loop_
 _symmetry_equiv_pos_site_id
 _symmetry_equiv_pos_as_xyz
  1  'x, y, z'
loop_
 _atom_site_type_symbol
 _atom_site_label
 _atom_site_symmetry_multiplicity
 _atom_site_fract_x
 _atom_site_fract_y
 _atom_site_fract_z
 _atom_site_occupancy
  Li  Li0  1  0.882549  0.467362  0.882549  1
  Li  Li1  1  0.471178  0.884419  0.877108  1
  Li  Li2  1  0.531286  0.119921  0.117688  1
  Li  Li3  1  0.877108  0.884419  0.471178  1
  Li  Li4  1  0.117688  0.119921  0.531286  1
  Li  Li5  1  0.117995  0.530379  0.117995  1
  Zn  Zn6  1  0.491290  0.174110  0.491290  1
  Zn  Zn7  1  0.701752  0.183648  0.701752  1
  Ga  Ga8  1  0.303824  0.291461  0.810659  1
  Ga  Ga9  1  0.508895  0.833002  0.508895  1
  Ga  Ga10  1  0.706880  0.702395  0.185189  1
  Ga  Ga11  1  0.824395  0.506767  0.512047  1
  Ga  Ga12  1  0.296641  0.814772  0.296641  1
  Ga  Ga13  1  0.078169  0.082009  0.078169  1
  Ga  Ga14  1  0.512047  0.506767  0.824395  1
  Ga  Ga15  1  0.810659  0.291461  0.303824  1
  Ga  Ga16  1  0.174840  0.487460  0.491742  1
  Ga  Ga17  1  0.185189  0.702395  0.706880  1
  Ga  Ga18  1  0.491742  0.487460  0.174840  1
  Ga  Ga19  1  0.915870  0.929872  0.915870  1
