# generated using pymatgen
data_Ca5La(SbO6)2
_symmetry_space_group_name_H-M   'P 1'
_cell_length_a   6.71053262
_cell_length_b   6.68439604
_cell_length_c   6.75071657
_cell_angle_alpha   91.51181005
_cell_angle_beta   91.40581484
_cell_angle_gamma   91.36786816
_symmetry_Int_Tables_number   1
_chemical_formula_structural   Ca5La(SbO6)2
_chemical_formula_sum   'Ca5 La1 Sb2 O12'
_cell_volume   302.52157090
_cell_formula_units_Z   1
loop_
 _symmetry_equiv_pos_site_id
 _symmetry_equiv_pos_as_xyz
  1  'x, y, z'
loop_
 _atom_site_type_symbol
 _atom_site_label
 _atom_site_symmetry_multiplicity
 _atom_site_fract_x
 _atom_site_fract_y
 _atom_site_fract_z
 _atom_site_occupancy
  Ca  Ca0  1  0.746090  0.938843  0.441307  1
  Ca  Ca1  1  0.553601  0.251863  0.066349  1
  Ca  Ca2  1  0.256330  0.057541  0.555443  1
  Ca  Ca3  1  0.065241  0.562163  0.252064  1
  Ca  Ca4  1  0.443776  0.748735  0.937530  1
  La  La5  1  0.939007  0.442708  0.747294  1
  Sb  Sb6  1  0.001122  0.000289  0.004811  1
  Sb  Sb7  1  0.497676  0.501061  0.494974  1
  O  O8  1  0.284393  0.069076  0.934668  1
  O  O9  1  0.064951  0.932790  0.288587  1
  O  O10  1  0.926867  0.289469  0.068297  1
  O  O11  1  0.715651  0.931482  0.067256  1
  O  O12  1  0.936524  0.064750  0.716215  1
  O  O13  1  0.073954  0.711540  0.937592  1
  O  O14  1  0.210197  0.414496  0.535850  1
  O  O15  1  0.419062  0.545248  0.210872  1
  O  O16  1  0.454732  0.785512  0.581824  1
  O  O17  1  0.577096  0.453764  0.783876  1
  O  O18  1  0.787755  0.584850  0.456124  1
  O  O19  1  0.545975  0.213819  0.419069  1
