# generated using pymatgen
data_Tb3Y4RhI12
_symmetry_space_group_name_H-M   'P 1'
_cell_length_a   9.81745390
_cell_length_b   9.81745356
_cell_length_c   9.81745342
_cell_angle_alpha   106.90291047
_cell_angle_beta   106.90290589
_cell_angle_gamma   106.90290987
_symmetry_Int_Tables_number   1
_chemical_formula_structural   Tb3Y4RhI12
_chemical_formula_sum   'Tb3 Y4 Rh1 I12'
_cell_volume   790.10698689
_cell_formula_units_Z   1
loop_
 _symmetry_equiv_pos_site_id
 _symmetry_equiv_pos_as_xyz
  1  'x, y, z'
loop_
 _atom_site_type_symbol
 _atom_site_label
 _atom_site_symmetry_multiplicity
 _atom_site_fract_x
 _atom_site_fract_y
 _atom_site_fract_z
 _atom_site_occupancy
  Tb  Tb0  1  0.094845  0.022707  0.296143  1
  Tb  Tb1  1  0.022707  0.296143  0.094845  1
  Tb  Tb2  1  0.296143  0.094845  0.022707  1
  Y  Y3  1  0.499922  0.499922  0.499922  1
  Y  Y4  1  0.904945  0.976809  0.703489  1
  Y  Y5  1  0.976809  0.703489  0.904945  1
  Y  Y6  1  0.703489  0.904945  0.976809  1
  Rh  Rh7  1  0.000301  0.000301  0.000301  1
  I  I8  1  0.536530  0.837710  0.613363  1
  I  I9  1  0.837710  0.613363  0.536530  1
  I  I10  1  0.613363  0.536530  0.837710  1
  I  I11  1  0.464182  0.162853  0.387127  1
  I  I12  1  0.162853  0.387127  0.464182  1
  I  I13  1  0.387127  0.464182  0.162853  1
  I  I14  1  0.675916  0.223813  0.070347  1
  I  I15  1  0.223813  0.070347  0.675916  1
  I  I16  1  0.070347  0.675916  0.223813  1
  I  I17  1  0.324386  0.775341  0.929271  1
  I  I18  1  0.775341  0.929271  0.324386  1
  I  I19  1  0.929271  0.324386  0.775341  1
