# generated using pymatgen
data_TbHo(SbO3)6
_symmetry_space_group_name_H-M   'P 1'
_cell_length_a   7.50037600
_cell_length_b   5.37877421
_cell_length_c   8.18484734
_cell_angle_alpha   86.13517569
_cell_angle_beta   90.00000000
_cell_angle_gamma   90.00000000
_symmetry_Int_Tables_number   1
_chemical_formula_structural   TbHo(SbO3)6
_chemical_formula_sum   'Tb1 Ho1 Sb6 O18'
_cell_volume   329.44897150
_cell_formula_units_Z   1
loop_
 _symmetry_equiv_pos_site_id
 _symmetry_equiv_pos_as_xyz
  1  'x, y, z'
loop_
 _atom_site_type_symbol
 _atom_site_label
 _atom_site_symmetry_multiplicity
 _atom_site_fract_x
 _atom_site_fract_y
 _atom_site_fract_z
 _atom_site_occupancy
  Tb  Tb0  1  0.250000  0.966582  0.435033  1
  Ho  Ho1  1  0.750000  0.035029  0.565552  1
  Sb  Sb2  1  0.999895  0.000383  0.999711  1
  Sb  Sb3  1  0.500105  0.000383  0.999711  1
  Sb  Sb4  1  0.495575  0.530055  0.697549  1
  Sb  Sb5  1  0.004425  0.530055  0.697549  1
  Sb  Sb6  1  0.994527  0.470080  0.302459  1
  Sb  Sb7  1  0.505473  0.470080  0.302459  1
  O  O8  1  0.250000  0.881043  0.984634  1
  O  O9  1  0.937189  0.857741  0.777934  1
  O  O10  1  0.562811  0.857741  0.777934  1
  O  O11  1  0.958074  0.738429  0.472431  1
  O  O12  1  0.541926  0.738429  0.472431  1
  O  O13  1  0.250000  0.663738  0.655162  1
  O  O14  1  0.931768  0.675726  0.112288  1
  O  O15  1  0.568232  0.675726  0.112288  1
  O  O16  1  0.250000  0.592838  0.310272  1
  O  O17  1  0.750000  0.403359  0.690847  1
  O  O18  1  0.068281  0.324791  0.887625  1
  O  O19  1  0.431719  0.324791  0.887625  1
  O  O20  1  0.750000  0.333368  0.345535  1
  O  O21  1  0.039277  0.261815  0.527954  1
  O  O22  1  0.460723  0.261815  0.527954  1
  O  O23  1  0.061929  0.143409  0.220891  1
  O  O24  1  0.438071  0.143409  0.220891  1
  O  O25  1  0.750000  0.119186  0.015284  1
