# generated using pymatgen
data_Tm2Al3Ag4
_symmetry_space_group_name_H-M   'P 1'
_cell_length_a   5.39558906
_cell_length_b   5.39559013
_cell_length_c   13.67628800
_cell_angle_alpha   90.00000000
_cell_angle_beta   90.00000000
_cell_angle_gamma   120.20233498
_symmetry_Int_Tables_number   1
_chemical_formula_structural   Tm2Al3Ag4
_chemical_formula_sum   'Tm4 Al6 Ag8'
_cell_volume   344.10232273
_cell_formula_units_Z   2
loop_
 _symmetry_equiv_pos_site_id
 _symmetry_equiv_pos_as_xyz
  1  'x, y, z'
loop_
 _atom_site_type_symbol
 _atom_site_label
 _atom_site_symmetry_multiplicity
 _atom_site_fract_x
 _atom_site_fract_y
 _atom_site_fract_z
 _atom_site_occupancy
  Tm  Tm0  1  0.821206  0.821206  0.120173  1
  Tm  Tm1  1  0.178794  0.178794  0.879827  1
  Tm  Tm2  1  0.821206  0.821206  0.379827  1
  Tm  Tm3  1  0.178794  0.178794  0.620173  1
  Al  Al4  1  0.176385  0.678257  0.750000  1
  Al  Al5  1  0.678257  0.176385  0.750000  1
  Al  Al6  1  0.678313  0.678313  0.750000  1
  Al  Al7  1  0.321743  0.823615  0.250000  1
  Al  Al8  1  0.823615  0.321743  0.250000  1
  Al  Al9  1  0.321687  0.321687  0.250000  1
  Ag  Ag10  1  0.158710  0.482520  0.079808  1
  Ag  Ag11  1  0.517480  0.841290  0.920192  1
  Ag  Ag12  1  0.482520  0.158710  0.079808  1
  Ag  Ag13  1  0.841290  0.517480  0.579808  1
  Ag  Ag14  1  0.482520  0.158710  0.420192  1
  Ag  Ag15  1  0.841290  0.517480  0.920192  1
  Ag  Ag16  1  0.517480  0.841290  0.579808  1
  Ag  Ag17  1  0.158710  0.482520  0.420192  1
