# generated using pymatgen
data_Hf18Cr2Re6POs
_symmetry_space_group_name_H-M   'P 1'
_cell_length_a   8.55867602
_cell_length_b   8.55807783
_cell_length_c   8.49085600
_cell_angle_alpha   90.00000000
_cell_angle_beta   90.00000000
_cell_angle_gamma   119.99457477
_symmetry_Int_Tables_number   1
_chemical_formula_structural   Hf18Cr2Re6POs
_chemical_formula_sum   'Hf18 Cr2 Re6 P1 Os1'
_cell_volume   538.62767684
_cell_formula_units_Z   1
loop_
 _symmetry_equiv_pos_site_id
 _symmetry_equiv_pos_as_xyz
  1  'x, y, z'
loop_
 _atom_site_type_symbol
 _atom_site_label
 _atom_site_symmetry_multiplicity
 _atom_site_fract_x
 _atom_site_fract_y
 _atom_site_fract_z
 _atom_site_occupancy
  Hf  Hf0  1  0.195776  0.804291  0.447599  1
  Hf  Hf1  1  0.195757  0.391460  0.447611  1
  Hf  Hf2  1  0.608519  0.804261  0.447591  1
  Hf  Hf3  1  0.806246  0.193761  0.549563  1
  Hf  Hf4  1  0.806245  0.612480  0.549548  1
  Hf  Hf5  1  0.387491  0.193750  0.549564  1
  Hf  Hf6  1  0.806246  0.193761  0.950437  1
  Hf  Hf7  1  0.806245  0.612480  0.950452  1
  Hf  Hf8  1  0.387491  0.193750  0.950436  1
  Hf  Hf9  1  0.195776  0.804291  0.052401  1
  Hf  Hf10  1  0.195757  0.391460  0.052389  1
  Hf  Hf11  1  0.608519  0.804261  0.052409  1
  Hf  Hf12  1  0.541129  0.458856  0.250000  1
  Hf  Hf13  1  0.541168  0.082308  0.250000  1
  Hf  Hf14  1  0.917768  0.458864  0.250000  1
  Hf  Hf15  1  0.459593  0.540418  0.750000  1
  Hf  Hf16  1  0.459617  0.919200  0.750000  1
  Hf  Hf17  1  0.080889  0.540422  0.750000  1
  Cr  Cr18  1  0.999887  0.999951  0.498238  1
  Cr  Cr19  1  0.999887  0.999951  0.001762  1
  Re  Re20  1  0.891414  0.108591  0.250000  1
  Re  Re21  1  0.891424  0.782846  0.250000  1
  Re  Re22  1  0.217174  0.108590  0.250000  1
  Re  Re23  1  0.107305  0.892702  0.750000  1
  Re  Re24  1  0.107296  0.214592  0.750000  1
  Re  Re25  1  0.785352  0.892681  0.750000  1
  P  P26  1  0.666713  0.333371  0.750000  1
  Os  Os27  1  0.333314  0.666649  0.250000  1
