# generated using pymatgen
data_HoEr4OsRu
_symmetry_space_group_name_H-M   'P 1'
_cell_length_a   6.29950858
_cell_length_b   7.28976269
_cell_length_c   8.38099209
_cell_angle_alpha   96.91860255
_cell_angle_beta   112.07506984
_cell_angle_gamma   90.00000193
_symmetry_Int_Tables_number   1
_chemical_formula_structural   HoEr4OsRu
_chemical_formula_sum   'Ho2 Er8 Os2 Ru2'
_cell_volume   353.63117144
_cell_formula_units_Z   2
loop_
 _symmetry_equiv_pos_site_id
 _symmetry_equiv_pos_as_xyz
  1  'x, y, z'
loop_
 _atom_site_type_symbol
 _atom_site_label
 _atom_site_symmetry_multiplicity
 _atom_site_fract_x
 _atom_site_fract_y
 _atom_site_fract_z
 _atom_site_occupancy
  Ho  Ho0  1  0.792553  0.583819  0.815096  1
  Ho  Ho1  1  0.977455  0.916181  0.184904  1
  Er  Er2  1  0.208392  0.415210  0.185983  1
  Er  Er3  1  0.022409  0.084790  0.814017  1
  Er  Er4  1  0.204633  0.683889  0.564712  1
  Er  Er5  1  0.639921  0.816111  0.435288  1
  Er  Er6  1  0.794554  0.315630  0.434588  1
  Er  Er7  1  0.359966  0.184370  0.565412  1
  Er  Er8  1  0.421357  0.750000  0.000000  1
  Er  Er9  1  0.580010  0.250000  0.000000  1
  Os  Os10  1  0.601760  0.923935  0.779595  1
  Os  Os11  1  0.822164  0.576065  0.220405  1
  Ru  Ru12  1  0.397695  0.076986  0.220567  1
  Ru  Ru13  1  0.177129  0.423014  0.779433  1
