# generated using pymatgen
data_Y3Pa(CoB4)4
_symmetry_space_group_name_H-M   'P 1'
_cell_length_a   3.39395500
_cell_length_b   5.90578965
_cell_length_c   11.45331147
_cell_angle_alpha   89.98946725
_cell_angle_beta   90.00000000
_cell_angle_gamma   90.00000000
_symmetry_Int_Tables_number   1
_chemical_formula_structural   Y3Pa(CoB4)4
_chemical_formula_sum   'Y3 Pa1 Co4 B16'
_cell_volume   229.56999168
_cell_formula_units_Z   1
loop_
 _symmetry_equiv_pos_site_id
 _symmetry_equiv_pos_as_xyz
  1  'x, y, z'
loop_
 _atom_site_type_symbol
 _atom_site_label
 _atom_site_symmetry_multiplicity
 _atom_site_fract_x
 _atom_site_fract_y
 _atom_site_fract_z
 _atom_site_occupancy
  Y  Y0  1  0.500000  0.627318  0.848845  1
  Y  Y1  1  0.500000  0.128242  0.649965  1
  Y  Y2  1  0.500000  0.872248  0.351697  1
  Pa  Pa3  1  0.500000  0.373064  0.150170  1
  Co  Co4  1  0.500000  0.364800  0.409071  1
  Co  Co5  1  0.500000  0.634805  0.588603  1
  Co  Co6  1  0.500000  0.133952  0.911560  1
  Co  Co7  1  0.500000  0.864922  0.090584  1
  B  B8  1  0.000000  0.110839  0.045517  1
  B  B9  1  0.000000  0.888241  0.953320  1
  B  B10  1  0.000000  0.389107  0.546049  1
  B  B11  1  0.000000  0.612093  0.455032  1
  B  B12  1  0.000000  0.139317  0.467783  1
  B  B13  1  0.000000  0.861376  0.532899  1
  B  B14  1  0.000000  0.360389  0.964863  1
  B  B15  1  0.000000  0.638445  0.033114  1
  B  B16  1  0.000000  0.021235  0.190586  1
  B  B17  1  0.000000  0.976809  0.809422  1
  B  B18  1  0.000000  0.477185  0.689996  1
  B  B19  1  0.000000  0.522790  0.310769  1
  B  B20  1  0.000000  0.217922  0.315898  1
  B  B21  1  0.000000  0.782672  0.684546  1
  B  B22  1  0.000000  0.283740  0.815052  1
  B  B23  1  0.000000  0.718487  0.184660  1
