# generated using pymatgen
data_Tm4Ga4Co3Ir
_symmetry_space_group_name_H-M   'P 1'
_cell_length_a   4.18182100
_cell_length_b   6.65959056
_cell_length_c   7.58086858
_cell_angle_alpha   89.90423595
_cell_angle_beta   90.00000000
_cell_angle_gamma   90.00000000
_symmetry_Int_Tables_number   1
_chemical_formula_structural   Tm4Ga4Co3Ir
_chemical_formula_sum   'Tm4 Ga4 Co3 Ir1'
_cell_volume   211.12094917
_cell_formula_units_Z   1
loop_
 _symmetry_equiv_pos_site_id
 _symmetry_equiv_pos_as_xyz
  1  'x, y, z'
loop_
 _atom_site_type_symbol
 _atom_site_label
 _atom_site_symmetry_multiplicity
 _atom_site_fract_x
 _atom_site_fract_y
 _atom_site_fract_z
 _atom_site_occupancy
  Tm  Tm0  1  0.250000  0.975557  0.309831  1
  Tm  Tm1  1  0.250000  0.477385  0.185406  1
  Tm  Tm2  1  0.750000  0.019919  0.689877  1
  Tm  Tm3  1  0.750000  0.524947  0.813394  1
  Ga  Ga4  1  0.250000  0.347291  0.580488  1
  Ga  Ga5  1  0.250000  0.837975  0.931423  1
  Ga  Ga6  1  0.750000  0.667981  0.431849  1
  Ga  Ga7  1  0.750000  0.155513  0.059875  1
  Co  Co8  1  0.250000  0.222724  0.889394  1
  Co  Co9  1  0.250000  0.728981  0.611938  1
  Co  Co10  1  0.750000  0.771513  0.108379  1
  Ir  Ir11  1  0.750000  0.270214  0.388146  1
