# generated using pymatgen
data_Sr2SnPd2Pb
_symmetry_space_group_name_H-M   'P 1'
_cell_length_a   4.79838200
_cell_length_b   7.78651544
_cell_length_c   8.36891482
_cell_angle_alpha   90.49617107
_cell_angle_beta   90.00000000
_cell_angle_gamma   90.00000000
_symmetry_Int_Tables_number   1
_chemical_formula_structural   Sr2SnPd2Pb
_chemical_formula_sum   'Sr4 Sn2 Pd4 Pb2'
_cell_volume   312.67332458
_cell_formula_units_Z   2
loop_
 _symmetry_equiv_pos_site_id
 _symmetry_equiv_pos_as_xyz
  1  'x, y, z'
loop_
 _atom_site_type_symbol
 _atom_site_label
 _atom_site_symmetry_multiplicity
 _atom_site_fract_x
 _atom_site_fract_y
 _atom_site_fract_z
 _atom_site_occupancy
  Sr  Sr0  1  0.750000  0.476247  0.818030  1
  Sr  Sr1  1  0.250000  0.523753  0.181970  1
  Sr  Sr2  1  0.250000  0.021022  0.313363  1
  Sr  Sr3  1  0.750000  0.978978  0.686637  1
  Sn  Sn4  1  0.750000  0.838135  0.070488  1
  Sn  Sn5  1  0.250000  0.161865  0.929512  1
  Pd  Pd6  1  0.750000  0.200228  0.097727  1
  Pd  Pd7  1  0.750000  0.716780  0.379474  1
  Pd  Pd8  1  0.250000  0.799772  0.902273  1
  Pd  Pd9  1  0.250000  0.283220  0.620526  1
  Pb  Pb10  1  0.750000  0.338593  0.425573  1
  Pb  Pb11  1  0.250000  0.661407  0.574427  1
