# generated using pymatgen
data_Ho20Cd6OsRu
_symmetry_space_group_name_H-M   'P 1'
_cell_length_a   9.53472700
_cell_length_b   9.53472656
_cell_length_c   9.85489700
_cell_angle_alpha   90.00000000
_cell_angle_beta   90.00000000
_cell_angle_gamma   120.00000501
_symmetry_Int_Tables_number   1
_chemical_formula_structural   Ho20Cd6OsRu
_chemical_formula_sum   'Ho20 Cd6 Os1 Ru1'
_cell_volume   775.88830304
_cell_formula_units_Z   1
loop_
 _symmetry_equiv_pos_site_id
 _symmetry_equiv_pos_as_xyz
  1  'x, y, z'
loop_
 _atom_site_type_symbol
 _atom_site_label
 _atom_site_symmetry_multiplicity
 _atom_site_fract_x
 _atom_site_fract_y
 _atom_site_fract_z
 _atom_site_occupancy
  Ho  Ho0  1  0.000000  0.000000  0.499754  1
  Ho  Ho1  1  0.000000  0.000000  0.000246  1
  Ho  Ho2  1  0.209800  0.790200  0.441536  1
  Ho  Ho3  1  0.209800  0.419601  0.441536  1
  Ho  Ho4  1  0.580399  0.790200  0.441536  1
  Ho  Ho5  1  0.790086  0.209914  0.559217  1
  Ho  Ho6  1  0.790086  0.580171  0.559217  1
  Ho  Ho7  1  0.419829  0.209914  0.559217  1
  Ho  Ho8  1  0.790086  0.209914  0.940783  1
  Ho  Ho9  1  0.790086  0.580171  0.940783  1
  Ho  Ho10  1  0.419829  0.209914  0.940783  1
  Ho  Ho11  1  0.209800  0.790200  0.058464  1
  Ho  Ho12  1  0.209800  0.419601  0.058464  1
  Ho  Ho13  1  0.580399  0.790200  0.058464  1
  Ho  Ho14  1  0.539820  0.460180  0.250000  1
  Ho  Ho15  1  0.539820  0.079641  0.250000  1
  Ho  Ho16  1  0.920359  0.460180  0.250000  1
  Ho  Ho17  1  0.458802  0.541198  0.750000  1
  Ho  Ho18  1  0.458802  0.917605  0.750000  1
  Ho  Ho19  1  0.082395  0.541198  0.750000  1
  Cd  Cd20  1  0.885458  0.114542  0.250000  1
  Cd  Cd21  1  0.885458  0.770916  0.250000  1
  Cd  Cd22  1  0.229084  0.114542  0.250000  1
  Cd  Cd23  1  0.114477  0.885523  0.750000  1
  Cd  Cd24  1  0.114477  0.228952  0.750000  1
  Cd  Cd25  1  0.771048  0.885523  0.750000  1
  Os  Os26  1  0.333333  0.666667  0.250000  1
  Ru  Ru27  1  0.666667  0.333333  0.750000  1
