# generated using pymatgen
data_Ni3Sn5Ir3
_symmetry_space_group_name_H-M   'P 1'
_cell_length_a   6.78433231
_cell_length_b   6.78433275
_cell_length_c   9.86625929
_cell_angle_alpha   79.36355493
_cell_angle_beta   79.36355450
_cell_angle_gamma   63.16603909
_symmetry_Int_Tables_number   1
_chemical_formula_structural   Ni3Sn5Ir3
_chemical_formula_sum   'Ni6 Sn10 Ir6'
_cell_volume   395.59017846
_cell_formula_units_Z   2
loop_
 _symmetry_equiv_pos_site_id
 _symmetry_equiv_pos_as_xyz
  1  'x, y, z'
loop_
 _atom_site_type_symbol
 _atom_site_label
 _atom_site_symmetry_multiplicity
 _atom_site_fract_x
 _atom_site_fract_y
 _atom_site_fract_z
 _atom_site_occupancy
  Ni  Ni0  1  0.197509  0.192223  0.101194  1
  Ni  Ni1  1  0.807777  0.802491  0.398806  1
  Ni  Ni2  1  0.802491  0.807777  0.898806  1
  Ni  Ni3  1  0.192223  0.197509  0.601194  1
  Ni  Ni4  1  0.158013  0.841987  0.750000  1
  Ni  Ni5  1  0.841987  0.158013  0.250000  1
  Sn  Sn6  1  0.768296  0.448944  0.033454  1
  Sn  Sn7  1  0.551056  0.231704  0.466546  1
  Sn  Sn8  1  0.231704  0.551056  0.966546  1
  Sn  Sn9  1  0.448944  0.768296  0.533454  1
  Sn  Sn10  1  0.362443  0.046762  0.853690  1
  Sn  Sn11  1  0.953238  0.637557  0.646310  1
  Sn  Sn12  1  0.637557  0.953238  0.146310  1
  Sn  Sn13  1  0.046762  0.362443  0.353690  1
  Sn  Sn14  1  0.806793  0.193207  0.750000  1
  Sn  Sn15  1  0.193207  0.806793  0.250000  1
  Ir  Ir16  1  0.378323  0.411212  0.702539  1
  Ir  Ir17  1  0.588788  0.621677  0.797461  1
  Ir  Ir18  1  0.621677  0.588788  0.297461  1
  Ir  Ir19  1  0.411212  0.378323  0.202539  1
  Ir  Ir20  1  0.000000  0.000000  0.500000  1
  Ir  Ir21  1  0.000000  0.000000  0.000000  1
