# generated using pymatgen
data_Sm2Lu2ReTcB12
_symmetry_space_group_name_H-M   'P 1'
_cell_length_a   3.67963300
_cell_length_b   9.15197820
_cell_length_c   11.57810517
_cell_angle_alpha   90.02999899
_cell_angle_beta   90.00000000
_cell_angle_gamma   90.00000000
_symmetry_Int_Tables_number   1
_chemical_formula_structural   Sm2Lu2ReTcB12
_chemical_formula_sum   'Sm4 Lu4 Re2 Tc2 B24'
_cell_volume   389.90330161
_cell_formula_units_Z   2
loop_
 _symmetry_equiv_pos_site_id
 _symmetry_equiv_pos_as_xyz
  1  'x, y, z'
loop_
 _atom_site_type_symbol
 _atom_site_label
 _atom_site_symmetry_multiplicity
 _atom_site_fract_x
 _atom_site_fract_y
 _atom_site_fract_z
 _atom_site_occupancy
  Sm  Sm0  1  0.000000  0.323207  0.414258  1
  Sm  Sm1  1  0.000000  0.676793  0.585742  1
  Sm  Sm2  1  0.000000  0.822615  0.085946  1
  Sm  Sm3  1  0.000000  0.177385  0.914054  1
  Lu  Lu4  1  0.000000  0.942488  0.369755  1
  Lu  Lu5  1  0.000000  0.057512  0.630245  1
  Lu  Lu6  1  0.000000  0.443900  0.130685  1
  Lu  Lu7  1  0.000000  0.556100  0.869315  1
  Re  Re8  1  0.000000  0.139853  0.180844  1
  Re  Re9  1  0.000000  0.860147  0.819156  1
  Tc  Tc10  1  0.000000  0.639896  0.319184  1
  Tc  Tc11  1  0.000000  0.360104  0.680816  1
  B  B12  1  0.500000  0.554742  0.431318  1
  B  B13  1  0.500000  0.445258  0.568682  1
  B  B14  1  0.500000  0.054613  0.068546  1
  B  B15  1  0.500000  0.945387  0.931454  1
  B  B16  1  0.500000  0.751097  0.417083  1
  B  B17  1  0.500000  0.248903  0.582917  1
  B  B18  1  0.500000  0.251521  0.082857  1
  B  B19  1  0.500000  0.748479  0.917143  1
  B  B20  1  0.500000  0.792549  0.266028  1
  B  B21  1  0.500000  0.207451  0.733972  1
  B  B22  1  0.500000  0.292908  0.234217  1
  B  B23  1  0.500000  0.707092  0.765783  1
  B  B24  1  0.500000  0.629627  0.185584  1
  B  B25  1  0.500000  0.370373  0.814416  1
  B  B26  1  0.500000  0.129434  0.314799  1
  B  B27  1  0.500000  0.870566  0.685201  1
  B  B28  1  0.500000  0.982516  0.213362  1
  B  B29  1  0.500000  0.017484  0.786638  1
  B  B30  1  0.500000  0.482907  0.286793  1
  B  B31  1  0.500000  0.517093  0.713207  1
  B  B32  1  0.500000  0.596501  0.026633  1
  B  B33  1  0.500000  0.403499  0.973367  1
  B  B34  1  0.500000  0.096363  0.473222  1
  B  B35  1  0.500000  0.903637  0.526778  1
