# generated using pymatgen
data_Na2Ho3P12Ir19
_symmetry_space_group_name_H-M   'P 1'
_cell_length_a   12.62281800
_cell_length_b   12.69445701
_cell_length_c   3.98348500
_cell_angle_alpha   90.00000000
_cell_angle_beta   90.00000000
_cell_angle_gamma   119.81349507
_symmetry_Int_Tables_number   1
_chemical_formula_structural   Na2Ho3P12Ir19
_chemical_formula_sum   'Na2 Ho3 P12 Ir19'
_cell_volume   553.83116897
_cell_formula_units_Z   1
loop_
 _symmetry_equiv_pos_site_id
 _symmetry_equiv_pos_as_xyz
  1  'x, y, z'
loop_
 _atom_site_type_symbol
 _atom_site_label
 _atom_site_symmetry_multiplicity
 _atom_site_fract_x
 _atom_site_fract_y
 _atom_site_fract_z
 _atom_site_occupancy
  Na  Na0  1  0.999547  0.181779  0.500000  1
  Na  Na1  1  0.817769  0.818221  0.500000  1
  Ho  Ho2  1  0.181897  0.000000  0.500000  1
  Ho  Ho3  1  0.665283  0.332659  0.000000  1
  Ho  Ho4  1  0.332622  0.667341  0.000000  1
  P  P5  1  0.997597  0.819940  0.000000  1
  P  P6  1  0.177657  0.180060  0.000000  1
  P  P7  1  0.821733  0.000000  0.000000  1
  P  P8  1  0.691063  0.172144  0.500000  1
  P  P9  1  0.829137  0.517950  0.500000  1
  P  P10  1  0.481111  0.311131  0.500000  1
  P  P11  1  0.169981  0.688869  0.500000  1
  P  P12  1  0.518920  0.827856  0.500000  1
  P  P13  1  0.311187  0.482050  0.500000  1
  P  P14  1  0.000342  0.355833  0.000000  1
  P  P15  1  0.644509  0.644167  0.000000  1
  P  P16  1  0.357108  0.000000  0.000000  1
  Ir  Ir17  1  0.000326  0.536983  0.000000  1
  Ir  Ir18  1  0.463344  0.463017  0.000000  1
  Ir  Ir19  1  0.538135  0.000000  0.000000  1
  Ir  Ir20  1  0.999662  0.717172  0.500000  1
  Ir  Ir21  1  0.282491  0.282828  0.500000  1
  Ir  Ir22  1  0.715657  0.000000  0.500000  1
  Ir  Ir23  1  0.801960  0.181719  0.000000  1
  Ir  Ir24  1  0.817958  0.618028  0.000000  1
  Ir  Ir25  1  0.375126  0.193804  0.000000  1
  Ir  Ir26  1  0.181321  0.806196  0.000000  1
  Ir  Ir27  1  0.620241  0.818281  0.000000  1
  Ir  Ir28  1  0.199930  0.381972  0.000000  1
  Ir  Ir29  1  0.868976  0.362806  0.500000  1
  Ir  Ir30  1  0.637456  0.504737  0.500000  1
  Ir  Ir31  1  0.495677  0.133827  0.500000  1
  Ir  Ir32  1  0.361850  0.866173  0.500000  1
  Ir  Ir33  1  0.506169  0.637194  0.500000  1
  Ir  Ir34  1  0.132718  0.495263  0.500000  1
  Ir  Ir35  1  0.003544  0.000000  0.000000  1
