# generated using pymatgen
data_TcO2F
_symmetry_space_group_name_H-M   'P 1'
_cell_length_a   5.38169528
_cell_length_b   5.38169547
_cell_length_c   5.50728786
_cell_angle_alpha   59.59104051
_cell_angle_beta   59.59103706
_cell_angle_gamma   61.50456302
_symmetry_Int_Tables_number   1
_chemical_formula_structural   TcO2F
_chemical_formula_sum   'Tc2 O4 F2'
_cell_volume   113.28713007
_cell_formula_units_Z   2
loop_
 _symmetry_equiv_pos_site_id
 _symmetry_equiv_pos_as_xyz
  1  'x, y, z'
loop_
 _atom_site_type_symbol
 _atom_site_label
 _atom_site_symmetry_multiplicity
 _atom_site_fract_x
 _atom_site_fract_y
 _atom_site_fract_z
 _atom_site_occupancy
  Tc  Tc0  1  0.751500  0.189313  0.849117  1
  Tc  Tc1  1  0.189313  0.751500  0.349117  1
  O  O2  1  0.942694  0.492695  0.598453  1
  O  O3  1  0.000075  0.963231  0.603246  1
  O  O4  1  0.492695  0.942694  0.098453  1
  O  O5  1  0.963231  0.000075  0.103246  1
  F  F6  1  0.477138  0.425785  0.585536  1
  F  F7  1  0.425785  0.477138  0.085536  1
