# generated using pymatgen
data_Ce2InIrPt
_symmetry_space_group_name_H-M   'P 1'
_cell_length_a   7.76215100
_cell_length_b   7.77032900
_cell_length_c   3.75108200
_cell_angle_alpha   90.00000000
_cell_angle_beta   90.00000000
_cell_angle_gamma   90.00000000
_symmetry_Int_Tables_number   1
_chemical_formula_structural   Ce2InIrPt
_chemical_formula_sum   'Ce4 In2 Ir2 Pt2'
_cell_volume   226.24451157
_cell_formula_units_Z   2
loop_
 _symmetry_equiv_pos_site_id
 _symmetry_equiv_pos_as_xyz
  1  'x, y, z'
loop_
 _atom_site_type_symbol
 _atom_site_label
 _atom_site_symmetry_multiplicity
 _atom_site_fract_x
 _atom_site_fract_y
 _atom_site_fract_z
 _atom_site_occupancy
  Ce  Ce0  1  0.678037  0.828554  0.500000  1
  Ce  Ce1  1  0.821963  0.328554  0.500000  1
  Ce  Ce2  1  0.337852  0.170425  0.500000  1
  Ce  Ce3  1  0.162148  0.670425  0.500000  1
  In  In4  1  0.500682  0.500241  0.000000  1
  In  In5  1  0.999318  0.000241  0.000000  1
  Ir  Ir6  1  0.633728  0.134320  0.000000  1
  Ir  Ir7  1  0.866272  0.634320  0.000000  1
  Pt  Pt8  1  0.131639  0.366460  0.000000  1
  Pt  Pt9  1  0.368361  0.866460  0.000000  1
