# generated using pymatgen
data_Pr6Tm9Th(CdIr)4
_symmetry_space_group_name_H-M   'P 1'
_cell_length_a   9.69972336
_cell_length_b   9.69972254
_cell_length_c   9.69972305
_cell_angle_alpha   60.39885407
_cell_angle_beta   60.39885659
_cell_angle_gamma   60.39885304
_symmetry_Int_Tables_number   1
_chemical_formula_structural   Pr6Tm9Th(CdIr)4
_chemical_formula_sum   'Pr6 Tm9 Th1 Cd4 Ir4'
_cell_volume   651.12260519
_cell_formula_units_Z   1
loop_
 _symmetry_equiv_pos_site_id
 _symmetry_equiv_pos_as_xyz
  1  'x, y, z'
loop_
 _atom_site_type_symbol
 _atom_site_label
 _atom_site_symmetry_multiplicity
 _atom_site_fract_x
 _atom_site_fract_y
 _atom_site_fract_z
 _atom_site_occupancy
  Pr  Pr0  1  0.940037  0.560339  0.560339  1
  Pr  Pr1  1  0.557005  0.943712  0.943712  1
  Pr  Pr2  1  0.560339  0.940037  0.560339  1
  Pr  Pr3  1  0.943712  0.557005  0.943712  1
  Pr  Pr4  1  0.560339  0.560339  0.940037  1
  Pr  Pr5  1  0.943712  0.943712  0.557005  1
  Tm  Tm6  1  0.347994  0.347994  0.956569  1
  Tm  Tm7  1  0.347994  0.956569  0.347994  1
  Tm  Tm8  1  0.956569  0.347994  0.347994  1
  Tm  Tm9  1  0.814973  0.185391  0.185391  1
  Tm  Tm10  1  0.185096  0.813027  0.813027  1
  Tm  Tm11  1  0.185391  0.814973  0.185391  1
  Tm  Tm12  1  0.813027  0.185096  0.813027  1
  Tm  Tm13  1  0.185391  0.185391  0.814973  1
  Tm  Tm14  1  0.813027  0.813027  0.185096  1
  Th  Th15  1  0.345741  0.345741  0.345741  1
  Cd  Cd16  1  0.578153  0.578153  0.578153  1
  Cd  Cd17  1  0.580032  0.580032  0.262007  1
  Cd  Cd18  1  0.580032  0.262007  0.580032  1
  Cd  Cd19  1  0.262007  0.580032  0.580032  1
  Ir  Ir20  1  0.141904  0.141904  0.141904  1
  Ir  Ir21  1  0.140823  0.140823  0.575874  1
  Ir  Ir22  1  0.140823  0.575874  0.140823  1
  Ir  Ir23  1  0.575874  0.140823  0.140823  1
