# generated using pymatgen
data_Li2CoNi11As3P4
_symmetry_space_group_name_H-M   'P 1'
_cell_length_a   9.19615602
_cell_length_b   9.16389276
_cell_length_c   3.55512800
_cell_angle_alpha   90.00000000
_cell_angle_beta   90.00000000
_cell_angle_gamma   119.96144036
_symmetry_Int_Tables_number   1
_chemical_formula_structural   Li2CoNi11As3P4
_chemical_formula_sum   'Li2 Co1 Ni11 As3 P4'
_cell_volume   259.56182397
_cell_formula_units_Z   1
loop_
 _symmetry_equiv_pos_site_id
 _symmetry_equiv_pos_as_xyz
  1  'x, y, z'
loop_
 _atom_site_type_symbol
 _atom_site_label
 _atom_site_symmetry_multiplicity
 _atom_site_fract_x
 _atom_site_fract_y
 _atom_site_fract_z
 _atom_site_occupancy
  Li  Li0  1  0.000427  0.999883  0.000000  1
  Li  Li1  1  0.332346  0.667612  0.500000  1
  Co  Co2  1  0.822083  0.609161  0.000000  1
  Ni  Ni3  1  0.281096  0.903561  0.000000  1
  Ni  Ni4  1  0.620285  0.716850  0.000000  1
  Ni  Ni5  1  0.094262  0.376791  0.000000  1
  Ni  Ni6  1  0.785858  0.177837  0.000000  1
  Ni  Ni7  1  0.393139  0.214385  0.000000  1
  Ni  Ni8  1  0.730894  0.953721  0.500000  1
  Ni  Ni9  1  0.225161  0.269190  0.500000  1
  Ni  Ni10  1  0.045029  0.775956  0.500000  1
  Ni  Ni11  1  0.546319  0.133648  0.500000  1
  Ni  Ni12  1  0.584304  0.456465  0.500000  1
  Ni  Ni13  1  0.873332  0.414118  0.500000  1
  As  As14  1  0.537759  0.916861  0.000000  1
  As  As15  1  0.377301  0.462133  0.000000  1
  As  As16  1  0.080223  0.620241  0.000000  1
  P  P17  1  0.958733  0.210940  0.500000  1
  P  P18  1  0.255722  0.041657  0.500000  1
  P  P19  1  0.785901  0.740708  0.500000  1
  P  P20  1  0.669829  0.338285  0.000000  1
