# generated using pymatgen
data_Nd3Si2PdRh2
_symmetry_space_group_name_H-M   'P 1'
_cell_length_a   5.74878200
_cell_length_b   7.74035100
_cell_length_c   15.27273600
_cell_angle_alpha   90.00000000
_cell_angle_beta   90.00000000
_cell_angle_gamma   90.00000000
_symmetry_Int_Tables_number   1
_chemical_formula_structural   Nd3Si2PdRh2
_chemical_formula_sum   'Nd12 Si8 Pd4 Rh8'
_cell_volume   679.59995238
_cell_formula_units_Z   4
loop_
 _symmetry_equiv_pos_site_id
 _symmetry_equiv_pos_as_xyz
  1  'x, y, z'
loop_
 _atom_site_type_symbol
 _atom_site_label
 _atom_site_symmetry_multiplicity
 _atom_site_fract_x
 _atom_site_fract_y
 _atom_site_fract_z
 _atom_site_occupancy
  Nd  Nd0  1  0.141565  0.472967  0.894917  1
  Nd  Nd1  1  0.358435  0.972967  0.894917  1
  Nd  Nd2  1  0.622256  0.333579  0.750000  1
  Nd  Nd3  1  0.377744  0.666421  0.250000  1
  Nd  Nd4  1  0.641565  0.027033  0.394917  1
  Nd  Nd5  1  0.858435  0.527033  0.105083  1
  Nd  Nd6  1  0.858435  0.527033  0.394917  1
  Nd  Nd7  1  0.358435  0.972967  0.605083  1
  Nd  Nd8  1  0.877744  0.833579  0.750000  1
  Nd  Nd9  1  0.141565  0.472967  0.605083  1
  Nd  Nd10  1  0.641565  0.027033  0.105083  1
  Nd  Nd11  1  0.122256  0.166421  0.250000  1
  Si  Si12  1  0.360036  0.377180  0.096736  1
  Si  Si13  1  0.639964  0.622820  0.903264  1
  Si  Si14  1  0.860036  0.122820  0.903264  1
  Si  Si15  1  0.360036  0.377180  0.403264  1
  Si  Si16  1  0.860036  0.122820  0.596736  1
  Si  Si17  1  0.639964  0.622820  0.596736  1
  Si  Si18  1  0.139964  0.877180  0.403264  1
  Si  Si19  1  0.139964  0.877180  0.096736  1
  Pd  Pd20  1  0.591662  0.314299  0.250000  1
  Pd  Pd21  1  0.091662  0.185701  0.750000  1
  Pd  Pd22  1  0.408338  0.685701  0.750000  1
  Pd  Pd23  1  0.908338  0.814299  0.250000  1
  Rh  Rh24  1  0.598108  0.334011  0.963500  1
  Rh  Rh25  1  0.401892  0.665989  0.036500  1
  Rh  Rh26  1  0.401892  0.665989  0.463500  1
  Rh  Rh27  1  0.098108  0.165989  0.463500  1
  Rh  Rh28  1  0.098108  0.165989  0.036500  1
  Rh  Rh29  1  0.598108  0.334011  0.536500  1
  Rh  Rh30  1  0.901892  0.834011  0.536500  1
  Rh  Rh31  1  0.901892  0.834011  0.963500  1
