# generated using pymatgen
data_Pr2LuPaPt4
_symmetry_space_group_name_H-M   'P 1'
_cell_length_a   4.57719700
_cell_length_b   5.66056270
_cell_length_c   7.19545264
_cell_angle_alpha   89.15310413
_cell_angle_beta   90.00000000
_cell_angle_gamma   90.00000000
_symmetry_Int_Tables_number   1
_chemical_formula_structural   Pr2LuPaPt4
_chemical_formula_sum   'Pr2 Lu1 Pa1 Pt4'
_cell_volume   186.41029098
_cell_formula_units_Z   1
loop_
 _symmetry_equiv_pos_site_id
 _symmetry_equiv_pos_as_xyz
  1  'x, y, z'
loop_
 _atom_site_type_symbol
 _atom_site_label
 _atom_site_symmetry_multiplicity
 _atom_site_fract_x
 _atom_site_fract_y
 _atom_site_fract_z
 _atom_site_occupancy
  Pr  Pr0  1  0.750000  0.354350  0.817065  1
  Pr  Pr1  1  0.250000  0.859440  0.681831  1
  Lu  Lu2  1  0.750000  0.145365  0.317771  1
  Pa  Pa3  1  0.250000  0.645022  0.184754  1
  Pt  Pt4  1  0.250000  0.159334  0.071951  1
  Pt  Pt5  1  0.750000  0.832941  0.981970  1
  Pt  Pt6  1  0.750000  0.657380  0.429396  1
  Pt  Pt7  1  0.250000  0.346167  0.515263  1
