# generated using pymatgen
data_BeNi20(GeB3)2
_symmetry_space_group_name_H-M   'P 1'
_cell_length_a   7.38001211
_cell_length_b   7.38001237
_cell_length_c   7.38001300
_cell_angle_alpha   60.00000165
_cell_angle_beta   60.00000050
_cell_angle_gamma   60.00000148
_symmetry_Int_Tables_number   1
_chemical_formula_structural   BeNi20(GeB3)2
_chemical_formula_sum   'Be1 Ni20 Ge2 B6'
_cell_volume   284.22109285
_cell_formula_units_Z   1
loop_
 _symmetry_equiv_pos_site_id
 _symmetry_equiv_pos_as_xyz
  1  'x, y, z'
loop_
 _atom_site_type_symbol
 _atom_site_label
 _atom_site_symmetry_multiplicity
 _atom_site_fract_x
 _atom_site_fract_y
 _atom_site_fract_z
 _atom_site_occupancy
  Be  Be0  1  0.000000  0.000000  0.000000  1
  Ni  Ni1  1  0.333322  0.000000  0.000000  1
  Ni  Ni2  1  0.666678  0.000000  0.000000  1
  Ni  Ni3  1  0.000000  0.333322  0.666678  1
  Ni  Ni4  1  0.000000  0.666678  0.333322  1
  Ni  Ni5  1  0.000000  0.333322  0.000000  1
  Ni  Ni6  1  0.666678  0.000000  0.333322  1
  Ni  Ni7  1  0.000000  0.666678  0.000000  1
  Ni  Ni8  1  0.333322  0.000000  0.666678  1
  Ni  Ni9  1  0.000000  0.000000  0.333322  1
  Ni  Ni10  1  0.000000  0.000000  0.666678  1
  Ni  Ni11  1  0.666678  0.333322  0.000000  1
  Ni  Ni12  1  0.333322  0.666678  0.000000  1
  Ni  Ni13  1  0.380863  0.380863  0.380863  1
  Ni  Ni14  1  0.619137  0.619137  0.619137  1
  Ni  Ni15  1  0.380863  0.380863  0.857410  1
  Ni  Ni16  1  0.380863  0.857410  0.380863  1
  Ni  Ni17  1  0.619137  0.619137  0.142590  1
  Ni  Ni18  1  0.619137  0.142590  0.619137  1
  Ni  Ni19  1  0.857410  0.380863  0.380863  1
  Ni  Ni20  1  0.142590  0.619137  0.619137  1
  Ge  Ge21  1  0.250000  0.250000  0.250000  1
  Ge  Ge22  1  0.750000  0.750000  0.750000  1
  B  B23  1  0.725850  0.274150  0.274150  1
  B  B24  1  0.274150  0.725850  0.725850  1
  B  B25  1  0.274150  0.725850  0.274150  1
  B  B26  1  0.725850  0.274150  0.725850  1
  B  B27  1  0.274150  0.274150  0.725850  1
  B  B28  1  0.725850  0.725850  0.274150  1
