# generated using pymatgen
data_TmPaReB6
_symmetry_space_group_name_H-M   'P 1'
_cell_length_a   3.70023400
_cell_length_b   9.12455000
_cell_length_c   11.48083800
_cell_angle_alpha   90.00000000
_cell_angle_beta   90.00000000
_cell_angle_gamma   90.00000000
_symmetry_Int_Tables_number   1
_chemical_formula_structural   TmPaReB6
_chemical_formula_sum   'Tm4 Pa4 Re4 B24'
_cell_volume   387.62719063
_cell_formula_units_Z   4
loop_
 _symmetry_equiv_pos_site_id
 _symmetry_equiv_pos_as_xyz
  1  'x, y, z'
loop_
 _atom_site_type_symbol
 _atom_site_label
 _atom_site_symmetry_multiplicity
 _atom_site_fract_x
 _atom_site_fract_y
 _atom_site_fract_z
 _atom_site_occupancy
  Tm  Tm0  1  0.000000  0.944777  0.374138  1
  Tm  Tm1  1  0.000000  0.055223  0.625862  1
  Tm  Tm2  1  0.000000  0.444777  0.125862  1
  Tm  Tm3  1  0.000000  0.555223  0.874138  1
  Pa  Pa4  1  0.000000  0.322070  0.413401  1
  Pa  Pa5  1  0.000000  0.677930  0.586599  1
  Pa  Pa6  1  0.000000  0.822070  0.086599  1
  Pa  Pa7  1  0.000000  0.177930  0.913401  1
  Re  Re8  1  0.000000  0.638779  0.321272  1
  Re  Re9  1  0.000000  0.361221  0.678728  1
  Re  Re10  1  0.000000  0.138779  0.178728  1
  Re  Re11  1  0.000000  0.861221  0.821272  1
  B  B12  1  0.500000  0.553168  0.433473  1
  B  B13  1  0.500000  0.446832  0.566527  1
  B  B14  1  0.500000  0.053168  0.066527  1
  B  B15  1  0.500000  0.946832  0.933473  1
  B  B16  1  0.500000  0.749568  0.419790  1
  B  B17  1  0.500000  0.250432  0.580210  1
  B  B18  1  0.500000  0.249568  0.080210  1
  B  B19  1  0.500000  0.750432  0.919790  1
  B  B20  1  0.500000  0.793235  0.265321  1
  B  B21  1  0.500000  0.206765  0.734679  1
  B  B22  1  0.500000  0.293235  0.234679  1
  B  B23  1  0.500000  0.706765  0.765321  1
  B  B24  1  0.500000  0.632078  0.184571  1
  B  B25  1  0.500000  0.367922  0.815429  1
  B  B26  1  0.500000  0.132078  0.315429  1
  B  B27  1  0.500000  0.867922  0.684571  1
  B  B28  1  0.500000  0.982197  0.213576  1
  B  B29  1  0.500000  0.017803  0.786424  1
  B  B30  1  0.500000  0.482197  0.286424  1
  B  B31  1  0.500000  0.517803  0.713576  1
  B  B32  1  0.500000  0.607782  0.029760  1
  B  B33  1  0.500000  0.392218  0.970240  1
  B  B34  1  0.500000  0.107782  0.470240  1
  B  B35  1  0.500000  0.892218  0.529760  1
