# generated using pymatgen
data_CoSi4Pt3
_symmetry_space_group_name_H-M   'P 1'
_cell_length_a   3.57797600
_cell_length_b   5.42429389
_cell_length_c   5.96862097
_cell_angle_alpha   89.63206035
_cell_angle_beta   90.00000000
_cell_angle_gamma   90.00000000
_symmetry_Int_Tables_number   1
_chemical_formula_structural   CoSi4Pt3
_chemical_formula_sum   'Co1 Si4 Pt3'
_cell_volume   115.83656758
_cell_formula_units_Z   1
loop_
 _symmetry_equiv_pos_site_id
 _symmetry_equiv_pos_as_xyz
  1  'x, y, z'
loop_
 _atom_site_type_symbol
 _atom_site_label
 _atom_site_symmetry_multiplicity
 _atom_site_fract_x
 _atom_site_fract_y
 _atom_site_fract_z
 _atom_site_occupancy
  Co  Co0  1  0.250000  0.501798  0.701030  1
  Si  Si1  1  0.250000  0.665570  0.068035  1
  Si  Si2  1  0.750000  0.334921  0.901150  1
  Si  Si3  1  0.250000  0.189633  0.424900  1
  Si  Si4  1  0.750000  0.800231  0.597688  1
  Pt  Pt5  1  0.750000  0.500590  0.314382  1
  Pt  Pt6  1  0.250000  0.003345  0.799319  1
  Pt  Pt7  1  0.750000  0.003912  0.193497  1
