# generated using pymatgen
data_Pr8Y7Tm5Pt16
_symmetry_space_group_name_H-M   'P 1'
_cell_length_a   7.65379605
_cell_length_b   7.80367801
_cell_length_c   14.75325800
_cell_angle_alpha   89.99291482
_cell_angle_beta   90.00648282
_cell_angle_gamma   89.97177757
_symmetry_Int_Tables_number   1
_chemical_formula_structural   Pr8Y7Tm5Pt16
_chemical_formula_sum   'Pr8 Y7 Tm5 Pt16'
_cell_volume   881.17893218
_cell_formula_units_Z   1
loop_
 _symmetry_equiv_pos_site_id
 _symmetry_equiv_pos_as_xyz
  1  'x, y, z'
loop_
 _atom_site_type_symbol
 _atom_site_label
 _atom_site_symmetry_multiplicity
 _atom_site_fract_x
 _atom_site_fract_y
 _atom_site_fract_z
 _atom_site_occupancy
  Pr  Pr0  1  0.504369  0.328041  0.901785  1
  Pr  Pr1  1  0.003899  0.173062  0.599508  1
  Pr  Pr2  1  0.496032  0.673017  0.401203  1
  Pr  Pr3  1  0.996675  0.825964  0.096668  1
  Pr  Pr4  1  0.496325  0.672489  0.098819  1
  Pr  Pr5  1  0.996206  0.827161  0.401505  1
  Pr  Pr6  1  0.503443  0.326764  0.599129  1
  Pr  Pr7  1  0.004263  0.172929  0.901298  1
  Y  Y8  1  0.346763  0.829609  0.878344  1
  Y  Y9  1  0.846117  0.670589  0.622470  1
  Y  Y10  1  0.653939  0.170777  0.377548  1
  Y  Y11  1  0.153476  0.329891  0.122012  1
  Y  Y12  1  0.655179  0.170565  0.121962  1
  Y  Y13  1  0.153642  0.329288  0.377568  1
  Y  Y14  1  0.346025  0.829496  0.622767  1
  Tm  Tm15  1  0.845144  0.670344  0.876406  1
  Tm  Tm16  1  0.180608  0.491558  0.750790  1
  Tm  Tm17  1  0.681655  0.008320  0.750680  1
  Tm  Tm18  1  0.818823  0.509513  0.249757  1
  Tm  Tm19  1  0.318566  0.990702  0.249571  1
  Pt  Pt20  1  0.324379  0.029947  0.046146  1
  Pt  Pt21  1  0.822815  0.471013  0.453605  1
  Pt  Pt22  1  0.677038  0.971357  0.546637  1
  Pt  Pt23  1  0.172584  0.531421  0.953310  1
  Pt  Pt24  1  0.680588  0.967171  0.953630  1
  Pt  Pt25  1  0.177227  0.528966  0.546570  1
  Pt  Pt26  1  0.322938  0.029620  0.454165  1
  Pt  Pt27  1  0.821741  0.471476  0.043098  1
  Pt  Pt28  1  0.552865  0.624271  0.751174  1
  Pt  Pt29  1  0.050357  0.874393  0.751383  1
  Pt  Pt30  1  0.448996  0.376962  0.249591  1
  Pt  Pt31  1  0.948819  0.122334  0.249548  1
  Pt  Pt32  1  0.318061  0.135922  0.750953  1
  Pt  Pt33  1  0.818236  0.365093  0.751190  1
  Pt  Pt34  1  0.681626  0.863619  0.249634  1
  Pt  Pt35  1  0.180577  0.636355  0.249576  1
