# generated using pymatgen
data_YEr7Re2(B12Rh)2
_symmetry_space_group_name_H-M   'P 1'
_cell_length_a   3.65955400
_cell_length_b   9.11334890
_cell_length_c   11.50304100
_cell_angle_alpha   90.42732798
_cell_angle_beta   90.00000000
_cell_angle_gamma   90.00000000
_symmetry_Int_Tables_number   1
_chemical_formula_structural   YEr7Re2(B12Rh)2
_chemical_formula_sum   'Y1 Er7 Re2 B24 Rh2'
_cell_volume   383.62486269
_cell_formula_units_Z   1
loop_
 _symmetry_equiv_pos_site_id
 _symmetry_equiv_pos_as_xyz
  1  'x, y, z'
loop_
 _atom_site_type_symbol
 _atom_site_label
 _atom_site_symmetry_multiplicity
 _atom_site_fract_x
 _atom_site_fract_y
 _atom_site_fract_z
 _atom_site_occupancy
  Y  Y0  1  0.000000  0.318176  0.410950  1
  Er  Er1  1  0.000000  0.682146  0.589244  1
  Er  Er2  1  0.000000  0.826060  0.082553  1
  Er  Er3  1  0.000000  0.173910  0.917391  1
  Er  Er4  1  0.000000  0.945005  0.371787  1
  Er  Er5  1  0.000000  0.054641  0.628306  1
  Er  Er6  1  0.000000  0.442412  0.126565  1
  Er  Er7  1  0.000000  0.557662  0.873323  1
  Re  Re8  1  0.000000  0.138455  0.179385  1
  Re  Re9  1  0.000000  0.861213  0.820273  1
  B  B10  1  0.500000  0.554824  0.434438  1
  B  B11  1  0.500000  0.445992  0.566002  1
  B  B12  1  0.500000  0.052851  0.067123  1
  B  B13  1  0.500000  0.947082  0.932784  1
  B  B14  1  0.500000  0.749219  0.421552  1
  B  B15  1  0.500000  0.250662  0.579077  1
  B  B16  1  0.500000  0.248649  0.080957  1
  B  B17  1  0.500000  0.751368  0.918908  1
  B  B18  1  0.500000  0.791401  0.265014  1
  B  B19  1  0.500000  0.208586  0.735058  1
  B  B20  1  0.500000  0.292819  0.234480  1
  B  B21  1  0.500000  0.706978  0.765052  1
  B  B22  1  0.500000  0.632424  0.183250  1
  B  B23  1  0.500000  0.367665  0.816730  1
  B  B24  1  0.500000  0.131315  0.314727  1
  B  B25  1  0.500000  0.868181  0.684951  1
  B  B26  1  0.500000  0.982430  0.212928  1
  B  B27  1  0.500000  0.017396  0.787035  1
  B  B28  1  0.500000  0.483642  0.287492  1
  B  B29  1  0.500000  0.516984  0.712251  1
  B  B30  1  0.500000  0.605832  0.029358  1
  B  B31  1  0.500000  0.394224  0.970590  1
  B  B32  1  0.500000  0.106418  0.471285  1
  B  B33  1  0.500000  0.892874  0.528927  1
  Rh  Rh34  1  0.000000  0.638283  0.321270  1
  Rh  Rh35  1  0.000000  0.362222  0.678983  1
