# generated using pymatgen
data_Nd6Al24Ru6PtAu
_symmetry_space_group_name_H-M   'P 1'
_cell_length_a   8.92679507
_cell_length_b   8.91499559
_cell_length_c   9.69173588
_cell_angle_alpha   89.99359047
_cell_angle_beta   89.96860089
_cell_angle_gamma   119.46058593
_symmetry_Int_Tables_number   1
_chemical_formula_structural   Nd6Al24Ru6PtAu
_chemical_formula_sum   'Nd6 Al24 Ru6 Pt1 Au1'
_cell_volume   671.55846537
_cell_formula_units_Z   1
loop_
 _symmetry_equiv_pos_site_id
 _symmetry_equiv_pos_as_xyz
  1  'x, y, z'
loop_
 _atom_site_type_symbol
 _atom_site_label
 _atom_site_symmetry_multiplicity
 _atom_site_fract_x
 _atom_site_fract_y
 _atom_site_fract_z
 _atom_site_occupancy
  Nd  Nd0  1  0.190247  0.383307  0.247355  1
  Nd  Nd1  1  0.809753  0.616693  0.752645  1
  Nd  Nd2  1  0.618857  0.809845  0.248607  1
  Nd  Nd3  1  0.381143  0.190155  0.751393  1
  Nd  Nd4  1  0.190488  0.808543  0.253938  1
  Nd  Nd5  1  0.809512  0.191457  0.746062  1
  Al  Al6  1  0.327228  0.673364  0.021501  1
  Al  Al7  1  0.672772  0.326636  0.978499  1
  Al  Al8  1  0.669834  0.338115  0.520610  1
  Al  Al9  1  0.330166  0.661885  0.479390  1
  Al  Al10  1  0.164438  0.326804  0.573399  1
  Al  Al11  1  0.835562  0.673196  0.426601  1
  Al  Al12  1  0.674619  0.831138  0.573643  1
  Al  Al13  1  0.848273  0.675867  0.077516  1
  Al  Al14  1  0.325381  0.168862  0.426357  1
  Al  Al15  1  0.151727  0.324133  0.922484  1
  Al  Al16  1  0.158305  0.831688  0.578092  1
  Al  Al17  1  0.323201  0.150738  0.076799  1
  Al  Al18  1  0.841695  0.168312  0.421908  1
  Al  Al19  1  0.676799  0.849262  0.923201  1
  Al  Al20  1  0.836317  0.163175  0.077108  1
  Al  Al21  1  0.163683  0.836825  0.922892  1
  Al  Al22  1  0.562857  0.125722  0.246161  1
  Al  Al23  1  0.437143  0.874278  0.753839  1
  Al  Al24  1  0.876818  0.439076  0.249639  1
  Al  Al25  1  0.123182  0.560924  0.750361  1
  Al  Al26  1  0.565804  0.435340  0.258521  1
  Al  Al27  1  0.434196  0.564660  0.741479  1
  Al  Al28  1  0.997580  0.001156  0.250404  1
  Al  Al29  1  0.002420  0.998844  0.749596  1
  Ru  Ru30  1  0.500000  0.000000  0.000000  1
  Ru  Ru31  1  0.000000  0.500000  0.000000  1
  Ru  Ru32  1  0.000000  0.500000  0.500000  1
  Ru  Ru33  1  0.500000  0.500000  0.500000  1
  Ru  Ru34  1  0.000000  0.000000  0.000000  1
  Ru  Ru35  1  0.000000  0.000000  0.500000  1
  Pt  Pt36  1  0.500000  0.000000  0.500000  1
  Au  Au37  1  0.500000  0.500000  0.000000  1
