# generated using pymatgen
data_HoTm11Tc3Ru
_symmetry_space_group_name_H-M   'P 1'
_cell_length_a   6.19873355
_cell_length_b   7.32825404
_cell_length_c   8.98752900
_cell_angle_alpha   90.00000000
_cell_angle_beta   90.00000000
_cell_angle_gamma   90.03033671
_symmetry_Int_Tables_number   1
_chemical_formula_structural   HoTm11Tc3Ru
_chemical_formula_sum   'Ho1 Tm11 Tc3 Ru1'
_cell_volume   408.26648404
_cell_formula_units_Z   1
loop_
 _symmetry_equiv_pos_site_id
 _symmetry_equiv_pos_as_xyz
  1  'x, y, z'
loop_
 _atom_site_type_symbol
 _atom_site_label
 _atom_site_symmetry_multiplicity
 _atom_site_fract_x
 _atom_site_fract_y
 _atom_site_fract_z
 _atom_site_occupancy
  Ho  Ho0  1  0.629669  0.041295  0.250000  1
  Tm  Tm1  1  0.374812  0.959830  0.750000  1
  Tm  Tm2  1  0.124968  0.460760  0.750000  1
  Tm  Tm3  1  0.874881  0.541740  0.250000  1
  Tm  Tm4  1  0.161104  0.175372  0.062198  1
  Tm  Tm5  1  0.836597  0.823496  0.937014  1
  Tm  Tm6  1  0.660523  0.324639  0.937695  1
  Tm  Tm7  1  0.836597  0.823496  0.562986  1
  Tm  Tm8  1  0.338057  0.675930  0.061883  1
  Tm  Tm9  1  0.161104  0.175372  0.437802  1
  Tm  Tm10  1  0.338057  0.675930  0.438117  1
  Tm  Tm11  1  0.660523  0.324639  0.562305  1
  Tc  Tc12  1  0.460925  0.385006  0.250000  1
  Tc  Tc13  1  0.540787  0.615458  0.750000  1
  Tc  Tc14  1  0.961486  0.113449  0.750000  1
  Ru  Ru15  1  0.039910  0.883590  0.250000  1
