# generated using pymatgen
data_Yb3Ho(Al3Pt4)2
_symmetry_space_group_name_H-M   'P 1'
_cell_length_a   8.16294920
_cell_length_b   8.16294975
_cell_length_c   7.47745876
_cell_angle_alpha   90.13212241
_cell_angle_beta   89.86787960
_cell_angle_gamma   139.43664797
_symmetry_Int_Tables_number   1
_chemical_formula_structural   Yb3Ho(Al3Pt4)2
_chemical_formula_sum   'Yb3 Ho1 Al6 Pt8'
_cell_volume   324.00593141
_cell_formula_units_Z   1
loop_
 _symmetry_equiv_pos_site_id
 _symmetry_equiv_pos_as_xyz
  1  'x, y, z'
loop_
 _atom_site_type_symbol
 _atom_site_label
 _atom_site_symmetry_multiplicity
 _atom_site_fract_x
 _atom_site_fract_y
 _atom_site_fract_z
 _atom_site_occupancy
  Yb  Yb0  1  0.104387  0.895613  0.410104  1
  Yb  Yb1  1  0.895300  0.104700  0.588859  1
  Yb  Yb2  1  0.393523  0.606477  0.910615  1
  Ho  Ho3  1  0.606209  0.393791  0.090002  1
  Al  Al4  1  0.000485  0.999515  0.001652  1
  Al  Al5  1  0.501709  0.498291  0.498734  1
  Al  Al6  1  0.021900  0.478212  0.251733  1
  Al  Al7  1  0.479113  0.022667  0.748276  1
  Al  Al8  1  0.977333  0.520887  0.748276  1
  Al  Al9  1  0.521788  0.978100  0.251733  1
  Pt  Pt10  1  0.190385  0.311919  0.248732  1
  Pt  Pt11  1  0.312018  0.189223  0.751437  1
  Pt  Pt12  1  0.810777  0.687982  0.751437  1
  Pt  Pt13  1  0.688081  0.809615  0.248732  1
  Pt  Pt14  1  0.183684  0.816316  0.028749  1
  Pt  Pt15  1  0.814586  0.185414  0.973952  1
  Pt  Pt16  1  0.317247  0.682753  0.526379  1
  Pt  Pt17  1  0.681476  0.318524  0.470599  1
