# generated using pymatgen
data_SmGd5In6O18
_symmetry_space_group_name_H-M   'P 1'
_cell_length_a   6.43110700
_cell_length_b   6.43110758
_cell_length_c   12.45060700
_cell_angle_alpha   90.00000000
_cell_angle_beta   90.00000000
_cell_angle_gamma   119.99999185
_symmetry_Int_Tables_number   1
_chemical_formula_structural   SmGd5In6O18
_chemical_formula_sum   'Sm1 Gd5 In6 O18'
_cell_volume   445.95670970
_cell_formula_units_Z   1
loop_
 _symmetry_equiv_pos_site_id
 _symmetry_equiv_pos_as_xyz
  1  'x, y, z'
loop_
 _atom_site_type_symbol
 _atom_site_label
 _atom_site_symmetry_multiplicity
 _atom_site_fract_x
 _atom_site_fract_y
 _atom_site_fract_z
 _atom_site_occupancy
  Sm  Sm0  1  0.666667  0.333333  0.960979  1
  Gd  Gd1  1  0.333333  0.666667  0.461516  1
  Gd  Gd2  1  0.666667  0.333333  0.461541  1
  Gd  Gd3  1  0.333333  0.666667  0.961736  1
  Gd  Gd4  1  0.000000  0.000000  0.996850  1
  Gd  Gd5  1  0.000000  0.000000  0.496682  1
  In  In6  1  0.666470  0.666780  0.726475  1
  In  In7  1  0.000311  0.333530  0.726475  1
  In  In8  1  0.333346  0.333486  0.226806  1
  In  In9  1  0.000140  0.666654  0.226806  1
  In  In10  1  0.333220  0.999689  0.726475  1
  In  In11  1  0.666514  0.999860  0.226806  1
  O  O12  1  0.692337  0.695197  0.896863  1
  O  O13  1  0.002860  0.307663  0.896863  1
  O  O14  1  0.307822  0.307770  0.397411  1
  O  O15  1  0.999948  0.692178  0.397411  1
  O  O16  1  0.304803  0.997140  0.896863  1
  O  O17  1  0.692230  0.000052  0.397411  1
  O  O18  1  0.640308  0.640236  0.557327  1
  O  O19  1  0.999928  0.359692  0.557327  1
  O  O20  1  0.357434  0.359881  0.057836  1
  O  O21  1  0.002446  0.642566  0.057836  1
  O  O22  1  0.359764  0.000072  0.557327  1
  O  O23  1  0.640119  0.997554  0.057836  1
  O  O24  1  0.000000  0.000000  0.696305  1
  O  O25  1  0.000000  0.000000  0.196678  1
  O  O26  1  0.666667  0.333333  0.752902  1
  O  O27  1  0.333333  0.666667  0.253096  1
  O  O28  1  0.666667  0.333333  0.252705  1
  O  O29  1  0.333333  0.666667  0.752641  1
