# generated using pymatgen
data_Ho4SiCl6
_symmetry_space_group_name_H-M   'P 1'
_cell_length_a   3.92499300
_cell_length_b   12.64744900
_cell_length_c   13.45141800
_cell_angle_alpha   90.00000000
_cell_angle_beta   90.00000000
_cell_angle_gamma   90.00000000
_symmetry_Int_Tables_number   1
_chemical_formula_structural   Ho4SiCl6
_chemical_formula_sum   'Ho8 Si2 Cl12'
_cell_volume   667.74384241
_cell_formula_units_Z   2
loop_
 _symmetry_equiv_pos_site_id
 _symmetry_equiv_pos_as_xyz
  1  'x, y, z'
loop_
 _atom_site_type_symbol
 _atom_site_label
 _atom_site_symmetry_multiplicity
 _atom_site_fract_x
 _atom_site_fract_y
 _atom_site_fract_z
 _atom_site_occupancy
  Ho  Ho0  1  0.500000  0.120923  0.337136  1
  Ho  Ho1  1  0.500000  0.879077  0.662864  1
  Ho  Ho2  1  0.500000  0.620923  0.162864  1
  Ho  Ho3  1  0.500000  0.379077  0.837136  1
  Ho  Ho4  1  0.000000  0.122846  0.581235  1
  Ho  Ho5  1  0.000000  0.877154  0.418765  1
  Ho  Ho6  1  0.000000  0.622846  0.918765  1
  Ho  Ho7  1  0.000000  0.377154  0.081235  1
  Si  Si8  1  0.500000  0.000000  0.500000  1
  Si  Si9  1  0.500000  0.500000  0.000000  1
  Cl  Cl10  1  0.500000  0.243893  0.163710  1
  Cl  Cl11  1  0.500000  0.756107  0.836290  1
  Cl  Cl12  1  0.500000  0.743893  0.336290  1
  Cl  Cl13  1  0.500000  0.256107  0.663710  1
  Cl  Cl14  1  0.000000  0.251983  0.409269  1
  Cl  Cl15  1  0.000000  0.748017  0.590731  1
  Cl  Cl16  1  0.000000  0.751983  0.090731  1
  Cl  Cl17  1  0.000000  0.248017  0.909269  1
  Cl  Cl18  1  0.000000  0.004474  0.245828  1
  Cl  Cl19  1  0.000000  0.995526  0.754172  1
  Cl  Cl20  1  0.000000  0.504474  0.254172  1
  Cl  Cl21  1  0.000000  0.495526  0.745828  1
