# generated using pymatgen
data_SmDy4(ThSe4)3
_symmetry_space_group_name_H-M   'P 1'
_cell_length_a   11.23845111
_cell_length_b   4.09260600
_cell_length_c   11.01114581
_cell_angle_alpha   90.00000000
_cell_angle_beta   89.83195857
_cell_angle_gamma   90.00000000
_symmetry_Int_Tables_number   1
_chemical_formula_structural   SmDy4(ThSe4)3
_chemical_formula_sum   'Sm1 Dy4 Th3 Se12'
_cell_volume   506.45054540
_cell_formula_units_Z   1
loop_
 _symmetry_equiv_pos_site_id
 _symmetry_equiv_pos_as_xyz
  1  'x, y, z'
loop_
 _atom_site_type_symbol
 _atom_site_label
 _atom_site_symmetry_multiplicity
 _atom_site_fract_x
 _atom_site_fract_y
 _atom_site_fract_z
 _atom_site_occupancy
  Sm  Sm0  1  0.697097  0.750000  0.496016  1
  Dy  Dy1  1  0.484493  0.250000  0.188164  1
  Dy  Dy2  1  0.983649  0.250000  0.314220  1
  Dy  Dy3  1  0.517437  0.750000  0.811502  1
  Dy  Dy4  1  0.013114  0.750000  0.685856  1
  Th  Th5  1  0.197505  0.750000  0.997764  1
  Th  Th6  1  0.305527  0.250000  0.501054  1
  Th  Th7  1  0.801952  0.250000  0.005199  1
  Se  Se8  1  0.546034  0.250000  0.627563  1
  Se  Se9  1  0.044884  0.250000  0.871198  1
  Se  Se10  1  0.453223  0.750000  0.371061  1
  Se  Se11  1  0.956404  0.750000  0.129028  1
  Se  Se12  1  0.613788  0.750000  0.055129  1
  Se  Se13  1  0.116510  0.750000  0.445343  1
  Se  Se14  1  0.385552  0.250000  0.944341  1
  Se  Se15  1  0.881771  0.250000  0.554282  1
  Se  Se16  1  0.727108  0.250000  0.293541  1
  Se  Se17  1  0.225075  0.250000  0.201372  1
  Se  Se18  1  0.272733  0.750000  0.704662  1
  Se  Se19  1  0.776142  0.750000  0.802706  1
