# generated using pymatgen
data_TmPa3(SiPt)4
_symmetry_space_group_name_H-M   'P 1'
_cell_length_a   4.29198300
_cell_length_b   7.10737284
_cell_length_c   7.45389383
_cell_angle_alpha   89.80698190
_cell_angle_beta   90.00000000
_cell_angle_gamma   90.00000000
_symmetry_Int_Tables_number   1
_chemical_formula_structural   TmPa3(SiPt)4
_chemical_formula_sum   'Tm1 Pa3 Si4 Pt4'
_cell_volume   227.37767937
_cell_formula_units_Z   1
loop_
 _symmetry_equiv_pos_site_id
 _symmetry_equiv_pos_as_xyz
  1  'x, y, z'
loop_
 _atom_site_type_symbol
 _atom_site_label
 _atom_site_symmetry_multiplicity
 _atom_site_fract_x
 _atom_site_fract_y
 _atom_site_fract_z
 _atom_site_occupancy
  Tm  Tm0  1  0.750000  0.004531  0.203453  1
  Pa  Pa1  1  0.250000  0.492057  0.701375  1
  Pa  Pa2  1  0.250000  0.995571  0.795911  1
  Pa  Pa3  1  0.750000  0.504499  0.298512  1
  Si  Si4  1  0.250000  0.799008  0.409447  1
  Si  Si5  1  0.250000  0.303983  0.093550  1
  Si  Si6  1  0.750000  0.197747  0.586700  1
  Si  Si7  1  0.750000  0.692986  0.910640  1
  Pt  Pt8  1  0.250000  0.197615  0.416254  1
  Pt  Pt9  1  0.250000  0.717969  0.081847  1
  Pt  Pt10  1  0.750000  0.798442  0.585260  1
  Pt  Pt11  1  0.750000  0.295590  0.917050  1
