# generated using pymatgen
data_Ca10Fe3ReN14
_symmetry_space_group_name_H-M   'P 1'
_cell_length_a   6.00825465
_cell_length_b   8.55527848
_cell_length_c   8.58092300
_cell_angle_alpha   114.64891681
_cell_angle_beta   97.61738425
_cell_angle_gamma   89.53309053
_symmetry_Int_Tables_number   1
_chemical_formula_structural   Ca10Fe3ReN14
_chemical_formula_sum   'Ca10 Fe3 Re1 N14'
_cell_volume   396.80618668
_cell_formula_units_Z   1
loop_
 _symmetry_equiv_pos_site_id
 _symmetry_equiv_pos_as_xyz
  1  'x, y, z'
loop_
 _atom_site_type_symbol
 _atom_site_label
 _atom_site_symmetry_multiplicity
 _atom_site_fract_x
 _atom_site_fract_y
 _atom_site_fract_z
 _atom_site_occupancy
  Ca  Ca0  1  0.854159  0.600047  0.335013  1
  Ca  Ca1  1  0.265837  0.983771  0.578642  1
  Ca  Ca2  1  0.719464  0.424919  0.870268  1
  Ca  Ca3  1  0.289255  0.588110  0.147874  1
  Ca  Ca4  1  0.402271  0.790674  0.912201  1
  Ca  Ca5  1  0.593818  0.203984  0.059662  1
  Ca  Ca6  1  0.154158  0.412167  0.677452  1
  Ca  Ca7  1  0.890197  0.850687  0.767805  1
  Ca  Ca8  1  0.100337  0.143009  0.224010  1
  Ca  Ca9  1  0.729869  0.997462  0.423120  1
  Fe  Fe10  1  0.418718  0.643792  0.523611  1
  Fe  Fe11  1  0.118107  0.221369  0.913404  1
  Fe  Fe12  1  0.879340  0.784557  0.088595  1
  Re  Re13  1  0.578770  0.355123  0.471681  1
  N  N14  1  0.538034  0.543675  0.682108  1
  N  N15  1  0.472667  0.441437  0.308301  1
  N  N16  1  0.152707  0.710038  0.581709  1
  N  N17  1  0.864171  0.292837  0.440839  1
  N  N18  1  0.402363  0.174412  0.453552  1
  N  N19  1  0.587333  0.815652  0.529315  1
  N  N20  1  0.941150  0.151768  0.719818  1
  N  N21  1  0.050968  0.853849  0.285736  1
  N  N22  1  0.232746  0.048364  0.947367  1
  N  N23  1  0.764465  0.955164  0.048630  1
  N  N24  1  0.355486  0.327999  0.893276  1
  N  N25  1  0.973360  0.351244  0.085069  1
  N  N26  1  0.027955  0.653534  0.922263  1
  N  N27  1  0.642294  0.680358  0.108679  1
