# generated using pymatgen
data_Ba4Sn3Au5
_symmetry_space_group_name_H-M   'P 1'
_cell_length_a   6.57807796
_cell_length_b   6.57807778
_cell_length_c   12.23459739
_cell_angle_alpha   90.28822929
_cell_angle_beta   90.28822828
_cell_angle_gamma   44.12296788
_symmetry_Int_Tables_number   1
_chemical_formula_structural   Ba4Sn3Au5
_chemical_formula_sum   'Ba4 Sn3 Au5'
_cell_volume   368.56637114
_cell_formula_units_Z   1
loop_
 _symmetry_equiv_pos_site_id
 _symmetry_equiv_pos_as_xyz
  1  'x, y, z'
loop_
 _atom_site_type_symbol
 _atom_site_label
 _atom_site_symmetry_multiplicity
 _atom_site_fract_x
 _atom_site_fract_y
 _atom_site_fract_z
 _atom_site_occupancy
  Ba  Ba0  1  0.689429  0.689429  0.693578  1
  Ba  Ba1  1  0.174373  0.174373  0.158122  1
  Ba  Ba2  1  0.423140  0.423140  0.907533  1
  Ba  Ba3  1  0.872430  0.872430  0.397093  1
  Sn  Sn4  1  0.159201  0.159201  0.487881  1
  Sn  Sn5  1  0.981827  0.981827  0.668318  1
  Sn  Sn6  1  0.466752  0.466752  0.200070  1
  Au  Au7  1  0.715376  0.715376  0.965820  1
  Au  Au8  1  0.378237  0.378237  0.608258  1
  Au  Au9  1  0.893385  0.893385  0.118265  1
  Au  Au10  1  0.125468  0.125468  0.875777  1
  Au  Au11  1  0.592782  0.592782  0.391686  1
