# generated using pymatgen
data_Y3Ir5Rh4
_symmetry_space_group_name_H-M   'P 1'
_cell_length_a   5.29743702
_cell_length_b   5.29743789
_cell_length_c   17.50040966
_cell_angle_alpha   89.95674090
_cell_angle_beta   90.04325872
_cell_angle_gamma   119.94338203
_symmetry_Int_Tables_number   1
_chemical_formula_structural   Y3Ir5Rh4
_chemical_formula_sum   'Y6 Ir10 Rh8'
_cell_volume   425.55710776
_cell_formula_units_Z   2
loop_
 _symmetry_equiv_pos_site_id
 _symmetry_equiv_pos_as_xyz
  1  'x, y, z'
loop_
 _atom_site_type_symbol
 _atom_site_label
 _atom_site_symmetry_multiplicity
 _atom_site_fract_x
 _atom_site_fract_y
 _atom_site_fract_z
 _atom_site_occupancy
  Y  Y0  1  0.333327  0.666673  0.958008  1
  Y  Y1  1  0.667216  0.332784  0.041643  1
  Y  Y2  1  0.666649  0.333351  0.458546  1
  Y  Y3  1  0.333247  0.666753  0.541521  1
  Y  Y4  1  0.333247  0.666753  0.749849  1
  Y  Y5  1  0.666767  0.333233  0.251109  1
  Ir  Ir6  1  0.167645  0.832355  0.373820  1
  Ir  Ir7  1  0.167081  0.334632  0.373384  1
  Ir  Ir8  1  0.665368  0.832919  0.373384  1
  Ir  Ir9  1  0.832440  0.167560  0.626230  1
  Ir  Ir10  1  0.832589  0.664887  0.626075  1
  Ir  Ir11  1  0.335113  0.167411  0.626075  1
  Ir  Ir12  1  0.832457  0.167543  0.873901  1
  Ir  Ir13  1  0.832109  0.664836  0.874210  1
  Ir  Ir14  1  0.335164  0.167891  0.874210  1
  Ir  Ir15  1  0.166491  0.833509  0.126375  1
  Rh  Rh16  1  0.166192  0.335660  0.125684  1
  Rh  Rh17  1  0.664340  0.833808  0.125684  1
  Rh  Rh18  1  0.332978  0.667022  0.249753  1
  Rh  Rh19  1  0.666555  0.333445  0.750193  1
  Rh  Rh20  1  0.001141  0.998859  0.249963  1
  Rh  Rh21  1  0.000097  0.999903  0.750055  1
  Rh  Rh22  1  0.999734  0.000266  0.500159  1
  Rh  Rh23  1  0.002053  0.997947  0.000169  1
