# generated using pymatgen
data_Rb8Tb3UBr20
_symmetry_space_group_name_H-M   'P 1'
_cell_length_a   8.81995257
_cell_length_b   9.27357600
_cell_length_c   14.12180212
_cell_angle_alpha   90.00000000
_cell_angle_beta   89.42858468
_cell_angle_gamma   90.00000000
_symmetry_Int_Tables_number   1
_chemical_formula_structural   Rb8Tb3UBr20
_chemical_formula_sum   'Rb8 Tb3 U1 Br20'
_cell_volume   1155.00006442
_cell_formula_units_Z   1
loop_
 _symmetry_equiv_pos_site_id
 _symmetry_equiv_pos_as_xyz
  1  'x, y, z'
loop_
 _atom_site_type_symbol
 _atom_site_label
 _atom_site_symmetry_multiplicity
 _atom_site_fract_x
 _atom_site_fract_y
 _atom_site_fract_z
 _atom_site_occupancy
  Rb  Rb0  1  0.546060  0.498807  0.824591  1
  Rb  Rb1  1  0.453824  0.499707  0.175049  1
  Rb  Rb2  1  0.046938  0.499509  0.671895  1
  Rb  Rb3  1  0.453824  0.000293  0.175049  1
  Rb  Rb4  1  0.952707  0.499229  0.327777  1
  Rb  Rb5  1  0.546060  0.001193  0.824591  1
  Rb  Rb6  1  0.952707  0.000771  0.327777  1
  Rb  Rb7  1  0.046938  0.000491  0.671895  1
  Tb  Tb8  1  0.571399  0.750000  0.503305  1
  Tb  Tb9  1  0.429503  0.250000  0.496606  1
  Tb  Tb10  1  0.072595  0.250000  0.997259  1
  U  U11  1  0.928482  0.750000  0.003349  1
  Br  Br12  1  0.839311  0.750000  0.802277  1
  Br  Br13  1  0.158252  0.250000  0.192868  1
  Br  Br14  1  0.341257  0.250000  0.692396  1
  Br  Br15  1  0.658833  0.750000  0.306937  1
  Br  Br16  1  0.378085  0.750000  0.668009  1
  Br  Br17  1  0.622251  0.250000  0.331967  1
  Br  Br18  1  0.879110  0.250000  0.834184  1
  Br  Br19  1  0.125757  0.750000  0.172971  1
  Br  Br20  1  0.898870  0.750000  0.514804  1
  Br  Br21  1  0.101709  0.250000  0.484181  1
  Br  Br22  1  0.401670  0.250000  0.985794  1
  Br  Br23  1  0.589456  0.750000  0.013052  1
  Br  Br24  1  0.655089  0.042966  0.571793  1
  Br  Br25  1  0.345785  0.957188  0.428389  1
  Br  Br26  1  0.156781  0.962366  0.922933  1
  Br  Br27  1  0.345785  0.542812  0.428389  1
  Br  Br28  1  0.844547  0.047888  0.077595  1
  Br  Br29  1  0.655089  0.457034  0.571793  1
  Br  Br30  1  0.844547  0.452112  0.077595  1
  Br  Br31  1  0.156781  0.537634  0.922933  1
