# generated using pymatgen
data_NdTm2PtRh8
_symmetry_space_group_name_H-M   'P 1'
_cell_length_a   5.30435568
_cell_length_b   5.30435684
_cell_length_c   17.48717400
_cell_angle_alpha   90.00000000
_cell_angle_beta   90.00000000
_cell_angle_gamma   120.02274665
_symmetry_Int_Tables_number   1
_chemical_formula_structural   NdTm2PtRh8
_chemical_formula_sum   'Nd2 Tm4 Pt2 Rh16'
_cell_volume   426.00632085
_cell_formula_units_Z   2
loop_
 _symmetry_equiv_pos_site_id
 _symmetry_equiv_pos_as_xyz
  1  'x, y, z'
loop_
 _atom_site_type_symbol
 _atom_site_label
 _atom_site_symmetry_multiplicity
 _atom_site_fract_x
 _atom_site_fract_y
 _atom_site_fract_z
 _atom_site_occupancy
  Nd  Nd0  1  0.333316  0.666683  0.750000  1
  Nd  Nd1  1  0.666684  0.333317  0.250000  1
  Tm  Tm2  1  0.333309  0.666681  0.541580  1
  Tm  Tm3  1  0.666691  0.333319  0.041580  1
  Tm  Tm4  1  0.666691  0.333319  0.458420  1
  Tm  Tm5  1  0.333309  0.666681  0.958420  1
  Pt  Pt6  1  0.000000  0.000000  0.000000  1
  Pt  Pt7  1  0.000000  0.000000  0.500000  1
  Rh  Rh8  1  0.167878  0.335698  0.124847  1
  Rh  Rh9  1  0.832122  0.664302  0.624847  1
  Rh  Rh10  1  0.664297  0.832119  0.124834  1
  Rh  Rh11  1  0.167887  0.832125  0.124866  1
  Rh  Rh12  1  0.832113  0.167875  0.624866  1
  Rh  Rh13  1  0.335703  0.167881  0.624834  1
  Rh  Rh14  1  0.832122  0.664302  0.875153  1
  Rh  Rh15  1  0.832113  0.167875  0.875134  1
  Rh  Rh16  1  0.335703  0.167881  0.875166  1
  Rh  Rh17  1  0.664297  0.832119  0.375166  1
  Rh  Rh18  1  0.167887  0.832125  0.375134  1
  Rh  Rh19  1  0.167878  0.335698  0.375153  1
  Rh  Rh20  1  0.999855  0.999992  0.250000  1
  Rh  Rh21  1  0.000145  0.000008  0.750000  1
  Rh  Rh22  1  0.333495  0.666633  0.250000  1
  Rh  Rh23  1  0.666505  0.333367  0.750000  1
