# generated using pymatgen
data_Tb2Er4MgCo17P12
_symmetry_space_group_name_H-M   'P 1'
_cell_length_a   3.69043300
_cell_length_b   10.52286500
_cell_length_c   12.17412800
_cell_angle_alpha   90.00000000
_cell_angle_beta   90.00000000
_cell_angle_gamma   90.00000000
_symmetry_Int_Tables_number   1
_chemical_formula_structural   Tb2Er4MgCo17P12
_chemical_formula_sum   'Tb2 Er4 Mg1 Co17 P12'
_cell_volume   472.76921326
_cell_formula_units_Z   1
loop_
 _symmetry_equiv_pos_site_id
 _symmetry_equiv_pos_as_xyz
  1  'x, y, z'
loop_
 _atom_site_type_symbol
 _atom_site_label
 _atom_site_symmetry_multiplicity
 _atom_site_fract_x
 _atom_site_fract_y
 _atom_site_fract_z
 _atom_site_occupancy
  Tb  Tb0  1  0.750000  0.250000  0.475039  1
  Tb  Tb1  1  0.250000  0.750000  0.522232  1
  Er  Er2  1  0.250000  0.928188  0.792526  1
  Er  Er3  1  0.250000  0.571812  0.792526  1
  Er  Er4  1  0.750000  0.067440  0.205206  1
  Er  Er5  1  0.750000  0.432560  0.205206  1
  Mg  Mg6  1  0.250000  0.250000  0.847951  1
  Co  Co7  1  0.750000  0.750000  0.161126  1
  Co  Co8  1  0.250000  0.250000  0.294420  1
  Co  Co9  1  0.750000  0.750000  0.704286  1
  Co  Co10  1  0.750000  0.250000  0.013949  1
  Co  Co11  1  0.250000  0.750000  0.986838  1
  Co  Co12  1  0.250000  0.421183  0.006719  1
  Co  Co13  1  0.250000  0.078817  0.006719  1
  Co  Co14  1  0.750000  0.586854  0.998063  1
  Co  Co15  1  0.750000  0.913146  0.998063  1
  Co  Co16  1  0.250000  0.454092  0.567588  1
  Co  Co17  1  0.250000  0.045908  0.567588  1
  Co  Co18  1  0.750000  0.547241  0.429279  1
  Co  Co19  1  0.750000  0.952759  0.429279  1
  Co  Co20  1  0.250000  0.870312  0.291095  1
  Co  Co21  1  0.250000  0.629688  0.291095  1
  Co  Co22  1  0.750000  0.126884  0.707893  1
  Co  Co23  1  0.750000  0.373116  0.707893  1
  P  P24  1  0.250000  0.250000  0.116378  1
  P  P25  1  0.750000  0.750000  0.883032  1
  P  P26  1  0.250000  0.250000  0.647507  1
  P  P27  1  0.750000  0.750000  0.344799  1
  P  P28  1  0.250000  0.440266  0.382107  1
  P  P29  1  0.250000  0.059734  0.382107  1
  P  P30  1  0.750000  0.560366  0.614875  1
  P  P31  1  0.750000  0.939634  0.614875  1
  P  P32  1  0.250000  0.900531  0.110059  1
  P  P33  1  0.250000  0.599469  0.110059  1
  P  P34  1  0.750000  0.086462  0.895812  1
  P  P35  1  0.750000  0.413538  0.895812  1
