# generated using pymatgen
data_Sc2AlGa2Os
_symmetry_space_group_name_H-M   'P 1'
_cell_length_a   5.25209545
_cell_length_b   5.22264544
_cell_length_c   8.58950700
_cell_angle_alpha   90.00000000
_cell_angle_beta   90.00000000
_cell_angle_gamma   119.81469402
_symmetry_Int_Tables_number   1
_chemical_formula_structural   Sc2AlGa2Os
_chemical_formula_sum   'Sc4 Al2 Ga4 Os2'
_cell_volume   204.42308655
_cell_formula_units_Z   2
loop_
 _symmetry_equiv_pos_site_id
 _symmetry_equiv_pos_as_xyz
  1  'x, y, z'
loop_
 _atom_site_type_symbol
 _atom_site_label
 _atom_site_symmetry_multiplicity
 _atom_site_fract_x
 _atom_site_fract_y
 _atom_site_fract_z
 _atom_site_occupancy
  Sc  Sc0  1  0.332607  0.667709  0.053737  1
  Sc  Sc1  1  0.667393  0.335102  0.553737  1
  Sc  Sc2  1  0.332607  0.667709  0.446263  1
  Sc  Sc3  1  0.667393  0.335102  0.946263  1
  Al  Al4  1  0.836455  0.163250  0.250000  1
  Al  Al5  1  0.163545  0.326796  0.750000  1
  Ga  Ga6  1  0.835884  0.663435  0.250000  1
  Ga  Ga7  1  0.164116  0.827551  0.750000  1
  Ga  Ga8  1  0.661641  0.826044  0.750000  1
  Ga  Ga9  1  0.338359  0.164402  0.250000  1
  Os  Os10  1  0.000000  0.011449  0.500000  1
  Os  Os11  1  0.000000  0.011449  0.000000  1
