# generated using pymatgen
data_Ni6SbIO12
_symmetry_space_group_name_H-M   'P 1'
_cell_length_a   5.18428204
_cell_length_b   5.53878357
_cell_length_c   8.98580408
_cell_angle_alpha   105.55606661
_cell_angle_beta   90.03919758
_cell_angle_gamma   117.96524302
_symmetry_Int_Tables_number   1
_chemical_formula_structural   Ni6SbIO12
_chemical_formula_sum   'Ni6 Sb1 I1 O12'
_cell_volume   217.10921919
_cell_formula_units_Z   1
loop_
 _symmetry_equiv_pos_site_id
 _symmetry_equiv_pos_as_xyz
  1  'x, y, z'
loop_
 _atom_site_type_symbol
 _atom_site_label
 _atom_site_symmetry_multiplicity
 _atom_site_fract_x
 _atom_site_fract_y
 _atom_site_fract_z
 _atom_site_occupancy
  Ni  Ni0  1  0.262131  0.533798  0.757603  1
  Ni  Ni1  1  0.759975  0.510244  0.250451  1
  Ni  Ni2  1  0.840366  0.664419  0.620224  1
  Ni  Ni3  1  0.312881  0.645502  0.099562  1
  Ni  Ni4  1  0.017728  0.037792  0.000731  1
  Ni  Ni5  1  0.523399  0.042784  0.511732  1
  Sb  Sb6  1  0.566635  0.135961  0.855569  1
  I  I7  1  0.059261  0.115191  0.352504  1
  O  O8  1  0.717664  0.847066  0.805936  1
  O  O9  1  0.219849  0.852877  0.308106  1
  O  O10  1  0.275452  0.850673  0.658373  1
  O  O11  1  0.778011  0.848673  0.165394  1
  O  O12  1  0.275464  0.851948  0.957891  1
  O  O13  1  0.783952  0.848483  0.454311  1
  O  O14  1  0.336739  0.344820  0.909241  1
  O  O15  1  0.846070  0.322656  0.399285  1
  O  O16  1  0.342256  0.327552  0.536778  1
  O  O17  1  0.862650  0.338752  0.050908  1
  O  O18  1  0.810357  0.341370  0.711484  1
  O  O19  1  0.303840  0.328801  0.225476  1
