# generated using pymatgen
data_Ca3Nd17(Ga3Pb)3
_symmetry_space_group_name_H-M   'P 1'
_cell_length_a   7.95663000
_cell_length_b   7.95663000
_cell_length_c   14.82416900
_cell_angle_alpha   90.00000000
_cell_angle_beta   90.00000000
_cell_angle_gamma   90.00000000
_symmetry_Int_Tables_number   1
_chemical_formula_structural   Ca3Nd17(Ga3Pb)3
_chemical_formula_sum   'Ca3 Nd17 Ga9 Pb3'
_cell_volume   938.48791227
_cell_formula_units_Z   1
loop_
 _symmetry_equiv_pos_site_id
 _symmetry_equiv_pos_as_xyz
  1  'x, y, z'
loop_
 _atom_site_type_symbol
 _atom_site_label
 _atom_site_symmetry_multiplicity
 _atom_site_fract_x
 _atom_site_fract_y
 _atom_site_fract_z
 _atom_site_occupancy
  Ca  Ca0  1  0.000000  0.000000  0.248357  1
  Ca  Ca1  1  0.000000  0.000000  0.745880  1
  Ca  Ca2  1  0.500000  0.500000  0.243288  1
  Nd  Nd3  1  0.674988  0.164633  0.104106  1
  Nd  Nd4  1  0.173918  0.667268  0.608778  1
  Nd  Nd5  1  0.325012  0.835367  0.104106  1
  Nd  Nd6  1  0.826082  0.332732  0.608778  1
  Nd  Nd7  1  0.835367  0.674988  0.104106  1
  Nd  Nd8  1  0.332732  0.173918  0.608778  1
  Nd  Nd9  1  0.164633  0.325012  0.104106  1
  Nd  Nd10  1  0.667268  0.826082  0.608778  1
  Nd  Nd11  1  0.840242  0.321031  0.896374  1
  Nd  Nd12  1  0.331280  0.831484  0.390429  1
  Nd  Nd13  1  0.159758  0.678969  0.896374  1
  Nd  Nd14  1  0.668720  0.168516  0.390429  1
  Nd  Nd15  1  0.678969  0.840242  0.896374  1
  Nd  Nd16  1  0.168516  0.331280  0.390429  1
  Nd  Nd17  1  0.321031  0.159758  0.896374  1
  Nd  Nd18  1  0.831484  0.668720  0.390429  1
  Nd  Nd19  1  0.500000  0.500000  0.773078  1
  Ga  Ga20  1  0.619229  0.122263  0.749758  1
  Ga  Ga21  1  0.120092  0.620261  0.248096  1
  Ga  Ga22  1  0.879908  0.379739  0.248096  1
  Ga  Ga23  1  0.380771  0.877737  0.749758  1
  Ga  Ga24  1  0.877737  0.619229  0.749758  1
  Ga  Ga25  1  0.379739  0.120092  0.248096  1
  Ga  Ga26  1  0.122263  0.380771  0.749758  1
  Ga  Ga27  1  0.620261  0.879908  0.248096  1
  Ga  Ga28  1  0.000000  0.000000  0.000956  1
  Pb  Pb29  1  0.500000  0.500000  0.497210  1
  Pb  Pb30  1  0.500000  0.500000  0.001411  1
  Pb  Pb31  1  0.000000  0.000000  0.499646  1
