# generated using pymatgen
data_ErTa2Nb4Sn5Sb
_symmetry_space_group_name_H-M   'P 1'
_cell_length_a   5.79653000
_cell_length_b   5.79259416
_cell_length_c   9.58937000
_cell_angle_alpha   90.00000000
_cell_angle_beta   90.00000000
_cell_angle_gamma   120.02247894
_symmetry_Int_Tables_number   1
_chemical_formula_structural   ErTa2Nb4Sn5Sb
_chemical_formula_sum   'Er1 Ta2 Nb4 Sn5 Sb1'
_cell_volume   278.78119777
_cell_formula_units_Z   1
loop_
 _symmetry_equiv_pos_site_id
 _symmetry_equiv_pos_as_xyz
  1  'x, y, z'
loop_
 _atom_site_type_symbol
 _atom_site_label
 _atom_site_symmetry_multiplicity
 _atom_site_fract_x
 _atom_site_fract_y
 _atom_site_fract_z
 _atom_site_occupancy
  Er  Er0  1  0.000000  0.000000  0.995836  1
  Ta  Ta1  1  0.500000  0.000000  0.752678  1
  Ta  Ta2  1  0.500000  0.000000  0.249514  1
  Nb  Nb3  1  0.000000  0.500000  0.751782  1
  Nb  Nb4  1  0.500000  0.500000  0.751782  1
  Nb  Nb5  1  0.000000  0.500000  0.250799  1
  Nb  Nb6  1  0.500000  0.500000  0.250799  1
  Sn  Sn7  1  0.665943  0.331887  0.500730  1
  Sn  Sn8  1  0.334057  0.668113  0.500730  1
  Sn  Sn9  1  0.667369  0.334738  0.001068  1
  Sn  Sn10  1  0.332631  0.665262  0.001068  1
  Sn  Sn11  1  0.000000  0.000000  0.333666  1
  Sb  Sb12  1  0.000000  0.000000  0.659544  1
