# generated using pymatgen
data_LiSc(BrO3)4
_symmetry_space_group_name_H-M   'P 1'
_cell_length_a   4.97711141
_cell_length_b   6.63089495
_cell_length_c   8.60662655
_cell_angle_alpha   83.83437347
_cell_angle_beta   88.24968021
_cell_angle_gamma   88.28680069
_symmetry_Int_Tables_number   1
_chemical_formula_structural   LiSc(BrO3)4
_chemical_formula_sum   'Li1 Sc1 Br4 O12'
_cell_volume   282.16589911
_cell_formula_units_Z   1
loop_
 _symmetry_equiv_pos_site_id
 _symmetry_equiv_pos_as_xyz
  1  'x, y, z'
loop_
 _atom_site_type_symbol
 _atom_site_label
 _atom_site_symmetry_multiplicity
 _atom_site_fract_x
 _atom_site_fract_y
 _atom_site_fract_z
 _atom_site_occupancy
  Li  Li0  1  0.500000  0.000000  0.500000  1
  Sc  Sc1  1  0.500000  0.500000  0.500000  1
  Br  Br2  1  0.571693  0.808483  0.156534  1
  Br  Br3  1  0.029362  0.282781  0.271342  1
  Br  Br4  1  0.970638  0.717219  0.728658  1
  Br  Br5  1  0.428307  0.191517  0.843466  1
  O  O6  1  0.756469  0.629461  0.080483  1
  O  O7  1  0.723127  0.027860  0.110132  1
  O  O8  1  0.208986  0.478505  0.325262  1
  O  O9  1  0.203541  0.075447  0.333250  1
  O  O10  1  0.628334  0.760290  0.361559  1
  O  O11  1  0.753345  0.279895  0.397366  1
  O  O12  1  0.246655  0.720105  0.602634  1
  O  O13  1  0.371666  0.239710  0.638441  1
  O  O14  1  0.796459  0.924553  0.666750  1
  O  O15  1  0.791014  0.521495  0.674738  1
  O  O16  1  0.276873  0.972140  0.889868  1
  O  O17  1  0.243531  0.370539  0.919517  1
