# generated using pymatgen
data_Er5Zr3(P3Pd4)4
_symmetry_space_group_name_H-M   'P 1'
_cell_length_a   13.13725100
_cell_length_b   13.13724980
_cell_length_c   3.98423400
_cell_angle_alpha   90.00000000
_cell_angle_beta   90.00000000
_cell_angle_gamma   120.00000051
_symmetry_Int_Tables_number   1
_chemical_formula_structural   Er5Zr3(P3Pd4)4
_chemical_formula_sum   'Er5 Zr3 P12 Pd16'
_cell_volume   595.50364230
_cell_formula_units_Z   1
loop_
 _symmetry_equiv_pos_site_id
 _symmetry_equiv_pos_as_xyz
  1  'x, y, z'
loop_
 _atom_site_type_symbol
 _atom_site_label
 _atom_site_symmetry_multiplicity
 _atom_site_fract_x
 _atom_site_fract_y
 _atom_site_fract_z
 _atom_site_occupancy
  Er  Er0  1  0.188305  0.188305  0.500000  1
  Er  Er1  1  0.811695  0.000000  0.500000  1
  Er  Er2  1  0.000000  0.811695  0.500000  1
  Er  Er3  1  0.333333  0.666667  0.000000  1
  Er  Er4  1  0.666667  0.333333  0.000000  1
  Zr  Zr5  1  0.553486  0.553486  0.000000  1
  Zr  Zr6  1  0.446514  0.000000  0.000000  1
  Zr  Zr7  1  0.000000  0.446514  0.000000  1
  P  P8  1  0.826763  0.826763  0.000000  1
  P  P9  1  0.173237  0.000000  0.000000  1
  P  P10  1  0.000000  0.173237  0.000000  1
  P  P11  1  0.166189  0.482497  0.500000  1
  P  P12  1  0.517503  0.683692  0.500000  1
  P  P13  1  0.316308  0.833811  0.500000  1
  P  P14  1  0.683692  0.517503  0.500000  1
  P  P15  1  0.833811  0.316308  0.500000  1
  P  P16  1  0.482497  0.166189  0.500000  1
  P  P17  1  0.356122  0.356122  0.000000  1
  P  P18  1  0.643878  0.000000  0.000000  1
  P  P19  1  0.000000  0.643878  0.000000  1
  Pd  Pd20  1  0.726452  0.726452  0.500000  1
  Pd  Pd21  1  0.273548  0.000000  0.500000  1
  Pd  Pd22  1  0.000000  0.273548  0.500000  1
  Pd  Pd23  1  0.182514  0.372314  0.000000  1
  Pd  Pd24  1  0.627686  0.810201  0.000000  1
  Pd  Pd25  1  0.189799  0.817486  0.000000  1
  Pd  Pd26  1  0.810201  0.627686  0.000000  1
  Pd  Pd27  1  0.817486  0.189799  0.000000  1
  Pd  Pd28  1  0.372314  0.182514  0.000000  1
  Pd  Pd29  1  0.356863  0.488614  0.500000  1
  Pd  Pd30  1  0.511386  0.868248  0.500000  1
  Pd  Pd31  1  0.131752  0.643137  0.500000  1
  Pd  Pd32  1  0.868248  0.511386  0.500000  1
  Pd  Pd33  1  0.643137  0.131752  0.500000  1
  Pd  Pd34  1  0.488614  0.356863  0.500000  1
  Pd  Pd35  1  0.000000  0.000000  0.000000  1
