# generated using pymatgen
data_Ti3Re3Si2As
_symmetry_space_group_name_H-M   'P 1'
_cell_length_a   6.82198200
_cell_length_b   6.82198225
_cell_length_c   3.29198600
_cell_angle_alpha   90.00000000
_cell_angle_beta   90.00000000
_cell_angle_gamma   119.99999881
_symmetry_Int_Tables_number   1
_chemical_formula_structural   Ti3Re3Si2As
_chemical_formula_sum   'Ti3 Re3 Si2 As1'
_cell_volume   132.68131603
_cell_formula_units_Z   1
loop_
 _symmetry_equiv_pos_site_id
 _symmetry_equiv_pos_as_xyz
  1  'x, y, z'
loop_
 _atom_site_type_symbol
 _atom_site_label
 _atom_site_symmetry_multiplicity
 _atom_site_fract_x
 _atom_site_fract_y
 _atom_site_fract_z
 _atom_site_occupancy
  Ti  Ti0  1  0.395637  0.404361  0.500000  1
  Ti  Ti1  1  0.595639  0.991276  0.500000  1
  Ti  Ti2  1  0.008724  0.604363  0.500000  1
  Re  Re3  1  0.738676  0.743507  0.000000  1
  Re  Re4  1  0.256493  0.995169  0.000000  1
  Re  Re5  1  0.004831  0.261324  0.000000  1
  Si  Si6  1  0.333333  0.666667  0.000000  1
  Si  Si7  1  0.000000  0.000000  0.500000  1
  As  As8  1  0.666667  0.333333  0.000000  1
