# generated using pymatgen
data_Dy2Tm2TcB12Ru
_symmetry_space_group_name_H-M   'P 1'
_cell_length_a   3.64957900
_cell_length_b   9.11035458
_cell_length_c   11.50209900
_cell_angle_alpha   89.86391470
_cell_angle_beta   90.00000000
_cell_angle_gamma   90.00000000
_symmetry_Int_Tables_number   1
_chemical_formula_structural   Dy2Tm2TcB12Ru
_chemical_formula_sum   'Dy4 Tm4 Tc2 B24 Ru2'
_cell_volume   382.43173668
_cell_formula_units_Z   2
loop_
 _symmetry_equiv_pos_site_id
 _symmetry_equiv_pos_as_xyz
  1  'x, y, z'
loop_
 _atom_site_type_symbol
 _atom_site_label
 _atom_site_symmetry_multiplicity
 _atom_site_fract_x
 _atom_site_fract_y
 _atom_site_fract_z
 _atom_site_occupancy
  Dy  Dy0  1  0.000000  0.324405  0.415453  1
  Dy  Dy1  1  0.000000  0.675595  0.584547  1
  Dy  Dy2  1  0.000000  0.820918  0.087313  1
  Dy  Dy3  1  0.000000  0.179082  0.912687  1
  Tm  Tm4  1  0.000000  0.942148  0.370677  1
  Tm  Tm5  1  0.000000  0.057852  0.629323  1
  Tm  Tm6  1  0.000000  0.443192  0.130001  1
  Tm  Tm7  1  0.000000  0.556808  0.869999  1
  Tc  Tc8  1  0.000000  0.638926  0.319609  1
  Tc  Tc9  1  0.000000  0.361074  0.680391  1
  B  B10  1  0.500000  0.553363  0.432746  1
  B  B11  1  0.500000  0.446637  0.567254  1
  B  B12  1  0.500000  0.054087  0.067211  1
  B  B13  1  0.500000  0.945913  0.932789  1
  B  B14  1  0.500000  0.749379  0.418647  1
  B  B15  1  0.500000  0.250621  0.581353  1
  B  B16  1  0.500000  0.249407  0.081467  1
  B  B17  1  0.500000  0.750593  0.918533  1
  B  B18  1  0.500000  0.791893  0.265229  1
  B  B19  1  0.500000  0.208107  0.734771  1
  B  B20  1  0.500000  0.290951  0.234272  1
  B  B21  1  0.500000  0.709049  0.765728  1
  B  B22  1  0.500000  0.630563  0.184819  1
  B  B23  1  0.500000  0.369437  0.815181  1
  B  B24  1  0.500000  0.130241  0.314393  1
  B  B25  1  0.500000  0.869759  0.685607  1
  B  B26  1  0.500000  0.982839  0.212269  1
  B  B27  1  0.500000  0.017161  0.787731  1
  B  B28  1  0.500000  0.482229  0.287211  1
  B  B29  1  0.500000  0.517771  0.712789  1
  B  B30  1  0.500000  0.601857  0.027935  1
  B  B31  1  0.500000  0.398143  0.972065  1
  B  B32  1  0.500000  0.101911  0.471645  1
  B  B33  1  0.500000  0.898089  0.528355  1
  Ru  Ru34  1  0.000000  0.138108  0.179095  1
  Ru  Ru35  1  0.000000  0.861892  0.820905  1
