# generated using pymatgen
data_CaTh3(Si3Rh)2
_symmetry_space_group_name_H-M   'P 1'
_cell_length_a   8.27911400
_cell_length_b   8.27911345
_cell_length_c   4.19736500
_cell_angle_alpha   90.00000000
_cell_angle_beta   90.00000000
_cell_angle_gamma   120.67593918
_symmetry_Int_Tables_number   1
_chemical_formula_structural   CaTh3(Si3Rh)2
_chemical_formula_sum   'Ca1 Th3 Si6 Rh2'
_cell_volume   247.44376355
_cell_formula_units_Z   1
loop_
 _symmetry_equiv_pos_site_id
 _symmetry_equiv_pos_as_xyz
  1  'x, y, z'
loop_
 _atom_site_type_symbol
 _atom_site_label
 _atom_site_symmetry_multiplicity
 _atom_site_fract_x
 _atom_site_fract_y
 _atom_site_fract_z
 _atom_site_occupancy
  Ca  Ca0  1  0.500000  0.500000  0.500000  1
  Th  Th1  1  0.000000  0.000000  0.500000  1
  Th  Th2  1  0.000000  0.500000  0.500000  1
  Th  Th3  1  0.500000  0.000000  0.500000  1
  Si  Si4  1  0.171070  0.336707  0.000000  1
  Si  Si5  1  0.663293  0.828930  0.000000  1
  Si  Si6  1  0.336707  0.171070  0.000000  1
  Si  Si7  1  0.162302  0.837698  0.000000  1
  Si  Si8  1  0.828930  0.663293  0.000000  1
  Si  Si9  1  0.837698  0.162302  0.000000  1
  Rh  Rh10  1  0.326816  0.673184  0.000000  1
  Rh  Rh11  1  0.673184  0.326816  0.000000  1
