# generated using pymatgen
data_Yb12Sc3Al5(SiO4)12
_symmetry_space_group_name_H-M   'P 1'
_cell_length_a   10.39757203
_cell_length_b   10.39757255
_cell_length_c   10.39757239
_cell_angle_alpha   109.39412514
_cell_angle_beta   109.39411397
_cell_angle_gamma   109.39411006
_symmetry_Int_Tables_number   1
_chemical_formula_structural   Yb12Sc3Al5(SiO4)12
_chemical_formula_sum   'Yb12 Sc3 Al5 Si12 O48'
_cell_volume   867.77588653
_cell_formula_units_Z   1
loop_
 _symmetry_equiv_pos_site_id
 _symmetry_equiv_pos_as_xyz
  1  'x, y, z'
loop_
 _atom_site_type_symbol
 _atom_site_label
 _atom_site_symmetry_multiplicity
 _atom_site_fract_x
 _atom_site_fract_y
 _atom_site_fract_z
 _atom_site_occupancy
  Yb  Yb0  1  0.375065  0.750634  0.125175  1
  Yb  Yb1  1  0.253325  0.376608  0.129055  1
  Yb  Yb2  1  0.376608  0.129054  0.253325  1
  Yb  Yb3  1  0.874826  0.624936  0.249365  1
  Yb  Yb4  1  0.750634  0.125176  0.375065  1
  Yb  Yb5  1  0.129054  0.253325  0.376608  1
  Yb  Yb6  1  0.870946  0.746676  0.623391  1
  Yb  Yb7  1  0.249366  0.874824  0.624936  1
  Yb  Yb8  1  0.125175  0.375065  0.750635  1
  Yb  Yb9  1  0.623393  0.870946  0.746675  1
  Yb  Yb10  1  0.746675  0.623393  0.870946  1
  Yb  Yb11  1  0.624934  0.249365  0.874825  1
  Sc  Sc12  1  0.500000  0.000000  0.000000  1
  Sc  Sc13  1  0.000000  0.499999  0.000000  1
  Sc  Sc14  1  0.000000  0.000000  0.500000  1
  Al  Al15  1  0.000000  0.000000  0.000000  1
  Al  Al16  1  0.499999  0.500000  0.000000  1
  Al  Al17  1  0.499999  0.500000  0.500000  1
  Al  Al18  1  0.000000  0.500000  0.500000  1
  Al  Al19  1  0.499999  0.000000  0.500000  1
  Si  Si20  1  0.878746  0.250019  0.129324  1
  Si  Si21  1  0.749983  0.870676  0.121253  1
  Si  Si22  1  0.628196  0.382538  0.255764  1
  Si  Si23  1  0.129324  0.878747  0.250018  1
  Si  Si24  1  0.255764  0.628195  0.382539  1
  Si  Si25  1  0.617461  0.744236  0.371804  1
  Si  Si26  1  0.744237  0.371804  0.617460  1
  Si  Si27  1  0.382538  0.255763  0.628195  1
  Si  Si28  1  0.870677  0.121254  0.749982  1
  Si  Si29  1  0.371804  0.617461  0.744236  1
  Si  Si30  1  0.250018  0.129323  0.878747  1
  Si  Si31  1  0.121254  0.749982  0.870676  1
  O  O32  1  0.199597  0.117530  0.012456  1
  O  O33  1  0.299898  0.894866  0.011964  1
  O  O34  1  0.698848  0.686595  0.082036  1
  O  O35  1  0.880766  0.394737  0.094138  1
  O  O36  1  0.614226  0.418992  0.108656  1
  O  O37  1  0.988037  0.700102  0.105134  1
  O  O38  1  0.012456  0.199597  0.117530  1
  O  O39  1  0.605263  0.905862  0.119234  1
  O  O40  1  0.212318  0.591847  0.201348  1
  O  O41  1  0.486872  0.603714  0.186065  1
  O  O42  1  0.117530  0.012456  0.199598  1
  O  O43  1  0.591848  0.201348  0.212317  1
  O  O44  1  0.313405  0.917963  0.301153  1
  O  O45  1  0.491408  0.389893  0.303410  1
  O  O46  1  0.917964  0.301153  0.313405  1
  O  O47  1  0.894866  0.011963  0.299898  1
  O  O48  1  0.581007  0.891343  0.385773  1
  O  O49  1  0.303411  0.491408  0.389893  1
  O  O50  1  0.813935  0.513128  0.396285  1
  O  O51  1  0.094138  0.880766  0.394738  1
  O  O52  1  0.798652  0.787683  0.408151  1
  O  O53  1  0.108656  0.614225  0.418992  1
  O  O54  1  0.389893  0.303410  0.491408  1
  O  O55  1  0.603714  0.186065  0.486872  1
  O  O56  1  0.396286  0.813936  0.513128  1
  O  O57  1  0.610108  0.696591  0.508594  1
  O  O58  1  0.891343  0.385774  0.581008  1
  O  O59  1  0.201348  0.212317  0.591849  1
  O  O60  1  0.905862  0.119234  0.605263  1
  O  O61  1  0.186065  0.486872  0.603714  1
  O  O62  1  0.418991  0.108656  0.614225  1
  O  O63  1  0.696591  0.508593  0.610109  1
  O  O64  1  0.105134  0.988036  0.700102  1
  O  O65  1  0.082035  0.698847  0.686595  1
  O  O66  1  0.686594  0.082036  0.698847  1
  O  O67  1  0.508593  0.610108  0.696591  1
  O  O68  1  0.408151  0.798651  0.787682  1
  O  O69  1  0.882470  0.987544  0.800403  1
  O  O70  1  0.513128  0.396287  0.813935  1
  O  O71  1  0.787682  0.408152  0.798651  1
  O  O72  1  0.394737  0.094137  0.880766  1
  O  O73  1  0.987544  0.800403  0.882471  1
  O  O74  1  0.385774  0.581007  0.891343  1
  O  O75  1  0.011963  0.299899  0.894866  1
  O  O76  1  0.301153  0.313405  0.917964  1
  O  O77  1  0.119234  0.605263  0.905862  1
  O  O78  1  0.700102  0.105133  0.988035  1
  O  O79  1  0.800403  0.882470  0.987545  1
