# generated using pymatgen
data_ScNbNi12P7
_symmetry_space_group_name_H-M   'P 1'
_cell_length_a   8.97630900
_cell_length_b   8.97630907
_cell_length_c   3.54444200
_cell_angle_alpha   90.00000000
_cell_angle_beta   90.00000000
_cell_angle_gamma   119.99999604
_symmetry_Int_Tables_number   1
_chemical_formula_structural   ScNbNi12P7
_chemical_formula_sum   'Sc1 Nb1 Ni12 P7'
_cell_volume   247.32847249
_cell_formula_units_Z   1
loop_
 _symmetry_equiv_pos_site_id
 _symmetry_equiv_pos_as_xyz
  1  'x, y, z'
loop_
 _atom_site_type_symbol
 _atom_site_label
 _atom_site_symmetry_multiplicity
 _atom_site_fract_x
 _atom_site_fract_y
 _atom_site_fract_z
 _atom_site_occupancy
  Sc  Sc0  1  0.666667  0.333333  0.500000  1
  Nb  Nb1  1  0.333333  0.666667  0.000000  1
  Ni  Ni2  1  0.386204  0.433240  0.500000  1
  Ni  Ni3  1  0.047037  0.613796  0.500000  1
  Ni  Ni4  1  0.219331  0.089282  0.500000  1
  Ni  Ni5  1  0.869951  0.780669  0.500000  1
  Ni  Ni6  1  0.910718  0.130049  0.500000  1
  Ni  Ni7  1  0.721089  0.878748  0.000000  1
  Ni  Ni8  1  0.121252  0.842340  0.000000  1
  Ni  Ni9  1  0.157660  0.278911  0.000000  1
  Ni  Ni10  1  0.939832  0.376066  0.000000  1
  Ni  Ni11  1  0.623934  0.563767  0.000000  1
  Ni  Ni12  1  0.436233  0.060168  0.000000  1
  Ni  Ni13  1  0.566760  0.952963  0.500000  1
  P  P14  1  0.000000  0.000000  0.000000  1
  P  P15  1  0.411790  0.290171  0.000000  1
  P  P16  1  0.582228  0.706694  0.500000  1
  P  P17  1  0.293306  0.875533  0.500000  1
  P  P18  1  0.124467  0.417772  0.500000  1
  P  P19  1  0.709829  0.121619  0.000000  1
  P  P20  1  0.878381  0.588210  0.000000  1
