# generated using pymatgen
data_Ta6Mn4Ga6C
_symmetry_space_group_name_H-M   'P 1'
_cell_length_a   7.53461500
_cell_length_b   7.53461339
_cell_length_c   5.04335500
_cell_angle_alpha   90.00000000
_cell_angle_beta   90.00000000
_cell_angle_gamma   119.99999392
_symmetry_Int_Tables_number   1
_chemical_formula_structural   Ta6Mn4Ga6C
_chemical_formula_sum   'Ta6 Mn4 Ga6 C1'
_cell_volume   247.95463793
_cell_formula_units_Z   1
loop_
 _symmetry_equiv_pos_site_id
 _symmetry_equiv_pos_as_xyz
  1  'x, y, z'
loop_
 _atom_site_type_symbol
 _atom_site_label
 _atom_site_symmetry_multiplicity
 _atom_site_fract_x
 _atom_site_fract_y
 _atom_site_fract_z
 _atom_site_occupancy
  Ta  Ta0  1  0.000000  0.765927  0.244891  1
  Ta  Ta1  1  0.234073  0.234073  0.244891  1
  Ta  Ta2  1  0.765927  0.000000  0.244891  1
  Ta  Ta3  1  0.000000  0.234073  0.755109  1
  Ta  Ta4  1  0.765927  0.765927  0.755109  1
  Ta  Ta5  1  0.234073  0.000000  0.755109  1
  Mn  Mn6  1  0.333333  0.666667  0.500000  1
  Mn  Mn7  1  0.666667  0.333333  0.500000  1
  Mn  Mn8  1  0.666667  0.333333  0.000000  1
  Mn  Mn9  1  0.333333  0.666667  0.000000  1
  Ga  Ga10  1  0.000000  0.411172  0.248214  1
  Ga  Ga11  1  0.588828  0.588828  0.248214  1
  Ga  Ga12  1  0.411172  0.000000  0.248214  1
  Ga  Ga13  1  0.000000  0.588828  0.751786  1
  Ga  Ga14  1  0.411172  0.411172  0.751786  1
  Ga  Ga15  1  0.588828  0.000000  0.751786  1
  C  C16  1  0.000000  0.000000  0.500000  1
