# generated using pymatgen
data_Ca3SmOs6O19
_symmetry_space_group_name_H-M   'P 1'
_cell_length_a   7.89707260
_cell_length_b   7.90215829
_cell_length_c   7.90396880
_cell_angle_alpha   109.49172243
_cell_angle_beta   109.39235129
_cell_angle_gamma   109.49424820
_symmetry_Int_Tables_number   1
_chemical_formula_structural   Ca3SmOs6O19
_chemical_formula_sum   'Ca3 Sm1 Os6 O19'
_cell_volume   379.86048387
_cell_formula_units_Z   1
loop_
 _symmetry_equiv_pos_site_id
 _symmetry_equiv_pos_as_xyz
  1  'x, y, z'
loop_
 _atom_site_type_symbol
 _atom_site_label
 _atom_site_symmetry_multiplicity
 _atom_site_fract_x
 _atom_site_fract_y
 _atom_site_fract_z
 _atom_site_occupancy
  Ca  Ca0  1  0.999256  0.999042  0.287780  1
  Ca  Ca1  1  0.999923  0.288628  0.001028  1
  Ca  Ca2  1  0.711308  0.712320  0.711369  1
  Sm  Sm3  1  0.289937  0.000024  0.999943  1
  Os  Os4  1  0.362112  0.499452  0.861686  1
  Os  Os5  1  0.862680  0.362305  0.500594  1
  Os  Os6  1  0.500362  0.138277  0.637733  1
  Os  Os7  1  0.135852  0.635875  0.498637  1
  Os  Os8  1  0.499964  0.862727  0.364125  1
  Os  Os9  1  0.637240  0.501366  0.137183  1
  O  O10  1  0.327040  0.000281  0.324973  1
  O  O11  1  0.326618  0.324502  0.999608  1
  O  O12  1  0.002027  0.675166  0.675535  1
  O  O13  1  0.672222  0.673652  0.998911  1
  O  O14  1  0.998444  0.325241  0.326293  1
  O  O15  1  0.673062  0.001044  0.674605  1
  O  O16  1  0.013206  0.000024  0.000030  1
  O  O17  1  0.341474  0.278967  0.634934  1
  O  O18  1  0.062438  0.356006  0.721010  1
  O  O19  1  0.706478  0.365204  0.644110  1
  O  O20  1  0.364917  0.645683  0.707398  1
  O  O21  1  0.292788  0.939257  0.663460  1
  O  O22  1  0.629597  0.336784  0.276024  1
  O  O23  1  0.278718  0.634270  0.341116  1
  O  O24  1  0.719318  0.061783  0.354292  1
  O  O25  1  0.937637  0.658827  0.293333  1
  O  O26  1  0.644273  0.706742  0.365342  1
  O  O27  1  0.657391  0.292501  0.938122  1
  O  O28  1  0.353716  0.724050  0.060826  1
