# generated using pymatgen
data_Y8TaPd7Pt17
_symmetry_space_group_name_H-M   'P 1'
_cell_length_a   8.36637800
_cell_length_b   8.39370500
_cell_length_c   8.36930200
_cell_angle_alpha   90.00000000
_cell_angle_beta   90.00000000
_cell_angle_gamma   90.00000000
_symmetry_Int_Tables_number   1
_chemical_formula_structural   Y8TaPd7Pt17
_chemical_formula_sum   'Y8 Ta1 Pd7 Pt17'
_cell_volume   587.73347009
_cell_formula_units_Z   1
loop_
 _symmetry_equiv_pos_site_id
 _symmetry_equiv_pos_as_xyz
  1  'x, y, z'
loop_
 _atom_site_type_symbol
 _atom_site_label
 _atom_site_symmetry_multiplicity
 _atom_site_fract_x
 _atom_site_fract_y
 _atom_site_fract_z
 _atom_site_occupancy
  Y  Y0  1  0.251717  0.252204  0.252358  1
  Y  Y1  1  0.748419  0.747971  0.747836  1
  Y  Y2  1  0.748419  0.747971  0.252164  1
  Y  Y3  1  0.748419  0.252029  0.747836  1
  Y  Y4  1  0.251717  0.252204  0.747642  1
  Y  Y5  1  0.251717  0.747796  0.252358  1
  Y  Y6  1  0.251717  0.747796  0.747642  1
  Y  Y7  1  0.748419  0.252029  0.252164  1
  Ta  Ta8  1  0.000385  0.000000  0.000000  1
  Pd  Pd9  1  0.745352  0.500000  0.500000  1
  Pd  Pd10  1  0.499834  0.255555  0.500000  1
  Pd  Pd11  1  0.499834  0.744445  0.500000  1
  Pd  Pd12  1  0.499792  0.500000  0.255519  1
  Pd  Pd13  1  0.499792  0.500000  0.744481  1
  Pd  Pd14  1  0.999928  0.000000  0.306856  1
  Pd  Pd15  1  0.999928  0.000000  0.693144  1
  Pt  Pt16  1  0.265780  0.500000  0.000000  1
  Pt  Pt17  1  0.733972  0.500000  0.000000  1
  Pt  Pt18  1  0.999767  0.263840  0.500000  1
  Pt  Pt19  1  0.500096  0.266068  0.000000  1
  Pt  Pt20  1  0.999767  0.736160  0.500000  1
  Pt  Pt21  1  0.500096  0.733932  0.000000  1
  Pt  Pt22  1  0.500069  0.000000  0.266607  1
  Pt  Pt23  1  0.264467  0.000000  0.500000  1
  Pt  Pt24  1  0.500069  0.000000  0.733393  1
  Pt  Pt25  1  0.735426  0.000000  0.500000  1
  Pt  Pt26  1  0.000050  0.500000  0.265767  1
  Pt  Pt27  1  0.000050  0.500000  0.734233  1
  Pt  Pt28  1  0.254696  0.500000  0.500000  1
  Pt  Pt29  1  0.307399  0.000000  0.000000  1
  Pt  Pt30  1  0.693122  0.000000  0.000000  1
  Pt  Pt31  1  0.999894  0.305366  0.000000  1
  Pt  Pt32  1  0.999894  0.694634  0.000000  1
