# generated using pymatgen
data_Yb2TmLuRu8
_symmetry_space_group_name_H-M   'P 1'
_cell_length_a   5.23592900
_cell_length_b   5.23590943
_cell_length_c   8.82734800
_cell_angle_alpha   89.99969301
_cell_angle_beta   90.00049929
_cell_angle_gamma   119.99996885
_symmetry_Int_Tables_number   1
_chemical_formula_structural   Yb2TmLuRu8
_chemical_formula_sum   'Yb2 Tm1 Lu1 Ru8'
_cell_volume   209.57857851
_cell_formula_units_Z   1
loop_
 _symmetry_equiv_pos_site_id
 _symmetry_equiv_pos_as_xyz
  1  'x, y, z'
loop_
 _atom_site_type_symbol
 _atom_site_label
 _atom_site_symmetry_multiplicity
 _atom_site_fract_x
 _atom_site_fract_y
 _atom_site_fract_z
 _atom_site_occupancy
  Yb  Yb0  1  0.333339  0.666671  0.061005  1
  Yb  Yb1  1  0.666655  0.333331  0.939059  1
  Tm  Tm2  1  0.666667  0.333332  0.570955  1
  Lu  Lu3  1  0.333326  0.666656  0.428732  1
  Ru  Ru4  1  0.999998  0.999998  0.499891  1
  Ru  Ru5  1  0.000015  0.000015  0.999920  1
  Ru  Ru6  1  0.171870  0.343760  0.747403  1
  Ru  Ru7  1  0.171877  0.828119  0.747389  1
  Ru  Ru8  1  0.656252  0.828124  0.747400  1
  Ru  Ru9  1  0.828172  0.656361  0.252754  1
  Ru  Ru10  1  0.828200  0.171823  0.252745  1
  Ru  Ru11  1  0.343628  0.171810  0.252747  1
