# generated using pymatgen
data_BaAs12(IrRu)2
_symmetry_space_group_name_H-M   'P 1'
_cell_length_a   7.50070356
_cell_length_b   7.50591482
_cell_length_c   7.50591537
_cell_angle_alpha   109.50638167
_cell_angle_beta   109.46155460
_cell_angle_gamma   109.47385506
_symmetry_Int_Tables_number   1
_chemical_formula_structural   BaAs12(IrRu)2
_chemical_formula_sum   'Ba1 As12 Ir2 Ru2'
_cell_volume   325.18948432
_cell_formula_units_Z   1
loop_
 _symmetry_equiv_pos_site_id
 _symmetry_equiv_pos_as_xyz
  1  'x, y, z'
loop_
 _atom_site_type_symbol
 _atom_site_label
 _atom_site_symmetry_multiplicity
 _atom_site_fract_x
 _atom_site_fract_y
 _atom_site_fract_z
 _atom_site_occupancy
  Ba  Ba0  1  0.000000  0.000000  0.000000  1
  As  As1  1  0.848074  0.647031  0.499211  1
  As  As2  1  0.151926  0.352969  0.500789  1
  As  As3  1  0.151926  0.651137  0.798958  1
  As  As4  1  0.848074  0.348863  0.201042  1
  As  As5  1  0.646743  0.499157  0.847793  1
  As  As6  1  0.353257  0.500843  0.152207  1
  As  As7  1  0.646743  0.798951  0.147586  1
  As  As8  1  0.353257  0.201049  0.852414  1
  As  As9  1  0.499246  0.848745  0.650500  1
  As  As10  1  0.500754  0.151255  0.349500  1
  As  As11  1  0.203700  0.851476  0.352225  1
  As  As12  1  0.796300  0.148524  0.647775  1
  Ir  Ir13  1  0.000000  0.500000  0.000000  1
  Ir  Ir14  1  0.000000  0.000000  0.500000  1
  Ru  Ru15  1  0.500000  0.500000  0.500000  1
  Ru  Ru16  1  0.500000  0.000000  0.000000  1
