# generated using pymatgen
data_Ho16In6RuRh
_symmetry_space_group_name_H-M   'P 1'
_cell_length_a   10.37500700
_cell_length_b   10.37500844
_cell_length_c   7.01021200
_cell_angle_alpha   90.00000000
_cell_angle_beta   90.00000000
_cell_angle_gamma   119.99999860
_symmetry_Int_Tables_number   1
_chemical_formula_structural   Ho16In6RuRh
_chemical_formula_sum   'Ho16 In6 Ru1 Rh1'
_cell_volume   653.48954952
_cell_formula_units_Z   1
loop_
 _symmetry_equiv_pos_site_id
 _symmetry_equiv_pos_as_xyz
  1  'x, y, z'
loop_
 _atom_site_type_symbol
 _atom_site_label
 _atom_site_symmetry_multiplicity
 _atom_site_fract_x
 _atom_site_fract_y
 _atom_site_fract_z
 _atom_site_occupancy
  Ho  Ho0  1  0.532459  0.064917  0.508305  1
  Ho  Ho1  1  0.935083  0.467541  0.508305  1
  Ho  Ho2  1  0.532459  0.467541  0.508305  1
  Ho  Ho3  1  0.466717  0.933435  0.007355  1
  Ho  Ho4  1  0.066565  0.533283  0.007355  1
  Ho  Ho5  1  0.466717  0.533283  0.007355  1
  Ho  Ho6  1  0.177151  0.354302  0.712532  1
  Ho  Ho7  1  0.645698  0.822849  0.712532  1
  Ho  Ho8  1  0.177151  0.822849  0.712532  1
  Ho  Ho9  1  0.823365  0.646730  0.212196  1
  Ho  Ho10  1  0.353270  0.176635  0.212196  1
  Ho  Ho11  1  0.823365  0.176635  0.212196  1
  Ho  Ho12  1  0.666667  0.333333  0.885693  1
  Ho  Ho13  1  0.333333  0.666667  0.385703  1
  Ho  Ho14  1  0.000000  0.000000  0.492185  1
  Ho  Ho15  1  0.000000  0.000000  0.992509  1
  In  In16  1  0.837337  0.674674  0.752550  1
  In  In17  1  0.325326  0.162663  0.752550  1
  In  In18  1  0.837337  0.162663  0.752550  1
  In  In19  1  0.162495  0.324990  0.252553  1
  In  In20  1  0.675010  0.837505  0.252553  1
  In  In21  1  0.162495  0.837505  0.252553  1
  Ru  Ru22  1  0.333333  0.666667  0.783253  1
  Rh  Rh23  1  0.666667  0.333333  0.282233  1
