# generated using pymatgen
data_Tb12GaCo4Bi
_symmetry_space_group_name_H-M   'P 1'
_cell_length_a   8.41106996
_cell_length_b   8.41107075
_cell_length_c   8.41106992
_cell_angle_alpha   112.23880608
_cell_angle_beta   109.05722131
_cell_angle_gamma   107.15873675
_symmetry_Int_Tables_number   1
_chemical_formula_structural   Tb12GaCo4Bi
_chemical_formula_sum   'Tb12 Ga1 Co4 Bi1'
_cell_volume   457.14484995
_cell_formula_units_Z   1
loop_
 _symmetry_equiv_pos_site_id
 _symmetry_equiv_pos_as_xyz
  1  'x, y, z'
loop_
 _atom_site_type_symbol
 _atom_site_label
 _atom_site_symmetry_multiplicity
 _atom_site_fract_x
 _atom_site_fract_y
 _atom_site_fract_z
 _atom_site_occupancy
  Tb  Tb0  1  0.027818  0.730008  0.297810  1
  Tb  Tb1  1  0.972182  0.269992  0.702190  1
  Tb  Tb2  1  0.567801  0.269992  0.297810  1
  Tb  Tb3  1  0.432199  0.730008  0.702190  1
  Tb  Tb4  1  0.676632  0.859902  0.183271  1
  Tb  Tb5  1  0.323368  0.506639  0.183271  1
  Tb  Tb6  1  0.323368  0.140098  0.816729  1
  Tb  Tb7  1  0.676632  0.493361  0.816729  1
  Tb  Tb8  1  0.178802  0.220161  0.398964  1
  Tb  Tb9  1  0.821198  0.220161  0.041359  1
  Tb  Tb10  1  0.178802  0.779839  0.958641  1
  Tb  Tb11  1  0.821198  0.779839  0.601036  1
  Ga  Ga12  1  0.000000  0.500000  0.500000  1
  Co  Co13  1  0.659113  0.500000  0.159113  1
  Co  Co14  1  0.340887  0.500000  0.840887  1
  Co  Co15  1  0.887344  0.887344  0.000000  1
  Co  Co16  1  0.112656  0.112656  0.000000  1
  Bi  Bi17  1  0.500000  0.000000  0.500000  1
