# generated using pymatgen
data_TbZr3(Si3Ni5)4
_symmetry_space_group_name_H-M   'P 1'
_cell_length_a   3.71822500
_cell_length_b   6.61139603
_cell_length_c   18.37872813
_cell_angle_alpha   90.08256465
_cell_angle_beta   90.00000000
_cell_angle_gamma   90.00000000
_symmetry_Int_Tables_number   1
_chemical_formula_structural   TbZr3(Si3Ni5)4
_chemical_formula_sum   'Tb1 Zr3 Si12 Ni20'
_cell_volume   451.79751919
_cell_formula_units_Z   1
loop_
 _symmetry_equiv_pos_site_id
 _symmetry_equiv_pos_as_xyz
  1  'x, y, z'
loop_
 _atom_site_type_symbol
 _atom_site_label
 _atom_site_symmetry_multiplicity
 _atom_site_fract_x
 _atom_site_fract_y
 _atom_site_fract_z
 _atom_site_occupancy
  Tb  Tb0  1  0.250000  0.877600  0.142692  1
  Zr  Zr1  1  0.250000  0.621348  0.642914  1
  Zr  Zr2  1  0.750000  0.379393  0.358118  1
  Zr  Zr3  1  0.750000  0.119765  0.856003  1
  Si  Si4  1  0.250000  0.852829  0.922734  1
  Si  Si5  1  0.750000  0.157967  0.074817  1
  Si  Si6  1  0.750000  0.351782  0.577451  1
  Si  Si7  1  0.250000  0.647446  0.424494  1
  Si  Si8  1  0.750000  0.622239  0.759919  1
  Si  Si9  1  0.250000  0.377133  0.241159  1
  Si  Si10  1  0.250000  0.406028  0.910860  1
  Si  Si11  1  0.750000  0.582511  0.083931  1
  Si  Si12  1  0.750000  0.906249  0.586236  1
  Si  Si13  1  0.250000  0.094407  0.415677  1
  Si  Si14  1  0.250000  0.121750  0.738953  1
  Si  Si15  1  0.750000  0.877199  0.263720  1
  Ni  Ni16  1  0.250000  0.133810  0.993229  1
  Ni  Ni17  1  0.750000  0.380543  0.982433  1
  Ni  Ni18  1  0.750000  0.120486  0.487800  1
  Ni  Ni19  1  0.250000  0.615542  0.010676  1
  Ni  Ni20  1  0.250000  0.359902  0.116089  1
  Ni  Ni21  1  0.750000  0.645634  0.884264  1
  Ni  Ni22  1  0.750000  0.856628  0.387505  1
  Ni  Ni23  1  0.250000  0.142618  0.614766  1
  Ni  Ni24  1  0.250000  0.071064  0.295567  1
  Ni  Ni25  1  0.750000  0.929282  0.706774  1
  Ni  Ni26  1  0.750000  0.568184  0.207069  1
  Ni  Ni27  1  0.250000  0.430122  0.791039  1
  Ni  Ni28  1  0.750000  0.629590  0.506327  1
  Ni  Ni29  1  0.250000  0.370360  0.495942  1
  Ni  Ni30  1  0.250000  0.817756  0.798699  1
  Ni  Ni31  1  0.750000  0.184891  0.202042  1
  Ni  Ni32  1  0.750000  0.317254  0.700410  1
  Ni  Ni33  1  0.250000  0.681119  0.301445  1
  Ni  Ni34  1  0.250000  0.879828  0.513833  1
  Ni  Ni35  1  0.750000  0.869739  0.004410  1
