# generated using pymatgen
data_PrLu2(SiIr2)3
_symmetry_space_group_name_H-M   'P 1'
_cell_length_a   5.57830900
_cell_length_b   5.57831035
_cell_length_c   15.07809600
_cell_angle_alpha   90.00000000
_cell_angle_beta   90.00000000
_cell_angle_gamma   120.00000977
_symmetry_Int_Tables_number   1
_chemical_formula_structural   PrLu2(SiIr2)3
_chemical_formula_sum   'Pr2 Lu4 Si6 Ir12'
_cell_volume   406.33322338
_cell_formula_units_Z   2
loop_
 _symmetry_equiv_pos_site_id
 _symmetry_equiv_pos_as_xyz
  1  'x, y, z'
loop_
 _atom_site_type_symbol
 _atom_site_label
 _atom_site_symmetry_multiplicity
 _atom_site_fract_x
 _atom_site_fract_y
 _atom_site_fract_z
 _atom_site_occupancy
  Pr  Pr0  1  0.333333  0.666667  0.750000  1
  Pr  Pr1  1  0.666667  0.333333  0.250000  1
  Lu  Lu2  1  0.333333  0.666667  0.537753  1
  Lu  Lu3  1  0.666667  0.333333  0.462247  1
  Lu  Lu4  1  0.666667  0.333333  0.037753  1
  Lu  Lu5  1  0.333333  0.666667  0.962247  1
  Si  Si6  1  0.000000  0.000000  0.250000  1
  Si  Si7  1  0.000000  0.000000  0.750000  1
  Si  Si8  1  0.333333  0.666667  0.250000  1
  Si  Si9  1  0.666667  0.333333  0.750000  1
  Si  Si10  1  0.000000  0.000000  0.000000  1
  Si  Si11  1  0.000000  0.000000  0.500000  1
  Ir  Ir12  1  0.167755  0.335509  0.128028  1
  Ir  Ir13  1  0.832245  0.664491  0.871972  1
  Ir  Ir14  1  0.664491  0.832245  0.128028  1
  Ir  Ir15  1  0.832245  0.664491  0.628028  1
  Ir  Ir16  1  0.335509  0.167755  0.871972  1
  Ir  Ir17  1  0.167755  0.335509  0.371972  1
  Ir  Ir18  1  0.167755  0.832245  0.128028  1
  Ir  Ir19  1  0.335509  0.167755  0.628028  1
  Ir  Ir20  1  0.832245  0.167755  0.871972  1
  Ir  Ir21  1  0.664491  0.832245  0.371972  1
  Ir  Ir22  1  0.832245  0.167755  0.628028  1
  Ir  Ir23  1  0.167755  0.832245  0.371972  1
