# generated using pymatgen
data_AcNdNi5B2Ir3
_symmetry_space_group_name_H-M   'P 1'
_cell_length_a   5.42247600
_cell_length_b   5.25411541
_cell_length_c   7.18523200
_cell_angle_alpha   90.00000000
_cell_angle_beta   90.00000000
_cell_angle_gamma   120.85913689
_symmetry_Int_Tables_number   1
_chemical_formula_structural   AcNdNi5B2Ir3
_chemical_formula_sum   'Ac1 Nd1 Ni5 B2 Ir3'
_cell_volume   175.72898697
_cell_formula_units_Z   1
loop_
 _symmetry_equiv_pos_site_id
 _symmetry_equiv_pos_as_xyz
  1  'x, y, z'
loop_
 _atom_site_type_symbol
 _atom_site_label
 _atom_site_symmetry_multiplicity
 _atom_site_fract_x
 _atom_site_fract_y
 _atom_site_fract_z
 _atom_site_occupancy
  Ac  Ac0  1  0.000000  0.000000  0.002473  1
  Nd  Nd1  1  0.000000  0.000000  0.501873  1
  Ni  Ni2  1  0.329804  0.672380  0.996662  1
  Ni  Ni3  1  0.670196  0.327620  0.996662  1
  Ni  Ni4  1  0.500000  0.000000  0.298978  1
  Ni  Ni5  1  0.500000  0.000000  0.702730  1
  Ni  Ni6  1  0.500000  0.500000  0.705477  1
  B  B7  1  0.660219  0.331295  0.502838  1
  B  B8  1  0.339781  0.668705  0.502838  1
  Ir  Ir9  1  0.500000  0.500000  0.289808  1
  Ir  Ir10  1  0.000000  0.500000  0.291087  1
  Ir  Ir11  1  0.000000  0.500000  0.708573  1
