# generated using pymatgen
data_Ho16MnIn6Au
_symmetry_space_group_name_H-M   'P 1'
_cell_length_a   10.48987000
_cell_length_b   10.48987008
_cell_length_c   6.90984600
_cell_angle_alpha   90.00000000
_cell_angle_beta   90.00000000
_cell_angle_gamma   119.99999973
_symmetry_Int_Tables_number   1
_chemical_formula_structural   Ho16MnIn6Au
_chemical_formula_sum   'Ho16 Mn1 In6 Au1'
_cell_volume   658.47488758
_cell_formula_units_Z   1
loop_
 _symmetry_equiv_pos_site_id
 _symmetry_equiv_pos_as_xyz
  1  'x, y, z'
loop_
 _atom_site_type_symbol
 _atom_site_label
 _atom_site_symmetry_multiplicity
 _atom_site_fract_x
 _atom_site_fract_y
 _atom_site_fract_z
 _atom_site_occupancy
  Ho  Ho0  1  0.531898  0.063798  0.506558  1
  Ho  Ho1  1  0.936202  0.468102  0.506558  1
  Ho  Ho2  1  0.531898  0.468102  0.506558  1
  Ho  Ho3  1  0.477890  0.955779  0.010446  1
  Ho  Ho4  1  0.044221  0.522110  0.010446  1
  Ho  Ho5  1  0.477890  0.522110  0.010446  1
  Ho  Ho6  1  0.173514  0.347028  0.718614  1
  Ho  Ho7  1  0.652972  0.826486  0.718614  1
  Ho  Ho8  1  0.173514  0.826486  0.718614  1
  Ho  Ho9  1  0.825351  0.650701  0.222196  1
  Ho  Ho10  1  0.349299  0.174649  0.222196  1
  Ho  Ho11  1  0.825351  0.174649  0.222196  1
  Ho  Ho12  1  0.666667  0.333333  0.880517  1
  Ho  Ho13  1  0.333333  0.666667  0.369781  1
  Ho  Ho14  1  0.000000  0.000000  0.494568  1
  Ho  Ho15  1  0.000000  0.000000  0.992712  1
  Mn  Mn16  1  0.666667  0.333333  0.270042  1
  In  In17  1  0.836675  0.673349  0.749877  1
  In  In18  1  0.326651  0.163325  0.749877  1
  In  In19  1  0.836675  0.163325  0.749877  1
  In  In20  1  0.164262  0.328524  0.248173  1
  In  In21  1  0.671476  0.835738  0.248173  1
  In  In22  1  0.164262  0.835738  0.248173  1
  Au  Au23  1  0.333333  0.666667  0.782824  1
