# generated using pymatgen
data_Tb4Ga18Co2RuPt3
_symmetry_space_group_name_H-M   'P 1'
_cell_length_a   7.55791917
_cell_length_b   7.55792035
_cell_length_c   9.47325638
_cell_angle_alpha   90.08027174
_cell_angle_beta   90.08026997
_cell_angle_gamma   119.56862222
_symmetry_Int_Tables_number   1
_chemical_formula_structural   Tb4Ga18Co2RuPt3
_chemical_formula_sum   'Tb4 Ga18 Co2 Ru1 Pt3'
_cell_volume   470.65669461
_cell_formula_units_Z   1
loop_
 _symmetry_equiv_pos_site_id
 _symmetry_equiv_pos_as_xyz
  1  'x, y, z'
loop_
 _atom_site_type_symbol
 _atom_site_label
 _atom_site_symmetry_multiplicity
 _atom_site_fract_x
 _atom_site_fract_y
 _atom_site_fract_z
 _atom_site_occupancy
  Tb  Tb0  1  0.316828  0.992840  0.249805  1
  Tb  Tb1  1  0.007160  0.683172  0.750195  1
  Tb  Tb2  1  0.672158  0.990994  0.749602  1
  Tb  Tb3  1  0.009006  0.327842  0.250398  1
  Ga  Ga4  1  0.349814  0.016245  0.919558  1
  Ga  Ga5  1  0.983755  0.650186  0.080442  1
  Ga  Ga6  1  0.348716  0.009538  0.577524  1
  Ga  Ga7  1  0.990462  0.651284  0.422476  1
  Ga  Ga8  1  0.664512  0.014988  0.080182  1
  Ga  Ga9  1  0.985012  0.335488  0.919818  1
  Ga  Ga10  1  0.658761  0.009647  0.423036  1
  Ga  Ga11  1  0.990353  0.341239  0.576964  1
  Ga  Ga12  1  0.665548  0.655074  0.933332  1
  Ga  Ga13  1  0.344926  0.334452  0.066668  1
  Ga  Ga14  1  0.662412  0.657933  0.561769  1
  Ga  Ga15  1  0.342067  0.337588  0.438231  1
  Ga  Ga16  1  0.139934  0.142906  0.749770  1
  Ga  Ga17  1  0.857094  0.860066  0.250230  1
  Ga  Ga18  1  0.455294  0.662730  0.254141  1
  Ga  Ga19  1  0.337270  0.544706  0.745859  1
  Ga  Ga20  1  0.568230  0.340883  0.748351  1
  Ga  Ga21  1  0.659117  0.431770  0.251649  1
  Co  Co22  1  0.669015  0.330985  0.000000  1
  Co  Co23  1  0.669688  0.330312  0.500000  1
  Ru  Ru24  1  0.326525  0.673475  0.500000  1
  Pt  Pt25  1  0.999472  0.000528  0.000000  1
  Pt  Pt26  1  0.999799  0.000201  0.500000  1
  Pt  Pt27  1  0.327068  0.672932  0.000000  1
