# generated using pymatgen
data_Y3HoSi4TcRh3
_symmetry_space_group_name_H-M   'P 1'
_cell_length_a   4.31869700
_cell_length_b   6.97234737
_cell_length_c   7.27708365
_cell_angle_alpha   89.83919044
_cell_angle_beta   90.00000000
_cell_angle_gamma   90.00000000
_symmetry_Int_Tables_number   1
_chemical_formula_structural   Y3HoSi4TcRh3
_chemical_formula_sum   'Y3 Ho1 Si4 Tc1 Rh3'
_cell_volume   219.12271845
_cell_formula_units_Z   1
loop_
 _symmetry_equiv_pos_site_id
 _symmetry_equiv_pos_as_xyz
  1  'x, y, z'
loop_
 _atom_site_type_symbol
 _atom_site_label
 _atom_site_symmetry_multiplicity
 _atom_site_fract_x
 _atom_site_fract_y
 _atom_site_fract_z
 _atom_site_occupancy
  Y  Y0  1  0.250000  0.491785  0.690310  1
  Y  Y1  1  0.750000  0.511614  0.310762  1
  Y  Y2  1  0.750000  0.004410  0.183913  1
  Ho  Ho3  1  0.250000  0.995002  0.813074  1
  Si  Si4  1  0.250000  0.299692  0.108356  1
  Si  Si5  1  0.750000  0.700618  0.886677  1
  Si  Si6  1  0.250000  0.799965  0.402397  1
  Si  Si7  1  0.750000  0.198546  0.603563  1
  Tc  Tc8  1  0.750000  0.846943  0.570419  1
  Rh  Rh9  1  0.250000  0.154534  0.431030  1
  Rh  Rh10  1  0.750000  0.343357  0.932735  1
  Rh  Rh11  1  0.250000  0.653533  0.066763  1
