# generated using pymatgen
data_Li3HoEr2InSi2
_symmetry_space_group_name_H-M   'P 1'
_cell_length_a   7.18125850
_cell_length_b   7.18125852
_cell_length_c   4.19486800
_cell_angle_alpha   90.00000000
_cell_angle_beta   90.00000000
_cell_angle_gamma   120.11564524
_symmetry_Int_Tables_number   1
_chemical_formula_structural   Li3HoEr2InSi2
_chemical_formula_sum   'Li3 Ho1 Er2 In1 Si2'
_cell_volume   187.12972569
_cell_formula_units_Z   1
loop_
 _symmetry_equiv_pos_site_id
 _symmetry_equiv_pos_as_xyz
  1  'x, y, z'
loop_
 _atom_site_type_symbol
 _atom_site_label
 _atom_site_symmetry_multiplicity
 _atom_site_fract_x
 _atom_site_fract_y
 _atom_site_fract_z
 _atom_site_occupancy
  Li  Li0  1  0.252931  0.000131  0.500000  1
  Li  Li1  1  0.000131  0.252931  0.500000  1
  Li  Li2  1  0.747328  0.747328  0.500000  1
  Ho  Ho3  1  0.442690  0.442690  0.000000  1
  Er  Er4  1  0.557430  0.000258  0.000000  1
  Er  Er5  1  0.000258  0.557430  0.000000  1
  In  In6  1  0.998717  0.998717  0.000000  1
  Si  Si7  1  0.333432  0.667082  0.500000  1
  Si  Si8  1  0.667082  0.333432  0.500000  1
