# generated using pymatgen
data_Er7TmCd3SnAu8
_symmetry_space_group_name_H-M   'P 1'
_cell_length_a   7.98462410
_cell_length_b   7.99318731
_cell_length_c   7.28741630
_cell_angle_alpha   89.97019735
_cell_angle_beta   90.01383771
_cell_angle_gamma   90.05848882
_symmetry_Int_Tables_number   1
_chemical_formula_structural   Er7TmCd3SnAu8
_chemical_formula_sum   'Er7 Tm1 Cd3 Sn1 Au8'
_cell_volume   465.10150781
_cell_formula_units_Z   1
loop_
 _symmetry_equiv_pos_site_id
 _symmetry_equiv_pos_as_xyz
  1  'x, y, z'
loop_
 _atom_site_type_symbol
 _atom_site_label
 _atom_site_symmetry_multiplicity
 _atom_site_fract_x
 _atom_site_fract_y
 _atom_site_fract_z
 _atom_site_occupancy
  Er  Er0  1  0.331186  0.687164  0.499941  1
  Er  Er1  1  0.668589  0.312243  0.500096  1
  Er  Er2  1  0.812773  0.831085  0.000105  1
  Er  Er3  1  0.350428  0.670207  0.000167  1
  Er  Er4  1  0.649370  0.329673  0.000214  1
  Er  Er5  1  0.830074  0.850548  0.499831  1
  Er  Er6  1  0.170404  0.150160  0.499790  1
  Tm  Tm7  1  0.187204  0.168208  0.000172  1
  Cd  Cd8  1  0.999899  0.500163  0.749816  1
  Cd  Cd9  1  0.499596  0.000111  0.249163  1
  Cd  Cd10  1  0.999667  0.500143  0.249956  1
  Sn  Sn11  1  0.499958  0.000019  0.750430  1
  Au  Au12  1  0.120077  0.861745  0.769271  1
  Au  Au13  1  0.876782  0.136316  0.231771  1
  Au  Au14  1  0.363477  0.375987  0.266707  1
  Au  Au15  1  0.638852  0.619351  0.730746  1
  Au  Au16  1  0.635997  0.623333  0.267952  1
  Au  Au17  1  0.880918  0.138989  0.769479  1
  Au  Au18  1  0.360788  0.380128  0.732496  1
  Au  Au19  1  0.123960  0.864427  0.231897  1
