# generated using pymatgen
data_Sc10Al7GaNi4
_symmetry_space_group_name_H-M   'P 1'
_cell_length_a   3.25257300
_cell_length_b   7.28459495
_cell_length_c   16.52434740
_cell_angle_alpha   89.91627972
_cell_angle_beta   90.00000000
_cell_angle_gamma   90.00000000
_symmetry_Int_Tables_number   1
_chemical_formula_structural   Sc10Al7GaNi4
_chemical_formula_sum   'Sc10 Al7 Ga1 Ni4'
_cell_volume   391.52212942
_cell_formula_units_Z   1
loop_
 _symmetry_equiv_pos_site_id
 _symmetry_equiv_pos_as_xyz
  1  'x, y, z'
loop_
 _atom_site_type_symbol
 _atom_site_label
 _atom_site_symmetry_multiplicity
 _atom_site_fract_x
 _atom_site_fract_y
 _atom_site_fract_z
 _atom_site_occupancy
  Sc  Sc0  1  0.500000  0.499983  0.499583  1
  Sc  Sc1  1  0.500000  0.999050  0.001667  1
  Sc  Sc2  1  0.500000  0.877711  0.418247  1
  Sc  Sc3  1  0.500000  0.121899  0.581861  1
  Sc  Sc4  1  0.500000  0.621299  0.918572  1
  Sc  Sc5  1  0.500000  0.375234  0.082941  1
  Sc  Sc6  1  0.500000  0.252663  0.276444  1
  Sc  Sc7  1  0.500000  0.745374  0.722298  1
  Sc  Sc8  1  0.500000  0.244858  0.778873  1
  Sc  Sc9  1  0.500000  0.760532  0.219817  1
  Al  Al10  1  0.000000  0.208577  0.427188  1
  Al  Al11  1  0.000000  0.791651  0.572215  1
  Al  Al12  1  0.000000  0.291141  0.928844  1
  Al  Al13  1  0.000000  0.703260  0.070765  1
  Al  Al14  1  0.000000  0.571785  0.347574  1
  Al  Al15  1  0.000000  0.428932  0.651270  1
  Al  Al16  1  0.000000  0.929076  0.849900  1
  Ga  Ga17  1  0.000000  0.071610  0.150454  1
  Ni  Ni18  1  0.000000  0.972884  0.306543  1
  Ni  Ni19  1  0.000000  0.027355  0.694636  1
  Ni  Ni20  1  0.000000  0.526896  0.805992  1
  Ni  Ni21  1  0.000000  0.478232  0.194316  1
