# generated using pymatgen
data_HoLu5(Co3As2)6
_symmetry_space_group_name_H-M   'P 1'
_cell_length_a   3.77016200
_cell_length_b   10.84120900
_cell_length_c   12.63104200
_cell_angle_alpha   90.00000000
_cell_angle_beta   90.00000000
_cell_angle_gamma   90.00000000
_symmetry_Int_Tables_number   1
_chemical_formula_structural   HoLu5(Co3As2)6
_chemical_formula_sum   'Ho1 Lu5 Co18 As12'
_cell_volume   516.27002220
_cell_formula_units_Z   1
loop_
 _symmetry_equiv_pos_site_id
 _symmetry_equiv_pos_as_xyz
  1  'x, y, z'
loop_
 _atom_site_type_symbol
 _atom_site_label
 _atom_site_symmetry_multiplicity
 _atom_site_fract_x
 _atom_site_fract_y
 _atom_site_fract_z
 _atom_site_occupancy
  Ho  Ho0  1  0.000000  0.500000  0.523659  1
  Lu  Lu1  1  0.500000  0.000000  0.476073  1
  Lu  Lu2  1  0.500000  0.819487  0.206985  1
  Lu  Lu3  1  0.500000  0.180513  0.206985  1
  Lu  Lu4  1  0.000000  0.680777  0.793440  1
  Lu  Lu5  1  0.000000  0.319223  0.793440  1
  Co  Co6  1  0.500000  0.500000  0.157153  1
  Co  Co7  1  0.000000  0.000000  0.842381  1
  Co  Co8  1  0.500000  0.500000  0.704335  1
  Co  Co9  1  0.000000  0.000000  0.296823  1
  Co  Co10  1  0.000000  0.500000  0.987516  1
  Co  Co11  1  0.500000  0.000000  0.013024  1
  Co  Co12  1  0.500000  0.332389  0.996163  1
  Co  Co13  1  0.500000  0.667611  0.996163  1
  Co  Co14  1  0.000000  0.167039  0.003816  1
  Co  Co15  1  0.000000  0.832961  0.003816  1
  Co  Co16  1  0.500000  0.297748  0.431359  1
  Co  Co17  1  0.500000  0.702252  0.431359  1
  Co  Co18  1  0.000000  0.200920  0.568305  1
  Co  Co19  1  0.000000  0.799080  0.568305  1
  Co  Co20  1  0.500000  0.878643  0.706601  1
  Co  Co21  1  0.500000  0.121357  0.706601  1
  Co  Co22  1  0.000000  0.622006  0.292958  1
  Co  Co23  1  0.000000  0.377994  0.292958  1
  As  As24  1  0.500000  0.500000  0.881294  1
  As  As25  1  0.000000  0.000000  0.119357  1
  As  As26  1  0.500000  0.500000  0.347461  1
  As  As27  1  0.000000  0.000000  0.651135  1
  As  As28  1  0.500000  0.314082  0.617127  1
  As  As29  1  0.500000  0.685918  0.617127  1
  As  As30  1  0.000000  0.185104  0.383257  1
  As  As31  1  0.000000  0.814896  0.383257  1
  As  As32  1  0.500000  0.845781  0.888851  1
  As  As33  1  0.500000  0.154219  0.888851  1
  As  As34  1  0.000000  0.654768  0.111033  1
  As  As35  1  0.000000  0.345232  0.111033  1
