# generated using pymatgen
data_Sc2Mn2Co5(P2Ir)3
_symmetry_space_group_name_H-M   'P 1'
_cell_length_a   3.65864900
_cell_length_b   10.48041000
_cell_length_c   12.12708000
_cell_angle_alpha   90.00000000
_cell_angle_beta   90.00000000
_cell_angle_gamma   90.00000000
_symmetry_Int_Tables_number   1
_chemical_formula_structural   Sc2Mn2Co5(P2Ir)3
_chemical_formula_sum   'Sc4 Mn4 Co10 P12 Ir6'
_cell_volume   465.00247230
_cell_formula_units_Z   2
loop_
 _symmetry_equiv_pos_site_id
 _symmetry_equiv_pos_as_xyz
  1  'x, y, z'
loop_
 _atom_site_type_symbol
 _atom_site_label
 _atom_site_symmetry_multiplicity
 _atom_site_fract_x
 _atom_site_fract_y
 _atom_site_fract_z
 _atom_site_occupancy
  Sc  Sc0  1  0.250000  0.588124  0.715017  1
  Sc  Sc1  1  0.250000  0.911876  0.215017  1
  Sc  Sc2  1  0.750000  0.420752  0.287274  1
  Sc  Sc3  1  0.750000  0.079248  0.787274  1
  Mn  Mn4  1  0.250000  0.706428  0.988536  1
  Mn  Mn5  1  0.250000  0.793572  0.488536  1
  Mn  Mn6  1  0.750000  0.294081  0.009451  1
  Mn  Mn7  1  0.750000  0.205919  0.509451  1
  Co  Co8  1  0.750000  0.777511  0.822997  1
  Co  Co9  1  0.750000  0.722489  0.322997  1
  Co  Co10  1  0.250000  0.881000  0.697272  1
  Co  Co11  1  0.250000  0.619000  0.197272  1
  Co  Co12  1  0.750000  0.108211  0.303195  1
  Co  Co13  1  0.750000  0.391789  0.803195  1
  Co  Co14  1  0.250000  0.467036  0.933133  1
  Co  Co15  1  0.250000  0.032964  0.433133  1
  Co  Co16  1  0.750000  0.538585  0.065678  1
  Co  Co17  1  0.750000  0.961415  0.565678  1
  P  P18  1  0.250000  0.431147  0.112357  1
  P  P19  1  0.250000  0.068853  0.612357  1
  P  P20  1  0.750000  0.581810  0.885959  1
  P  P21  1  0.750000  0.918190  0.385959  1
  P  P22  1  0.250000  0.274356  0.866937  1
  P  P23  1  0.250000  0.225644  0.366937  1
  P  P24  1  0.750000  0.727779  0.140753  1
  P  P25  1  0.750000  0.772221  0.640753  1
  P  P26  1  0.250000  0.601299  0.377700  1
  P  P27  1  0.250000  0.898701  0.877700  1
  P  P28  1  0.750000  0.409943  0.620130  1
  P  P29  1  0.750000  0.090057  0.120130  1
  Ir  Ir30  1  0.250000  0.405391  0.473874  1
  Ir  Ir31  1  0.250000  0.094609  0.973874  1
  Ir  Ir32  1  0.750000  0.600352  0.522487  1
  Ir  Ir33  1  0.750000  0.899648  0.022487  1
  Ir  Ir34  1  0.250000  0.225941  0.177251  1
  Ir  Ir35  1  0.250000  0.274060  0.677251  1
