# generated using pymatgen
data_AcH2BrO2
_symmetry_space_group_name_H-M   'P 1'
_cell_length_a   6.74454154
_cell_length_b   4.18930200
_cell_length_c   7.20208760
_cell_angle_alpha   90.00000000
_cell_angle_beta   110.94334087
_cell_angle_gamma   90.00000000
_symmetry_Int_Tables_number   1
_chemical_formula_structural   AcH2BrO2
_chemical_formula_sum   'Ac2 H4 Br2 O4'
_cell_volume   190.05042884
_cell_formula_units_Z   2
loop_
 _symmetry_equiv_pos_site_id
 _symmetry_equiv_pos_as_xyz
  1  'x, y, z'
loop_
 _atom_site_type_symbol
 _atom_site_label
 _atom_site_symmetry_multiplicity
 _atom_site_fract_x
 _atom_site_fract_y
 _atom_site_fract_z
 _atom_site_occupancy
  Ac  Ac0  1  0.300323  0.250001  0.122431  1
  Ac  Ac1  1  0.699679  0.749999  0.877570  1
  H  H2  1  0.889546  0.250001  0.215918  1
  H  H3  1  0.652032  0.749999  0.294769  1
  H  H4  1  0.347968  0.250001  0.705231  1
  H  H5  1  0.110455  0.749999  0.784079  1
  Br  Br6  1  0.240604  0.749999  0.456378  1
  Br  Br7  1  0.759395  0.250001  0.543621  1
  O  O8  1  0.899248  0.250001  0.083391  1
  O  O9  1  0.551378  0.749999  0.157479  1
  O  O10  1  0.448622  0.250001  0.842521  1
  O  O11  1  0.100751  0.749999  0.916611  1
