# generated using pymatgen
data_HoEr3Zn4Ir3Pd
_symmetry_space_group_name_H-M   'P 1'
_cell_length_a   4.06921400
_cell_length_b   6.96247945
_cell_length_c   8.08796308
_cell_angle_alpha   90.15023901
_cell_angle_beta   90.00000000
_cell_angle_gamma   90.00000000
_symmetry_Int_Tables_number   1
_chemical_formula_structural   HoEr3Zn4Ir3Pd
_chemical_formula_sum   'Ho1 Er3 Zn4 Ir3 Pd1'
_cell_volume   229.14591717
_cell_formula_units_Z   1
loop_
 _symmetry_equiv_pos_site_id
 _symmetry_equiv_pos_as_xyz
  1  'x, y, z'
loop_
 _atom_site_type_symbol
 _atom_site_label
 _atom_site_symmetry_multiplicity
 _atom_site_fract_x
 _atom_site_fract_y
 _atom_site_fract_z
 _atom_site_occupancy
  Ho  Ho0  1  0.250000  0.544941  0.184695  1
  Er  Er1  1  0.250000  0.028967  0.323683  1
  Er  Er2  1  0.750000  0.964260  0.683400  1
  Er  Er3  1  0.750000  0.469934  0.809184  1
  Zn  Zn4  1  0.250000  0.640318  0.566332  1
  Zn  Zn5  1  0.250000  0.138067  0.931967  1
  Zn  Zn6  1  0.750000  0.359636  0.435822  1
  Zn  Zn7  1  0.750000  0.857703  0.066203  1
  Ir  Ir8  1  0.250000  0.255192  0.621017  1
  Ir  Ir9  1  0.250000  0.756581  0.880279  1
  Ir  Ir10  1  0.750000  0.742642  0.378474  1
  Pd  Pd11  1  0.750000  0.241756  0.118945  1
