# generated using pymatgen
data_Ho16Tm4Ir7Ru5
_symmetry_space_group_name_H-M   'P 1'
_cell_length_a   10.77230716
_cell_length_b   10.77230772
_cell_length_c   6.37811110
_cell_angle_alpha   89.96830287
_cell_angle_beta   89.96830566
_cell_angle_gamma   90.06988935
_symmetry_Int_Tables_number   1
_chemical_formula_structural   Ho16Tm4Ir7Ru5
_chemical_formula_sum   'Ho16 Tm4 Ir7 Ru5'
_cell_volume   740.13186661
_cell_formula_units_Z   1
loop_
 _symmetry_equiv_pos_site_id
 _symmetry_equiv_pos_as_xyz
  1  'x, y, z'
loop_
 _atom_site_type_symbol
 _atom_site_label
 _atom_site_symmetry_multiplicity
 _atom_site_fract_x
 _atom_site_fract_y
 _atom_site_fract_z
 _atom_site_occupancy
  Ho  Ho0  1  0.293180  0.086114  0.376855  1
  Ho  Ho1  1  0.292617  0.913691  0.876936  1
  Ho  Ho2  1  0.707598  0.086524  0.877226  1
  Ho  Ho3  1  0.707392  0.914073  0.375899  1
  Ho  Ho4  1  0.586249  0.793224  0.876905  1
  Ho  Ho5  1  0.587129  0.207068  0.376938  1
  Ho  Ho6  1  0.413706  0.793135  0.376811  1
  Ho  Ho7  1  0.413578  0.206745  0.876184  1
  Ho  Ho8  1  0.206776  0.413751  0.623095  1
  Ho  Ho9  1  0.206865  0.586294  0.123189  1
  Ho  Ho10  1  0.792932  0.412871  0.123062  1
  Ho  Ho11  1  0.793255  0.586422  0.623816  1
  Ho  Ho12  1  0.913886  0.706820  0.123145  1
  Ho  Ho13  1  0.913476  0.292402  0.622774  1
  Ho  Ho14  1  0.086309  0.707383  0.623064  1
  Ho  Ho15  1  0.085927  0.292608  0.124101  1
  Tm  Tm16  1  0.999559  0.000926  0.499392  1
  Tm  Tm17  1  0.999074  0.000441  0.000608  1
  Tm  Tm18  1  0.500132  0.500090  0.000110  1
  Tm  Tm19  1  0.499910  0.499868  0.499890  1
  Ir  Ir20  1  0.847346  0.847013  0.749838  1
  Ir  Ir21  1  0.152987  0.152654  0.750162  1
  Ir  Ir22  1  0.152639  0.847361  0.250000  1
  Ir  Ir23  1  0.651677  0.348323  0.750000  1
  Ir  Ir24  1  0.652503  0.652196  0.249761  1
  Ir  Ir25  1  0.347804  0.347497  0.250239  1
  Ir  Ir26  1  0.347818  0.652182  0.750000  1
  Ru  Ru27  1  0.847822  0.152178  0.250000  1
  Ru  Ru28  1  0.500166  0.000207  0.122399  1
  Ru  Ru29  1  0.499905  0.000007  0.622518  1
  Ru  Ru30  1  0.999993  0.500095  0.877482  1
  Ru  Ru31  1  0.999793  0.499834  0.377601  1
