# generated using pymatgen
data_Th3Al3Fe2Ir
_symmetry_space_group_name_H-M   'P 1'
_cell_length_a   7.00819900
_cell_length_b   7.00819843
_cell_length_c   4.16180800
_cell_angle_alpha   90.00000000
_cell_angle_beta   90.00000000
_cell_angle_gamma   119.99999797
_symmetry_Int_Tables_number   1
_chemical_formula_structural   Th3Al3Fe2Ir
_chemical_formula_sum   'Th3 Al3 Fe2 Ir1'
_cell_volume   177.02128808
_cell_formula_units_Z   1
loop_
 _symmetry_equiv_pos_site_id
 _symmetry_equiv_pos_as_xyz
  1  'x, y, z'
loop_
 _atom_site_type_symbol
 _atom_site_label
 _atom_site_symmetry_multiplicity
 _atom_site_fract_x
 _atom_site_fract_y
 _atom_site_fract_z
 _atom_site_occupancy
  Th  Th0  1  0.428281  0.000000  0.500000  1
  Th  Th1  1  0.000000  0.428281  0.500000  1
  Th  Th2  1  0.571719  0.571719  0.500000  1
  Al  Al3  1  0.767873  0.000000  0.000000  1
  Al  Al4  1  0.000000  0.767873  0.000000  1
  Al  Al5  1  0.232127  0.232127  0.000000  1
  Fe  Fe6  1  0.333333  0.666667  0.000000  1
  Fe  Fe7  1  0.666667  0.333333  0.000000  1
  Ir  Ir8  1  0.000000  0.000000  0.500000  1
