# generated using pymatgen
data_Nb5Si2B4W5
_symmetry_space_group_name_H-M   'P 1'
_cell_length_a   7.19479577
_cell_length_b   7.17102446
_cell_length_c   7.18817761
_cell_angle_alpha   129.18948950
_cell_angle_beta   129.30399264
_cell_angle_gamma   74.55647804
_symmetry_Int_Tables_number   1
_chemical_formula_structural   Nb5Si2B4W5
_chemical_formula_sum   'Nb5 Si2 B4 W5'
_cell_volume   216.80300828
_cell_formula_units_Z   1
loop_
 _symmetry_equiv_pos_site_id
 _symmetry_equiv_pos_as_xyz
  1  'x, y, z'
loop_
 _atom_site_type_symbol
 _atom_site_label
 _atom_site_symmetry_multiplicity
 _atom_site_fract_x
 _atom_site_fract_y
 _atom_site_fract_z
 _atom_site_occupancy
  Nb  Nb0  1  0.804137  0.976743  0.501485  1
  Nb  Nb1  1  0.306814  0.806558  0.830338  1
  Nb  Nb2  1  0.194754  0.027562  0.501515  1
  Nb  Nb3  1  0.527814  0.692783  0.501394  1
  Nb  Nb4  1  0.024383  0.523277  0.829403  1
  Si  Si5  1  0.750036  0.747870  0.999804  1
  Si  Si6  1  0.253526  0.251933  0.007427  1
  B  B7  1  0.375080  0.877896  0.251779  1
  B  B8  1  0.877516  0.617673  0.494324  1
  B  B9  1  0.626324  0.128414  0.753781  1
  B  B10  1  0.120489  0.377530  0.495079  1
  W  W11  1  0.001264  0.000996  0.001108  1
  W  W12  1  0.696443  0.195111  0.165081  1
  W  W13  1  0.969997  0.469875  0.164999  1
  W  W14  1  0.501513  0.501217  0.000853  1
  W  W15  1  0.469910  0.304562  0.501629  1
