# generated using pymatgen
data_Ce2Y8Al4IrRu5
_symmetry_space_group_name_H-M   'P 1'
_cell_length_a   8.50364721
_cell_length_b   8.42452126
_cell_length_c   8.37481797
_cell_angle_alpha   110.27491137
_cell_angle_beta   109.21700260
_cell_angle_gamma   110.16886649
_symmetry_Int_Tables_number   1
_chemical_formula_structural   Ce2Y8Al4IrRu5
_chemical_formula_sum   'Ce2 Y8 Al4 Ir1 Ru5'
_cell_volume   454.57091010
_cell_formula_units_Z   1
loop_
 _symmetry_equiv_pos_site_id
 _symmetry_equiv_pos_as_xyz
  1  'x, y, z'
loop_
 _atom_site_type_symbol
 _atom_site_label
 _atom_site_symmetry_multiplicity
 _atom_site_fract_x
 _atom_site_fract_y
 _atom_site_fract_z
 _atom_site_occupancy
  Ce  Ce0  1  0.943212  0.249687  0.195119  1
  Ce  Ce1  1  0.197304  0.942118  0.251655  1
  Y  Y2  1  0.779229  0.783058  0.778478  1
  Y  Y3  1  0.316620  0.564835  0.755005  1
  Y  Y4  1  0.751251  0.318737  0.566371  1
  Y  Y5  1  0.566172  0.748425  0.312646  1
  Y  Y6  1  0.721840  0.504505  0.999408  1
  Y  Y7  1  0.000271  0.720810  0.506582  1
  Y  Y8  1  0.499136  0.989691  0.716542  1
  Y  Y9  1  0.257157  0.191365  0.934816  1
  Al  Al10  1  0.415233  0.410109  0.408699  1
  Al  Al11  1  0.092552  0.491621  0.995686  1
  Al  Al12  1  0.999435  0.092912  0.502424  1
  Al  Al13  1  0.502238  0.011437  0.094741  1
  Ir  Ir14  1  0.870075  0.117789  0.739254  1
  Ru  Ru15  1  0.753812  0.906861  0.124589  1
  Ru  Ru16  1  0.128068  0.764868  0.912405  1
  Ru  Ru17  1  0.222122  0.585664  0.359798  1
  Ru  Ru18  1  0.357641  0.219298  0.592928  1
  Ru  Ru19  1  0.626629  0.386214  0.252850  1
