# generated using pymatgen
data_Y12Os3Rh
_symmetry_space_group_name_H-M   'P 1'
_cell_length_a   7.38273918
_cell_length_b   9.13414600
_cell_length_c   6.42151132
_cell_angle_alpha   90.00000000
_cell_angle_beta   90.29983872
_cell_angle_gamma   90.00000000
_symmetry_Int_Tables_number   1
_chemical_formula_structural   Y12Os3Rh
_chemical_formula_sum   'Y12 Os3 Rh1'
_cell_volume   433.02879884
_cell_formula_units_Z   1
loop_
 _symmetry_equiv_pos_site_id
 _symmetry_equiv_pos_as_xyz
  1  'x, y, z'
loop_
 _atom_site_type_symbol
 _atom_site_label
 _atom_site_symmetry_multiplicity
 _atom_site_fract_x
 _atom_site_fract_y
 _atom_site_fract_z
 _atom_site_occupancy
  Y  Y0  1  0.671713  0.061055  0.334301  1
  Y  Y1  1  0.177935  0.438411  0.169561  1
  Y  Y2  1  0.324709  0.563379  0.669852  1
  Y  Y3  1  0.824216  0.933263  0.826913  1
  Y  Y4  1  0.324709  0.936621  0.669852  1
  Y  Y5  1  0.824216  0.566737  0.826913  1
  Y  Y6  1  0.671713  0.438945  0.334301  1
  Y  Y7  1  0.177935  0.061589  0.169561  1
  Y  Y8  1  0.539638  0.250000  0.872179  1
  Y  Y9  1  0.039726  0.250000  0.628292  1
  Y  Y10  1  0.461580  0.750000  0.125663  1
  Y  Y11  1  0.961575  0.750000  0.371010  1
  Os  Os12  1  0.382989  0.250000  0.463256  1
  Os  Os13  1  0.115685  0.750000  0.962524  1
  Os  Os14  1  0.616582  0.750000  0.535077  1
  Rh  Rh15  1  0.885079  0.250000  0.040747  1
