# generated using pymatgen
data_CaLa6MnBr12
_symmetry_space_group_name_H-M   'P 1'
_cell_length_a   9.44729530
_cell_length_b   9.84342405
_cell_length_c   9.81463238
_cell_angle_alpha   107.66120816
_cell_angle_beta   106.50562587
_cell_angle_gamma   106.95123017
_symmetry_Int_Tables_number   1
_chemical_formula_structural   CaLa6MnBr12
_chemical_formula_sum   'Ca1 La6 Mn1 Br12'
_cell_volume   759.22640449
_cell_formula_units_Z   1
loop_
 _symmetry_equiv_pos_site_id
 _symmetry_equiv_pos_as_xyz
  1  'x, y, z'
loop_
 _atom_site_type_symbol
 _atom_site_label
 _atom_site_symmetry_multiplicity
 _atom_site_fract_x
 _atom_site_fract_y
 _atom_site_fract_z
 _atom_site_occupancy
  Ca  Ca0  1  0.500000  0.500000  0.500000  1
  La  La1  1  0.289863  0.097903  0.024330  1
  La  La2  1  0.024475  0.324910  0.112723  1
  La  La3  1  0.113309  0.028541  0.323755  1
  La  La4  1  0.886690  0.971459  0.676245  1
  La  La5  1  0.975525  0.675090  0.887276  1
  La  La6  1  0.710137  0.902097  0.975669  1
  Mn  Mn7  1  0.000000  0.000000  0.000000  1
  Br  Br8  1  0.679384  0.215718  0.069759  1
  Br  Br9  1  0.381376  0.456796  0.171806  1
  Br  Br10  1  0.071257  0.685927  0.216797  1
  Br  Br11  1  0.779548  0.927756  0.315614  1
  Br  Br12  1  0.464052  0.174613  0.380826  1
  Br  Br13  1  0.163760  0.377603  0.458132  1
  Br  Br14  1  0.836241  0.622397  0.541869  1
  Br  Br15  1  0.535948  0.825388  0.619174  1
  Br  Br16  1  0.220451  0.072244  0.684386  1
  Br  Br17  1  0.928743  0.314073  0.783202  1
  Br  Br18  1  0.618625  0.543205  0.828194  1
  Br  Br19  1  0.320616  0.784281  0.930241  1
