# generated using pymatgen
data_Dy5Ho5(Sn3P)2
_symmetry_space_group_name_H-M   'P 1'
_cell_length_a   9.06506309
_cell_length_b   9.06280754
_cell_length_c   6.66472100
_cell_angle_alpha   90.00000000
_cell_angle_beta   90.00000000
_cell_angle_gamma   119.99175877
_symmetry_Int_Tables_number   1
_chemical_formula_structural   Dy5Ho5(Sn3P)2
_chemical_formula_sum   'Dy5 Ho5 Sn6 P2'
_cell_volume   474.22260647
_cell_formula_units_Z   1
loop_
 _symmetry_equiv_pos_site_id
 _symmetry_equiv_pos_as_xyz
  1  'x, y, z'
loop_
 _atom_site_type_symbol
 _atom_site_label
 _atom_site_symmetry_multiplicity
 _atom_site_fract_x
 _atom_site_fract_y
 _atom_site_fract_z
 _atom_site_occupancy
  Dy  Dy0  1  0.757828  0.757807  0.750000  1
  Dy  Dy1  1  0.242172  0.999979  0.750000  1
  Dy  Dy2  1  0.000000  0.242174  0.750000  1
  Dy  Dy3  1  0.242197  0.242162  0.250000  1
  Dy  Dy4  1  0.757803  0.999965  0.250000  1
  Ho  Ho5  1  0.666695  0.333390  0.000021  1
  Ho  Ho6  1  0.333305  0.666696  0.000021  1
  Ho  Ho7  1  0.333305  0.666696  0.499979  1
  Ho  Ho8  1  0.666695  0.333390  0.499979  1
  Ho  Ho9  1  0.000000  0.758141  0.250000  1
  Sn  Sn10  1  0.397691  0.397697  0.750000  1
  Sn  Sn11  1  0.602309  0.000007  0.750000  1
  Sn  Sn12  1  0.000000  0.602302  0.750000  1
  Sn  Sn13  1  0.602524  0.602385  0.250000  1
  Sn  Sn14  1  0.397476  0.999861  0.250000  1
  Sn  Sn15  1  0.000000  0.397833  0.250000  1
  P  P16  1  0.000000  0.999758  0.000224  1
  P  P17  1  0.000000  0.999758  0.499776  1
