# generated using pymatgen
data_TbIn2Cl5
_symmetry_space_group_name_H-M   'P 1'
_cell_length_a   8.21812500
_cell_length_b   8.59742600
_cell_length_c   13.12034400
_cell_angle_alpha   90.00000000
_cell_angle_beta   90.00000000
_cell_angle_gamma   90.00000000
_symmetry_Int_Tables_number   1
_chemical_formula_structural   TbIn2Cl5
_chemical_formula_sum   'Tb4 In8 Cl20'
_cell_volume   927.01425191
_cell_formula_units_Z   4
loop_
 _symmetry_equiv_pos_site_id
 _symmetry_equiv_pos_as_xyz
  1  'x, y, z'
loop_
 _atom_site_type_symbol
 _atom_site_label
 _atom_site_symmetry_multiplicity
 _atom_site_fract_x
 _atom_site_fract_y
 _atom_site_fract_z
 _atom_site_occupancy
  Tb  Tb0  1  0.927795  0.750000  0.503687  1
  Tb  Tb1  1  0.072205  0.250000  0.496313  1
  Tb  Tb2  1  0.427795  0.250000  0.996313  1
  Tb  Tb3  1  0.572205  0.750000  0.003687  1
  In  In4  1  0.949049  0.004671  0.828091  1
  In  In5  1  0.050951  0.995329  0.171909  1
  In  In6  1  0.449049  0.995329  0.671909  1
  In  In7  1  0.050951  0.504671  0.171909  1
  In  In8  1  0.550951  0.004671  0.328091  1
  In  In9  1  0.949049  0.495329  0.828091  1
  In  In10  1  0.550951  0.495329  0.328091  1
  In  In11  1  0.449049  0.504671  0.671909  1
  Cl  Cl12  1  0.112946  0.750000  0.674363  1
  Cl  Cl13  1  0.887054  0.250000  0.325637  1
  Cl  Cl14  1  0.612946  0.250000  0.825637  1
  Cl  Cl15  1  0.387054  0.750000  0.174363  1
  Cl  Cl16  1  0.840925  0.042567  0.571979  1
  Cl  Cl17  1  0.159075  0.957433  0.428021  1
  Cl  Cl18  1  0.340925  0.957433  0.928021  1
  Cl  Cl19  1  0.159075  0.542567  0.428021  1
  Cl  Cl20  1  0.659075  0.042567  0.071979  1
  Cl  Cl21  1  0.840925  0.457433  0.571979  1
  Cl  Cl22  1  0.659075  0.457433  0.071979  1
  Cl  Cl23  1  0.340925  0.542567  0.928021  1
  Cl  Cl24  1  0.593549  0.750000  0.510478  1
  Cl  Cl25  1  0.406451  0.250000  0.489522  1
  Cl  Cl26  1  0.093549  0.250000  0.989522  1
  Cl  Cl27  1  0.906451  0.750000  0.010478  1
  Cl  Cl28  1  0.656299  0.750000  0.803856  1
  Cl  Cl29  1  0.343701  0.250000  0.196144  1
  Cl  Cl30  1  0.156299  0.250000  0.696144  1
  Cl  Cl31  1  0.843701  0.750000  0.303856  1
