# generated using pymatgen
data_Dy2Al4Au3
_symmetry_space_group_name_H-M   'P 1'
_cell_length_a   14.03401700
_cell_length_b   14.03401791
_cell_length_c   4.19885000
_cell_angle_alpha   90.00000000
_cell_angle_beta   90.00000000
_cell_angle_gamma   120.00000021
_symmetry_Int_Tables_number   1
_chemical_formula_structural   Dy2Al4Au3
_chemical_formula_sum   'Dy8 Al16 Au12'
_cell_volume   716.18466162
_cell_formula_units_Z   4
loop_
 _symmetry_equiv_pos_site_id
 _symmetry_equiv_pos_as_xyz
  1  'x, y, z'
loop_
 _atom_site_type_symbol
 _atom_site_label
 _atom_site_symmetry_multiplicity
 _atom_site_fract_x
 _atom_site_fract_y
 _atom_site_fract_z
 _atom_site_occupancy
  Dy  Dy0  1  0.448244  0.000000  0.000000  1
  Dy  Dy1  1  0.000000  0.448244  0.000000  1
  Dy  Dy2  1  0.551756  0.551756  0.000000  1
  Dy  Dy3  1  0.333333  0.666667  0.000000  1
  Dy  Dy4  1  0.666667  0.333333  0.000000  1
  Dy  Dy5  1  0.822268  0.000000  0.500000  1
  Dy  Dy6  1  0.000000  0.822268  0.500000  1
  Dy  Dy7  1  0.177732  0.177732  0.500000  1
  Al  Al8  1  0.180413  0.377275  0.000000  1
  Al  Al9  1  0.622725  0.803140  0.000000  1
  Al  Al10  1  0.377275  0.180413  0.000000  1
  Al  Al11  1  0.196860  0.819587  0.000000  1
  Al  Al12  1  0.803140  0.622725  0.000000  1
  Al  Al13  1  0.819587  0.196860  0.000000  1
  Al  Al14  1  0.281656  0.000000  0.500000  1
  Al  Al15  1  0.000000  0.281656  0.500000  1
  Al  Al16  1  0.718344  0.718344  0.500000  1
  Al  Al17  1  0.351240  0.471917  0.500000  1
  Al  Al18  1  0.528083  0.879324  0.500000  1
  Al  Al19  1  0.471917  0.351240  0.500000  1
  Al  Al20  1  0.120676  0.648760  0.500000  1
  Al  Al21  1  0.879324  0.528083  0.500000  1
  Al  Al22  1  0.648760  0.120676  0.500000  1
  Al  Al23  1  0.000000  0.000000  0.000000  1
  Au  Au24  1  0.174320  0.490479  0.500000  1
  Au  Au25  1  0.509521  0.683841  0.500000  1
  Au  Au26  1  0.490479  0.174320  0.500000  1
  Au  Au27  1  0.316159  0.825680  0.500000  1
  Au  Au28  1  0.683841  0.509521  0.500000  1
  Au  Au29  1  0.825680  0.316159  0.500000  1
  Au  Au30  1  0.179202  0.000000  0.000000  1
  Au  Au31  1  0.000000  0.179202  0.000000  1
  Au  Au32  1  0.820798  0.820798  0.000000  1
  Au  Au33  1  0.657261  0.000000  0.000000  1
  Au  Au34  1  0.000000  0.657261  0.000000  1
  Au  Au35  1  0.342739  0.342739  0.000000  1
