# generated using pymatgen
data_Tb2Pr4RuI10
_symmetry_space_group_name_H-M   'P 1'
_cell_length_a   7.93831607
_cell_length_b   10.02875333
_cell_length_c   10.02270389
_cell_angle_alpha   108.13610922
_cell_angle_beta   96.10862222
_cell_angle_gamma   104.94732810
_symmetry_Int_Tables_number   1
_chemical_formula_structural   Tb2Pr4RuI10
_chemical_formula_sum   'Tb2 Pr4 Ru1 I10'
_cell_volume   717.31688382
_cell_formula_units_Z   1
loop_
 _symmetry_equiv_pos_site_id
 _symmetry_equiv_pos_as_xyz
  1  'x, y, z'
loop_
 _atom_site_type_symbol
 _atom_site_label
 _atom_site_symmetry_multiplicity
 _atom_site_fract_x
 _atom_site_fract_y
 _atom_site_fract_z
 _atom_site_occupancy
  Tb  Tb0  1  0.351158  0.125191  0.167425  1
  Tb  Tb1  1  0.648842  0.874809  0.832575  1
  Pr  Pr2  1  0.117856  0.040747  0.759949  1
  Pr  Pr3  1  0.882144  0.959253  0.240051  1
  Pr  Pr4  1  0.972302  0.283924  0.088668  1
  Pr  Pr5  1  0.027698  0.716076  0.911332  1
  Ru  Ru6  1  0.000000  0.000000  0.000000  1
  I  I7  1  0.547566  0.177090  0.913882  1
  I  I8  1  0.452434  0.822910  0.086118  1
  I  I9  1  0.363622  0.445816  0.273000  1
  I  I10  1  0.636378  0.554184  0.727000  1
  I  I11  1  0.264761  0.088656  0.453644  1
  I  I12  1  0.735239  0.911344  0.546356  1
  I  I13  1  0.771181  0.257449  0.349098  1
  I  I14  1  0.228819  0.742551  0.650902  1
  I  I15  1  0.090163  0.369650  0.820496  1
  I  I16  1  0.909837  0.630350  0.179504  1
