# generated using pymatgen
data_Dy3Y2Si3O
_symmetry_space_group_name_H-M   'P 1'
_cell_length_a   8.41528600
_cell_length_b   8.41528460
_cell_length_c   6.23096400
_cell_angle_alpha   90.00000000
_cell_angle_beta   90.00000000
_cell_angle_gamma   119.99998976
_symmetry_Int_Tables_number   1
_chemical_formula_structural   Dy3Y2Si3O
_chemical_formula_sum   'Dy6 Y4 Si6 O2'
_cell_volume   382.14097505
_cell_formula_units_Z   2
loop_
 _symmetry_equiv_pos_site_id
 _symmetry_equiv_pos_as_xyz
  1  'x, y, z'
loop_
 _atom_site_type_symbol
 _atom_site_label
 _atom_site_symmetry_multiplicity
 _atom_site_fract_x
 _atom_site_fract_y
 _atom_site_fract_z
 _atom_site_occupancy
  Dy  Dy0  1  0.768223  0.768223  0.250000  1
  Dy  Dy1  1  0.768223  0.000000  0.750000  1
  Dy  Dy2  1  0.000000  0.231777  0.250000  1
  Dy  Dy3  1  0.000000  0.768223  0.750000  1
  Dy  Dy4  1  0.231777  0.231777  0.750000  1
  Dy  Dy5  1  0.231777  0.000000  0.250000  1
  Y  Y6  1  0.666667  0.333333  0.000000  1
  Y  Y7  1  0.333333  0.666667  0.500000  1
  Y  Y8  1  0.333333  0.666667  0.000000  1
  Y  Y9  1  0.666667  0.333333  0.500000  1
  Si  Si10  1  0.398509  0.000000  0.750000  1
  Si  Si11  1  0.398509  0.398509  0.250000  1
  Si  Si12  1  0.000000  0.601491  0.250000  1
  Si  Si13  1  0.000000  0.398509  0.750000  1
  Si  Si14  1  0.601491  0.601491  0.750000  1
  Si  Si15  1  0.601491  0.000000  0.250000  1
  O  O16  1  0.000000  0.000000  0.500000  1
  O  O17  1  0.000000  0.000000  0.000000  1
