# generated using pymatgen
data_Ca3La17(Sn3Bi)4
_symmetry_space_group_name_H-M   'P 1'
_cell_length_a   8.49971952
_cell_length_b   8.59370687
_cell_length_c   16.42849400
_cell_angle_alpha   89.90457929
_cell_angle_beta   90.69233449
_cell_angle_gamma   90.19452743
_symmetry_Int_Tables_number   1
_chemical_formula_structural   Ca3La17(Sn3Bi)4
_chemical_formula_sum   'Ca3 La17 Sn12 Bi4'
_cell_volume   1199.90842109
_cell_formula_units_Z   1
loop_
 _symmetry_equiv_pos_site_id
 _symmetry_equiv_pos_as_xyz
  1  'x, y, z'
loop_
 _atom_site_type_symbol
 _atom_site_label
 _atom_site_symmetry_multiplicity
 _atom_site_fract_x
 _atom_site_fract_y
 _atom_site_fract_z
 _atom_site_occupancy
  Ca  Ca0  1  0.204366  0.500084  0.245699  1
  Ca  Ca1  1  0.705158  0.997204  0.245312  1
  Ca  Ca2  1  0.293332  0.002637  0.749927  1
  La  La3  1  0.028600  0.177403  0.395310  1
  La  La4  1  0.373966  0.835472  0.120015  1
  La  La5  1  0.128218  0.334554  0.619595  1
  La  La6  1  0.482955  0.681692  0.902342  1
  La  La7  1  0.871350  0.659959  0.119997  1
  La  La8  1  0.130861  0.342226  0.879961  1
  La  La9  1  0.472951  0.686245  0.604628  1
  La  La10  1  0.618941  0.158309  0.620659  1
  La  La11  1  0.800130  0.500672  0.755102  1
  La  La12  1  0.876544  0.660773  0.378996  1
  La  La13  1  0.011402  0.184524  0.100585  1
  La  La14  1  0.978875  0.818932  0.900378  1
  La  La15  1  0.630024  0.161156  0.881069  1
  La  La16  1  0.516887  0.318997  0.100071  1
  La  La17  1  0.374134  0.840945  0.380452  1
  La  La18  1  0.980824  0.823329  0.603648  1
  La  La19  1  0.522025  0.314361  0.395891  1
  Sn  Sn20  1  0.680735  0.860127  0.750729  1
  Sn  Sn21  1  0.820333  0.357416  0.251040  1
  Sn  Sn22  1  0.789415  0.465325  0.957273  1
  Sn  Sn23  1  0.572133  0.610747  0.252382  1
  Sn  Sn24  1  0.212804  0.535588  0.041163  1
  Sn  Sn25  1  0.429347  0.389936  0.749323  1
  Sn  Sn26  1  0.175538  0.640790  0.750220  1
  Sn  Sn27  1  0.926633  0.116858  0.749860  1
  Sn  Sn28  1  0.279067  0.031750  0.541903  1
  Sn  Sn29  1  0.715625  0.962525  0.041114  1
  Sn  Sn30  1  0.321659  0.139452  0.249023  1
  Sn  Sn31  1  0.073440  0.885866  0.250008  1
  Bi  Bi32  1  0.777522  0.469367  0.543541  1
  Bi  Bi33  1  0.719954  0.967444  0.457504  1
  Bi  Bi34  1  0.219769  0.530144  0.456253  1
  Bi  Bi35  1  0.284482  0.037189  0.959026  1
