# generated using pymatgen
data_YbDySi4Tc3
_symmetry_space_group_name_H-M   'P 1'
_cell_length_a   6.81234600
_cell_length_b   6.67251123
_cell_length_c   6.78993123
_cell_angle_alpha   70.52004106
_cell_angle_beta   89.99662585
_cell_angle_gamma   90.00127035
_symmetry_Int_Tables_number   1
_chemical_formula_structural   YbDySi4Tc3
_chemical_formula_sum   'Yb2 Dy2 Si8 Tc6'
_cell_volume   290.97233667
_cell_formula_units_Z   2
loop_
 _symmetry_equiv_pos_site_id
 _symmetry_equiv_pos_as_xyz
  1  'x, y, z'
loop_
 _atom_site_type_symbol
 _atom_site_label
 _atom_site_symmetry_multiplicity
 _atom_site_fract_x
 _atom_site_fract_y
 _atom_site_fract_z
 _atom_site_occupancy
  Yb  Yb0  1  0.665843  0.444243  0.185781  1
  Yb  Yb1  1  0.165850  0.055763  0.814211  1
  Dy  Dy2  1  0.332612  0.557831  0.808568  1
  Dy  Dy3  1  0.832577  0.942168  0.191426  1
  Si  Si4  1  0.451657  0.119451  0.103845  1
  Si  Si5  1  0.951646  0.380553  0.896163  1
  Si  Si6  1  0.546551  0.880607  0.896740  1
  Si  Si7  1  0.046527  0.619391  0.103227  1
  Si  Si8  1  0.861004  0.135866  0.509558  1
  Si  Si9  1  0.361022  0.364101  0.490486  1
  Si  Si10  1  0.140077  0.869676  0.490906  1
  Si  Si11  1  0.640079  0.630338  0.509100  1
  Tc  Tc12  1  0.502219  0.998768  0.498453  1
  Tc  Tc13  1  0.002217  0.501219  0.501537  1
  Tc  Tc14  1  0.157638  0.244803  0.238181  1
  Tc  Tc15  1  0.657622  0.255168  0.761761  1
  Tc  Tc16  1  0.842426  0.757941  0.760493  1
  Tc  Tc17  1  0.342433  0.742113  0.239563  1
