# generated using pymatgen
data_Lu4Pt2Pb5
_symmetry_space_group_name_H-M   'P 1'
_cell_length_a   8.09647174
_cell_length_b   3.58330100
_cell_length_c   9.93157612
_cell_angle_alpha   90.00000000
_cell_angle_beta   96.26083281
_cell_angle_gamma   90.00000000
_symmetry_Int_Tables_number   1
_chemical_formula_structural   Lu4Pt2Pb5
_chemical_formula_sum   'Lu4 Pt2 Pb5'
_cell_volume   286.41731481
_cell_formula_units_Z   1
loop_
 _symmetry_equiv_pos_site_id
 _symmetry_equiv_pos_as_xyz
  1  'x, y, z'
loop_
 _atom_site_type_symbol
 _atom_site_label
 _atom_site_symmetry_multiplicity
 _atom_site_fract_x
 _atom_site_fract_y
 _atom_site_fract_z
 _atom_site_occupancy
  Lu  Lu0  1  0.800400  0.500001  0.157191  1
  Lu  Lu1  1  0.195588  0.500001  0.436254  1
  Lu  Lu2  1  0.804412  0.500001  0.563746  1
  Lu  Lu3  1  0.199599  0.500001  0.842809  1
  Pt  Pt4  1  0.916944  0.000000  0.364787  1
  Pt  Pt5  1  0.083057  0.000000  0.635214  1
  Pb  Pb6  1  0.500000  0.000000  0.000000  1
  Pb  Pb7  1  0.146745  0.000000  0.136979  1
  Pb  Pb8  1  0.528630  0.000000  0.333975  1
  Pb  Pb9  1  0.471369  0.000000  0.666024  1
  Pb  Pb10  1  0.853254  0.000000  0.863022  1
