# generated using pymatgen
data_Y3Tm2(CoB3)2
_symmetry_space_group_name_H-M   'P 1'
_cell_length_a   5.40819238
_cell_length_b   5.40819119
_cell_length_c   8.31708962
_cell_angle_alpha   71.02683662
_cell_angle_beta   71.02683097
_cell_angle_gamma   59.99998100
_symmetry_Int_Tables_number   1
_chemical_formula_structural   Y3Tm2(CoB3)2
_chemical_formula_sum   'Y3 Tm2 Co2 B6'
_cell_volume   195.26183291
_cell_formula_units_Z   1
loop_
 _symmetry_equiv_pos_site_id
 _symmetry_equiv_pos_as_xyz
  1  'x, y, z'
loop_
 _atom_site_type_symbol
 _atom_site_label
 _atom_site_symmetry_multiplicity
 _atom_site_fract_x
 _atom_site_fract_y
 _atom_site_fract_z
 _atom_site_occupancy
  Y  Y0  1  0.000000  0.000000  0.000000  1
  Y  Y1  1  0.252583  0.252583  0.242253  1
  Y  Y2  1  0.747417  0.747417  0.757747  1
  Tm  Tm3  1  0.417375  0.417375  0.747875  1
  Tm  Tm4  1  0.582625  0.582625  0.252125  1
  Co  Co5  1  0.119895  0.119895  0.640315  1
  Co  Co6  1  0.880105  0.880105  0.359685  1
  B  B7  1  0.169196  0.830804  0.500000  1
  B  B8  1  0.830804  0.500000  0.500000  1
  B  B9  1  0.500000  0.169196  0.500000  1
  B  B10  1  0.169196  0.500000  0.500000  1
  B  B11  1  0.500000  0.830804  0.500000  1
  B  B12  1  0.830804  0.169196  0.500000  1
