# generated using pymatgen
data_NdLu19Pt16
_symmetry_space_group_name_H-M   'P 1'
_cell_length_a   7.35321980
_cell_length_b   7.40366712
_cell_length_c   14.57891831
_cell_angle_alpha   89.96264657
_cell_angle_beta   90.17810853
_cell_angle_gamma   90.07328050
_symmetry_Int_Tables_number   1
_chemical_formula_structural   NdLu19Pt16
_chemical_formula_sum   'Nd1 Lu19 Pt16'
_cell_volume   793.68320432
_cell_formula_units_Z   1
loop_
 _symmetry_equiv_pos_site_id
 _symmetry_equiv_pos_as_xyz
  1  'x, y, z'
loop_
 _atom_site_type_symbol
 _atom_site_label
 _atom_site_symmetry_multiplicity
 _atom_site_fract_x
 _atom_site_fract_y
 _atom_site_fract_z
 _atom_site_occupancy
  Nd  Nd0  1  0.511204  0.325210  0.409082  1
  Lu  Lu1  1  0.008212  0.177068  0.407759  1
  Lu  Lu2  1  0.356325  0.833336  0.120875  1
  Lu  Lu3  1  0.142661  0.332125  0.623168  1
  Lu  Lu4  1  0.489660  0.677724  0.907690  1
  Lu  Lu5  1  0.857372  0.665740  0.121056  1
  Lu  Lu6  1  0.144087  0.334978  0.876895  1
  Lu  Lu7  1  0.195302  0.490883  0.247176  1
  Lu  Lu8  1  0.694265  0.008230  0.247509  1
  Lu  Lu9  1  0.490063  0.683436  0.594630  1
  Lu  Lu10  1  0.305609  0.991988  0.751081  1
  Lu  Lu11  1  0.647204  0.164634  0.624217  1
  Lu  Lu12  1  0.804715  0.508714  0.750780  1
  Lu  Lu13  1  0.860214  0.667859  0.375658  1
  Lu  Lu14  1  0.010276  0.177141  0.090469  1
  Lu  Lu15  1  0.989744  0.820895  0.907870  1
  Lu  Lu16  1  0.643534  0.166478  0.877871  1
  Lu  Lu17  1  0.510575  0.322080  0.091677  1
  Lu  Lu18  1  0.356038  0.832959  0.377192  1
  Lu  Lu19  1  0.991083  0.821838  0.592231  1
  Pt  Pt20  1  0.809471  0.474513  0.545575  1
  Pt  Pt21  1  0.694210  0.956588  0.463610  1
  Pt  Pt22  1  0.663371  0.854235  0.752565  1
  Pt  Pt23  1  0.182333  0.540919  0.462656  1
  Pt  Pt24  1  0.306577  0.034380  0.959300  1
  Pt  Pt25  1  0.840056  0.352855  0.247477  1
  Pt  Pt26  1  0.806982  0.467483  0.958990  1
  Pt  Pt27  1  0.562248  0.614736  0.247373  1
  Pt  Pt28  1  0.193384  0.531438  0.039970  1
  Pt  Pt29  1  0.438954  0.388389  0.750003  1
  Pt  Pt30  1  0.163014  0.646895  0.751099  1
  Pt  Pt31  1  0.940315  0.110240  0.751022  1
  Pt  Pt32  1  0.306646  0.030186  0.541841  1
  Pt  Pt33  1  0.693478  0.965045  0.039946  1
  Pt  Pt34  1  0.331390  0.142206  0.244846  1
  Pt  Pt35  1  0.059425  0.886580  0.248842  1
