# generated using pymatgen
data_Th4Sc4Re3B24Mo
_symmetry_space_group_name_H-M   'P 1'
_cell_length_a   3.69622100
_cell_length_b   9.11873826
_cell_length_c   11.57641833
_cell_angle_alpha   89.97276842
_cell_angle_beta   90.00000000
_cell_angle_gamma   90.00000000
_symmetry_Int_Tables_number   1
_chemical_formula_structural   Th4Sc4Re3B24Mo
_chemical_formula_sum   'Th4 Sc4 Re3 B24 Mo1'
_cell_volume   390.18165201
_cell_formula_units_Z   1
loop_
 _symmetry_equiv_pos_site_id
 _symmetry_equiv_pos_as_xyz
  1  'x, y, z'
loop_
 _atom_site_type_symbol
 _atom_site_label
 _atom_site_symmetry_multiplicity
 _atom_site_fract_x
 _atom_site_fract_y
 _atom_site_fract_z
 _atom_site_occupancy
  Th  Th0  1  0.000000  0.320577  0.414395  1
  Th  Th1  1  0.000000  0.678889  0.585459  1
  Th  Th2  1  0.000000  0.821137  0.085295  1
  Th  Th3  1  0.000000  0.178756  0.914825  1
  Sc  Sc4  1  0.000000  0.945833  0.372996  1
  Sc  Sc5  1  0.000000  0.054934  0.627453  1
  Sc  Sc6  1  0.000000  0.445438  0.126906  1
  Sc  Sc7  1  0.000000  0.554556  0.872660  1
  Re  Re8  1  0.000000  0.358292  0.683108  1
  Re  Re9  1  0.000000  0.141218  0.182143  1
  Re  Re10  1  0.000000  0.858727  0.817176  1
  B  B11  1  0.500000  0.555575  0.430769  1
  B  B12  1  0.500000  0.442810  0.571088  1
  B  B13  1  0.500000  0.057335  0.070988  1
  B  B14  1  0.500000  0.942878  0.928901  1
  B  B15  1  0.500000  0.755859  0.417261  1
  B  B16  1  0.500000  0.246151  0.584086  1
  B  B17  1  0.500000  0.254166  0.084023  1
  B  B18  1  0.500000  0.745916  0.915833  1
  B  B19  1  0.500000  0.795900  0.265458  1
  B  B20  1  0.500000  0.206227  0.734171  1
  B  B21  1  0.500000  0.293422  0.233964  1
  B  B22  1  0.500000  0.706345  0.765835  1
  B  B23  1  0.500000  0.628004  0.182362  1
  B  B24  1  0.500000  0.371370  0.816069  1
  B  B25  1  0.500000  0.128342  0.315738  1
  B  B26  1  0.500000  0.871810  0.684165  1
  B  B27  1  0.500000  0.983862  0.215609  1
  B  B28  1  0.500000  0.016414  0.784373  1
  B  B29  1  0.500000  0.481361  0.283520  1
  B  B30  1  0.500000  0.516136  0.715849  1
  B  B31  1  0.500000  0.596598  0.025372  1
  B  B32  1  0.500000  0.403563  0.973889  1
  B  B33  1  0.500000  0.096467  0.474263  1
  B  B34  1  0.500000  0.904090  0.526311  1
  Mo  Mo35  1  0.000000  0.641040  0.317689  1
