# generated using pymatgen
data_Lu2(ScBi)3
_symmetry_space_group_name_H-M   'P 1'
_cell_length_a   7.87616400
_cell_length_b   9.13651500
_cell_length_c   11.64037200
_cell_angle_alpha   90.00000000
_cell_angle_beta   90.00000000
_cell_angle_gamma   90.00000000
_symmetry_Int_Tables_number   1
_chemical_formula_structural   Lu2(ScBi)3
_chemical_formula_sum   'Lu8 Sc12 Bi12'
_cell_volume   837.64920713
_cell_formula_units_Z   4
loop_
 _symmetry_equiv_pos_site_id
 _symmetry_equiv_pos_as_xyz
  1  'x, y, z'
loop_
 _atom_site_type_symbol
 _atom_site_label
 _atom_site_symmetry_multiplicity
 _atom_site_fract_x
 _atom_site_fract_y
 _atom_site_fract_z
 _atom_site_occupancy
  Lu  Lu0  1  0.351528  0.250000  0.280187  1
  Lu  Lu1  1  0.648472  0.750000  0.719813  1
  Lu  Lu2  1  0.148472  0.750000  0.780187  1
  Lu  Lu3  1  0.851528  0.250000  0.219813  1
  Lu  Lu4  1  0.184340  0.250000  0.781330  1
  Lu  Lu5  1  0.815660  0.750000  0.218670  1
  Lu  Lu6  1  0.315660  0.750000  0.281330  1
  Lu  Lu7  1  0.684340  0.250000  0.718670  1
  Sc  Sc8  1  0.018285  0.250000  0.509669  1
  Sc  Sc9  1  0.981715  0.750000  0.490331  1
  Sc  Sc10  1  0.481715  0.750000  0.009669  1
  Sc  Sc11  1  0.518285  0.250000  0.990331  1
  Sc  Sc12  1  0.192120  0.067226  0.058680  1
  Sc  Sc13  1  0.807880  0.932774  0.941320  1
  Sc  Sc14  1  0.307880  0.932774  0.558680  1
  Sc  Sc15  1  0.807880  0.567226  0.941320  1
  Sc  Sc16  1  0.692120  0.067226  0.441320  1
  Sc  Sc17  1  0.192120  0.432774  0.058680  1
  Sc  Sc18  1  0.692120  0.432774  0.441320  1
  Sc  Sc19  1  0.307880  0.567226  0.558680  1
  Bi  Bi20  1  0.401771  0.250000  0.539962  1
  Bi  Bi21  1  0.598229  0.750000  0.460038  1
  Bi  Bi22  1  0.098229  0.750000  0.039962  1
  Bi  Bi23  1  0.901771  0.250000  0.960038  1
  Bi  Bi24  1  0.065427  0.003572  0.330282  1
  Bi  Bi25  1  0.934573  0.996428  0.669718  1
  Bi  Bi26  1  0.434573  0.996428  0.830282  1
  Bi  Bi27  1  0.934573  0.503572  0.669718  1
  Bi  Bi28  1  0.565427  0.003572  0.169718  1
  Bi  Bi29  1  0.065427  0.496428  0.330282  1
  Bi  Bi30  1  0.565427  0.496428  0.169718  1
  Bi  Bi31  1  0.434573  0.503572  0.830282  1
