# generated using pymatgen
data_DyHo7Sc11Si16Au
_symmetry_space_group_name_H-M   'P 1'
_cell_length_a   7.00251201
_cell_length_b   7.38129970
_cell_length_c   14.00389707
_cell_angle_alpha   90.01176065
_cell_angle_beta   90.00113364
_cell_angle_gamma   89.83403871
_symmetry_Int_Tables_number   1
_chemical_formula_structural   DyHo7Sc11Si16Au
_chemical_formula_sum   'Dy1 Ho7 Sc11 Si16 Au1'
_cell_volume   723.82533586
_cell_formula_units_Z   1
loop_
 _symmetry_equiv_pos_site_id
 _symmetry_equiv_pos_as_xyz
  1  'x, y, z'
loop_
 _atom_site_type_symbol
 _atom_site_label
 _atom_site_symmetry_multiplicity
 _atom_site_fract_x
 _atom_site_fract_y
 _atom_site_fract_z
 _atom_site_occupancy
  Dy  Dy0  1  0.010681  0.174848  0.095950  1
  Ho  Ho1  1  0.990664  0.813984  0.901382  1
  Ho  Ho2  1  0.485662  0.672682  0.901432  1
  Ho  Ho3  1  0.990630  0.814007  0.598433  1
  Ho  Ho4  1  0.510234  0.323247  0.096222  1
  Ho  Ho5  1  0.010755  0.175076  0.403958  1
  Ho  Ho6  1  0.510242  0.323165  0.403960  1
  Ho  Ho7  1  0.485583  0.672636  0.598419  1
  Sc  Sc8  1  0.838382  0.497570  0.250130  1
  Sc  Sc9  1  0.340476  0.003571  0.250138  1
  Sc  Sc10  1  0.655699  0.997403  0.749985  1
  Sc  Sc11  1  0.323427  0.183307  0.627444  1
  Sc  Sc12  1  0.671382  0.823815  0.375317  1
  Sc  Sc13  1  0.170738  0.678843  0.373982  1
  Sc  Sc14  1  0.671389  0.823732  0.124903  1
  Sc  Sc15  1  0.838220  0.327873  0.627304  1
  Sc  Sc16  1  0.323441  0.183407  0.872485  1
  Sc  Sc17  1  0.837911  0.327976  0.872660  1
  Sc  Sc18  1  0.170824  0.678784  0.126136  1
  Si  Si19  1  0.025380  0.092988  0.749914  1
  Si  Si20  1  0.968974  0.888552  0.250173  1
  Si  Si21  1  0.467489  0.616794  0.250092  1
  Si  Si22  1  0.536286  0.384632  0.749922  1
  Si  Si23  1  0.288173  0.880274  0.749937  1
  Si  Si24  1  0.713495  0.128763  0.250273  1
  Si  Si25  1  0.213127  0.371740  0.250206  1
  Si  Si26  1  0.777930  0.629507  0.749911  1
  Si  Si27  1  0.163035  0.459419  0.530320  1
  Si  Si28  1  0.842433  0.534831  0.462073  1
  Si  Si29  1  0.344181  0.965350  0.463437  1
  Si  Si30  1  0.842274  0.535280  0.037770  1
  Si  Si31  1  0.657595  0.033710  0.540741  1
  Si  Si32  1  0.162988  0.459904  0.969506  1
  Si  Si33  1  0.657558  0.033634  0.959254  1
  Si  Si34  1  0.344700  0.965102  0.036473  1
  Au  Au35  1  0.158044  0.523597  0.749758  1
