# generated using pymatgen
data_KSm6RuI12
_symmetry_space_group_name_H-M   'P 1'
_cell_length_a   9.98477497
_cell_length_b   9.98477432
_cell_length_c   9.98477289
_cell_angle_alpha   105.37627628
_cell_angle_beta   105.37627884
_cell_angle_gamma   105.37626478
_symmetry_Int_Tables_number   1
_chemical_formula_structural   KSm6RuI12
_chemical_formula_sum   'K1 Sm6 Ru1 I12'
_cell_volume   863.10382398
_cell_formula_units_Z   1
loop_
 _symmetry_equiv_pos_site_id
 _symmetry_equiv_pos_as_xyz
  1  'x, y, z'
loop_
 _atom_site_type_symbol
 _atom_site_label
 _atom_site_symmetry_multiplicity
 _atom_site_fract_x
 _atom_site_fract_y
 _atom_site_fract_z
 _atom_site_occupancy
  K  K0  1  0.500000  0.500000  0.500000  1
  Sm  Sm1  1  0.906861  0.704088  0.981248  1
  Sm  Sm2  1  0.981248  0.906861  0.704088  1
  Sm  Sm3  1  0.704088  0.981248  0.906861  1
  Sm  Sm4  1  0.093139  0.295912  0.018752  1
  Sm  Sm5  1  0.018752  0.093139  0.295912  1
  Sm  Sm6  1  0.295912  0.018752  0.093139  1
  Ru  Ru7  1  0.000000  0.000000  0.000000  1
  I  I8  1  0.649343  0.884777  0.567745  1
  I  I9  1  0.567745  0.649343  0.884777  1
  I  I10  1  0.884777  0.567745  0.649343  1
  I  I11  1  0.350657  0.115223  0.432255  1
  I  I12  1  0.432255  0.350657  0.115223  1
  I  I13  1  0.115223  0.432255  0.350657  1
  I  I14  1  0.678918  0.077356  0.223918  1
  I  I15  1  0.223918  0.678918  0.077356  1
  I  I16  1  0.077356  0.223918  0.678918  1
  I  I17  1  0.321082  0.922644  0.776082  1
  I  I18  1  0.776082  0.321082  0.922644  1
  I  I19  1  0.922644  0.776082  0.321082  1
