# generated using pymatgen
data_CeDyB6Ir4Rh5
_symmetry_space_group_name_H-M   'P 1'
_cell_length_a   5.68181300
_cell_length_b   5.68160420
_cell_length_c   8.69883200
_cell_angle_alpha   89.99999703
_cell_angle_beta   89.99998399
_cell_angle_gamma   59.99877845
_symmetry_Int_Tables_number   1
_chemical_formula_structural   CeDyB6Ir4Rh5
_chemical_formula_sum   'Ce1 Dy1 B6 Ir4 Rh5'
_cell_volume   243.18911992
_cell_formula_units_Z   1
loop_
 _symmetry_equiv_pos_site_id
 _symmetry_equiv_pos_as_xyz
  1  'x, y, z'
loop_
 _atom_site_type_symbol
 _atom_site_label
 _atom_site_symmetry_multiplicity
 _atom_site_fract_x
 _atom_site_fract_y
 _atom_site_fract_z
 _atom_site_occupancy
  Ce  Ce0  1  0.000018  0.000000  0.702996  1
  Dy  Dy1  1  0.999953  0.000000  0.297433  1
  B  B2  1  0.666083  0.667822  0.001566  1
  B  B3  1  0.333905  0.332178  0.001566  1
  B  B4  1  0.666350  0.667295  0.331972  1
  B  B5  1  0.333645  0.332705  0.331972  1
  B  B6  1  0.333055  0.333900  0.666358  1
  B  B7  1  0.666955  0.666100  0.666358  1
  Ir  Ir8  1  0.499984  0.000000  0.163672  1
  Ir  Ir9  1  0.499995  0.000000  0.500298  1
  Ir  Ir10  1  0.999997  0.500003  0.499340  1
  Ir  Ir11  1  0.499999  0.499997  0.499340  1
  Rh  Rh12  1  0.999946  0.500012  0.163419  1
  Rh  Rh13  1  0.499959  0.499988  0.163419  1
  Rh  Rh14  1  0.500017  0.000000  0.836400  1
  Rh  Rh15  1  0.000018  0.500002  0.836944  1
  Rh  Rh16  1  0.500020  0.499998  0.836944  1
