# generated using pymatgen
data_Nd9Lu11(Si7Au)2
_symmetry_space_group_name_H-M   'P 1'
_cell_length_a   7.70765977
_cell_length_b   7.75168327
_cell_length_c   14.20374957
_cell_angle_alpha   89.89300214
_cell_angle_beta   90.17727950
_cell_angle_gamma   90.09597881
_symmetry_Int_Tables_number   1
_chemical_formula_structural   Nd9Lu11(Si7Au)2
_chemical_formula_sum   'Nd9 Lu11 Si14 Au2'
_cell_volume   848.62949139
_cell_formula_units_Z   1
loop_
 _symmetry_equiv_pos_site_id
 _symmetry_equiv_pos_as_xyz
  1  'x, y, z'
loop_
 _atom_site_type_symbol
 _atom_site_label
 _atom_site_symmetry_multiplicity
 _atom_site_fract_x
 _atom_site_fract_y
 _atom_site_fract_z
 _atom_site_occupancy
  Nd  Nd0  1  0.013399  0.851094  0.130683  1
  Nd  Nd1  1  0.644700  0.994245  0.463316  1
  Nd  Nd2  1  0.356371  0.005381  0.958647  1
  Nd  Nd3  1  0.986100  0.641620  0.539003  1
  Nd  Nd4  1  0.490057  0.847298  0.213473  1
  Nd  Nd5  1  0.510378  0.151735  0.712464  1
  Nd  Nd6  1  0.856324  0.499232  0.788920  1
  Nd  Nd7  1  0.141033  0.501032  0.292908  1
  Nd  Nd8  1  0.014259  0.357765  0.038159  1
  Lu  Lu9  1  0.491274  0.358779  0.121887  1
  Lu  Lu10  1  0.989745  0.149721  0.629964  1
  Lu  Lu11  1  0.861239  0.011096  0.873218  1
  Lu  Lu12  1  0.138351  0.989055  0.375352  1
  Lu  Lu13  1  0.507873  0.641686  0.622040  1
  Lu  Lu14  1  0.362816  0.498099  0.872820  1
  Lu  Lu15  1  0.639201  0.500707  0.378208  1
  Lu  Lu16  1  0.312422  0.319693  0.500297  1
  Lu  Lu17  1  0.182800  0.827120  0.748335  1
  Lu  Lu18  1  0.813345  0.174754  0.251240  1
  Lu  Lu19  1  0.688371  0.677303  0.998741  1
  Si  Si20  1  0.937421  0.289962  0.437990  1
  Si  Si21  1  0.436892  0.207613  0.312495  1
  Si  Si22  1  0.565132  0.792510  0.809746  1
  Si  Si23  1  0.210823  0.443171  0.687425  1
  Si  Si24  1  0.785141  0.551618  0.190621  1
  Si  Si25  1  0.064854  0.707076  0.933152  1
  Si  Si26  1  0.792799  0.856014  0.685569  1
  Si  Si27  1  0.209378  0.151278  0.190599  1
  Si  Si28  1  0.845350  0.789067  0.318620  1
  Si  Si29  1  0.352080  0.698858  0.434786  1
  Si  Si30  1  0.649017  0.301725  0.932146  1
  Si  Si31  1  0.703876  0.352991  0.562435  1
  Si  Si32  1  0.304189  0.645846  0.055190  1
  Si  Si33  1  0.150730  0.210681  0.813179  1
  Au  Au34  1  0.282621  0.941924  0.563716  1
  Au  Au35  1  0.709640  0.062245  0.062659  1
