# generated using pymatgen
data_RbDy6(CBr6)2
_symmetry_space_group_name_H-M   'P 1'
_cell_length_a   8.89557471
_cell_length_b   8.87495775
_cell_length_c   9.40976566
_cell_angle_alpha   72.20401215
_cell_angle_beta   70.82255496
_cell_angle_gamma   72.71924318
_symmetry_Int_Tables_number   1
_chemical_formula_structural   RbDy6(CBr6)2
_chemical_formula_sum   'Rb1 Dy6 C2 Br12'
_cell_volume   651.91248780
_cell_formula_units_Z   1
loop_
 _symmetry_equiv_pos_site_id
 _symmetry_equiv_pos_as_xyz
  1  'x, y, z'
loop_
 _atom_site_type_symbol
 _atom_site_label
 _atom_site_symmetry_multiplicity
 _atom_site_fract_x
 _atom_site_fract_y
 _atom_site_fract_z
 _atom_site_occupancy
  Rb  Rb0  1  0.000000  0.500000  0.999999  1
  Dy  Dy1  1  0.475476  0.115475  0.182551  1
  Dy  Dy2  1  0.777325  0.032146  0.407012  1
  Dy  Dy3  1  0.592938  0.725325  0.476532  1
  Dy  Dy4  1  0.407063  0.274675  0.523468  1
  Dy  Dy5  1  0.222676  0.967854  0.592988  1
  Dy  Dy6  1  0.524524  0.884525  0.817449  1
  C  C7  1  0.493148  0.026117  0.422225  1
  C  C8  1  0.506853  0.973884  0.577775  1
  Br  Br9  1  0.798794  0.158672  0.082481  1
  Br  Br10  1  0.585356  0.783580  0.140903  1
  Br  Br11  1  0.351711  0.432733  0.223272  1
  Br  Br12  1  0.136148  0.069426  0.296048  1
  Br  Br13  1  0.923073  0.721200  0.355147  1
  Br  Br14  1  0.713816  0.364810  0.431112  1
  Br  Br15  1  0.286184  0.635190  0.568889  1
  Br  Br16  1  0.076927  0.278799  0.644854  1
  Br  Br17  1  0.863852  0.930574  0.703952  1
  Br  Br18  1  0.648288  0.567267  0.776728  1
  Br  Br19  1  0.414644  0.216419  0.859097  1
  Br  Br20  1  0.201206  0.841327  0.917519  1
