# generated using pymatgen
data_Hf6Zn22GePd
_symmetry_space_group_name_H-M   'P 1'
_cell_length_a   8.73826607
_cell_length_b   8.73826550
_cell_length_c   8.73826700
_cell_angle_alpha   60.00000568
_cell_angle_beta   60.00000784
_cell_angle_gamma   59.99999870
_symmetry_Int_Tables_number   1
_chemical_formula_structural   Hf6Zn22GePd
_chemical_formula_sum   'Hf6 Zn22 Ge1 Pd1'
_cell_volume   471.80316859
_cell_formula_units_Z   1
loop_
 _symmetry_equiv_pos_site_id
 _symmetry_equiv_pos_as_xyz
  1  'x, y, z'
loop_
 _atom_site_type_symbol
 _atom_site_label
 _atom_site_symmetry_multiplicity
 _atom_site_fract_x
 _atom_site_fract_y
 _atom_site_fract_z
 _atom_site_occupancy
  Hf  Hf0  1  0.713696  0.286304  0.286304  1
  Hf  Hf1  1  0.286304  0.713696  0.713696  1
  Hf  Hf2  1  0.286304  0.713696  0.286304  1
  Hf  Hf3  1  0.713696  0.286304  0.713696  1
  Hf  Hf4  1  0.286304  0.286304  0.713696  1
  Hf  Hf5  1  0.713696  0.713696  0.286304  1
  Zn  Zn6  1  0.122553  0.122553  0.122553  1
  Zn  Zn7  1  0.877447  0.877447  0.877447  1
  Zn  Zn8  1  0.122553  0.122553  0.632340  1
  Zn  Zn9  1  0.122553  0.632340  0.122553  1
  Zn  Zn10  1  0.877447  0.877447  0.367660  1
  Zn  Zn11  1  0.877447  0.367660  0.877447  1
  Zn  Zn12  1  0.632340  0.122553  0.122553  1
  Zn  Zn13  1  0.367660  0.877447  0.877447  1
  Zn  Zn14  1  0.500000  0.000000  0.000000  1
  Zn  Zn15  1  0.000000  0.500000  0.500000  1
  Zn  Zn16  1  0.000000  0.500000  0.000000  1
  Zn  Zn17  1  0.500000  0.000000  0.500000  1
  Zn  Zn18  1  0.000000  0.000000  0.500000  1
  Zn  Zn19  1  0.500000  0.500000  0.000000  1
  Zn  Zn20  1  0.337588  0.337588  0.337588  1
  Zn  Zn21  1  0.662412  0.662412  0.662412  1
  Zn  Zn22  1  0.337588  0.337588  0.987237  1
  Zn  Zn23  1  0.337588  0.987237  0.337588  1
  Zn  Zn24  1  0.662412  0.662412  0.012763  1
  Zn  Zn25  1  0.662412  0.012763  0.662412  1
  Zn  Zn26  1  0.987237  0.337588  0.337588  1
  Zn  Zn27  1  0.012763  0.662412  0.662412  1
  Ge  Ge28  1  0.500000  0.500000  0.500000  1
  Pd  Pd29  1  0.000000  0.000000  0.000000  1
