# generated using pymatgen
data_Y3Mg3Hg2Bi
_symmetry_space_group_name_H-M   'P 1'
_cell_length_a   7.57246200
_cell_length_b   7.57246247
_cell_length_c   4.57599500
_cell_angle_alpha   90.00000000
_cell_angle_beta   90.00000000
_cell_angle_gamma   119.99999796
_symmetry_Int_Tables_number   1
_chemical_formula_structural   Y3Mg3Hg2Bi
_chemical_formula_sum   'Y3 Mg3 Hg2 Bi1'
_cell_volume   227.24294759
_cell_formula_units_Z   1
loop_
 _symmetry_equiv_pos_site_id
 _symmetry_equiv_pos_as_xyz
  1  'x, y, z'
loop_
 _atom_site_type_symbol
 _atom_site_label
 _atom_site_symmetry_multiplicity
 _atom_site_fract_x
 _atom_site_fract_y
 _atom_site_fract_z
 _atom_site_occupancy
  Y  Y0  1  0.411435  0.983615  0.000000  1
  Y  Y1  1  0.016385  0.427820  0.000000  1
  Y  Y2  1  0.572179  0.588565  0.000000  1
  Mg  Mg3  1  0.753250  0.982916  0.500000  1
  Mg  Mg4  1  0.229666  0.246751  0.500000  1
  Mg  Mg5  1  0.017084  0.770334  0.500000  1
  Hg  Hg6  1  0.000000  0.000000  0.000000  1
  Hg  Hg7  1  0.333334  0.666667  0.500000  1
  Bi  Bi8  1  0.666666  0.333333  0.500000  1
