# generated using pymatgen
data_Li3Y3Np2O12
_symmetry_space_group_name_H-M   'P 1'
_cell_length_a   10.94342802
_cell_length_b   10.94342853
_cell_length_c   10.94342800
_cell_angle_alpha   109.47121781
_cell_angle_beta   109.47121875
_cell_angle_gamma   109.47122419
_symmetry_Int_Tables_number   1
_chemical_formula_structural   Li3Y3Np2O12
_chemical_formula_sum   'Li12 Y12 Np8 O48'
_cell_volume   1008.87716381
_cell_formula_units_Z   4
loop_
 _symmetry_equiv_pos_site_id
 _symmetry_equiv_pos_as_xyz
  1  'x, y, z'
loop_
 _atom_site_type_symbol
 _atom_site_label
 _atom_site_symmetry_multiplicity
 _atom_site_fract_x
 _atom_site_fract_y
 _atom_site_fract_z
 _atom_site_occupancy
  Li  Li0  1  0.750000  0.375000  0.125000  1
  Li  Li1  1  0.875000  0.750000  0.125000  1
  Li  Li2  1  0.125000  0.374999  0.250000  1
  Li  Li3  1  0.625000  0.875000  0.250000  1
  Li  Li4  1  0.250000  0.125000  0.374999  1
  Li  Li5  1  0.625000  0.250000  0.375000  1
  Li  Li6  1  0.374999  0.750000  0.625000  1
  Li  Li7  1  0.750000  0.875000  0.625000  1
  Li  Li8  1  0.375000  0.125000  0.750000  1
  Li  Li9  1  0.875000  0.625000  0.750000  1
  Li  Li10  1  0.250000  0.625000  0.875000  1
  Li  Li11  1  0.125001  0.250000  0.875000  1
  Y  Y12  1  0.374999  0.250000  0.125000  1
  Y  Y13  1  0.250000  0.875000  0.125001  1
  Y  Y14  1  0.375000  0.625000  0.250000  1
  Y  Y15  1  0.875000  0.125001  0.250000  1
  Y  Y16  1  0.750000  0.625000  0.374999  1
  Y  Y17  1  0.125000  0.750000  0.375000  1
  Y  Y18  1  0.875000  0.250000  0.625000  1
  Y  Y19  1  0.250000  0.375000  0.625000  1
  Y  Y20  1  0.625000  0.374999  0.750000  1
  Y  Y21  1  0.125000  0.875000  0.750000  1
  Y  Y22  1  0.750000  0.125000  0.875000  1
  Y  Y23  1  0.625000  0.750000  0.875000  1
  Np  Np24  1  0.000000  0.000000  0.000000  1
  Np  Np25  1  0.499999  0.000000  0.000000  1
  Np  Np26  1  0.000000  0.499999  0.000000  1
  Np  Np27  1  0.500000  0.500000  0.000000  1
  Np  Np28  1  0.000000  0.000000  0.499999  1
  Np  Np29  1  0.499999  0.499999  0.499999  1
  Np  Np30  1  0.500000  0.000000  0.500000  1
  Np  Np31  1  0.000000  0.500000  0.500000  1
  O  O32  1  0.209610  0.626114  0.033570  1
  O  O33  1  0.323960  0.407456  0.033571  1
  O  O34  1  0.709610  0.176040  0.083496  1
  O  O35  1  0.873885  0.907456  0.083496  1
  O  O36  1  0.626114  0.916504  0.092544  1
  O  O37  1  0.966429  0.176040  0.092544  1
  O  O38  1  0.033570  0.709610  0.126114  1
  O  O39  1  0.592544  0.416504  0.126115  1
  O  O40  1  0.209611  0.083496  0.176040  1
  O  O41  1  0.466430  0.092544  0.176040  1
  O  O42  1  0.126114  0.533570  0.209610  1
  O  O43  1  0.583496  0.676040  0.209611  1
  O  O44  1  0.466429  0.873885  0.290389  1
  O  O45  1  0.323960  0.416504  0.290390  1
  O  O46  1  0.907456  0.533571  0.323960  1
  O  O47  1  0.916504  0.790390  0.323960  1
  O  O48  1  0.290389  0.966429  0.373885  1
  O  O49  1  0.583496  0.407456  0.373886  1
  O  O50  1  0.823960  0.033570  0.407456  1
  O  O51  1  0.083496  0.373885  0.407456  1
  O  O52  1  0.823960  0.290389  0.416504  1
  O  O53  1  0.092544  0.126114  0.416504  1
  O  O54  1  0.373885  0.790389  0.466429  1
  O  O55  1  0.592544  0.676040  0.466430  1
  O  O56  1  0.407456  0.323960  0.533570  1
  O  O57  1  0.626115  0.209611  0.533571  1
  O  O58  1  0.176040  0.709611  0.583496  1
  O  O59  1  0.907456  0.873886  0.583496  1
  O  O60  1  0.916504  0.626115  0.592544  1
  O  O61  1  0.176040  0.966430  0.592544  1
  O  O62  1  0.709610  0.033571  0.626114  1
  O  O63  1  0.416504  0.592544  0.626114  1
  O  O64  1  0.092544  0.466429  0.676040  1
  O  O65  1  0.083496  0.209610  0.676040  1
  O  O66  1  0.676040  0.583496  0.709610  1
  O  O67  1  0.533571  0.126115  0.709611  1
  O  O68  1  0.416504  0.323960  0.790389  1
  O  O69  1  0.873886  0.466430  0.790390  1
  O  O70  1  0.790389  0.916504  0.823960  1
  O  O71  1  0.533570  0.907456  0.823960  1
  O  O72  1  0.407456  0.583496  0.873885  1
  O  O73  1  0.966429  0.290390  0.873885  1
  O  O74  1  0.373886  0.083496  0.907456  1
  O  O75  1  0.033571  0.823960  0.907456  1
  O  O76  1  0.126115  0.092544  0.916504  1
  O  O77  1  0.290390  0.823960  0.916504  1
  O  O78  1  0.676040  0.592544  0.966429  1
  O  O79  1  0.790390  0.373886  0.966430  1
